MODEL 1
REMARK VINA RESULT:     -11.9      0.000      0.000
REMARK SMILES Cc1nccn1C1(C(=O)OCCOCCOCCOCCOC(=O)c2ccc(-c3c4nc(c(-c5c(F)cccc5F)c5ccc([nH]5)c(-c5c(F)cccc5F)c5nc(c(-c6c(F)cccc6F)c6ccc3[nH]6)C=C5)C=C4)cc2)CCN(C(=O)[C@@H]2C[C@H]2c2ccccc2)CC1
REMARK SMILES IDX 16 1 15 2 14 3 13 4 12 5 11 6 10 7 8 8 9 9 7 10 79 11 94 12
REMARK SMILES IDX 80 13 93 14 81 15 82 16 83 17 6 18 1 19 2 20 3 21 4 22 5 23
REMARK SMILES IDX 84 24 85 25 86 26 87 27 88 28 92 29 89 30 91 31 90 32 17 33
REMARK SMILES IDX 18 34 19 35 20 36 21 37 22 38 23 39 24 40 25 41 26 42 78 43
REMARK SMILES IDX 27 44 77 45 28 46 29 47 30 48 71 49 31 50 76 51 70 52 72 53
REMARK SMILES IDX 32 54 75 55 69 56 68 57 33 59 59 60 42 61 58 62 43 63 46 64
REMARK SMILES IDX 57 65 73 66 44 67 45 68 56 70 74 71 47 72 34 73 35 74 40 75
REMARK SMILES IDX 36 76 37 77 39 78 41 79 38 80 60 81 61 82 66 83 62 84 63 85
REMARK SMILES IDX 65 86 67 87 64 88 48 89 49 90 54 91 50 92 51 93 53 94 55 95
REMARK SMILES IDX 52 96
REMARK H PARENT 72 58 46 69
REMARK Flexibility Score: inf
ROOT
ATOM      1  O   UNL A   1      37.348  22.405  24.999  1.00  0.00    -0.377 OA
ENDROOT
BRANCH   1   2
ATOM      2  C   UNL A   1      36.641  22.982  26.077  1.00  0.00     0.188 C 
BRANCH   2   3
ATOM      3  C   UNL A   1      35.247  22.384  26.345  1.00  0.00     0.188 C 
BRANCH   3   4
ATOM      4  O   UNL A   1      34.192  23.173  26.879  1.00  0.00    -0.376 OA
BRANCH   4   5
ATOM      5  C   UNL A   1      32.968  22.561  27.250  1.00  0.00     0.202 C 
BRANCH   5   6
ATOM      6  C   UNL A   1      31.633  23.161  26.769  1.00  0.00     0.261 C 
BRANCH   6   7
ATOM      7  O   UNL A   1      31.303  24.477  27.264  1.00  0.00    -0.461 OA
BRANCH   7   8
ATOM      8  C   UNL A   1      30.601  25.291  26.431  1.00  0.00     0.332 C 
ATOM      9  O   UNL A   1      29.419  25.571  26.625  1.00  0.00    -0.249 OA
BRANCH   8  10
ATOM     10  C   UNL A   1      31.397  25.784  25.153  1.00  0.00     0.146 C 
ATOM     11  C   UNL A   1      32.947  25.678  25.327  1.00  0.00     0.062 C 
ATOM     12  C   UNL A   1      30.892  24.725  24.141  1.00  0.00     0.062 C 
ATOM     13  C   UNL A   1      33.782  25.283  24.110  1.00  0.00     0.122 C 
ATOM     14  C   UNL A   1      31.771  24.560  22.926  1.00  0.00     0.122 C 
ATOM     15  N   UNL A   1      33.126  24.253  23.327  1.00  0.00    -0.342 N 
ATOM     16  C   UNL A   1      33.899  23.207  22.836  1.00  0.00     0.226 C 
ATOM     17  O   UNL A   1      35.114  23.320  22.696  1.00  0.00    -0.275 OA
BRANCH  10  18
ATOM     18  N   UNL A   1      31.015  27.203  24.852  1.00  0.00    -0.318 N 
ATOM     19  C   UNL A   1      28.750  27.183  23.545  1.00  0.00     0.087 C 
ATOM     20  C   UNL A   1      30.029  27.754  24.029  1.00  0.00     0.106 A 
ATOM     21  N   UNL A   1      30.297  29.016  23.745  1.00  0.00    -0.242 NA
ATOM     22  C   UNL A   1      31.361  29.368  24.494  1.00  0.00     0.131 A 
ATOM     23  C   UNL A   1      31.786  28.295  25.226  1.00  0.00     0.108 A 
ENDBRANCH  10  18
BRANCH  16  24
ATOM     24  C   UNL A   1      33.318  21.847  22.643  1.00  0.00     0.087 C 
ATOM     25  C   UNL A   1      31.844  21.556  22.631  1.00  0.00     0.023 C 
ATOM     26  C   UNL A   1      32.709  20.987  23.723  1.00  0.00     0.032 C 
BRANCH  26  27
ATOM     27  C   UNL A   1      33.104  19.554  23.884  1.00  0.00    -0.044 A 
ATOM     28  C   UNL A   1      34.274  19.222  24.582  1.00  0.00     0.004 A 
ATOM     29  C   UNL A   1      32.478  18.550  23.127  1.00  0.00     0.004 A 
ATOM     30  C   UNL A   1      34.835  17.951  24.475  1.00  0.00     0.000 A 
ATOM     31  C   UNL A   1      33.032  17.276  23.023  1.00  0.00     0.000 A 
ATOM     32  C   UNL A   1      34.223  16.984  23.683  1.00  0.00     0.000 A 
ENDBRANCH  26  27
ENDBRANCH  16  24
ENDBRANCH   8  10
ENDBRANCH   7   8
ENDBRANCH   6   7
ENDBRANCH   5   6
ENDBRANCH   4   5
ENDBRANCH   3   4
ENDBRANCH   2   3
ENDBRANCH   1   2
BRANCH   1  33
ATOM     33  C   UNL A   1      38.244  21.367  25.371  1.00  0.00     0.188 C 
BRANCH  33  34
ATOM     34  C   UNL A   1      39.440  21.741  26.285  1.00  0.00     0.188 C 
BRANCH  34  35
ATOM     35  O   UNL A   1      40.403  20.711  26.482  1.00  0.00    -0.376 OA
BRANCH  35  36
ATOM     36  C   UNL A   1      41.762  20.824  26.088  1.00  0.00     0.202 C 
BRANCH  36  37
ATOM     37  C   UNL A   1      42.546  19.539  25.822  1.00  0.00     0.261 C 
BRANCH  37  38
ATOM     38  O   UNL A   1      43.939  19.745  25.711  1.00  0.00    -0.460 OA
BRANCH  38  39
ATOM     39  C   UNL A   1      44.354  20.076  24.482  1.00  0.00     0.338 C 
ATOM     40  O   UNL A   1      44.347  19.366  23.477  1.00  0.00    -0.246 OA
BRANCH  39  41
ATOM     41  C   UNL A   1      44.946  21.407  24.539  1.00  0.00     0.060 A 
ATOM     42  C   UNL A   1      45.800  21.621  25.618  1.00  0.00     0.016 A 
ATOM     43  C   UNL A   1      44.286  22.445  23.862  1.00  0.00     0.016 A 
ATOM     44  C   UNL A   1      45.683  22.822  26.258  1.00  0.00     0.010 A 
ATOM     45  C   UNL A   1      44.157  23.637  24.513  1.00  0.00     0.010 A 
ATOM     46  C   UNL A   1      44.761  23.750  25.759  1.00  0.00    -0.014 A 
BRANCH  46  47
ATOM     47  C   UNL A   1      44.498  24.908  26.565  1.00  0.00     0.031 A 
ATOM     48  C   UNL A   1      45.596  25.881  26.473  1.00  0.00     0.074 A 
ATOM     49  C   UNL A   1      43.361  25.064  27.261  1.00  0.00     0.049 A 
ATOM     50  N   UNL A   1      46.505  26.113  27.357  1.00  0.00    -0.248 NA
ATOM     51  C   UNL A   1      45.859  26.474  25.153  1.00  0.00     0.031 C 
ATOM     52  C   UNL A   1      42.118  24.291  27.194  1.00  0.00     0.029 A 
ATOM     53  N   UNL A   1      43.064  26.046  28.146  1.00  0.00    -0.354 N 
ATOM     54  C   UNL A   1      47.324  27.072  26.779  1.00  0.00     0.074 A 
ATOM     55  C   UNL A   1      47.029  27.070  25.373  1.00  0.00     0.031 C 
ATOM     56  C   UNL A   1      41.138  24.978  27.831  1.00  0.00     0.029 A 
ATOM     57  C   UNL A   1      41.717  26.154  28.457  1.00  0.00     0.049 A 
ATOM     58  H   UNL A   1      43.750  26.635  28.537  1.00  0.00     0.167 HD
ATOM     59  C   UNL A   1      47.946  27.997  27.555  1.00  0.00     0.037 A 
ATOM     60  C   UNL A   1      41.159  27.209  29.103  1.00  0.00     0.037 A 
ATOM     61  C   UNL A   1      48.016  27.562  28.929  1.00  0.00     0.049 A 
ATOM     62  C   UNL A   1      42.262  27.933  29.797  1.00  0.00     0.074 A 
ATOM     63  C   UNL A   1      48.563  26.467  29.572  1.00  0.00     0.029 A 
ATOM     64  N   UNL A   1      47.120  28.106  29.818  1.00  0.00    -0.354 N 
ATOM     65  N   UNL A   1      42.912  27.452  30.820  1.00  0.00    -0.248 NA
ATOM     66  C   UNL A   1      42.953  28.980  29.057  1.00  0.00     0.031 C 
ATOM     67  C   UNL A   1      47.638  26.139  30.605  1.00  0.00     0.029 A 
ATOM     68  C   UNL A   1      46.609  27.081  30.574  1.00  0.00     0.049 A 
ATOM     69  H   UNL A   1      46.887  29.059  29.898  1.00  0.00     0.167 HD
ATOM     70  C   UNL A   1      44.234  27.818  30.607  1.00  0.00     0.074 A 
ATOM     71  C   UNL A   1      44.186  28.821  29.545  1.00  0.00     0.031 C 
ATOM     72  C   UNL A   1      45.263  27.064  31.094  1.00  0.00     0.037 A 
BRANCH  59  73
ATOM     73  C   UNL A   1      48.085  29.442  27.145  1.00  0.00     0.057 A 
ATOM     74  C   UNL A   1      49.342  30.055  27.271  1.00  0.00     0.134 A 
ATOM     75  C   UNL A   1      47.009  30.327  26.918  1.00  0.00     0.134 A 
ATOM     76  F   UNL A   1      50.445  29.325  27.499  1.00  0.00    -0.206 F 
ATOM     77  C   UNL A   1      49.500  31.445  27.259  1.00  0.00     0.040 A 
ATOM     78  C   UNL A   1      47.164  31.712  26.849  1.00  0.00     0.040 A 
ATOM     79  F   UNL A   1      45.735  29.926  26.850  1.00  0.00    -0.206 F 
ATOM     80  C   UNL A   1      48.408  32.279  27.057  1.00  0.00     0.006 A 
ENDBRANCH  59  73
BRANCH  60  81
ATOM     81  C   UNL A   1      39.837  27.839  28.879  1.00  0.00     0.057 A 
ATOM     82  C   UNL A   1      38.902  27.920  29.922  1.00  0.00     0.134 A 
ATOM     83  C   UNL A   1      39.571  28.633  27.751  1.00  0.00     0.134 A 
ATOM     84  F   UNL A   1      39.084  27.227  31.056  1.00  0.00    -0.206 F 
ATOM     85  C   UNL A   1      37.792  28.773  29.865  1.00  0.00     0.040 A 
ATOM     86  C   UNL A   1      38.462  29.481  27.676  1.00  0.00     0.040 A 
ATOM     87  F   UNL A   1      40.426  28.684  26.719  1.00  0.00    -0.206 F 
ATOM     88  C   UNL A   1      37.578  29.569  28.744  1.00  0.00     0.006 A 
ENDBRANCH  60  81
BRANCH  72  89
ATOM     89  C   UNL A   1      44.928  25.972  32.074  1.00  0.00     0.057 A 
ATOM     90  C   UNL A   1      44.773  26.175  33.455  1.00  0.00     0.134 A 
ATOM     91  C   UNL A   1      44.607  24.703  31.581  1.00  0.00     0.134 A 
ATOM     92  F   UNL A   1      44.962  27.381  34.005  1.00  0.00    -0.206 F 
ATOM     93  C   UNL A   1      44.358  25.147  34.308  1.00  0.00     0.040 A 
ATOM     94  C   UNL A   1      44.158  23.680  32.416  1.00  0.00     0.040 A 
ATOM     95  F   UNL A   1      44.679  24.454  30.264  1.00  0.00    -0.206 F 
ATOM     96  C   UNL A   1      44.042  23.896  33.787  1.00  0.00     0.006 A 
ENDBRANCH  72  89
ENDBRANCH  46  47
ENDBRANCH  39  41
ENDBRANCH  38  39
ENDBRANCH  37  38
ENDBRANCH  36  37
ENDBRANCH  35  36
ENDBRANCH  34  35
ENDBRANCH  33  34
ENDBRANCH   1  33
TORSDOF 23
ENDMDL
MODEL 2
REMARK VINA RESULT:     -11.6      1.031      2.301
REMARK SMILES Cc1nccn1C1(C(=O)OCCOCCOCCOCCOC(=O)c2ccc(-c3c4nc(c(-c5c(F)cccc5F)c5ccc([nH]5)c(-c5c(F)cccc5F)c5nc(c(-c6c(F)cccc6F)c6ccc3[nH]6)C=C5)C=C4)cc2)CCN(C(=O)[C@@H]2C[C@H]2c2ccccc2)CC1
REMARK SMILES IDX 16 1 15 2 14 3 13 4 12 5 11 6 10 7 8 8 9 9 7 10 79 11 94 12
REMARK SMILES IDX 80 13 93 14 81 15 82 16 83 17 6 18 1 19 2 20 3 21 4 22 5 23
REMARK SMILES IDX 84 24 85 25 86 26 87 27 88 28 92 29 89 30 91 31 90 32 17 33
REMARK SMILES IDX 18 34 19 35 20 36 21 37 22 38 23 39 24 40 25 41 26 42 78 43
REMARK SMILES IDX 27 44 77 45 28 46 29 47 30 48 71 49 31 50 76 51 70 52 72 53
REMARK SMILES IDX 32 54 75 55 69 56 68 57 33 59 59 60 42 61 58 62 43 63 46 64
REMARK SMILES IDX 57 65 73 66 44 67 45 68 56 70 74 71 47 72 34 73 35 74 40 75
REMARK SMILES IDX 36 76 37 77 39 78 41 79 38 80 60 81 61 82 66 83 62 84 63 85
REMARK SMILES IDX 65 86 67 87 64 88 48 89 49 90 54 91 50 92 51 93 53 94 55 95
REMARK SMILES IDX 52 96
REMARK H PARENT 72 58 46 69
REMARK Flexibility Score: inf
ROOT
ATOM      1  O   UNL A   1      37.933  21.739  25.162  1.00  0.00    -0.377 OA
ENDROOT
BRANCH   1   2
ATOM      2  C   UNL A   1      36.944  22.711  24.893  1.00  0.00     0.188 C 
BRANCH   2   3
ATOM      3  C   UNL A   1      36.527  22.835  23.416  1.00  0.00     0.188 C 
BRANCH   3   4
ATOM      4  O   UNL A   1      35.509  23.740  23.006  1.00  0.00    -0.376 OA
BRANCH   4   5
ATOM      5  C   UNL A   1      34.293  23.243  22.474  1.00  0.00     0.202 C 
BRANCH   5   6
ATOM      6  C   UNL A   1      33.241  24.222  21.917  1.00  0.00     0.261 C 
BRANCH   6   7
ATOM      7  O   UNL A   1      33.315  25.584  22.391  1.00  0.00    -0.461 OA
BRANCH   7   8
ATOM      8  C   UNL A   1      32.136  26.228  22.602  1.00  0.00     0.332 C 
ATOM      9  O   UNL A   1      31.432  26.633  21.678  1.00  0.00    -0.249 OA
BRANCH   8  10
ATOM     10  C   UNL A   1      31.781  26.487  24.124  1.00  0.00     0.146 C 
ATOM     11  C   UNL A   1      30.387  25.907  24.528  1.00  0.00     0.062 C 
ATOM     12  C   UNL A   1      32.920  25.662  24.773  1.00  0.00     0.062 C 
ATOM     13  C   UNL A   1      30.235  25.308  25.925  1.00  0.00     0.122 C 
ATOM     14  C   UNL A   1      32.661  25.268  26.206  1.00  0.00     0.122 C 
ATOM     15  N   UNL A   1      31.410  24.549  26.309  1.00  0.00    -0.342 N 
ATOM     16  C   UNL A   1      31.225  23.331  26.951  1.00  0.00     0.226 C 
ATOM     17  O   UNL A   1      30.180  23.069  27.542  1.00  0.00    -0.275 OA
BRANCH  10  18
ATOM     18  N   UNL A   1      31.815  27.963  24.394  1.00  0.00    -0.318 N 
ATOM     19  C   UNL A   1      34.119  28.543  25.487  1.00  0.00     0.087 C 
ATOM     20  C   UNL A   1      32.699  28.762  25.124  1.00  0.00     0.106 A 
ATOM     21  N   UNL A   1      32.146  29.920  25.436  1.00  0.00    -0.242 NA
ATOM     22  C   UNL A   1      30.964  29.977  24.789  1.00  0.00     0.131 A 
ATOM     23  C   UNL A   1      30.762  28.816  24.096  1.00  0.00     0.108 A 
ENDBRANCH  10  18
BRANCH  16  24
ATOM     24  C   UNL A   1      32.207  22.219  26.787  1.00  0.00     0.087 C 
ATOM     25  C   UNL A   1      33.667  22.328  27.127  1.00  0.00     0.023 C 
ATOM     26  C   UNL A   1      33.247  22.114  25.698  1.00  0.00     0.032 C 
BRANCH  26  27
ATOM     27  C   UNL A   1      33.410  20.858  24.906  1.00  0.00    -0.044 A 
ATOM     28  C   UNL A   1      32.331  20.343  24.174  1.00  0.00     0.004 A 
ATOM     29  C   UNL A   1      34.537  20.039  25.089  1.00  0.00     0.004 A 
ATOM     30  C   UNL A   1      32.348  19.033  23.698  1.00  0.00     0.000 A 
ATOM     31  C   UNL A   1      34.560  18.731  24.610  1.00  0.00     0.000 A 
ATOM     32  C   UNL A   1      33.456  18.222  23.931  1.00  0.00     0.000 A 
ENDBRANCH  26  27
ENDBRANCH  16  24
ENDBRANCH   8  10
ENDBRANCH   7   8
ENDBRANCH   6   7
ENDBRANCH   5   6
ENDBRANCH   4   5
ENDBRANCH   3   4
ENDBRANCH   2   3
ENDBRANCH   1   2
BRANCH   1  33
ATOM     33  C   UNL A   1      38.919  22.147  26.100  1.00  0.00     0.188 C 
BRANCH  33  34
ATOM     34  C   UNL A   1      40.320  21.488  26.004  1.00  0.00     0.188 C 
BRANCH  34  35
ATOM     35  O   UNL A   1      40.678  20.654  27.102  1.00  0.00    -0.376 OA
BRANCH  35  36
ATOM     36  C   UNL A   1      41.898  19.933  27.170  1.00  0.00     0.202 C 
BRANCH  36  37
ATOM     37  C   UNL A   1      42.545  19.484  25.859  1.00  0.00     0.261 C 
BRANCH  37  38
ATOM     38  O   UNL A   1      43.918  19.802  25.775  1.00  0.00    -0.460 OA
BRANCH  38  39
ATOM     39  C   UNL A   1      44.341  20.111  24.543  1.00  0.00     0.338 C 
ATOM     40  O   UNL A   1      44.362  19.378  23.555  1.00  0.00    -0.246 OA
BRANCH  39  41
ATOM     41  C   UNL A   1      44.904  21.456  24.574  1.00  0.00     0.060 A 
ATOM     42  C   UNL A   1      45.784  21.697  25.625  1.00  0.00     0.016 A 
ATOM     43  C   UNL A   1      44.199  22.474  23.911  1.00  0.00     0.016 A 
ATOM     44  C   UNL A   1      45.659  22.900  26.261  1.00  0.00     0.010 A 
ATOM     45  C   UNL A   1      44.062  23.668  24.559  1.00  0.00     0.010 A 
ATOM     46  C   UNL A   1      44.700  23.803  25.785  1.00  0.00    -0.014 A 
BRANCH  46  47
ATOM     47  C   UNL A   1      44.435  24.960  26.592  1.00  0.00     0.031 A 
ATOM     48  C   UNL A   1      45.527  25.938  26.493  1.00  0.00     0.074 A 
ATOM     49  C   UNL A   1      43.300  25.109  27.294  1.00  0.00     0.049 A 
ATOM     50  N   UNL A   1      46.439  26.177  27.373  1.00  0.00    -0.248 NA
ATOM     51  C   UNL A   1      45.779  26.532  25.172  1.00  0.00     0.031 C 
ATOM     52  C   UNL A   1      42.062  24.329  27.233  1.00  0.00     0.029 A 
ATOM     53  N   UNL A   1      43.003  26.090  28.180  1.00  0.00    -0.354 N 
ATOM     54  C   UNL A   1      47.250  27.139  26.791  1.00  0.00     0.074 A 
ATOM     55  C   UNL A   1      46.948  27.135  25.386  1.00  0.00     0.031 C 
ATOM     56  C   UNL A   1      41.082  25.011  27.875  1.00  0.00     0.029 A 
ATOM     57  C   UNL A   1      41.657  26.191  28.497  1.00  0.00     0.049 A 
ATOM     58  H   UNL A   1      43.687  26.683  28.567  1.00  0.00     0.167 HD
ATOM     59  C   UNL A   1      47.870  28.069  27.562  1.00  0.00     0.037 A 
ATOM     60  C   UNL A   1      41.096  27.242  29.145  1.00  0.00     0.037 A 
ATOM     61  C   UNL A   1      47.949  27.635  28.936  1.00  0.00     0.049 A 
ATOM     62  C   UNL A   1      42.198  27.973  29.834  1.00  0.00     0.074 A 
ATOM     63  C   UNL A   1      48.506  26.544  29.577  1.00  0.00     0.029 A 
ATOM     64  N   UNL A   1      47.055  28.174  29.830  1.00  0.00    -0.354 N 
ATOM     65  N   UNL A   1      42.856  27.497  30.853  1.00  0.00    -0.248 NA
ATOM     66  C   UNL A   1      42.880  29.024  29.089  1.00  0.00     0.031 C 
ATOM     67  C   UNL A   1      47.588  26.210  30.615  1.00  0.00     0.029 A 
ATOM     68  C   UNL A   1      46.554  27.146  30.589  1.00  0.00     0.049 A 
ATOM     69  H   UNL A   1      46.817  29.125  29.911  1.00  0.00     0.167 HD
ATOM     70  C   UNL A   1      44.175  27.870  30.633  1.00  0.00     0.074 A 
ATOM     71  C   UNL A   1      44.116  28.872  29.571  1.00  0.00     0.031 C 
ATOM     72  C   UNL A   1      45.210  27.122  31.116  1.00  0.00     0.037 A 
BRANCH  59  73
ATOM     73  C   UNL A   1      47.999  29.514  27.152  1.00  0.00     0.057 A 
ATOM     74  C   UNL A   1      49.254  30.134  27.268  1.00  0.00     0.134 A 
ATOM     75  C   UNL A   1      46.916  30.394  26.932  1.00  0.00     0.134 A 
ATOM     76  F   UNL A   1      50.362  29.409  27.488  1.00  0.00    -0.206 F 
ATOM     77  C   UNL A   1      49.405  31.525  27.255  1.00  0.00     0.040 A 
ATOM     78  C   UNL A   1      47.064  31.779  26.862  1.00  0.00     0.040 A 
ATOM     79  F   UNL A   1      45.644  29.986  26.874  1.00  0.00    -0.206 F 
ATOM     80  C   UNL A   1      48.306  32.352  27.060  1.00  0.00     0.006 A 
ENDBRANCH  59  73
BRANCH  60  81
ATOM     81  C   UNL A   1      39.769  27.865  28.929  1.00  0.00     0.057 A 
ATOM     82  C   UNL A   1      38.859  27.989  29.989  1.00  0.00     0.134 A 
ATOM     83  C   UNL A   1      39.477  28.613  27.775  1.00  0.00     0.134 A 
ATOM     84  F   UNL A   1      39.068  27.342  31.145  1.00  0.00    -0.206 F 
ATOM     85  C   UNL A   1      37.749  28.840  29.924  1.00  0.00     0.040 A 
ATOM     86  C   UNL A   1      38.367  29.459  27.694  1.00  0.00     0.040 A 
ATOM     87  F   UNL A   1      40.306  28.621  26.722  1.00  0.00    -0.206 F 
ATOM     88  C   UNL A   1      37.508  29.591  28.778  1.00  0.00     0.006 A 
ENDBRANCH  60  81
BRANCH  72  89
ATOM     89  C   UNL A   1      44.887  26.029  32.098  1.00  0.00     0.057 A 
ATOM     90  C   UNL A   1      44.526  24.723  31.731  1.00  0.00     0.134 A 
ATOM     91  C   UNL A   1      45.096  26.268  33.461  1.00  0.00     0.134 A 
ATOM     92  F   UNL A   1      44.400  24.374  30.445  1.00  0.00    -0.206 F 
ATOM     93  C   UNL A   1      44.339  23.715  32.683  1.00  0.00     0.040 A 
ATOM     94  C   UNL A   1      44.947  25.263  34.417  1.00  0.00     0.040 A 
ATOM     95  F   UNL A   1      45.497  27.479  33.880  1.00  0.00    -0.206 F 
ATOM     96  C   UNL A   1      44.558  23.983  34.031  1.00  0.00     0.006 A 
ENDBRANCH  72  89
ENDBRANCH  46  47
ENDBRANCH  39  41
ENDBRANCH  38  39
ENDBRANCH  37  38
ENDBRANCH  36  37
ENDBRANCH  35  36
ENDBRANCH  34  35
ENDBRANCH  33  34
ENDBRANCH   1  33
TORSDOF 23
ENDMDL
MODEL 3
REMARK VINA RESULT:     -11.4      3.359      8.076
REMARK SMILES Cc1nccn1C1(C(=O)OCCOCCOCCOCCOC(=O)c2ccc(-c3c4nc(c(-c5c(F)cccc5F)c5ccc([nH]5)c(-c5c(F)cccc5F)c5nc(c(-c6c(F)cccc6F)c6ccc3[nH]6)C=C5)C=C4)cc2)CCN(C(=O)[C@@H]2C[C@H]2c2ccccc2)CC1
REMARK SMILES IDX 16 1 15 2 14 3 13 4 12 5 11 6 10 7 8 8 9 9 7 10 79 11 94 12
REMARK SMILES IDX 80 13 93 14 81 15 82 16 83 17 6 18 1 19 2 20 3 21 4 22 5 23
REMARK SMILES IDX 84 24 85 25 86 26 87 27 88 28 92 29 89 30 91 31 90 32 17 33
REMARK SMILES IDX 18 34 19 35 20 36 21 37 22 38 23 39 24 40 25 41 26 42 78 43
REMARK SMILES IDX 27 44 77 45 28 46 29 47 30 48 71 49 31 50 76 51 70 52 72 53
REMARK SMILES IDX 32 54 75 55 69 56 68 57 33 59 59 60 42 61 58 62 43 63 46 64
REMARK SMILES IDX 57 65 73 66 44 67 45 68 56 70 74 71 47 72 34 73 35 74 40 75
REMARK SMILES IDX 36 76 37 77 39 78 41 79 38 80 60 81 61 82 66 83 62 84 63 85
REMARK SMILES IDX 65 86 67 87 64 88 48 89 49 90 54 91 50 92 51 93 53 94 55 95
REMARK SMILES IDX 52 96
REMARK H PARENT 72 58 46 69
REMARK Flexibility Score: inf
ROOT
ATOM      1  O   UNL A   1      35.299  33.310  27.913  1.00  0.00    -0.377 OA
ENDROOT
BRANCH   1   2
ATOM      2  C   UNL A   1      35.169  31.911  27.766  1.00  0.00     0.188 C 
BRANCH   2   3
ATOM      3  C   UNL A   1      33.723  31.393  27.645  1.00  0.00     0.188 C 
BRANCH   3   4
ATOM      4  O   UNL A   1      33.445  30.012  27.455  1.00  0.00    -0.376 OA
BRANCH   4   5
ATOM      5  C   UNL A   1      32.150  29.601  27.050  1.00  0.00     0.202 C 
BRANCH   5   6
ATOM      6  C   UNL A   1      31.635  28.199  27.432  1.00  0.00     0.261 C 
BRANCH   6   7
ATOM      7  O   UNL A   1      31.003  27.438  26.381  1.00  0.00    -0.461 OA
BRANCH   7   8
ATOM      8  C   UNL A   1      31.432  26.160  26.201  1.00  0.00     0.332 C 
ATOM      9  O   UNL A   1      31.092  25.240  26.943  1.00  0.00    -0.249 OA
BRANCH   8  10
ATOM     10  C   UNL A   1      32.463  25.964  25.015  1.00  0.00     0.146 C 
ATOM     11  C   UNL A   1      33.876  25.513  25.508  1.00  0.00     0.062 C 
ATOM     12  C   UNL A   1      31.752  24.803  24.276  1.00  0.00     0.062 C 
ATOM     13  C   UNL A   1      34.658  24.525  24.644  1.00  0.00     0.122 C 
ATOM     14  C   UNL A   1      32.647  24.012  23.355  1.00  0.00     0.122 C 
ATOM     15  N   UNL A   1      33.791  23.507  24.083  1.00  0.00    -0.342 N 
ATOM     16  C   UNL A   1      34.240  22.191  24.076  1.00  0.00     0.226 C 
ATOM     17  O   UNL A   1      35.436  21.922  24.147  1.00  0.00    -0.275 OA
BRANCH  10  18
ATOM     18  N   UNL A   1      32.579  27.248  24.245  1.00  0.00    -0.318 N 
ATOM     19  C   UNL A   1      30.301  27.689  23.039  1.00  0.00     0.087 C 
ATOM     20  C   UNL A   1      31.753  27.846  23.290  1.00  0.00     0.106 A 
ATOM     21  N   UNL A   1      32.415  28.747  22.587  1.00  0.00    -0.242 NA
ATOM     22  C   UNL A   1      33.627  28.880  23.163  1.00  0.00     0.131 A 
ATOM     23  C   UNL A   1      33.734  28.016  24.216  1.00  0.00     0.108 A 
ENDBRANCH  10  18
BRANCH  16  24
ATOM     24  C   UNL A   1      33.281  21.053  24.178  1.00  0.00     0.087 C 
ATOM     25  C   UNL A   1      32.147  20.993  25.163  1.00  0.00     0.023 C 
ATOM     26  C   UNL A   1      33.274  20.000  25.259  1.00  0.00     0.032 C 
BRANCH  26  27
ATOM     27  C   UNL A   1      33.204  18.546  24.920  1.00  0.00    -0.044 A 
ATOM     28  C   UNL A   1      32.544  17.655  25.777  1.00  0.00     0.004 A 
ATOM     29  C   UNL A   1      34.011  18.010  23.902  1.00  0.00     0.004 A 
ATOM     30  C   UNL A   1      32.734  16.279  25.665  1.00  0.00     0.000 A 
ATOM     31  C   UNL A   1      34.198  16.635  23.783  1.00  0.00     0.000 A 
ATOM     32  C   UNL A   1      33.575  15.770  24.679  1.00  0.00     0.000 A 
ENDBRANCH  26  27
ENDBRANCH  16  24
ENDBRANCH   8  10
ENDBRANCH   7   8
ENDBRANCH   6   7
ENDBRANCH   5   6
ENDBRANCH   4   5
ENDBRANCH   3   4
ENDBRANCH   2   3
ENDBRANCH   1   2
BRANCH   1  33
ATOM     33  C   UNL A   1      34.066  34.010  28.000  1.00  0.00     0.188 C 
BRANCH  33  34
ATOM     34  C   UNL A   1      33.909  35.053  29.137  1.00  0.00     0.188 C 
BRANCH  34  35
ATOM     35  O   UNL A   1      33.370  34.550  30.356  1.00  0.00    -0.376 OA
BRANCH  35  36
ATOM     36  C   UNL A   1      33.900  34.865  31.634  1.00  0.00     0.202 C 
BRANCH  36  37
ATOM     37  C   UNL A   1      34.732  33.801  32.352  1.00  0.00     0.261 C 
BRANCH  37  38
ATOM     38  O   UNL A   1      34.994  32.664  31.556  1.00  0.00    -0.460 OA
BRANCH  38  39
ATOM     39  C   UNL A   1      35.967  31.872  32.025  1.00  0.00     0.338 C 
ATOM     40  O   UNL A   1      36.286  31.699  33.201  1.00  0.00    -0.246 OA
BRANCH  39  41
ATOM     41  C   UNL A   1      36.695  31.318  30.890  1.00  0.00     0.060 A 
ATOM     42  C   UNL A   1      36.523  29.950  30.697  1.00  0.00     0.016 A 
ATOM     43  C   UNL A   1      37.813  32.027  30.422  1.00  0.00     0.016 A 
ATOM     44  C   UNL A   1      37.643  29.233  30.386  1.00  0.00     0.010 A 
ATOM     45  C   UNL A   1      38.935  31.307  30.130  1.00  0.00     0.010 A 
ATOM     46  C   UNL A   1      38.852  29.925  30.242  1.00  0.00    -0.014 A 
BRANCH  46  47
ATOM     47  C   UNL A   1      40.047  29.138  30.131  1.00  0.00     0.031 A 
ATOM     48  C   UNL A   1      40.681  28.946  31.443  1.00  0.00     0.074 A 
ATOM     49  C   UNL A   1      40.470  28.622  28.966  1.00  0.00     0.049 A 
ATOM     50  N   UNL A   1      41.735  29.538  31.891  1.00  0.00    -0.248 NA
ATOM     51  C   UNL A   1      39.914  28.208  32.458  1.00  0.00     0.031 C 
ATOM     52  C   UNL A   1      39.769  28.529  27.684  1.00  0.00     0.029 A 
ATOM     53  N   UNL A   1      41.637  27.978  28.726  1.00  0.00    -0.354 N 
ATOM     54  C   UNL A   1      41.893  29.053  33.181  1.00  0.00     0.074 A 
ATOM     55  C   UNL A   1      40.642  28.448  33.547  1.00  0.00     0.031 C 
ATOM     56  C   UNL A   1      40.437  27.666  26.879  1.00  0.00     0.029 A 
ATOM     57  C   UNL A   1      41.667  27.263  27.538  1.00  0.00     0.049 A 
ATOM     58  H   UNL A   1      42.402  28.015  29.344  1.00  0.00     0.167 HD
ATOM     59  C   UNL A   1      43.135  28.915  33.712  1.00  0.00     0.037 A 
ATOM     60  C   UNL A   1      42.613  26.345  27.217  1.00  0.00     0.037 A 
ATOM     61  C   UNL A   1      44.096  29.728  33.006  1.00  0.00     0.049 A 
ATOM     62  C   UNL A   1      43.789  26.599  28.095  1.00  0.00     0.074 A 
ATOM     63  C   UNL A   1      44.215  31.081  32.747  1.00  0.00     0.029 A 
ATOM     64  N   UNL A   1      44.924  29.102  32.106  1.00  0.00    -0.354 N 
ATOM     65  N   UNL A   1      44.554  27.650  27.995  1.00  0.00    -0.248 NA
ATOM     66  C   UNL A   1      43.827  25.924  29.386  1.00  0.00     0.031 C 
ATOM     67  C   UNL A   1      44.729  31.164  31.420  1.00  0.00     0.029 A 
ATOM     68  C   UNL A   1      44.948  29.864  30.964  1.00  0.00     0.049 A 
ATOM     69  H   UNL A   1      45.411  28.261  32.253  1.00  0.00     0.167 HD
ATOM     70  C   UNL A   1      44.835  28.015  29.305  1.00  0.00     0.074 A 
ATOM     71  C   UNL A   1      44.422  26.870  30.116  1.00  0.00     0.031 C 
ATOM     72  C   UNL A   1      45.094  29.313  29.637  1.00  0.00     0.037 A 
BRANCH  59  73
ATOM     73  C   UNL A   1      43.530  27.737  34.566  1.00  0.00     0.057 A 
ATOM     74  C   UNL A   1      43.509  26.456  33.990  1.00  0.00     0.134 A 
ATOM     75  C   UNL A   1      43.643  27.757  35.973  1.00  0.00     0.134 A 
ATOM     76  F   UNL A   1      43.395  26.300  32.662  1.00  0.00    -0.206 F 
ATOM     77  C   UNL A   1      43.511  25.289  34.762  1.00  0.00     0.040 A 
ATOM     78  C   UNL A   1      43.702  26.599  36.748  1.00  0.00     0.040 A 
ATOM     79  F   UNL A   1      43.601  28.883  36.693  1.00  0.00    -0.206 F 
ATOM     80  C   UNL A   1      43.599  25.359  36.146  1.00  0.00     0.006 A 
ENDBRANCH  59  73
BRANCH  60  81
ATOM     81  C   UNL A   1      42.454  25.068  26.483  1.00  0.00     0.057 A 
ATOM     82  C   UNL A   1      43.297  24.755  25.406  1.00  0.00     0.134 A 
ATOM     83  C   UNL A   1      41.688  24.006  26.994  1.00  0.00     0.134 A 
ATOM     84  F   UNL A   1      44.093  25.692  24.870  1.00  0.00    -0.206 F 
ATOM     85  C   UNL A   1      43.406  23.455  24.896  1.00  0.00     0.040 A 
ATOM     86  C   UNL A   1      41.780  22.705  26.488  1.00  0.00     0.040 A 
ATOM     87  F   UNL A   1      40.894  24.171  28.061  1.00  0.00    -0.206 F 
ATOM     88  C   UNL A   1      42.657  22.422  25.448  1.00  0.00     0.006 A 
ENDBRANCH  60  81
BRANCH  72  89
ATOM     89  C   UNL A   1      45.313  30.293  28.517  1.00  0.00     0.057 A 
ATOM     90  C   UNL A   1      46.550  30.506  27.888  1.00  0.00     0.134 A 
ATOM     91  C   UNL A   1      44.201  30.932  27.958  1.00  0.00     0.134 A 
ATOM     92  F   UNL A   1      47.652  29.862  28.290  1.00  0.00    -0.206 F 
ATOM     93  C   UNL A   1      46.678  31.351  26.780  1.00  0.00     0.040 A 
ATOM     94  C   UNL A   1      44.309  31.750  26.832  1.00  0.00     0.040 A 
ATOM     95  F   UNL A   1      42.978  30.731  28.473  1.00  0.00    -0.206 F 
ATOM     96  C   UNL A   1      45.552  31.970  26.245  1.00  0.00     0.006 A 
ENDBRANCH  72  89
ENDBRANCH  46  47
ENDBRANCH  39  41
ENDBRANCH  38  39
ENDBRANCH  37  38
ENDBRANCH  36  37
ENDBRANCH  35  36
ENDBRANCH  34  35
ENDBRANCH  33  34
ENDBRANCH   1  33
TORSDOF 23
ENDMDL
