MODEL 1
REMARK VINA RESULT:      -9.1      0.000      0.000
REMARK SMILES O=C(OCCOCCOCCOCCOC(=O)[C@@H]1CS[C@@H](c2ncc(-c3cccc(Br)c3)s2)[NH2+]1)c1ccc(-c2c3nc(c(-c4c(F)cccc4F)c4ccc([nH]4)c(-c4c(F)cccc4F)c4nc(c(-c5c(F)cccc5F)c5ccc2[nH]5)C=C4)C=C3)cc1
REMARK SMILES IDX 9 1 8 2 7 3 6 4 5 5 4 6 3 7 2 8 1 9 35 10 36 11 88 12 37 13
REMARK SMILES IDX 87 14 38 15 39 16 40 17 81 18 41 19 86 20 80 21 82 22 42 23
REMARK SMILES IDX 85 24 79 25 78 26 43 28 69 29 52 30 68 31 53 32 56 33 67 34
REMARK SMILES IDX 83 35 54 36 55 37 66 39 84 40 57 41 44 42 45 43 50 44 46 45
REMARK SMILES IDX 47 46 49 47 51 48 48 49 70 50 71 51 76 52 72 53 73 54 75 55
REMARK SMILES IDX 77 56 74 57 58 58 59 59 64 60 60 61 61 62 63 63 65 64 62 65
REMARK SMILES IDX 10 66 11 67 12 68 13 69 14 70 15 71 16 72 17 73 18 74 19 75
REMARK SMILES IDX 34 76 20 77 21 78 22 81 23 82 33 83 24 84 25 85 26 86 27 87
REMARK SMILES IDX 32 88 28 89 30 90 29 91 31 92
REMARK H PARENT 82 27 56 38 34 79 34 80
REMARK Flexibility Score: inf
ROOT
ATOM      1  O   UNL A   1      35.161  33.213  27.706  1.00  0.00    -0.377 OA
ENDROOT
BRANCH   1   2
ATOM      2  C   UNL A   1      35.030  34.289  28.621  1.00  0.00     0.188 C 
BRANCH   2   3
ATOM      3  C   UNL A   1      33.943  34.148  29.676  1.00  0.00     0.188 C 
BRANCH   3   4
ATOM      4  O   UNL A   1      34.137  35.037  30.772  1.00  0.00    -0.376 OA
BRANCH   4   5
ATOM      5  C   UNL A   1      34.483  34.434  32.021  1.00  0.00     0.202 C 
BRANCH   5   6
ATOM      6  C   UNL A   1      35.974  34.203  32.260  1.00  0.00     0.261 C 
BRANCH   6   7
ATOM      7  O   UNL A   1      36.337  32.851  32.589  1.00  0.00    -0.460 OA
BRANCH   7   8
ATOM      8  C   UNL A   1      36.753  31.836  31.798  1.00  0.00     0.338 C 
ATOM      9  O   UNL A   1      35.919  31.005  31.432  1.00  0.00    -0.246 OA
BRANCH   8  10
ATOM     10  C   UNL A   1      38.159  31.643  31.336  1.00  0.00     0.060 A 
ATOM     11  C   UNL A   1      38.646  32.002  30.084  1.00  0.00     0.016 A 
ATOM     12  C   UNL A   1      39.076  31.112  32.259  1.00  0.00     0.016 A 
ATOM     13  C   UNL A   1      39.953  31.791  29.709  1.00  0.00     0.010 A 
ATOM     14  C   UNL A   1      40.408  30.886  31.898  1.00  0.00     0.010 A 
ATOM     15  C   UNL A   1      40.825  31.186  30.598  1.00  0.00    -0.014 A 
BRANCH  15  16
ATOM     16  C   UNL A   1      42.038  30.622  29.993  1.00  0.00     0.031 A 
ATOM     17  C   UNL A   1      41.892  29.294  29.316  1.00  0.00     0.074 A 
ATOM     18  C   UNL A   1      43.124  31.395  29.835  1.00  0.00     0.049 A 
ATOM     19  N   UNL A   1      42.788  28.565  28.713  1.00  0.00    -0.248 NA
ATOM     20  C   UNL A   1      40.534  28.715  29.295  1.00  0.00     0.031 C 
ATOM     21  C   UNL A   1      43.240  32.791  30.270  1.00  0.00     0.029 A 
ATOM     22  N   UNL A   1      44.313  31.137  29.215  1.00  0.00    -0.354 N 
ATOM     23  C   UNL A   1      42.115  27.422  28.297  1.00  0.00     0.074 A 
ATOM     24  C   UNL A   1      40.737  27.554  28.700  1.00  0.00     0.031 C 
ATOM     25  C   UNL A   1      44.432  33.272  29.883  1.00  0.00     0.029 A 
ATOM     26  C   UNL A   1      45.187  32.196  29.252  1.00  0.00     0.049 A 
ATOM     27  H   UNL A   1      44.523  30.278  28.784  1.00  0.00     0.167 HD
ATOM     28  C   UNL A   1      42.625  26.352  27.651  1.00  0.00     0.037 A 
ATOM     29  C   UNL A   1      46.468  32.251  28.853  1.00  0.00     0.037 A 
ATOM     30  C   UNL A   1      44.006  26.279  27.261  1.00  0.00     0.049 A 
ATOM     31  C   UNL A   1      47.054  31.000  28.254  1.00  0.00     0.074 A 
ATOM     32  C   UNL A   1      44.692  25.233  26.679  1.00  0.00     0.029 A 
ATOM     33  N   UNL A   1      44.911  27.323  27.423  1.00  0.00    -0.354 N 
ATOM     34  N   UNL A   1      46.460  29.863  27.972  1.00  0.00    -0.248 NA
ATOM     35  C   UNL A   1      48.484  31.029  27.939  1.00  0.00     0.031 C 
ATOM     36  C   UNL A   1      46.029  25.626  26.543  1.00  0.00     0.029 A 
ATOM     37  C   UNL A   1      46.159  26.940  26.973  1.00  0.00     0.049 A 
ATOM     38  H   UNL A   1      44.694  28.205  27.802  1.00  0.00     0.167 HD
ATOM     39  C   UNL A   1      47.434  29.049  27.417  1.00  0.00     0.074 A 
ATOM     40  C   UNL A   1      48.657  29.833  27.395  1.00  0.00     0.031 C 
ATOM     41  C   UNL A   1      47.338  27.773  26.962  1.00  0.00     0.037 A 
BRANCH  28  42
ATOM     42  C   UNL A   1      41.715  25.174  27.467  1.00  0.00     0.057 A 
ATOM     43  C   UNL A   1      40.668  25.159  26.534  1.00  0.00     0.134 A 
ATOM     44  C   UNL A   1      41.833  24.065  28.315  1.00  0.00     0.134 A 
ATOM     45  F   UNL A   1      40.468  26.206  25.718  1.00  0.00    -0.206 F 
ATOM     46  C   UNL A   1      39.751  24.105  26.480  1.00  0.00     0.040 A 
ATOM     47  C   UNL A   1      40.942  22.994  28.252  1.00  0.00     0.040 A 
ATOM     48  F   UNL A   1      42.801  24.019  29.244  1.00  0.00    -0.206 F 
ATOM     49  C   UNL A   1      39.889  23.017  27.341  1.00  0.00     0.006 A 
ENDBRANCH  28  42
BRANCH  29  50
ATOM     50  C   UNL A   1      47.275  33.481  29.058  1.00  0.00     0.057 A 
ATOM     51  C   UNL A   1      47.975  33.708  30.247  1.00  0.00     0.134 A 
ATOM     52  C   UNL A   1      47.359  34.472  28.068  1.00  0.00     0.134 A 
ATOM     53  F   UNL A   1      47.926  32.808  31.241  1.00  0.00    -0.206 F 
ATOM     54  C   UNL A   1      48.713  34.876  30.453  1.00  0.00     0.040 A 
ATOM     55  C   UNL A   1      48.115  35.632  28.249  1.00  0.00     0.040 A 
ATOM     56  F   UNL A   1      46.714  34.323  26.901  1.00  0.00    -0.206 F 
ATOM     57  C   UNL A   1      48.788  35.840  29.450  1.00  0.00     0.006 A 
ENDBRANCH  29  50
BRANCH  41  58
ATOM     58  C   UNL A   1      48.571  27.188  26.347  1.00  0.00     0.057 A 
ATOM     59  C   UNL A   1      48.817  27.245  24.970  1.00  0.00     0.134 A 
ATOM     60  C   UNL A   1      49.547  26.600  27.162  1.00  0.00     0.134 A 
ATOM     61  F   UNL A   1      47.912  27.784  24.139  1.00  0.00    -0.206 F 
ATOM     62  C   UNL A   1      49.981  26.711  24.420  1.00  0.00     0.040 A 
ATOM     63  C   UNL A   1      50.730  26.096  26.627  1.00  0.00     0.040 A 
ATOM     64  F   UNL A   1      49.374  26.529  28.490  1.00  0.00    -0.206 F 
ATOM     65  C   UNL A   1      50.945  26.142  25.252  1.00  0.00     0.006 A 
ENDBRANCH  41  58
ENDBRANCH  15  16
ENDBRANCH   8  10
ENDBRANCH   7   8
ENDBRANCH   6   7
ENDBRANCH   5   6
ENDBRANCH   4   5
ENDBRANCH   3   4
ENDBRANCH   2   3
ENDBRANCH   1   2
BRANCH   1  66
ATOM     66  C   UNL A   1      34.401  32.038  27.940  1.00  0.00     0.188 C 
BRANCH  66  67
ATOM     67  C   UNL A   1      35.011  30.645  27.708  1.00  0.00     0.188 C 
BRANCH  67  68
ATOM     68  O   UNL A   1      34.129  29.603  27.362  1.00  0.00    -0.376 OA
BRANCH  68  69
ATOM     69  C   UNL A   1      32.761  29.884  27.089  1.00  0.00     0.202 C 
BRANCH  69  70
ATOM     70  C   UNL A   1      32.189  30.257  25.700  1.00  0.00     0.261 C 
BRANCH  70  71
ATOM     71  O   UNL A   1      31.580  29.196  24.953  1.00  0.00    -0.459 OA
BRANCH  71  72
ATOM     72  C   UNL A   1      32.171  28.829  23.778  1.00  0.00     0.365 C 
ATOM     73  O   UNL A   1      33.287  29.186  23.436  1.00  0.00    -0.245 OA
BRANCH  72  74
ATOM     74  C   UNL A   1      31.388  27.727  23.028  1.00  0.00     0.304 C 
ATOM     75  C   UNL A   1      29.961  27.556  23.520  1.00  0.00     0.153 C 
ATOM     76  N   UNL A   1      32.023  26.396  22.993  1.00  0.00    -0.317 N 
ATOM     77  S   UNL A   1      29.960  26.052  24.544  1.00  0.00    -0.085 SA
ATOM     78  C   UNL A   1      31.698  25.660  24.207  1.00  0.00     0.303 C 
ATOM     79  H   UNL A   1      33.035  26.507  22.926  1.00  0.00     0.348 HD
ATOM     80  H   UNL A   1      31.676  25.881  22.184  1.00  0.00     0.348 HD
BRANCH  78  81
ATOM     81  C   UNL A   1      32.075  24.187  24.053  1.00  0.00     0.162 A 
ATOM     82  N   UNL A   1      31.372  23.339  23.320  1.00  0.00    -0.242 NA
ATOM     83  S   UNL A   1      33.379  23.451  24.918  1.00  0.00    -0.112 S 
ATOM     84  C   UNL A   1      31.900  22.067  23.407  1.00  0.00     0.132 A 
ATOM     85  C   UNL A   1      33.033  21.936  24.183  1.00  0.00     0.055 A 
BRANCH  85  86
ATOM     86  C   UNL A   1      33.908  20.778  24.365  1.00  0.00    -0.006 A 
ATOM     87  C   UNL A   1      35.254  20.984  24.714  1.00  0.00     0.010 A 
ATOM     88  C   UNL A   1      33.443  19.464  24.219  1.00  0.00     0.025 A 
ATOM     89  C   UNL A   1      36.109  19.905  24.944  1.00  0.00     0.002 A 
ATOM     90  C   UNL A   1      34.306  18.388  24.447  1.00  0.00     0.018 A 
ATOM     91  C   UNL A   1      35.634  18.602  24.816  1.00  0.00     0.016 A 
ATOM     92  Br  UNL A   1      33.666  16.618  24.264  1.00  0.00    -0.051 Br
ENDBRANCH  85  86
ENDBRANCH  78  81
ENDBRANCH  72  74
ENDBRANCH  71  72
ENDBRANCH  70  71
ENDBRANCH  69  70
ENDBRANCH  68  69
ENDBRANCH  67  68
ENDBRANCH  66  67
ENDBRANCH   1  66
TORSDOF 22
ENDMDL
MODEL 2
REMARK VINA RESULT:      -9.0      5.357      9.478
REMARK SMILES O=C(OCCOCCOCCOCCOC(=O)[C@@H]1CS[C@@H](c2ncc(-c3cccc(Br)c3)s2)[NH2+]1)c1ccc(-c2c3nc(c(-c4c(F)cccc4F)c4ccc([nH]4)c(-c4c(F)cccc4F)c4nc(c(-c5c(F)cccc5F)c5ccc2[nH]5)C=C4)C=C3)cc1
REMARK SMILES IDX 9 1 8 2 7 3 6 4 5 5 4 6 3 7 2 8 1 9 35 10 36 11 88 12 37 13
REMARK SMILES IDX 87 14 38 15 39 16 40 17 81 18 41 19 86 20 80 21 82 22 42 23
REMARK SMILES IDX 85 24 79 25 78 26 43 28 69 29 52 30 68 31 53 32 56 33 67 34
REMARK SMILES IDX 83 35 54 36 55 37 66 39 84 40 57 41 44 42 45 43 50 44 46 45
REMARK SMILES IDX 47 46 49 47 51 48 48 49 70 50 71 51 76 52 72 53 73 54 75 55
REMARK SMILES IDX 77 56 74 57 58 58 59 59 64 60 60 61 61 62 63 63 65 64 62 65
REMARK SMILES IDX 10 66 11 67 12 68 13 69 14 70 15 71 16 72 17 73 18 74 19 75
REMARK SMILES IDX 34 76 20 77 21 78 22 81 23 82 33 83 24 84 25 85 26 86 27 87
REMARK SMILES IDX 32 88 28 89 30 90 29 91 31 92
REMARK H PARENT 82 27 56 38 34 79 34 80
REMARK Flexibility Score: inf
ROOT
ATOM      1  O   UNL A   1      36.466  30.788  28.728  1.00  0.00    -0.377 OA
ENDROOT
BRANCH   1   2
ATOM      2  C   UNL A   1      36.921  29.617  28.070  1.00  0.00     0.188 C 
BRANCH   2   3
ATOM      3  C   UNL A   1      38.415  29.341  28.145  1.00  0.00     0.188 C 
BRANCH   3   4
ATOM      4  O   UNL A   1      38.699  28.043  28.661  1.00  0.00    -0.376 OA
BRANCH   4   5
ATOM      5  C   UNL A   1      39.613  27.247  27.903  1.00  0.00     0.202 C 
BRANCH   5   6
ATOM      6  C   UNL A   1      39.453  25.735  28.041  1.00  0.00     0.261 C 
BRANCH   6   7
ATOM      7  O   UNL A   1      40.119  24.956  27.032  1.00  0.00    -0.460 OA
BRANCH   7   8
ATOM      8  C   UNL A   1      41.369  24.441  27.002  1.00  0.00     0.338 C 
ATOM      9  O   UNL A   1      41.494  23.216  27.066  1.00  0.00    -0.246 OA
BRANCH   8  10
ATOM     10  C   UNL A   1      42.618  25.252  26.901  1.00  0.00     0.060 A 
ATOM     11  C   UNL A   1      43.514  25.473  27.941  1.00  0.00     0.016 A 
ATOM     12  C   UNL A   1      42.945  25.782  25.641  1.00  0.00     0.016 A 
ATOM     13  C   UNL A   1      44.648  26.240  27.791  1.00  0.00     0.010 A 
ATOM     14  C   UNL A   1      44.090  26.566  25.468  1.00  0.00     0.010 A 
ATOM     15  C   UNL A   1      44.912  26.829  26.567  1.00  0.00    -0.014 A 
BRANCH  15  16
ATOM     16  C   UNL A   1      45.870  27.941  26.606  1.00  0.00     0.031 A 
ATOM     17  C   UNL A   1      47.292  27.612  26.269  1.00  0.00     0.074 A 
ATOM     18  C   UNL A   1      45.420  29.204  26.674  1.00  0.00     0.049 A 
ATOM     19  N   UNL A   1      48.339  28.386  26.234  1.00  0.00    -0.248 NA
ATOM     20  C   UNL A   1      47.568  26.211  25.893  1.00  0.00     0.031 C 
ATOM     21  C   UNL A   1      44.010  29.596  26.766  1.00  0.00     0.029 A 
ATOM     22  N   UNL A   1      46.094  30.389  26.615  1.00  0.00    -0.354 N 
ATOM     23  C   UNL A   1      49.400  27.557  25.893  1.00  0.00     0.074 A 
ATOM     24  C   UNL A   1      48.877  26.225  25.717  1.00  0.00     0.031 C 
ATOM     25  C   UNL A   1      43.926  30.936  26.737  1.00  0.00     0.029 A 
ATOM     26  C   UNL A   1      45.275  31.487  26.711  1.00  0.00     0.049 A 
ATOM     27  H   UNL A   1      47.071  30.451  26.516  1.00  0.00     0.167 HD
ATOM     28  C   UNL A   1      50.701  27.892  25.762  1.00  0.00     0.037 A 
ATOM     29  C   UNL A   1      45.606  32.785  26.808  1.00  0.00     0.037 A 
ATOM     30  C   UNL A   1      51.167  29.240  25.935  1.00  0.00     0.049 A 
ATOM     31  C   UNL A   1      47.073  33.122  26.791  1.00  0.00     0.074 A 
ATOM     32  C   UNL A   1      52.459  29.724  25.920  1.00  0.00     0.029 A 
ATOM     33  N   UNL A   1      50.326  30.325  26.157  1.00  0.00    -0.354 N 
ATOM     34  N   UNL A   1      48.100  32.327  26.598  1.00  0.00    -0.248 NA
ATOM     35  C   UNL A   1      47.429  34.524  27.025  1.00  0.00     0.031 C 
ATOM     36  C   UNL A   1      52.402  31.096  26.191  1.00  0.00     0.029 A 
ATOM     37  C   UNL A   1      51.071  31.478  26.304  1.00  0.00     0.049 A 
ATOM     38  H   UNL A   1      49.344  30.279  26.203  1.00  0.00     0.167 HD
ATOM     39  C   UNL A   1      49.226  33.133  26.655  1.00  0.00     0.074 A 
ATOM     40  C   UNL A   1      48.748  34.485  26.892  1.00  0.00     0.031 C 
ATOM     41  C   UNL A   1      50.535  32.801  26.523  1.00  0.00     0.037 A 
BRANCH  28  42
ATOM     42  C   UNL A   1      51.673  26.768  25.550  1.00  0.00     0.057 A 
ATOM     43  C   UNL A   1      52.217  26.023  26.605  1.00  0.00     0.134 A 
ATOM     44  C   UNL A   1      52.146  26.494  24.259  1.00  0.00     0.134 A 
ATOM     45  F   UNL A   1      51.843  26.262  27.872  1.00  0.00    -0.206 F 
ATOM     46  C   UNL A   1      53.223  25.076  26.388  1.00  0.00     0.040 A 
ATOM     47  C   UNL A   1      53.128  25.531  24.027  1.00  0.00     0.040 A 
ATOM     48  F   UNL A   1      51.681  27.180  23.204  1.00  0.00    -0.206 F 
ATOM     49  C   UNL A   1      53.680  24.828  25.095  1.00  0.00     0.006 A 
ENDBRANCH  28  42
BRANCH  29  50
ATOM     50  C   UNL A   1      44.560  33.824  26.988  1.00  0.00     0.057 A 
ATOM     51  C   UNL A   1      44.215  34.305  28.255  1.00  0.00     0.134 A 
ATOM     52  C   UNL A   1      43.865  34.358  25.891  1.00  0.00     0.134 A 
ATOM     53  F   UNL A   1      44.828  33.827  29.348  1.00  0.00    -0.206 F 
ATOM     54  C   UNL A   1      43.212  35.263  28.429  1.00  0.00     0.040 A 
ATOM     55  C   UNL A   1      42.881  35.336  26.048  1.00  0.00     0.040 A 
ATOM     56  F   UNL A   1      44.143  33.945  24.646  1.00  0.00    -0.206 F 
ATOM     57  C   UNL A   1      42.546  35.784  27.322  1.00  0.00     0.006 A 
ENDBRANCH  29  50
BRANCH  41  58
ATOM     58  C   UNL A   1      51.520  33.928  26.566  1.00  0.00     0.057 A 
ATOM     59  C   UNL A   1      51.905  34.625  25.415  1.00  0.00     0.134 A 
ATOM     60  C   UNL A   1      52.049  34.348  27.793  1.00  0.00     0.134 A 
ATOM     61  F   UNL A   1      51.442  34.260  24.210  1.00  0.00    -0.206 F 
ATOM     62  C   UNL A   1      52.808  35.684  25.480  1.00  0.00     0.040 A 
ATOM     63  C   UNL A   1      52.924  35.428  27.874  1.00  0.00     0.040 A 
ATOM     64  F   UNL A   1      51.705  33.727  28.932  1.00  0.00    -0.206 F 
ATOM     65  C   UNL A   1      53.313  36.094  26.714  1.00  0.00     0.006 A 
ENDBRANCH  41  58
ENDBRANCH  15  16
ENDBRANCH   8  10
ENDBRANCH   7   8
ENDBRANCH   6   7
ENDBRANCH   5   6
ENDBRANCH   4   5
ENDBRANCH   3   4
ENDBRANCH   2   3
ENDBRANCH   1   2
BRANCH   1  66
ATOM     66  C   UNL A   1      35.748  31.748  27.970  1.00  0.00     0.188 C 
BRANCH  66  67
ATOM     67  C   UNL A   1      34.212  31.693  27.880  1.00  0.00     0.188 C 
BRANCH  67  68
ATOM     68  O   UNL A   1      33.522  32.921  27.872  1.00  0.00    -0.376 OA
BRANCH  68  69
ATOM     69  C   UNL A   1      34.100  34.071  28.477  1.00  0.00     0.202 C 
BRANCH  69  70
ATOM     70  C   UNL A   1      34.228  34.305  30.002  1.00  0.00     0.261 C 
BRANCH  70  71
ATOM     71  O   UNL A   1      35.523  34.084  30.576  1.00  0.00    -0.459 OA
BRANCH  71  72
ATOM     72  C   UNL A   1      35.645  33.077  31.490  1.00  0.00     0.365 C 
ATOM     73  O   UNL A   1      34.956  32.070  31.492  1.00  0.00    -0.245 OA
BRANCH  72  74
ATOM     74  C   UNL A   1      36.898  33.224  32.384  1.00  0.00     0.304 C 
ATOM     75  C   UNL A   1      37.616  34.551  32.209  1.00  0.00     0.153 C 
ATOM     76  N   UNL A   1      37.898  32.145  32.274  1.00  0.00    -0.317 N 
ATOM     77  S   UNL A   1      39.088  34.197  31.200  1.00  0.00    -0.085 SA
ATOM     78  C   UNL A   1      38.790  32.408  31.153  1.00  0.00     0.303 C 
ATOM     79  H   UNL A   1      37.420  31.256  32.124  1.00  0.00     0.348 HD
ATOM     80  H   UNL A   1      38.442  32.104  33.135  1.00  0.00     0.348 HD
BRANCH  78  81
ATOM     81  C   UNL A   1      40.007  31.487  31.213  1.00  0.00     0.162 A 
ATOM     82  N   UNL A   1      39.964  30.274  31.740  1.00  0.00    -0.242 NA
ATOM     83  S   UNL A   1      41.589  31.978  30.716  1.00  0.00    -0.112 S 
ATOM     84  C   UNL A   1      41.214  29.688  31.718  1.00  0.00     0.132 A 
ATOM     85  C   UNL A   1      42.220  30.437  31.143  1.00  0.00     0.055 A 
BRANCH  85  86
ATOM     86  C   UNL A   1      43.600  30.061  30.834  1.00  0.00    -0.006 A 
ATOM     87  C   UNL A   1      43.910  28.708  30.623  1.00  0.00     0.010 A 
ATOM     88  C   UNL A   1      44.623  31.013  30.725  1.00  0.00     0.025 A 
ATOM     89  C   UNL A   1      45.205  28.314  30.277  1.00  0.00     0.002 A 
ATOM     90  C   UNL A   1      45.917  30.611  30.383  1.00  0.00     0.018 A 
ATOM     91  C   UNL A   1      46.212  29.268  30.151  1.00  0.00     0.016 A 
ATOM     92  Br  UNL A   1      47.289  31.904  30.220  1.00  0.00    -0.051 Br
ENDBRANCH  85  86
ENDBRANCH  78  81
ENDBRANCH  72  74
ENDBRANCH  71  72
ENDBRANCH  70  71
ENDBRANCH  69  70
ENDBRANCH  68  69
ENDBRANCH  67  68
ENDBRANCH  66  67
ENDBRANCH   1  66
TORSDOF 22
ENDMDL
MODEL 3
REMARK VINA RESULT:      -8.8      3.051      6.931
REMARK SMILES O=C(OCCOCCOCCOCCOC(=O)[C@@H]1CS[C@@H](c2ncc(-c3cccc(Br)c3)s2)[NH2+]1)c1ccc(-c2c3nc(c(-c4c(F)cccc4F)c4ccc([nH]4)c(-c4c(F)cccc4F)c4nc(c(-c5c(F)cccc5F)c5ccc2[nH]5)C=C4)C=C3)cc1
REMARK SMILES IDX 9 1 8 2 7 3 6 4 5 5 4 6 3 7 2 8 1 9 35 10 36 11 88 12 37 13
REMARK SMILES IDX 87 14 38 15 39 16 40 17 81 18 41 19 86 20 80 21 82 22 42 23
REMARK SMILES IDX 85 24 79 25 78 26 43 28 69 29 52 30 68 31 53 32 56 33 67 34
REMARK SMILES IDX 83 35 54 36 55 37 66 39 84 40 57 41 44 42 45 43 50 44 46 45
REMARK SMILES IDX 47 46 49 47 51 48 48 49 70 50 71 51 76 52 72 53 73 54 75 55
REMARK SMILES IDX 77 56 74 57 58 58 59 59 64 60 60 61 61 62 63 63 65 64 62 65
REMARK SMILES IDX 10 66 11 67 12 68 13 69 14 70 15 71 16 72 17 73 18 74 19 75
REMARK SMILES IDX 34 76 20 77 21 78 22 81 23 82 33 83 24 84 25 85 26 86 27 87
REMARK SMILES IDX 32 88 28 89 30 90 29 91 31 92
REMARK H PARENT 82 27 56 38 34 79 34 80
REMARK Flexibility Score: inf
ROOT
ATOM      1  O   UNL A   1      35.913  30.466  28.704  1.00  0.00    -0.377 OA
ENDROOT
BRANCH   1   2
ATOM      2  C   UNL A   1      36.510  29.338  28.086  1.00  0.00     0.188 C 
BRANCH   2   3
ATOM      3  C   UNL A   1      38.031  29.280  28.116  1.00  0.00     0.188 C 
BRANCH   3   4
ATOM      4  O   UNL A   1      38.513  28.057  28.663  1.00  0.00    -0.376 OA
BRANCH   4   5
ATOM      5  C   UNL A   1      39.535  27.390  27.918  1.00  0.00     0.202 C 
BRANCH   5   6
ATOM      6  C   UNL A   1      39.660  25.887  28.155  1.00  0.00     0.261 C 
BRANCH   6   7
ATOM      7  O   UNL A   1      40.302  25.154  27.097  1.00  0.00    -0.460 OA
BRANCH   7   8
ATOM      8  C   UNL A   1      41.551  24.645  27.013  1.00  0.00     0.338 C 
ATOM      9  O   UNL A   1      41.680  23.418  27.006  1.00  0.00    -0.246 OA
BRANCH   8  10
ATOM     10  C   UNL A   1      42.796  25.463  26.932  1.00  0.00     0.060 A 
ATOM     11  C   UNL A   1      43.610  25.792  28.011  1.00  0.00     0.016 A 
ATOM     12  C   UNL A   1      43.212  25.885  25.658  1.00  0.00     0.016 A 
ATOM     13  C   UNL A   1      44.744  26.560  27.878  1.00  0.00     0.010 A 
ATOM     14  C   UNL A   1      44.359  26.668  25.499  1.00  0.00     0.010 A 
ATOM     15  C   UNL A   1      45.094  27.042  26.628  1.00  0.00    -0.014 A 
BRANCH  15  16
ATOM     16  C   UNL A   1      46.035  28.169  26.637  1.00  0.00     0.031 A 
ATOM     17  C   UNL A   1      47.457  27.857  26.285  1.00  0.00     0.074 A 
ATOM     18  C   UNL A   1      45.567  29.426  26.694  1.00  0.00     0.049 A 
ATOM     19  N   UNL A   1      48.491  28.646  26.223  1.00  0.00    -0.248 NA
ATOM     20  C   UNL A   1      47.749  26.455  25.925  1.00  0.00     0.031 C 
ATOM     21  C   UNL A   1      44.152  29.798  26.801  1.00  0.00     0.029 A 
ATOM     22  N   UNL A   1      46.222  30.620  26.609  1.00  0.00    -0.354 N 
ATOM     23  C   UNL A   1      49.560  27.828  25.879  1.00  0.00     0.074 A 
ATOM     24  C   UNL A   1      49.054  26.486  25.729  1.00  0.00     0.031 C 
ATOM     25  C   UNL A   1      44.048  31.136  26.755  1.00  0.00     0.029 A 
ATOM     26  C   UNL A   1      45.387  31.707  26.701  1.00  0.00     0.049 A 
ATOM     27  H   UNL A   1      47.197  30.695  26.494  1.00  0.00     0.167 HD
ATOM     28  C   UNL A   1      50.854  28.180  25.724  1.00  0.00     0.037 A 
ATOM     29  C   UNL A   1      45.700  33.011  26.775  1.00  0.00     0.037 A 
ATOM     30  C   UNL A   1      51.301  29.538  25.871  1.00  0.00     0.049 A 
ATOM     31  C   UNL A   1      47.161  33.370  26.732  1.00  0.00     0.074 A 
ATOM     32  C   UNL A   1      52.585  30.041  25.830  1.00  0.00     0.029 A 
ATOM     33  N   UNL A   1      50.447  30.613  26.090  1.00  0.00    -0.354 N 
ATOM     34  N   UNL A   1      48.198  32.587  26.535  1.00  0.00    -0.248 NA
ATOM     35  C   UNL A   1      47.499  34.780  26.941  1.00  0.00     0.031 C 
ATOM     36  C   UNL A   1      52.511  31.415  26.083  1.00  0.00     0.029 A 
ATOM     37  C   UNL A   1      51.177  31.780  26.209  1.00  0.00     0.049 A 
ATOM     38  H   UNL A   1      49.466  30.553  26.150  1.00  0.00     0.167 HD
ATOM     39  C   UNL A   1      49.312  33.412  26.564  1.00  0.00     0.074 A 
ATOM     40  C   UNL A   1      48.816  34.759  26.789  1.00  0.00     0.031 C 
ATOM     41  C   UNL A   1      50.624  33.097  26.417  1.00  0.00     0.037 A 
BRANCH  28  42
ATOM     42  C   UNL A   1      51.839  27.069  25.513  1.00  0.00     0.057 A 
ATOM     43  C   UNL A   1      52.251  26.647  24.242  1.00  0.00     0.134 A 
ATOM     44  C   UNL A   1      52.311  26.341  26.615  1.00  0.00     0.134 A 
ATOM     45  F   UNL A   1      51.805  27.270  23.139  1.00  0.00    -0.206 F 
ATOM     46  C   UNL A   1      53.062  25.519  24.072  1.00  0.00     0.040 A 
ATOM     47  C   UNL A   1      53.143  25.233  26.460  1.00  0.00     0.040 A 
ATOM     48  F   UNL A   1      51.943  26.679  27.861  1.00  0.00    -0.206 F 
ATOM     49  C   UNL A   1      53.511  24.810  25.185  1.00  0.00     0.006 A 
ENDBRANCH  28  42
BRANCH  29  50
ATOM     50  C   UNL A   1      44.641  34.036  26.955  1.00  0.00     0.057 A 
ATOM     51  C   UNL A   1      43.868  34.488  25.881  1.00  0.00     0.134 A 
ATOM     52  C   UNL A   1      44.379  34.603  28.212  1.00  0.00     0.134 A 
ATOM     53  F   UNL A   1      44.075  34.001  24.648  1.00  0.00    -0.206 F 
ATOM     54  C   UNL A   1      42.889  35.472  26.042  1.00  0.00     0.040 A 
ATOM     55  C   UNL A   1      43.386  35.567  28.394  1.00  0.00     0.040 A 
ATOM     56  F   UNL A   1      45.080  34.218  29.289  1.00  0.00    -0.206 F 
ATOM     57  C   UNL A   1      42.643  36.010  27.303  1.00  0.00     0.006 A 
ENDBRANCH  29  50
BRANCH  41  58
ATOM     58  C   UNL A   1      51.591  34.240  26.430  1.00  0.00     0.057 A 
ATOM     59  C   UNL A   1      52.375  34.540  27.549  1.00  0.00     0.134 A 
ATOM     60  C   UNL A   1      51.769  35.019  25.279  1.00  0.00     0.134 A 
ATOM     61  F   UNL A   1      52.239  33.837  28.685  1.00  0.00    -0.206 F 
ATOM     62  C   UNL A   1      53.284  35.596  27.534  1.00  0.00     0.040 A 
ATOM     63  C   UNL A   1      52.700  36.054  25.240  1.00  0.00     0.040 A 
ATOM     64  F   UNL A   1      51.055  34.770  24.171  1.00  0.00    -0.206 F 
ATOM     65  C   UNL A   1      53.454  36.351  26.373  1.00  0.00     0.006 A 
ENDBRANCH  41  58
ENDBRANCH  15  16
ENDBRANCH   8  10
ENDBRANCH   7   8
ENDBRANCH   6   7
ENDBRANCH   5   6
ENDBRANCH   4   5
ENDBRANCH   3   4
ENDBRANCH   2   3
ENDBRANCH   1   2
BRANCH   1  66
ATOM     66  C   UNL A   1      35.005  31.246  27.944  1.00  0.00     0.188 C 
BRANCH  66  67
ATOM     67  C   UNL A   1      33.955  30.576  27.040  1.00  0.00     0.188 C 
BRANCH  67  68
ATOM     68  O   UNL A   1      32.657  31.123  27.043  1.00  0.00    -0.376 OA
BRANCH  68  69
ATOM     69  C   UNL A   1      31.558  30.362  26.555  1.00  0.00     0.202 C 
BRANCH  69  70
ATOM     70  C   UNL A   1      31.315  30.001  25.070  1.00  0.00     0.261 C 
BRANCH  70  71
ATOM     71  O   UNL A   1      31.827  28.738  24.626  1.00  0.00    -0.459 OA
BRANCH  71  72
ATOM     72  C   UNL A   1      31.006  27.652  24.730  1.00  0.00     0.365 C 
ATOM     73  O   UNL A   1      30.149  27.363  23.911  1.00  0.00    -0.245 OA
BRANCH  72  74
ATOM     74  C   UNL A   1      31.422  26.690  25.866  1.00  0.00     0.304 C 
ATOM     75  C   UNL A   1      32.606  27.187  26.678  1.00  0.00     0.153 C 
ATOM     76  N   UNL A   1      31.696  25.298  25.464  1.00  0.00    -0.317 N 
ATOM     77  S   UNL A   1      34.042  26.220  26.118  1.00  0.00    -0.085 SA
ATOM     78  C   UNL A   1      33.070  25.178  24.995  1.00  0.00     0.303 C 
ATOM     79  H   UNL A   1      31.058  25.033  24.713  1.00  0.00     0.348 HD
ATOM     80  H   UNL A   1      31.559  24.684  26.266  1.00  0.00     0.348 HD
BRANCH  78  81
ATOM     81  C   UNL A   1      33.465  23.708  24.875  1.00  0.00     0.162 A 
ATOM     82  N   UNL A   1      34.606  23.230  25.345  1.00  0.00    -0.242 NA
ATOM     83  S   UNL A   1      32.525  22.544  24.006  1.00  0.00    -0.112 S 
ATOM     84  C   UNL A   1      34.732  21.889  25.047  1.00  0.00     0.132 A 
ATOM     85  C   UNL A   1      33.672  21.319  24.373  1.00  0.00     0.055 A 
BRANCH  85  86
ATOM     86  C   UNL A   1      33.427  19.915  24.040  1.00  0.00    -0.006 A 
ATOM     87  C   UNL A   1      32.432  19.597  23.100  1.00  0.00     0.010 A 
ATOM     88  C   UNL A   1      34.167  18.874  24.617  1.00  0.00     0.025 A 
ATOM     89  C   UNL A   1      32.201  18.274  22.719  1.00  0.00     0.002 A 
ATOM     90  C   UNL A   1      33.927  17.551  24.234  1.00  0.00     0.018 A 
ATOM     91  C   UNL A   1      32.954  17.247  23.283  1.00  0.00     0.016 A 
ATOM     92  Br  UNL A   1      34.941  16.153  25.005  1.00  0.00    -0.051 Br
ENDBRANCH  85  86
ENDBRANCH  78  81
ENDBRANCH  72  74
ENDBRANCH  71  72
ENDBRANCH  70  71
ENDBRANCH  69  70
ENDBRANCH  68  69
ENDBRANCH  67  68
ENDBRANCH  66  67
ENDBRANCH   1  66
TORSDOF 22
ENDMDL
