MODEL 1
REMARK VINA RESULT:      -7.2      0.000      0.000
REMARK SMILES CCCCCCNC(=O)Oc1cccc(-c2ccc([C@@H](C)C(=O)OCCOCCOCCOCCOC(=O)c3ccc(-c4c5nc(c(-c6c(F)cccc6F)c6ccc([nH]6)c(-c6c(F)cccc6F)c6nc(c(-c7c(F)cccc7F)c7ccc4[nH]7)C=C6)C=C5)cc3)cc2N)c1
REMARK SMILES IDX 26 1 25 2 24 3 22 4 23 5 20 6 21 7 19 8 16 9 17 10 94 11
REMARK SMILES IDX 18 12 93 13 15 14 11 15 12 16 96 17 13 18 14 19 10 20 8 21
REMARK SMILES IDX 7 22 9 24 6 25 5 26 4 27 3 28 2 29 1 30 95 31 27 34 28 35
REMARK SMILES IDX 29 36 30 37 31 38 32 39 33 40 34 41 35 42 36 43 37 44 38 45
REMARK SMILES IDX 39 46 40 47 92 48 41 49 91 50 42 51 43 52 44 53 85 54 45 55
REMARK SMILES IDX 90 56 84 57 86 58 46 59 89 60 83 61 82 62 47 64 73 65 56 66
REMARK SMILES IDX 72 67 57 68 60 69 71 70 87 71 58 72 59 73 70 75 88 76 61 77
REMARK SMILES IDX 48 78 49 79 54 80 50 81 51 82 53 83 55 84 52 85 74 86 75 87
REMARK SMILES IDX 80 88 76 89 77 90 79 91 81 92 78 93 62 94 63 95 68 96 64 97
REMARK SMILES IDX 65 98 67 99 69 100 66 101
REMARK H PARENT 7 23 95 32 95 33 86 63 60 74
REMARK Flexibility Score: inf
ROOT
ATOM      1  C   UNL A   1      39.525  24.522  26.982  1.00  0.00     0.202 C 
ENDROOT
BRANCH   1   2
ATOM      2  C   UNL A   1      40.488  25.343  26.102  1.00  0.00     0.261 C 
BRANCH   2   3
ATOM      3  O   UNL A   1      41.559  26.043  26.771  1.00  0.00    -0.463 OA
BRANCH   3   4
ATOM      4  C   UNL A   1      41.230  26.691  27.912  1.00  0.00     0.313 C 
ATOM      5  O   UNL A   1      41.497  26.261  29.033  1.00  0.00    -0.252 OA
BRANCH   4   6
ATOM      6  C   UNL A   1      40.451  27.996  27.746  1.00  0.00     0.126 C 
ATOM      7  C   UNL A   1      41.260  28.925  26.846  1.00  0.00     0.025 C 
BRANCH   6   8
ATOM      8  C   UNL A   1      39.880  28.744  28.952  1.00  0.00    -0.032 A 
ATOM      9  C   UNL A   1      38.670  30.071  31.197  1.00  0.00     0.005 A 
ATOM     10  C   UNL A   1      40.068  30.054  30.997  1.00  0.00     0.011 A 
ATOM     11  C   UNL A   1      37.865  29.427  30.232  1.00  0.00     0.040 A 
ATOM     12  C   UNL A   1      40.664  29.410  29.895  1.00  0.00     0.005 A 
ATOM     13  C   UNL A   1      38.479  28.769  29.146  1.00  0.00     0.030 A 
BRANCH   9  14
ATOM     14  C   UNL A   1      38.100  30.813  32.353  1.00  0.00    -0.013 A 
ATOM     15  C   UNL A   1      36.450  32.304  33.356  1.00  0.00     0.133 A 
ATOM     16  C   UNL A   1      37.139  32.303  34.565  1.00  0.00     0.047 A 
ATOM     17  C   UNL A   1      36.916  31.571  32.256  1.00  0.00     0.056 A 
ATOM     18  C   UNL A   1      38.301  31.547  34.684  1.00  0.00     0.004 A 
ATOM     19  C   UNL A   1      38.776  30.814  33.589  1.00  0.00     0.009 A 
BRANCH  15  20
ATOM     20  O   UNL A   1      35.357  33.187  33.256  1.00  0.00    -0.410 OA
BRANCH  20  21
ATOM     21  C   UNL A   1      35.623  34.514  32.959  1.00  0.00     0.412 C 
ATOM     22  N   UNL A   1      35.254  34.882  31.693  1.00  0.00    -0.321 N 
ATOM     23  H   UNL A   1      35.338  35.838  31.475  1.00  0.00     0.167 HD
ATOM     24  O   UNL A   1      36.147  35.325  33.712  1.00  0.00    -0.224 OA
BRANCH  22  25
ATOM     25  C   UNL A   1      34.755  34.023  30.637  1.00  0.00     0.119 C 
BRANCH  25  26
ATOM     26  C   UNL A   1      35.536  34.185  29.332  1.00  0.00     0.021 C 
BRANCH  26  27
ATOM     27  C   UNL A   1      36.243  32.919  28.831  1.00  0.00     0.002 C 
BRANCH  27  28
ATOM     28  C   UNL A   1      37.763  32.882  29.029  1.00  0.00    -0.000 C 
BRANCH  28  29
ATOM     29  C   UNL A   1      38.360  34.065  29.795  1.00  0.00    -0.003 C 
ATOM     30  C   UNL A   1      39.735  33.779  30.379  1.00  0.00     0.004 C 
ENDBRANCH  28  29
ENDBRANCH  27  28
ENDBRANCH  26  27
ENDBRANCH  25  26
ENDBRANCH  22  25
ENDBRANCH  20  21
ENDBRANCH  15  20
ENDBRANCH   9  14
BRANCH  11  31
ATOM     31  N   UNL A   1      36.481  29.315  30.373  1.00  0.00    -0.398 N 
ATOM     32  H   UNL A   1      35.884  29.674  29.676  1.00  0.00     0.156 HD
ATOM     33  H   UNL A   1      36.100  28.876  31.169  1.00  0.00     0.156 HD
ENDBRANCH  11  31
ENDBRANCH   6   8
ENDBRANCH   4   6
ENDBRANCH   3   4
ENDBRANCH   2   3
ENDBRANCH   1   2
BRANCH   1  34
ATOM     34  O   UNL A   1      39.799  23.163  27.289  1.00  0.00    -0.376 OA
BRANCH  34  35
ATOM     35  C   UNL A   1      41.126  22.657  27.227  1.00  0.00     0.188 C 
BRANCH  35  36
ATOM     36  C   UNL A   1      41.573  21.736  26.084  1.00  0.00     0.188 C 
BRANCH  36  37
ATOM     37  O   UNL A   1      42.821  21.104  26.278  1.00  0.00    -0.377 OA
BRANCH  37  38
ATOM     38  C   UNL A   1      43.925  21.667  25.591  1.00  0.00     0.188 C 
BRANCH  38  39
ATOM     39  C   UNL A   1      44.946  22.452  26.435  1.00  0.00     0.188 C 
BRANCH  39  40
ATOM     40  O   UNL A   1      46.142  22.787  25.740  1.00  0.00    -0.376 OA
BRANCH  40  41
ATOM     41  C   UNL A   1      46.623  24.122  25.830  1.00  0.00     0.202 C 
BRANCH  41  42
ATOM     42  C   UNL A   1      47.195  24.767  24.559  1.00  0.00     0.261 C 
BRANCH  42  43
ATOM     43  O   UNL A   1      47.921  25.989  24.741  1.00  0.00    -0.460 OA
BRANCH  43  44
ATOM     44  C   UNL A   1      47.311  27.156  24.445  1.00  0.00     0.338 C 
ATOM     45  O   UNL A   1      47.131  27.636  23.347  1.00  0.00    -0.246 OA
BRANCH  44  46
ATOM     46  C   UNL A   1      46.678  27.646  25.695  1.00  0.00     0.060 A 
ATOM     47  C   UNL A   1      45.285  27.779  25.740  1.00  0.00     0.016 A 
ATOM     48  C   UNL A   1      47.449  27.958  26.817  1.00  0.00     0.016 A 
ATOM     49  C   UNL A   1      44.661  28.263  26.892  1.00  0.00     0.010 A 
ATOM     50  C   UNL A   1      46.827  28.468  27.961  1.00  0.00     0.010 A 
ATOM     51  C   UNL A   1      45.434  28.654  27.994  1.00  0.00    -0.014 A 
BRANCH  51  52
ATOM     52  C   UNL A   1      44.810  29.440  29.090  1.00  0.00     0.031 A 
ATOM     53  C   UNL A   1      44.694  30.931  28.920  1.00  0.00     0.074 A 
ATOM     54  C   UNL A   1      44.336  28.851  30.202  1.00  0.00     0.049 A 
ATOM     55  N   UNL A   1      44.238  31.832  29.750  1.00  0.00    -0.248 NA
ATOM     56  C   UNL A   1      45.158  31.478  27.634  1.00  0.00     0.031 C 
ATOM     57  C   UNL A   1      44.342  27.416  30.469  1.00  0.00     0.029 A 
ATOM     58  N   UNL A   1      43.764  29.402  31.323  1.00  0.00    -0.354 N 
ATOM     59  C   UNL A   1      44.366  33.049  29.093  1.00  0.00     0.074 A 
ATOM     60  C   UNL A   1      44.971  32.776  27.808  1.00  0.00     0.031 C 
ATOM     61  C   UNL A   1      43.812  27.198  31.686  1.00  0.00     0.029 A 
ATOM     62  C   UNL A   1      43.461  28.480  32.296  1.00  0.00     0.049 A 
ATOM     63  H   UNL A   1      43.585  30.365  31.420  1.00  0.00     0.167 HD
ATOM     64  C   UNL A   1      44.007  34.283  29.519  1.00  0.00     0.037 A 
ATOM     65  C   UNL A   1      42.983  28.657  33.544  1.00  0.00     0.037 A 
ATOM     66  C   UNL A   1      43.413  34.555  30.802  1.00  0.00     0.049 A 
ATOM     67  C   UNL A   1      42.673  30.050  34.030  1.00  0.00     0.074 A 
ATOM     68  C   UNL A   1      43.003  35.771  31.319  1.00  0.00     0.029 A 
ATOM     69  N   UNL A   1      43.158  33.599  31.772  1.00  0.00    -0.354 N 
ATOM     70  N   UNL A   1      42.774  31.193  33.395  1.00  0.00    -0.248 NA
ATOM     71  C   UNL A   1      42.182  30.180  35.411  1.00  0.00     0.031 C 
ATOM     72  C   UNL A   1      42.554  35.559  32.627  1.00  0.00     0.029 A 
ATOM     73  C   UNL A   1      42.622  34.203  32.898  1.00  0.00     0.049 A 
ATOM     74  H   UNL A   1      43.330  32.635  31.675  1.00  0.00     0.167 HD
ATOM     75  C   UNL A   1      42.325  32.167  34.280  1.00  0.00     0.074 A 
ATOM     76  C   UNL A   1      41.945  31.481  35.496  1.00  0.00     0.031 C 
ATOM     77  C   UNL A   1      42.232  33.508  34.099  1.00  0.00     0.037 A 
BRANCH  64  78
ATOM     78  C   UNL A   1      44.281  35.438  28.600  1.00  0.00     0.057 A 
ATOM     79  C   UNL A   1      43.301  35.955  27.742  1.00  0.00     0.134 A 
ATOM     80  C   UNL A   1      45.536  36.061  28.595  1.00  0.00     0.134 A 
ATOM     81  F   UNL A   1      42.082  35.396  27.687  1.00  0.00    -0.206 F 
ATOM     82  C   UNL A   1      43.568  37.031  26.894  1.00  0.00     0.040 A 
ATOM     83  C   UNL A   1      45.805  37.156  27.773  1.00  0.00     0.040 A 
ATOM     84  F   UNL A   1      46.519  35.621  29.395  1.00  0.00    -0.206 F 
ATOM     85  C   UNL A   1      44.821  37.639  26.913  1.00  0.00     0.006 A 
ENDBRANCH  64  78
BRANCH  65  86
ATOM     86  C   UNL A   1      42.781  27.487  34.439  1.00  0.00     0.057 A 
ATOM     87  C   UNL A   1      41.533  26.864  34.552  1.00  0.00     0.134 A 
ATOM     88  C   UNL A   1      43.824  26.985  35.228  1.00  0.00     0.134 A 
ATOM     89  F   UNL A   1      40.487  27.315  33.845  1.00  0.00    -0.206 F 
ATOM     90  C   UNL A   1      41.323  25.798  35.430  1.00  0.00     0.040 A 
ATOM     91  C   UNL A   1      43.636  25.902  36.089  1.00  0.00     0.040 A 
ATOM     92  F   UNL A   1      45.044  27.538  35.171  1.00  0.00    -0.206 F 
ATOM     93  C   UNL A   1      42.379  25.310  36.197  1.00  0.00     0.006 A 
ENDBRANCH  65  86
BRANCH  77  94
ATOM     94  C   UNL A   1      41.649  34.325  35.217  1.00  0.00     0.057 A 
ATOM     95  C   UNL A   1      42.420  34.764  36.301  1.00  0.00     0.134 A 
ATOM     96  C   UNL A   1      40.308  34.731  35.173  1.00  0.00     0.134 A 
ATOM     97  F   UNL A   1      43.707  34.403  36.411  1.00  0.00    -0.206 F 
ATOM     98  C   UNL A   1      41.873  35.560  37.310  1.00  0.00     0.040 A 
ATOM     99  C   UNL A   1      39.758  35.551  36.160  1.00  0.00     0.040 A 
ATOM    100  F   UNL A   1      39.516  34.356  34.157  1.00  0.00    -0.206 F 
ATOM    101  C   UNL A   1      40.541  35.963  37.236  1.00  0.00     0.006 A 
ENDBRANCH  77  94
ENDBRANCH  51  52
ENDBRANCH  44  46
ENDBRANCH  43  44
ENDBRANCH  42  43
ENDBRANCH  41  42
ENDBRANCH  40  41
ENDBRANCH  39  40
ENDBRANCH  38  39
ENDBRANCH  37  38
ENDBRANCH  36  37
ENDBRANCH  35  36
ENDBRANCH  34  35
ENDBRANCH   1  34
TORSDOF 30
ENDMDL
MODEL 2
REMARK VINA RESULT:      -7.2      4.765     11.348
REMARK SMILES CCCCCCNC(=O)Oc1cccc(-c2ccc([C@@H](C)C(=O)OCCOCCOCCOCCOC(=O)c3ccc(-c4c5nc(c(-c6c(F)cccc6F)c6ccc([nH]6)c(-c6c(F)cccc6F)c6nc(c(-c7c(F)cccc7F)c7ccc4[nH]7)C=C6)C=C5)cc3)cc2N)c1
REMARK SMILES IDX 26 1 25 2 24 3 22 4 23 5 20 6 21 7 19 8 16 9 17 10 94 11
REMARK SMILES IDX 18 12 93 13 15 14 11 15 12 16 96 17 13 18 14 19 10 20 8 21
REMARK SMILES IDX 7 22 9 24 6 25 5 26 4 27 3 28 2 29 1 30 95 31 27 34 28 35
REMARK SMILES IDX 29 36 30 37 31 38 32 39 33 40 34 41 35 42 36 43 37 44 38 45
REMARK SMILES IDX 39 46 40 47 92 48 41 49 91 50 42 51 43 52 44 53 85 54 45 55
REMARK SMILES IDX 90 56 84 57 86 58 46 59 89 60 83 61 82 62 47 64 73 65 56 66
REMARK SMILES IDX 72 67 57 68 60 69 71 70 87 71 58 72 59 73 70 75 88 76 61 77
REMARK SMILES IDX 48 78 49 79 54 80 50 81 51 82 53 83 55 84 52 85 74 86 75 87
REMARK SMILES IDX 80 88 76 89 77 90 79 91 81 92 78 93 62 94 63 95 68 96 64 97
REMARK SMILES IDX 65 98 67 99 69 100 66 101
REMARK H PARENT 7 23 95 32 95 33 86 63 60 74
REMARK Flexibility Score: inf
ROOT
ATOM      1  C   UNL A   1      32.719  28.979  23.733  1.00  0.00     0.202 C 
ENDROOT
BRANCH   1   2
ATOM      2  C   UNL A   1      32.218  28.515  22.351  1.00  0.00     0.261 C 
BRANCH   2   3
ATOM      3  O   UNL A   1      30.794  28.559  22.117  1.00  0.00    -0.463 OA
BRANCH   3   4
ATOM      4  C   UNL A   1      30.007  28.150  23.139  1.00  0.00     0.313 C 
ATOM      5  O   UNL A   1      29.557  28.915  23.992  1.00  0.00    -0.252 OA
BRANCH   4   6
ATOM      6  C   UNL A   1      29.726  26.650  23.216  1.00  0.00     0.126 C 
ATOM      7  C   UNL A   1      28.456  26.441  24.035  1.00  0.00     0.025 C 
BRANCH   6   8
ATOM      8  C   UNL A   1      30.817  25.652  23.614  1.00  0.00    -0.032 A 
ATOM      9  C   UNL A   1      32.912  23.776  24.208  1.00  0.00     0.005 A 
ATOM     10  C   UNL A   1      32.272  24.534  25.215  1.00  0.00     0.011 A 
ATOM     11  C   UNL A   1      32.469  23.951  22.879  1.00  0.00     0.040 A 
ATOM     12  C   UNL A   1      31.242  25.450  24.928  1.00  0.00     0.005 A 
ATOM     13  C   UNL A   1      31.450  24.888  22.607  1.00  0.00     0.030 A 
BRANCH   9  14
ATOM     14  C   UNL A   1      33.958  22.788  24.583  1.00  0.00    -0.013 A 
ATOM     15  C   UNL A   1      36.272  22.167  25.042  1.00  0.00     0.133 A 
ATOM     16  C   UNL A   1      35.918  20.827  25.177  1.00  0.00     0.047 A 
ATOM     17  C   UNL A   1      35.312  23.143  24.749  1.00  0.00     0.056 A 
ATOM     18  C   UNL A   1      34.583  20.460  25.034  1.00  0.00     0.004 A 
ATOM     19  C   UNL A   1      33.617  21.429  24.738  1.00  0.00     0.009 A 
BRANCH  15  20
ATOM     20  O   UNL A   1      37.650  22.458  25.068  1.00  0.00    -0.410 OA
BRANCH  20  21
ATOM     21  C   UNL A   1      38.101  23.365  26.014  1.00  0.00     0.412 C 
ATOM     22  N   UNL A   1      39.397  23.158  26.403  1.00  0.00    -0.321 N 
ATOM     23  H   UNL A   1      39.785  23.836  27.001  1.00  0.00     0.167 HD
ATOM     24  O   UNL A   1      37.445  24.277  26.501  1.00  0.00    -0.224 OA
BRANCH  22  25
ATOM     25  C   UNL A   1      40.261  22.053  26.036  1.00  0.00     0.119 C 
BRANCH  25  26
ATOM     26  C   UNL A   1      40.942  21.414  27.247  1.00  0.00     0.021 C 
BRANCH  26  27
ATOM     27  C   UNL A   1      40.954  19.880  27.257  1.00  0.00     0.002 C 
BRANCH  27  28
ATOM     28  C   UNL A   1      42.341  19.225  27.273  1.00  0.00    -0.000 C 
BRANCH  28  29
ATOM     29  C   UNL A   1      42.732  18.474  25.997  1.00  0.00    -0.003 C 
ATOM     30  C   UNL A   1      44.072  18.911  25.424  1.00  0.00     0.004 C 
ENDBRANCH  28  29
ENDBRANCH  27  28
ENDBRANCH  26  27
ENDBRANCH  25  26
ENDBRANCH  22  25
ENDBRANCH  20  21
ENDBRANCH  15  20
ENDBRANCH   9  14
BRANCH  11  31
ATOM     31  N   UNL A   1      33.083  23.314  21.800  1.00  0.00    -0.398 N 
ATOM     32  H   UNL A   1      34.046  23.109  21.832  1.00  0.00     0.156 HD
ATOM     33  H   UNL A   1      32.554  23.067  21.007  1.00  0.00     0.156 HD
ENDBRANCH  11  31
ENDBRANCH   6   8
ENDBRANCH   4   6
ENDBRANCH   3   4
ENDBRANCH   2   3
ENDBRANCH   1   2
BRANCH   1  34
ATOM     34  O   UNL A   1      33.456  28.102  24.572  1.00  0.00    -0.376 OA
BRANCH  34  35
ATOM     35  C   UNL A   1      33.474  28.290  25.981  1.00  0.00     0.188 C 
BRANCH  35  36
ATOM     36  C   UNL A   1      33.075  29.631  26.610  1.00  0.00     0.188 C 
BRANCH  36  37
ATOM     37  O   UNL A   1      34.021  30.177  27.506  1.00  0.00    -0.377 OA
BRANCH  37  38
ATOM     38  C   UNL A   1      33.953  31.576  27.718  1.00  0.00     0.188 C 
BRANCH  38  39
ATOM     39  C   UNL A   1      34.869  32.163  28.808  1.00  0.00     0.188 C 
BRANCH  39  40
ATOM     40  O   UNL A   1      34.293  33.244  29.533  1.00  0.00    -0.376 OA
BRANCH  40  41
ATOM     41  C   UNL A   1      33.764  34.341  28.799  1.00  0.00     0.202 C 
BRANCH  41  42
ATOM     42  C   UNL A   1      33.042  35.448  29.582  1.00  0.00     0.261 C 
BRANCH  42  43
ATOM     43  O   UNL A   1      32.468  35.065  30.839  1.00  0.00    -0.460 OA
BRANCH  43  44
ATOM     44  C   UNL A   1      32.853  35.721  31.954  1.00  0.00     0.338 C 
ATOM     45  O   UNL A   1      32.267  36.615  32.522  1.00  0.00    -0.246 OA
BRANCH  44  46
ATOM     46  C   UNL A   1      34.021  34.990  32.507  1.00  0.00     0.060 A 
ATOM     47  C   UNL A   1      35.284  35.591  32.446  1.00  0.00     0.016 A 
ATOM     48  C   UNL A   1      33.870  33.730  33.092  1.00  0.00     0.016 A 
ATOM     49  C   UNL A   1      36.407  34.918  32.934  1.00  0.00     0.010 A 
ATOM     50  C   UNL A   1      34.998  33.046  33.556  1.00  0.00     0.010 A 
ATOM     51  C   UNL A   1      36.277  33.622  33.449  1.00  0.00    -0.014 A 
BRANCH  51  52
ATOM     52  C   UNL A   1      37.489  32.797  33.686  1.00  0.00     0.031 A 
ATOM     53  C   UNL A   1      38.294  33.054  34.932  1.00  0.00     0.074 A 
ATOM     54  C   UNL A   1      37.863  31.827  32.832  1.00  0.00     0.049 A 
ATOM     55  N   UNL A   1      39.411  32.504  35.331  1.00  0.00    -0.248 NA
ATOM     56  C   UNL A   1      37.762  34.073  35.852  1.00  0.00     0.031 C 
ATOM     57  C   UNL A   1      37.148  31.445  31.619  1.00  0.00     0.029 A 
ATOM     58  N   UNL A   1      38.954  30.992  32.860  1.00  0.00    -0.354 N 
ATOM     59  C   UNL A   1      39.719  33.114  36.541  1.00  0.00     0.074 A 
ATOM     60  C   UNL A   1      38.688  34.096  36.797  1.00  0.00     0.031 C 
ATOM     61  C   UNL A   1      37.827  30.458  31.007  1.00  0.00     0.029 A 
ATOM     62  C   UNL A   1      39.041  30.164  31.768  1.00  0.00     0.049 A 
ATOM     63  H   UNL A   1      39.610  30.986  33.594  1.00  0.00     0.167 HD
ATOM     64  C   UNL A   1      40.763  32.872  37.370  1.00  0.00     0.037 A 
ATOM     65  C   UNL A   1      40.005  29.290  31.412  1.00  0.00     0.037 A 
ATOM     66  C   UNL A   1      41.792  31.901  37.111  1.00  0.00     0.049 A 
ATOM     67  C   UNL A   1      41.204  29.103  32.306  1.00  0.00     0.074 A 
ATOM     68  C   UNL A   1      42.884  31.575  37.896  1.00  0.00     0.029 A 
ATOM     69  N   UNL A   1      41.864  31.109  35.976  1.00  0.00    -0.354 N 
ATOM     70  N   UNL A   1      41.475  29.664  33.460  1.00  0.00    -0.248 NA
ATOM     71  C   UNL A   1      42.234  28.157  31.849  1.00  0.00     0.031 C 
ATOM     72  C   UNL A   1      43.649  30.628  37.208  1.00  0.00     0.029 A 
ATOM     73  C   UNL A   1      42.998  30.316  36.026  1.00  0.00     0.049 A 
ATOM     74  H   UNL A   1      41.205  31.110  35.244  1.00  0.00     0.167 HD
ATOM     75  C   UNL A   1      42.681  29.114  33.881  1.00  0.00     0.074 A 
ATOM     76  C   UNL A   1      43.087  28.170  32.863  1.00  0.00     0.031 C 
ATOM     77  C   UNL A   1      43.386  29.367  35.012  1.00  0.00     0.037 A 
BRANCH  64  78
ATOM     78  C   UNL A   1      40.860  33.701  38.618  1.00  0.00     0.057 A 
ATOM     79  C   UNL A   1      40.149  33.379  39.781  1.00  0.00     0.134 A 
ATOM     80  C   UNL A   1      41.700  34.822  38.665  1.00  0.00     0.134 A 
ATOM     81  F   UNL A   1      39.315  32.328  39.800  1.00  0.00    -0.206 F 
ATOM     82  C   UNL A   1      40.249  34.156  40.937  1.00  0.00     0.040 A 
ATOM     83  C   UNL A   1      41.832  35.588  39.823  1.00  0.00     0.040 A 
ATOM     84  F   UNL A   1      42.413  35.184  37.588  1.00  0.00    -0.206 F 
ATOM     85  C   UNL A   1      41.099  35.260  40.962  1.00  0.00     0.006 A 
ENDBRANCH  64  78
BRANCH  65  86
ATOM     86  C   UNL A   1      39.893  28.533  30.137  1.00  0.00     0.057 A 
ATOM     87  C   UNL A   1      39.217  27.309  30.074  1.00  0.00     0.134 A 
ATOM     88  C   UNL A   1      40.488  29.000  28.958  1.00  0.00     0.134 A 
ATOM     89  F   UNL A   1      38.650  26.795  31.175  1.00  0.00    -0.206 F 
ATOM     90  C   UNL A   1      39.152  26.567  28.893  1.00  0.00     0.040 A 
ATOM     91  C   UNL A   1      40.408  28.282  27.763  1.00  0.00     0.040 A 
ATOM     92  F   UNL A   1      41.154  30.164  28.949  1.00  0.00    -0.206 F 
ATOM     93  C   UNL A   1      39.745  27.058  27.731  1.00  0.00     0.006 A 
ENDBRANCH  65  86
BRANCH  77  94
ATOM     94  C   UNL A   1      44.642  28.576  35.244  1.00  0.00     0.057 A 
ATOM     95  C   UNL A   1      44.633  27.339  35.902  1.00  0.00     0.134 A 
ATOM     96  C   UNL A   1      45.869  29.032  34.744  1.00  0.00     0.134 A 
ATOM     97  F   UNL A   1      43.494  26.849  36.415  1.00  0.00    -0.206 F 
ATOM     98  C   UNL A   1      45.803  26.594  36.072  1.00  0.00     0.040 A 
ATOM     99  C   UNL A   1      47.039  28.283  34.881  1.00  0.00     0.040 A 
ATOM    100  F   UNL A   1      45.947  30.202  34.094  1.00  0.00    -0.206 F 
ATOM    101  C   UNL A   1      47.008  27.062  35.552  1.00  0.00     0.006 A 
ENDBRANCH  77  94
ENDBRANCH  51  52
ENDBRANCH  44  46
ENDBRANCH  43  44
ENDBRANCH  42  43
ENDBRANCH  41  42
ENDBRANCH  40  41
ENDBRANCH  39  40
ENDBRANCH  38  39
ENDBRANCH  37  38
ENDBRANCH  36  37
ENDBRANCH  35  36
ENDBRANCH  34  35
ENDBRANCH   1  34
TORSDOF 30
ENDMDL
MODEL 3
REMARK VINA RESULT:      -7.0      4.874     11.197
REMARK SMILES CCCCCCNC(=O)Oc1cccc(-c2ccc([C@@H](C)C(=O)OCCOCCOCCOCCOC(=O)c3ccc(-c4c5nc(c(-c6c(F)cccc6F)c6ccc([nH]6)c(-c6c(F)cccc6F)c6nc(c(-c7c(F)cccc7F)c7ccc4[nH]7)C=C6)C=C5)cc3)cc2N)c1
REMARK SMILES IDX 26 1 25 2 24 3 22 4 23 5 20 6 21 7 19 8 16 9 17 10 94 11
REMARK SMILES IDX 18 12 93 13 15 14 11 15 12 16 96 17 13 18 14 19 10 20 8 21
REMARK SMILES IDX 7 22 9 24 6 25 5 26 4 27 3 28 2 29 1 30 95 31 27 34 28 35
REMARK SMILES IDX 29 36 30 37 31 38 32 39 33 40 34 41 35 42 36 43 37 44 38 45
REMARK SMILES IDX 39 46 40 47 92 48 41 49 91 50 42 51 43 52 44 53 85 54 45 55
REMARK SMILES IDX 90 56 84 57 86 58 46 59 89 60 83 61 82 62 47 64 73 65 56 66
REMARK SMILES IDX 72 67 57 68 60 69 71 70 87 71 58 72 59 73 70 75 88 76 61 77
REMARK SMILES IDX 48 78 49 79 54 80 50 81 51 82 53 83 55 84 52 85 74 86 75 87
REMARK SMILES IDX 80 88 76 89 77 90 79 91 81 92 78 93 62 94 63 95 68 96 64 97
REMARK SMILES IDX 65 98 67 99 69 100 66 101
REMARK H PARENT 7 23 95 32 95 33 86 63 60 74
REMARK Flexibility Score: inf
ROOT
ATOM      1  C   UNL A   1      33.662  29.058  24.070  1.00  0.00     0.202 C 
ENDROOT
BRANCH   1   2
ATOM      2  C   UNL A   1      33.005  28.534  22.778  1.00  0.00     0.261 C 
BRANCH   2   3
ATOM      3  O   UNL A   1      31.741  29.118  22.397  1.00  0.00    -0.463 OA
BRANCH   3   4
ATOM      4  C   UNL A   1      30.682  28.822  23.186  1.00  0.00     0.313 C 
ATOM      5  O   UNL A   1      30.251  29.585  24.050  1.00  0.00    -0.252 OA
BRANCH   4   6
ATOM      6  C   UNL A   1      30.054  27.444  22.983  1.00  0.00     0.126 C 
ATOM      7  C   UNL A   1      28.639  27.473  23.553  1.00  0.00     0.025 C 
BRANCH   6   8
ATOM      8  C   UNL A   1      30.791  26.163  23.381  1.00  0.00    -0.032 A 
ATOM      9  C   UNL A   1      32.250  23.763  23.991  1.00  0.00     0.005 A 
ATOM     10  C   UNL A   1      31.593  24.518  24.988  1.00  0.00     0.011 A 
ATOM     11  C   UNL A   1      32.148  24.215  22.657  1.00  0.00     0.040 A 
ATOM     12  C   UNL A   1      30.872  25.691  24.692  1.00  0.00     0.005 A 
ATOM     13  C   UNL A   1      31.440  25.403  22.381  1.00  0.00     0.030 A 
BRANCH   9  14
ATOM     14  C   UNL A   1      32.951  22.505  24.362  1.00  0.00    -0.013 A 
ATOM     15  C   UNL A   1      34.968  21.226  24.855  1.00  0.00     0.133 A 
ATOM     16  C   UNL A   1      34.235  20.045  24.944  1.00  0.00     0.047 A 
ATOM     17  C   UNL A   1      34.344  22.446  24.568  1.00  0.00     0.056 A 
ATOM     18  C   UNL A   1      32.856  20.087  24.760  1.00  0.00     0.004 A 
ATOM     19  C   UNL A   1      32.224  21.302  24.470  1.00  0.00     0.009 A 
BRANCH  15  20
ATOM     20  O   UNL A   1      36.369  21.101  24.922  1.00  0.00    -0.410 OA
BRANCH  20  21
ATOM     21  C   UNL A   1      37.135  22.043  24.254  1.00  0.00     0.412 C 
ATOM     22  N   UNL A   1      38.282  22.393  24.915  1.00  0.00    -0.321 N 
ATOM     23  H   UNL A   1      38.899  22.986  24.431  1.00  0.00     0.167 HD
ATOM     24  O   UNL A   1      36.858  22.558  23.177  1.00  0.00    -0.224 OA
BRANCH  22  25
ATOM     25  C   UNL A   1      38.688  21.990  26.247  1.00  0.00     0.119 C 
BRANCH  25  26
ATOM     26  C   UNL A   1      39.993  21.194  26.246  1.00  0.00     0.021 C 
BRANCH  26  27
ATOM     27  C   UNL A   1      41.254  22.005  26.570  1.00  0.00     0.002 C 
BRANCH  27  28
ATOM     28  C   UNL A   1      42.107  21.477  27.731  1.00  0.00    -0.000 C 
BRANCH  28  29
ATOM     29  C   UNL A   1      42.728  22.546  28.633  1.00  0.00    -0.003 C 
ATOM     30  C   UNL A   1      42.146  23.935  28.418  1.00  0.00     0.004 C 
ENDBRANCH  28  29
ENDBRANCH  27  28
ENDBRANCH  26  27
ENDBRANCH  25  26
ENDBRANCH  22  25
ENDBRANCH  20  21
ENDBRANCH  15  20
ENDBRANCH   9  14
BRANCH  11  31
ATOM     31  N   UNL A   1      32.823  23.591  21.606  1.00  0.00    -0.398 N 
ATOM     32  H   UNL A   1      33.771  23.797  21.438  1.00  0.00     0.156 HD
ATOM     33  H   UNL A   1      32.351  22.943  21.034  1.00  0.00     0.156 HD
ENDBRANCH  11  31
ENDBRANCH   6   8
ENDBRANCH   4   6
ENDBRANCH   3   4
ENDBRANCH   2   3
ENDBRANCH   1   2
BRANCH   1  34
ATOM     34  O   UNL A   1      33.722  28.250  25.237  1.00  0.00    -0.376 OA
BRANCH  34  35
ATOM     35  C   UNL A   1      33.354  28.776  26.505  1.00  0.00     0.188 C 
BRANCH  35  36
ATOM     36  C   UNL A   1      32.559  30.084  26.622  1.00  0.00     0.188 C 
BRANCH  36  37
ATOM     37  O   UNL A   1      32.893  30.889  27.734  1.00  0.00    -0.377 OA
BRANCH  37  38
ATOM     38  C   UNL A   1      34.037  31.712  27.594  1.00  0.00     0.188 C 
BRANCH  38  39
ATOM     39  C   UNL A   1      34.656  32.273  28.889  1.00  0.00     0.188 C 
BRANCH  39  40
ATOM     40  O   UNL A   1      33.806  33.165  29.601  1.00  0.00    -0.376 OA
BRANCH  40  41
ATOM     41  C   UNL A   1      33.360  34.342  28.941  1.00  0.00     0.202 C 
BRANCH  41  42
ATOM     42  C   UNL A   1      32.973  35.550  29.808  1.00  0.00     0.261 C 
BRANCH  42  43
ATOM     43  O   UNL A   1      32.379  35.254  31.078  1.00  0.00    -0.460 OA
BRANCH  43  44
ATOM     44  C   UNL A   1      32.988  35.698  32.197  1.00  0.00     0.338 C 
ATOM     45  O   UNL A   1      32.544  36.463  33.024  1.00  0.00    -0.246 OA
BRANCH  44  46
ATOM     46  C   UNL A   1      34.225  34.894  32.367  1.00  0.00     0.060 A 
ATOM     47  C   UNL A   1      34.158  33.698  33.092  1.00  0.00     0.016 A 
ATOM     48  C   UNL A   1      35.435  35.309  31.808  1.00  0.00     0.016 A 
ATOM     49  C   UNL A   1      35.308  32.932  33.293  1.00  0.00     0.010 A 
ATOM     50  C   UNL A   1      36.593  34.556  32.033  1.00  0.00     0.010 A 
ATOM     51  C   UNL A   1      36.542  33.381  32.804  1.00  0.00    -0.014 A 
BRANCH  51  52
ATOM     52  C   UNL A   1      37.798  32.737  33.267  1.00  0.00     0.031 A 
ATOM     53  C   UNL A   1      38.392  31.644  32.420  1.00  0.00     0.074 A 
ATOM     54  C   UNL A   1      38.415  33.122  34.398  1.00  0.00     0.049 A 
ATOM     55  N   UNL A   1      39.445  30.900  32.636  1.00  0.00    -0.248 NA
ATOM     56  C   UNL A   1      37.697  31.349  31.155  1.00  0.00     0.031 C 
ATOM     57  C   UNL A   1      37.974  34.197  35.280  1.00  0.00     0.029 A 
ATOM     58  N   UNL A   1      39.550  32.634  35.000  1.00  0.00    -0.354 N 
ATOM     59  C   UNL A   1      39.536  30.048  31.543  1.00  0.00     0.074 A 
ATOM     60  C   UNL A   1      38.415  30.344  30.679  1.00  0.00     0.031 C 
ATOM     61  C   UNL A   1      38.821  34.280  36.322  1.00  0.00     0.029 A 
ATOM     62  C   UNL A   1      39.843  33.241  36.196  1.00  0.00     0.049 A 
ATOM     63  H   UNL A   1      40.102  31.918  34.610  1.00  0.00     0.167 HD
ATOM     64  C   UNL A   1      40.473  29.108  31.278  1.00  0.00     0.037 A 
ATOM     65  C   UNL A   1      40.808  32.969  37.098  1.00  0.00     0.037 A 
ATOM     66  C   UNL A   1      41.585  28.807  32.141  1.00  0.00     0.049 A 
ATOM     67  C   UNL A   1      41.788  31.857  36.824  1.00  0.00     0.074 A 
ATOM     68  C   UNL A   1      42.595  27.880  31.954  1.00  0.00     0.029 A 
ATOM     69  N   UNL A   1      41.824  29.420  33.362  1.00  0.00    -0.354 N 
ATOM     70  N   UNL A   1      41.882  31.073  35.777  1.00  0.00    -0.248 NA
ATOM     71  C   UNL A   1      42.800  31.591  37.858  1.00  0.00     0.031 C 
ATOM     72  C   UNL A   1      43.412  27.889  33.088  1.00  0.00     0.029 A 
ATOM     73  C   UNL A   1      42.950  28.869  33.952  1.00  0.00     0.049 A 
ATOM     74  H   UNL A   1      41.277  30.140  33.750  1.00  0.00     0.167 HD
ATOM     75  C   UNL A   1      42.980  30.251  36.009  1.00  0.00     0.074 A 
ATOM     76  C   UNL A   1      43.524  30.635  37.293  1.00  0.00     0.031 C 
ATOM     77  C   UNL A   1      43.492  29.270  35.226  1.00  0.00     0.037 A 
BRANCH  64  78
ATOM     78  C   UNL A   1      40.315  28.310  30.016  1.00  0.00     0.057 A 
ATOM     79  C   UNL A   1      41.037  28.606  28.853  1.00  0.00     0.134 A 
ATOM     80  C   UNL A   1      39.445  27.212  29.973  1.00  0.00     0.134 A 
ATOM     81  F   UNL A   1      41.876  29.654  28.821  1.00  0.00    -0.206 F 
ATOM     82  C   UNL A   1      40.882  27.855  27.686  1.00  0.00     0.040 A 
ATOM     83  C   UNL A   1      39.304  26.435  28.822  1.00  0.00     0.040 A 
ATOM     84  F   UNL A   1      38.726  26.869  31.052  1.00  0.00    -0.206 F 
ATOM     85  C   UNL A   1      40.019  26.762  27.671  1.00  0.00     0.006 A 
ENDBRANCH  64  78
BRANCH  65  86
ATOM     86  C   UNL A   1      40.892  33.749  38.361  1.00  0.00     0.057 A 
ATOM     87  C   UNL A   1      41.767  34.834  38.491  1.00  0.00     0.134 A 
ATOM     88  C   UNL A   1      40.121  33.409  39.481  1.00  0.00     0.134 A 
ATOM     89  F   UNL A   1      42.552  35.193  37.465  1.00  0.00    -0.206 F 
ATOM     90  C   UNL A   1      41.889  35.538  39.690  1.00  0.00     0.040 A 
ATOM     91  C   UNL A   1      40.212  34.121  40.677  1.00  0.00     0.040 A 
ATOM     92  F   UNL A   1      39.265  32.378  39.425  1.00  0.00    -0.206 F 
ATOM     93  C   UNL A   1      41.105  35.185  40.787  1.00  0.00     0.006 A 
ENDBRANCH  65  86
BRANCH  77  94
ATOM     94  C   UNL A   1      44.736  28.574  35.702  1.00  0.00     0.057 A 
ATOM     95  C   UNL A   1      46.018  29.067  35.427  1.00  0.00     0.134 A 
ATOM     96  C   UNL A   1      44.644  27.426  36.502  1.00  0.00     0.134 A 
ATOM     97  F   UNL A   1      46.179  30.155  34.659  1.00  0.00    -0.206 F 
ATOM     98  C   UNL A   1      47.164  28.432  35.914  1.00  0.00     0.040 A 
ATOM     99  C   UNL A   1      45.780  26.801  37.020  1.00  0.00     0.040 A 
ATOM    100  F   UNL A   1      43.447  26.908  36.814  1.00  0.00    -0.206 F 
ATOM    101  C   UNL A   1      47.045  27.302  36.721  1.00  0.00     0.006 A 
ENDBRANCH  77  94
ENDBRANCH  51  52
ENDBRANCH  44  46
ENDBRANCH  43  44
ENDBRANCH  42  43
ENDBRANCH  41  42
ENDBRANCH  40  41
ENDBRANCH  39  40
ENDBRANCH  38  39
ENDBRANCH  37  38
ENDBRANCH  36  37
ENDBRANCH  35  36
ENDBRANCH  34  35
ENDBRANCH   1  34
TORSDOF 30
ENDMDL
