MODEL 1
REMARK VINA RESULT:      -9.0      0.000      0.000
REMARK SMILES CN(CCC(F)(F)F)C(=O)c1cccn1CC(=O)OCCOCCOCCOCCOC(=O)c1ccc(-c2c3nc(c(-c4c(F)cccc4F)c4ccc([nH]4)c(-c4c(F)cccc4F)c4nc(c(-c5c(F)cccc5F)c5ccc2[nH]5)C=C4)C=C3)cc1
REMARK SMILES IDX 23 1 22 2 21 3 20 4 19 5 17 6 18 7 16 8 15 9 11 10 12 11
REMARK SMILES IDX 13 12 14 13 9 14 10 15 2 16 1 17 3 18 4 19 5 20 6 21 7 22
REMARK SMILES IDX 8 23 24 24 25 25 26 26 27 27 28 28 29 29 30 30 31 31 32 32
REMARK SMILES IDX 33 33 34 34 35 35 87 36 36 37 86 38 37 39 38 40 39 41 80 42
REMARK SMILES IDX 40 43 85 44 79 45 81 46 41 47 84 48 78 49 77 50 42 52 68 53
REMARK SMILES IDX 51 54 67 55 52 56 55 57 66 58 82 59 53 60 54 61 65 63 83 64
REMARK SMILES IDX 56 65 43 66 44 67 49 68 45 69 46 70 48 71 50 72 47 73 69 74
REMARK SMILES IDX 70 75 75 76 71 77 72 78 74 79 76 80 73 81 57 82 58 83 63 84
REMARK SMILES IDX 59 85 60 86 62 87 64 88 61 89
REMARK H PARENT 81 51 55 62
REMARK Flexibility Score: inf
ROOT
ATOM      1  C   UNL A   1      30.724  28.882  22.644  1.00  0.00     0.188 C 
ENDROOT
BRANCH   1   2
ATOM      2  O   UNL A   1      29.931  27.716  22.463  1.00  0.00    -0.376 OA
BRANCH   2   3
ATOM      3  C   UNL A   1      29.232  27.171  23.567  1.00  0.00     0.202 C 
BRANCH   3   4
ATOM      4  C   UNL A   1      29.538  25.736  24.039  1.00  0.00     0.261 C 
BRANCH   4   5
ATOM      5  O   UNL A   1      29.805  25.546  25.442  1.00  0.00    -0.462 OA
BRANCH   5   6
ATOM      6  C   UNL A   1      30.826  24.704  25.741  1.00  0.00     0.326 C 
ATOM      7  O   UNL A   1      31.151  24.414  26.891  1.00  0.00    -0.250 OA
BRANCH   6   8
ATOM      8  C   UNL A   1      31.577  24.161  24.546  1.00  0.00     0.244 C 
BRANCH   8   9
ATOM      9  N   UNL A   1      32.931  23.630  24.742  1.00  0.00    -0.332 N 
ATOM     10  C   UNL A   1      33.306  22.292  24.739  1.00  0.00     0.107 A 
ATOM     11  C   UNL A   1      34.693  22.275  24.671  1.00  0.00     0.033 A 
ATOM     12  C   UNL A   1      35.172  23.600  24.696  1.00  0.00     0.020 A 
ATOM     13  C   UNL A   1      34.067  24.415  24.698  1.00  0.00     0.087 A 
BRANCH  10  14
ATOM     14  C   UNL A   1      32.393  21.170  24.641  1.00  0.00     0.270 C 
ATOM     15  O   UNL A   1      31.574  20.953  25.535  1.00  0.00    -0.267 OA
BRANCH  14  16
ATOM     16  N   UNL A   1      32.462  20.320  23.524  1.00  0.00    -0.340 N 
ATOM     17  C   UNL A   1      32.043  20.921  22.263  1.00  0.00     0.147 C 
BRANCH  16  18
ATOM     18  C   UNL A   1      32.541  18.855  23.575  1.00  0.00     0.129 C 
BRANCH  18  19
ATOM     19  C   UNL A   1      33.817  18.295  24.206  1.00  0.00     0.137 C 
BRANCH  19  20
ATOM     20  C   UNL A   1      33.934  16.797  24.094  1.00  0.00     0.390 C 
ATOM     21  F   UNL A   1      35.036  16.336  24.725  1.00  0.00    -0.171 F 
ATOM     22  F   UNL A   1      32.866  16.200  24.674  1.00  0.00    -0.171 F 
ATOM     23  F   UNL A   1      33.971  16.386  22.812  1.00  0.00    -0.171 F 
ENDBRANCH  19  20
ENDBRANCH  18  19
ENDBRANCH  16  18
ENDBRANCH  14  16
ENDBRANCH  10  14
ENDBRANCH   8   9
ENDBRANCH   6   8
ENDBRANCH   5   6
ENDBRANCH   4   5
ENDBRANCH   3   4
ENDBRANCH   2   3
ENDBRANCH   1   2
BRANCH   1  24
ATOM     24  C   UNL A   1      32.020  28.820  23.484  1.00  0.00     0.188 C 
BRANCH  24  25
ATOM     25  O   UNL A   1      31.914  29.434  24.758  1.00  0.00    -0.377 OA
BRANCH  25  26
ATOM     26  C   UNL A   1      31.700  28.582  25.871  1.00  0.00     0.188 C 
BRANCH  26  27
ATOM     27  C   UNL A   1      32.462  28.833  27.190  1.00  0.00     0.188 C 
BRANCH  27  28
ATOM     28  O   UNL A   1      32.978  30.149  27.345  1.00  0.00    -0.376 OA
BRANCH  28  29
ATOM     29  C   UNL A   1      34.323  30.428  26.995  1.00  0.00     0.202 C 
BRANCH  29  30
ATOM     30  C   UNL A   1      34.886  31.629  27.765  1.00  0.00     0.261 C 
BRANCH  30  31
ATOM     31  O   UNL A   1      34.229  31.848  29.010  1.00  0.00    -0.460 OA
BRANCH  31  32
ATOM     32  C   UNL A   1      34.240  33.128  29.375  1.00  0.00     0.338 C 
ATOM     33  O   UNL A   1      34.067  34.130  28.661  1.00  0.00    -0.246 OA
BRANCH  32  34
ATOM     34  C   UNL A   1      34.589  33.267  30.768  1.00  0.00     0.060 A 
ATOM     35  C   UNL A   1      34.842  34.584  31.167  1.00  0.00     0.016 A 
ATOM     36  C   UNL A   1      35.247  32.151  31.291  1.00  0.00     0.016 A 
ATOM     37  C   UNL A   1      35.984  34.816  31.881  1.00  0.00     0.010 A 
ATOM     38  C   UNL A   1      36.417  32.387  31.961  1.00  0.00     0.010 A 
ATOM     39  C   UNL A   1      36.798  33.719  32.184  1.00  0.00    -0.014 A 
BRANCH  39  40
ATOM     40  C   UNL A   1      38.053  33.995  32.869  1.00  0.00     0.031 A 
ATOM     41  C   UNL A   1      37.808  34.098  34.369  1.00  0.00     0.074 A 
ATOM     42  C   UNL A   1      39.139  34.123  32.051  1.00  0.00     0.049 A 
ATOM     43  N   UNL A   1      38.547  34.617  35.294  1.00  0.00    -0.248 NA
ATOM     44  C   UNL A   1      36.519  33.589  34.933  1.00  0.00     0.031 C 
ATOM     45  C   UNL A   1      39.114  33.981  30.574  1.00  0.00     0.029 A 
ATOM     46  N   UNL A   1      40.466  34.405  32.271  1.00  0.00    -0.354 N 
ATOM     47  C   UNL A   1      37.961  34.268  36.524  1.00  0.00     0.074 A 
ATOM     48  C   UNL A   1      36.657  33.760  36.244  1.00  0.00     0.031 C 
ATOM     49  C   UNL A   1      40.325  34.253  30.043  1.00  0.00     0.029 A 
ATOM     50  C   UNL A   1      41.261  34.563  31.104  1.00  0.00     0.049 A 
ATOM     51  H   UNL A   1      40.842  34.491  33.177  1.00  0.00     0.167 HD
ATOM     52  C   UNL A   1      38.655  34.259  37.692  1.00  0.00     0.037 A 
ATOM     53  C   UNL A   1      42.573  34.944  31.011  1.00  0.00     0.037 A 
ATOM     54  C   UNL A   1      39.967  34.773  37.494  1.00  0.00     0.049 A 
ATOM     55  C   UNL A   1      43.066  34.925  32.396  1.00  0.00     0.074 A 
ATOM     56  C   UNL A   1      40.412  36.043  37.238  1.00  0.00     0.029 A 
ATOM     57  N   UNL A   1      40.947  33.872  37.151  1.00  0.00    -0.354 N 
ATOM     58  N   UNL A   1      43.270  33.839  33.079  1.00  0.00    -0.248 NA
ATOM     59  C   UNL A   1      43.254  36.191  33.111  1.00  0.00     0.031 C 
ATOM     60  C   UNL A   1      41.482  35.848  36.341  1.00  0.00     0.029 A 
ATOM     61  C   UNL A   1      41.764  34.481  36.230  1.00  0.00     0.049 A 
ATOM     62  H   UNL A   1      41.044  32.958  37.502  1.00  0.00     0.167 HD
ATOM     63  C   UNL A   1      43.253  34.296  34.373  1.00  0.00     0.074 A 
ATOM     64  C   UNL A   1      43.561  35.708  34.313  1.00  0.00     0.031 C 
ATOM     65  C   UNL A   1      42.495  33.648  35.300  1.00  0.00     0.037 A 
BRANCH  52  66
ATOM     66  C   UNL A   1      38.334  33.607  38.996  1.00  0.00     0.057 A 
ATOM     67  C   UNL A   1      37.824  32.293  38.972  1.00  0.00     0.134 A 
ATOM     68  C   UNL A   1      38.184  34.309  40.198  1.00  0.00     0.134 A 
ATOM     69  F   UNL A   1      37.950  31.526  37.879  1.00  0.00    -0.206 F 
ATOM     70  C   UNL A   1      37.104  31.754  40.038  1.00  0.00     0.040 A 
ATOM     71  C   UNL A   1      37.501  33.761  41.289  1.00  0.00     0.040 A 
ATOM     72  F   UNL A   1      38.605  35.575  40.328  1.00  0.00    -0.206 F 
ATOM     73  C   UNL A   1      36.924  32.498  41.196  1.00  0.00     0.006 A 
ENDBRANCH  52  66
BRANCH  53  74
ATOM     74  C   UNL A   1      43.564  35.380  29.956  1.00  0.00     0.057 A 
ATOM     75  C   UNL A   1      43.389  36.410  29.029  1.00  0.00     0.134 A 
ATOM     76  C   UNL A   1      44.865  34.801  29.927  1.00  0.00     0.134 A 
ATOM     77  F   UNL A   1      42.205  37.004  28.856  1.00  0.00    -0.206 F 
ATOM     78  C   UNL A   1      44.441  36.890  28.221  1.00  0.00     0.040 A 
ATOM     79  C   UNL A   1      45.929  35.296  29.167  1.00  0.00     0.040 A 
ATOM     80  F   UNL A   1      45.177  33.721  30.658  1.00  0.00    -0.206 F 
ATOM     81  C   UNL A   1      45.724  36.362  28.317  1.00  0.00     0.006 A 
ENDBRANCH  53  74
BRANCH  65  82
ATOM     82  C   UNL A   1      42.197  32.197  34.939  1.00  0.00     0.057 A 
ATOM     83  C   UNL A   1      43.243  31.270  34.815  1.00  0.00     0.134 A 
ATOM     84  C   UNL A   1      40.933  31.718  34.563  1.00  0.00     0.134 A 
ATOM     85  F   UNL A   1      44.489  31.606  35.185  1.00  0.00    -0.206 F 
ATOM     86  C   UNL A   1      43.051  29.980  34.295  1.00  0.00     0.040 A 
ATOM     87  C   UNL A   1      40.719  30.433  34.046  1.00  0.00     0.040 A 
ATOM     88  F   UNL A   1      39.848  32.477  34.691  1.00  0.00    -0.206 F 
ATOM     89  C   UNL A   1      41.787  29.562  33.894  1.00  0.00     0.006 A 
ENDBRANCH  65  82
ENDBRANCH  39  40
ENDBRANCH  32  34
ENDBRANCH  31  32
ENDBRANCH  30  31
ENDBRANCH  29  30
ENDBRANCH  28  29
ENDBRANCH  27  28
ENDBRANCH  26  27
ENDBRANCH  25  26
ENDBRANCH  24  25
ENDBRANCH   1  24
TORSDOF 26
ENDMDL
MODEL 2
REMARK VINA RESULT:      -9.0      4.256      7.144
REMARK SMILES CN(CCC(F)(F)F)C(=O)c1cccn1CC(=O)OCCOCCOCCOCCOC(=O)c1ccc(-c2c3nc(c(-c4c(F)cccc4F)c4ccc([nH]4)c(-c4c(F)cccc4F)c4nc(c(-c5c(F)cccc5F)c5ccc2[nH]5)C=C4)C=C3)cc1
REMARK SMILES IDX 23 1 22 2 21 3 20 4 19 5 17 6 18 7 16 8 15 9 11 10 12 11
REMARK SMILES IDX 13 12 14 13 9 14 10 15 2 16 1 17 3 18 4 19 5 20 6 21 7 22
REMARK SMILES IDX 8 23 24 24 25 25 26 26 27 27 28 28 29 29 30 30 31 31 32 32
REMARK SMILES IDX 33 33 34 34 35 35 87 36 36 37 86 38 37 39 38 40 39 41 80 42
REMARK SMILES IDX 40 43 85 44 79 45 81 46 41 47 84 48 78 49 77 50 42 52 68 53
REMARK SMILES IDX 51 54 67 55 52 56 55 57 66 58 82 59 53 60 54 61 65 63 83 64
REMARK SMILES IDX 56 65 43 66 44 67 49 68 45 69 46 70 48 71 50 72 47 73 69 74
REMARK SMILES IDX 70 75 75 76 71 77 72 78 74 79 76 80 73 81 57 82 58 83 63 84
REMARK SMILES IDX 59 85 60 86 62 87 64 88 61 89
REMARK H PARENT 81 51 55 62
REMARK Flexibility Score: inf
ROOT
ATOM      1  C   UNL A   1      31.572  29.160  23.208  1.00  0.00     0.188 C 
ENDROOT
BRANCH   1   2
ATOM      2  O   UNL A   1      31.475  28.120  22.244  1.00  0.00    -0.376 OA
BRANCH   2   3
ATOM      3  C   UNL A   1      30.668  26.989  22.518  1.00  0.00     0.202 C 
BRANCH   3   4
ATOM      4  C   UNL A   1      31.279  25.760  23.218  1.00  0.00     0.261 C 
BRANCH   4   5
ATOM      5  O   UNL A   1      31.875  24.752  22.379  1.00  0.00    -0.462 OA
BRANCH   5   6
ATOM      6  C   UNL A   1      33.231  24.756  22.321  1.00  0.00     0.326 C 
ATOM      7  O   UNL A   1      33.892  25.742  22.004  1.00  0.00    -0.250 OA
BRANCH   6   8
ATOM      8  C   UNL A   1      33.889  23.434  22.647  1.00  0.00     0.244 C 
BRANCH   8   9
ATOM      9  N   UNL A   1      35.001  23.413  23.605  1.00  0.00    -0.332 N 
ATOM     10  C   UNL A   1      34.919  23.620  24.976  1.00  0.00     0.107 A 
ATOM     11  C   UNL A   1      36.142  23.226  25.505  1.00  0.00     0.033 A 
ATOM     12  C   UNL A   1      36.995  22.839  24.452  1.00  0.00     0.020 A 
ATOM     13  C   UNL A   1      36.256  22.924  23.299  1.00  0.00     0.087 A 
BRANCH  10  14
ATOM     14  C   UNL A   1      33.716  23.997  25.693  1.00  0.00     0.270 C 
ATOM     15  O   UNL A   1      33.473  25.183  25.921  1.00  0.00    -0.267 OA
BRANCH  14  16
ATOM     16  N   UNL A   1      32.838  22.996  26.142  1.00  0.00    -0.340 N 
ATOM     17  C   UNL A   1      33.111  22.490  27.482  1.00  0.00     0.147 C 
BRANCH  16  18
ATOM     18  C   UNL A   1      31.965  22.186  25.284  1.00  0.00     0.129 C 
BRANCH  18  19
ATOM     19  C   UNL A   1      32.232  20.680  25.322  1.00  0.00     0.137 C 
BRANCH  19  20
ATOM     20  C   UNL A   1      32.817  20.141  24.042  1.00  0.00     0.390 C 
ATOM     21  F   UNL A   1      32.351  20.805  22.963  1.00  0.00    -0.171 F 
ATOM     22  F   UNL A   1      34.163  20.285  24.047  1.00  0.00    -0.171 F 
ATOM     23  F   UNL A   1      32.560  18.829  23.882  1.00  0.00    -0.171 F 
ENDBRANCH  19  20
ENDBRANCH  18  19
ENDBRANCH  16  18
ENDBRANCH  14  16
ENDBRANCH  10  14
ENDBRANCH   8   9
ENDBRANCH   6   8
ENDBRANCH   5   6
ENDBRANCH   4   5
ENDBRANCH   3   4
ENDBRANCH   2   3
ENDBRANCH   1   2
BRANCH   1  24
ATOM     24  C   UNL A   1      32.673  29.115  24.293  1.00  0.00     0.188 C 
BRANCH  24  25
ATOM     25  O   UNL A   1      32.486  30.047  25.345  1.00  0.00    -0.377 OA
BRANCH  25  26
ATOM     26  C   UNL A   1      33.079  29.738  26.595  1.00  0.00     0.188 C 
BRANCH  26  27
ATOM     27  C   UNL A   1      33.980  30.776  27.298  1.00  0.00     0.188 C 
BRANCH  27  28
ATOM     28  O   UNL A   1      33.288  31.866  27.895  1.00  0.00    -0.376 OA
BRANCH  28  29
ATOM     29  C   UNL A   1      33.911  33.137  27.981  1.00  0.00     0.202 C 
BRANCH  29  30
ATOM     30  C   UNL A   1      34.159  33.564  29.434  1.00  0.00     0.261 C 
BRANCH  30  31
ATOM     31  O   UNL A   1      34.370  32.459  30.309  1.00  0.00    -0.460 OA
BRANCH  31  32
ATOM     32  C   UNL A   1      35.626  32.381  30.740  1.00  0.00     0.338 C 
ATOM     33  O   UNL A   1      36.265  33.222  31.395  1.00  0.00    -0.246 OA
BRANCH  32  34
ATOM     34  C   UNL A   1      36.263  31.177  30.266  1.00  0.00     0.060 A 
ATOM     35  C   UNL A   1      36.724  30.333  31.283  1.00  0.00     0.016 A 
ATOM     36  C   UNL A   1      36.899  31.334  29.032  1.00  0.00     0.016 A 
ATOM     37  C   UNL A   1      38.005  29.869  31.182  1.00  0.00     0.010 A 
ATOM     38  C   UNL A   1      38.198  30.911  28.952  1.00  0.00     0.010 A 
ATOM     39  C   UNL A   1      38.749  30.246  30.059  1.00  0.00    -0.014 A 
BRANCH  39  40
ATOM     40  C   UNL A   1      40.138  29.814  30.009  1.00  0.00     0.031 A 
ATOM     41  C   UNL A   1      41.051  30.964  30.417  1.00  0.00     0.074 A 
ATOM     42  C   UNL A   1      40.326  28.524  29.599  1.00  0.00     0.049 A 
ATOM     43  N   UNL A   1      42.319  31.121  30.226  1.00  0.00    -0.248 NA
ATOM     44  C   UNL A   1      40.458  32.154  31.104  1.00  0.00     0.031 C 
ATOM     45  C   UNL A   1      39.240  27.579  29.239  1.00  0.00     0.029 A 
ATOM     46  N   UNL A   1      41.439  27.746  29.387  1.00  0.00    -0.354 N 
ATOM     47  C   UNL A   1      42.704  32.248  30.974  1.00  0.00     0.074 A 
ATOM     48  C   UNL A   1      41.510  32.918  31.378  1.00  0.00     0.031 C 
ATOM     49  C   UNL A   1      39.747  26.413  28.788  1.00  0.00     0.029 A 
ATOM     50  C   UNL A   1      41.194  26.461  28.836  1.00  0.00     0.049 A 
ATOM     51  H   UNL A   1      42.348  28.060  29.604  1.00  0.00     0.167 HD
ATOM     52  C   UNL A   1      43.988  32.469  31.363  1.00  0.00     0.037 A 
ATOM     53  C   UNL A   1      42.101  25.520  28.426  1.00  0.00     0.037 A 
ATOM     54  C   UNL A   1      44.853  31.494  30.793  1.00  0.00     0.049 A 
ATOM     55  C   UNL A   1      43.398  26.023  28.900  1.00  0.00     0.074 A 
ATOM     56  C   UNL A   1      45.275  31.301  29.504  1.00  0.00     0.029 A 
ATOM     57  N   UNL A   1      45.057  30.341  31.512  1.00  0.00    -0.354 N 
ATOM     58  N   UNL A   1      43.756  26.048  30.148  1.00  0.00    -0.248 NA
ATOM     59  C   UNL A   1      44.327  26.633  27.943  1.00  0.00     0.031 C 
ATOM     60  C   UNL A   1      45.318  29.898  29.372  1.00  0.00     0.029 A 
ATOM     61  C   UNL A   1      45.105  29.298  30.619  1.00  0.00     0.049 A 
ATOM     62  H   UNL A   1      45.151  30.275  32.490  1.00  0.00     0.167 HD
ATOM     63  C   UNL A   1      44.760  26.983  30.151  1.00  0.00     0.074 A 
ATOM     64  C   UNL A   1      45.262  27.049  28.795  1.00  0.00     0.031 C 
ATOM     65  C   UNL A   1      44.747  27.975  31.082  1.00  0.00     0.037 A 
BRANCH  52  66
ATOM     66  C   UNL A   1      44.530  33.374  32.418  1.00  0.00     0.057 A 
ATOM     67  C   UNL A   1      45.458  34.363  32.031  1.00  0.00     0.134 A 
ATOM     68  C   UNL A   1      44.447  33.105  33.789  1.00  0.00     0.134 A 
ATOM     69  F   UNL A   1      45.586  34.719  30.743  1.00  0.00    -0.206 F 
ATOM     70  C   UNL A   1      46.332  34.959  32.937  1.00  0.00     0.040 A 
ATOM     71  C   UNL A   1      45.291  33.731  34.714  1.00  0.00     0.040 A 
ATOM     72  F   UNL A   1      43.620  32.166  34.270  1.00  0.00    -0.206 F 
ATOM     73  C   UNL A   1      46.263  34.628  34.284  1.00  0.00     0.006 A 
ENDBRANCH  52  66
BRANCH  53  74
ATOM     74  C   UNL A   1      42.132  24.225  27.648  1.00  0.00     0.057 A 
ATOM     75  C   UNL A   1      42.137  24.093  26.257  1.00  0.00     0.134 A 
ATOM     76  C   UNL A   1      42.284  22.989  28.340  1.00  0.00     0.134 A 
ATOM     77  F   UNL A   1      41.915  25.135  25.453  1.00  0.00    -0.206 F 
ATOM     78  C   UNL A   1      42.379  22.861  25.615  1.00  0.00     0.040 A 
ATOM     79  C   UNL A   1      42.571  21.770  27.718  1.00  0.00     0.040 A 
ATOM     80  F   UNL A   1      42.180  22.905  29.674  1.00  0.00    -0.206 F 
ATOM     81  C   UNL A   1      42.638  21.704  26.342  1.00  0.00     0.006 A 
ENDBRANCH  53  74
BRANCH  65  82
ATOM     82  C   UNL A   1      43.948  27.627  32.334  1.00  0.00     0.057 A 
ATOM     83  C   UNL A   1      44.337  26.550  33.144  1.00  0.00     0.134 A 
ATOM     84  C   UNL A   1      42.726  28.223  32.684  1.00  0.00     0.134 A 
ATOM     85  F   UNL A   1      45.509  25.931  32.927  1.00  0.00    -0.206 F 
ATOM     86  C   UNL A   1      43.535  26.063  34.187  1.00  0.00     0.040 A 
ATOM     87  C   UNL A   1      41.913  27.754  33.725  1.00  0.00     0.040 A 
ATOM     88  F   UNL A   1      42.274  29.292  32.035  1.00  0.00    -0.206 F 
ATOM     89  C   UNL A   1      42.310  26.656  34.472  1.00  0.00     0.006 A 
ENDBRANCH  65  82
ENDBRANCH  39  40
ENDBRANCH  32  34
ENDBRANCH  31  32
ENDBRANCH  30  31
ENDBRANCH  29  30
ENDBRANCH  28  29
ENDBRANCH  27  28
ENDBRANCH  26  27
ENDBRANCH  25  26
ENDBRANCH  24  25
ENDBRANCH   1  24
TORSDOF 26
ENDMDL
MODEL 3
REMARK VINA RESULT:      -8.6      3.495      7.489
REMARK SMILES CN(CCC(F)(F)F)C(=O)c1cccn1CC(=O)OCCOCCOCCOCCOC(=O)c1ccc(-c2c3nc(c(-c4c(F)cccc4F)c4ccc([nH]4)c(-c4c(F)cccc4F)c4nc(c(-c5c(F)cccc5F)c5ccc2[nH]5)C=C4)C=C3)cc1
REMARK SMILES IDX 23 1 22 2 21 3 20 4 19 5 17 6 18 7 16 8 15 9 11 10 12 11
REMARK SMILES IDX 13 12 14 13 9 14 10 15 2 16 1 17 3 18 4 19 5 20 6 21 7 22
REMARK SMILES IDX 8 23 24 24 25 25 26 26 27 27 28 28 29 29 30 30 31 31 32 32
REMARK SMILES IDX 33 33 34 34 35 35 87 36 36 37 86 38 37 39 38 40 39 41 80 42
REMARK SMILES IDX 40 43 85 44 79 45 81 46 41 47 84 48 78 49 77 50 42 52 68 53
REMARK SMILES IDX 51 54 67 55 52 56 55 57 66 58 82 59 53 60 54 61 65 63 83 64
REMARK SMILES IDX 56 65 43 66 44 67 49 68 45 69 46 70 48 71 50 72 47 73 69 74
REMARK SMILES IDX 70 75 75 76 71 77 72 78 74 79 76 80 73 81 57 82 58 83 63 84
REMARK SMILES IDX 59 85 60 86 62 87 64 88 61 89
REMARK H PARENT 81 51 55 62
REMARK Flexibility Score: inf
ROOT
ATOM      1  C   UNL A   1      30.171  29.265  22.598  1.00  0.00     0.188 C 
ENDROOT
BRANCH   1   2
ATOM      2  O   UNL A   1      31.421  28.973  21.987  1.00  0.00    -0.376 OA
BRANCH   2   3
ATOM      3  C   UNL A   1      32.524  28.608  22.796  1.00  0.00     0.202 C 
BRANCH   3   4
ATOM      4  C   UNL A   1      33.444  27.450  22.364  1.00  0.00     0.261 C 
BRANCH   4   5
ATOM      5  O   UNL A   1      32.859  26.406  21.561  1.00  0.00    -0.462 OA
BRANCH   5   6
ATOM      6  C   UNL A   1      32.693  25.208  22.178  1.00  0.00     0.326 C 
ATOM      7  O   UNL A   1      33.401  24.228  21.957  1.00  0.00    -0.250 OA
BRANCH   6   8
ATOM      8  C   UNL A   1      31.536  25.146  23.150  1.00  0.00     0.244 C 
BRANCH   8   9
ATOM      9  N   UNL A   1      31.635  24.254  24.313  1.00  0.00    -0.332 N 
ATOM     10  C   UNL A   1      31.630  24.630  25.650  1.00  0.00     0.107 A 
ATOM     11  C   UNL A   1      31.452  23.464  26.383  1.00  0.00     0.033 A 
ATOM     12  C   UNL A   1      31.414  22.367  25.500  1.00  0.00     0.020 A 
ATOM     13  C   UNL A   1      31.487  22.883  24.231  1.00  0.00     0.087 A 
BRANCH  10  14
ATOM     14  C   UNL A   1      31.625  25.998  26.132  1.00  0.00     0.270 C 
ATOM     15  O   UNL A   1      30.610  26.475  26.643  1.00  0.00    -0.267 OA
BRANCH  14  16
ATOM     16  N   UNL A   1      32.784  26.781  25.997  1.00  0.00    -0.340 N 
ATOM     17  C   UNL A   1      34.016  26.030  25.787  1.00  0.00     0.147 C 
BRANCH  16  18
ATOM     18  C   UNL A   1      32.915  28.182  26.415  1.00  0.00     0.129 C 
BRANCH  18  19
ATOM     19  C   UNL A   1      34.229  28.857  26.019  1.00  0.00     0.137 C 
BRANCH  19  20
ATOM     20  C   UNL A   1      35.059  29.296  27.198  1.00  0.00     0.390 C 
ATOM     21  F   UNL A   1      34.285  29.674  28.237  1.00  0.00    -0.171 F 
ATOM     22  F   UNL A   1      35.833  28.273  27.630  1.00  0.00    -0.171 F 
ATOM     23  F   UNL A   1      35.884  30.313  26.885  1.00  0.00    -0.171 F 
ENDBRANCH  19  20
ENDBRANCH  18  19
ENDBRANCH  16  18
ENDBRANCH  14  16
ENDBRANCH  10  14
ENDBRANCH   8   9
ENDBRANCH   6   8
ENDBRANCH   5   6
ENDBRANCH   4   5
ENDBRANCH   3   4
ENDBRANCH   2   3
ENDBRANCH   1   2
BRANCH   1  24
ATOM     24  C   UNL A   1      29.147  30.174  21.881  1.00  0.00     0.188 C 
BRANCH  24  25
ATOM     25  O   UNL A   1      28.731  31.293  22.648  1.00  0.00    -0.377 OA
BRANCH  25  26
ATOM     26  C   UNL A   1      28.959  31.238  24.046  1.00  0.00     0.188 C 
BRANCH  26  27
ATOM     27  C   UNL A   1      29.995  32.181  24.696  1.00  0.00     0.188 C 
BRANCH  27  28
ATOM     28  O   UNL A   1      31.006  31.529  25.454  1.00  0.00    -0.376 OA
BRANCH  28  29
ATOM     29  C   UNL A   1      31.254  31.929  26.792  1.00  0.00     0.202 C 
BRANCH  29  30
ATOM     30  C   UNL A   1      31.877  33.329  26.873  1.00  0.00     0.261 C 
BRANCH  30  31
ATOM     31  O   UNL A   1      32.570  33.558  28.097  1.00  0.00    -0.460 OA
BRANCH  31  32
ATOM     32  C   UNL A   1      33.854  33.216  28.029  1.00  0.00     0.338 C 
ATOM     33  O   UNL A   1      34.427  32.563  27.140  1.00  0.00    -0.246 OA
BRANCH  32  34
ATOM     34  C   UNL A   1      34.563  33.623  29.217  1.00  0.00     0.060 A 
ATOM     35  C   UNL A   1      35.736  34.344  28.966  1.00  0.00     0.016 A 
ATOM     36  C   UNL A   1      34.400  32.745  30.291  1.00  0.00     0.016 A 
ATOM     37  C   UNL A   1      36.868  33.950  29.624  1.00  0.00     0.010 A 
ATOM     38  C   UNL A   1      35.541  32.316  30.913  1.00  0.00     0.010 A 
ATOM     39  C   UNL A   1      36.765  32.880  30.518  1.00  0.00    -0.014 A 
BRANCH  39  40
ATOM     40  C   UNL A   1      37.995  32.419  31.144  1.00  0.00     0.031 A 
ATOM     41  C   UNL A   1      38.512  31.184  30.416  1.00  0.00     0.074 A 
ATOM     42  C   UNL A   1      38.398  33.148  32.227  1.00  0.00     0.049 A 
ATOM     43  N   UNL A   1      39.368  30.295  30.801  1.00  0.00    -0.248 NA
ATOM     44  C   UNL A   1      37.960  30.852  29.066  1.00  0.00     0.031 C 
ATOM     45  C   UNL A   1      37.694  34.340  32.760  1.00  0.00     0.029 A 
ATOM     46  N   UNL A   1      39.452  33.045  33.103  1.00  0.00    -0.354 N 
ATOM     47  C   UNL A   1      39.644  29.489  29.682  1.00  0.00     0.074 A 
ATOM     48  C   UNL A   1      38.660  29.785  28.692  1.00  0.00     0.031 C 
ATOM     49  C   UNL A   1      38.286  34.785  33.888  1.00  0.00     0.029 A 
ATOM     50  C   UNL A   1      39.441  33.962  34.187  1.00  0.00     0.049 A 
ATOM     51  H   UNL A   1      40.169  32.379  32.987  1.00  0.00     0.167 HD
ATOM     52  C   UNL A   1      40.776  28.745  29.574  1.00  0.00     0.037 A 
ATOM     53  C   UNL A   1      40.291  34.028  35.259  1.00  0.00     0.037 A 
ATOM     54  C   UNL A   1      41.526  28.805  30.781  1.00  0.00     0.049 A 
ATOM     55  C   UNL A   1      41.376  33.092  34.931  1.00  0.00     0.074 A 
ATOM     56  C   UNL A   1      41.291  28.269  32.020  1.00  0.00     0.029 A 
ATOM     57  N   UNL A   1      42.453  29.813  30.893  1.00  0.00    -0.354 N 
ATOM     58  N   UNL A   1      42.269  33.309  34.013  1.00  0.00    -0.248 NA
ATOM     59  C   UNL A   1      41.423  31.785  35.592  1.00  0.00     0.031 C 
ATOM     60  C   UNL A   1      41.758  29.260  32.907  1.00  0.00     0.029 A 
ATOM     61  C   UNL A   1      42.419  30.265  32.190  1.00  0.00     0.049 A 
ATOM     62  H   UNL A   1      43.036  30.150  30.174  1.00  0.00     0.167 HD
ATOM     63  C   UNL A   1      42.735  32.044  33.749  1.00  0.00     0.074 A 
ATOM     64  C   UNL A   1      42.438  31.246  34.919  1.00  0.00     0.031 C 
ATOM     65  C   UNL A   1      42.833  31.625  32.459  1.00  0.00     0.037 A 
BRANCH  52  66
ATOM     66  C   UNL A   1      41.407  28.125  28.372  1.00  0.00     0.057 A 
ATOM     67  C   UNL A   1      42.059  28.972  27.453  1.00  0.00     0.134 A 
ATOM     68  C   UNL A   1      41.115  26.831  27.923  1.00  0.00     0.134 A 
ATOM     69  F   UNL A   1      42.415  30.218  27.800  1.00  0.00    -0.206 F 
ATOM     70  C   UNL A   1      42.298  28.596  26.133  1.00  0.00     0.040 A 
ATOM     71  C   UNL A   1      41.390  26.428  26.612  1.00  0.00     0.040 A 
ATOM     72  F   UNL A   1      40.473  25.948  28.700  1.00  0.00    -0.206 F 
ATOM     73  C   UNL A   1      41.944  27.324  25.702  1.00  0.00     0.006 A 
ENDBRANCH  52  66
BRANCH  53  74
ATOM     74  C   UNL A   1      40.390  34.721  36.598  1.00  0.00     0.057 A 
ATOM     75  C   UNL A   1      41.398  35.599  37.006  1.00  0.00     0.134 A 
ATOM     76  C   UNL A   1      39.326  34.599  37.536  1.00  0.00     0.134 A 
ATOM     77  F   UNL A   1      42.514  35.765  36.291  1.00  0.00    -0.206 F 
ATOM     78  C   UNL A   1      41.305  36.363  38.187  1.00  0.00     0.040 A 
ATOM     79  C   UNL A   1      39.197  35.384  38.687  1.00  0.00     0.040 A 
ATOM     80  F   UNL A   1      38.333  33.712  37.372  1.00  0.00    -0.206 F 
ATOM     81  C   UNL A   1      40.186  36.289  39.010  1.00  0.00     0.006 A 
ENDBRANCH  53  74
BRANCH  65  82
ATOM     82  C   UNL A   1      42.943  32.765  31.452  1.00  0.00     0.057 A 
ATOM     83  C   UNL A   1      44.037  33.642  31.494  1.00  0.00     0.134 A 
ATOM     84  C   UNL A   1      41.935  33.116  30.541  1.00  0.00     0.134 A 
ATOM     85  F   UNL A   1      45.080  33.383  32.299  1.00  0.00    -0.206 F 
ATOM     86  C   UNL A   1      44.090  34.818  30.729  1.00  0.00     0.040 A 
ATOM     87  C   UNL A   1      41.971  34.283  29.765  1.00  0.00     0.040 A 
ATOM     88  F   UNL A   1      40.874  32.336  30.360  1.00  0.00    -0.206 F 
ATOM     89  C   UNL A   1      43.048  35.150  29.870  1.00  0.00     0.006 A 
ENDBRANCH  65  82
ENDBRANCH  39  40
ENDBRANCH  32  34
ENDBRANCH  31  32
ENDBRANCH  30  31
ENDBRANCH  29  30
ENDBRANCH  28  29
ENDBRANCH  27  28
ENDBRANCH  26  27
ENDBRANCH  25  26
ENDBRANCH  24  25
ENDBRANCH   1  24
TORSDOF 26
ENDMDL
