MODEL 1
REMARK VINA RESULT:     -10.4      0.000      0.000
REMARK SMILES CCN(C(=O)C[N@H+]1CCC[C@@H](C(=O)OCCOCCOCCOCCOC(=O)c2ccc(-c3c4nc(c(-c5c(F)cccc5F)c5ccc([nH]5)c(-c5c(F)cccc5F)c5nc(c(-c6c(F)cccc6F)c6ccc3[nH]6)C=C5)C=C4)cc2)C1)C1=CCCCC1
REMARK SMILES IDX 19 1 18 2 17 3 16 4 15 5 14 6 12 7 13 8 11 9 7 10 8 11 83 12
REMARK SMILES IDX 9 14 10 15 6 16 4 17 5 18 3 19 2 20 1 21 84 22 85 23 89 24
REMARK SMILES IDX 86 25 88 26 87 27 20 28 21 29 22 30 23 31 24 32 25 33 26 34
REMARK SMILES IDX 27 35 28 36 29 37 30 38 82 39 31 40 81 41 32 42 33 43 34 44
REMARK SMILES IDX 75 45 35 46 80 47 74 48 76 49 36 50 79 51 73 52 72 53 37 55
REMARK SMILES IDX 63 56 46 57 62 58 47 59 50 60 61 61 77 62 48 63 49 64 60 66
REMARK SMILES IDX 78 67 51 68 38 69 39 70 44 71 40 72 41 73 43 74 45 75 42 76
REMARK SMILES IDX 64 77 65 78 70 79 66 80 67 81 69 82 71 83 68 84 52 85 53 86
REMARK SMILES IDX 58 87 54 88 55 89 57 90 59 91 56 92
REMARK H PARENT 7 13 76 54 50 65
REMARK Flexibility Score: inf
ROOT
ATOM      1  C   UNL A   1      43.417  18.439  26.040  1.00  0.00     0.188 C 
ENDROOT
BRANCH   1   2
ATOM      2  C   UNL A   1      42.255  19.461  26.134  1.00  0.00     0.188 C 
BRANCH   2   3
ATOM      3  O   UNL A   1      42.621  20.795  26.458  1.00  0.00    -0.376 OA
BRANCH   3   4
ATOM      4  C   UNL A   1      41.619  21.796  26.338  1.00  0.00     0.202 C 
BRANCH   4   5
ATOM      5  C   UNL A   1      40.265  21.464  26.989  1.00  0.00     0.261 C 
BRANCH   5   6
ATOM      6  O   UNL A   1      39.183  21.401  26.034  1.00  0.00    -0.463 OA
BRANCH   6   7
ATOM      7  C   UNL A   1      38.394  22.493  25.996  1.00  0.00     0.314 C 
ATOM      8  O   UNL A   1      38.673  23.533  26.583  1.00  0.00    -0.252 OA
BRANCH   7   9
ATOM      9  C   UNL A   1      37.186  22.368  25.079  1.00  0.00     0.154 C 
ATOM     10  N   UNL A   1      34.932  21.468  25.139  1.00  0.00    -0.326 N 
ATOM     11  C   UNL A   1      34.451  22.409  24.105  1.00  0.00     0.262 C 
ATOM     12  C   UNL A   1      35.947  22.147  25.946  1.00  0.00     0.278 C 
ATOM     13  H   UNL A   1      35.370  20.660  24.696  1.00  0.00     0.348 HD
ATOM     14  C   UNL A   1      35.609  22.967  23.243  1.00  0.00     0.062 C 
ATOM     15  C   UNL A   1      36.810  23.456  24.075  1.00  0.00     0.027 C 
BRANCH  10  16
ATOM     16  C   UNL A   1      33.821  20.877  25.929  1.00  0.00     0.364 C 
BRANCH  16  17
ATOM     17  C   UNL A   1      32.582  20.459  25.111  1.00  0.00     0.281 C 
ATOM     18  O   UNL A   1      31.507  21.018  25.375  1.00  0.00    -0.268 OA
BRANCH  17  19
ATOM     19  N   UNL A   1      32.682  19.405  24.172  1.00  0.00    -0.312 N 
BRANCH  19  20
ATOM     20  C   UNL A   1      32.154  19.459  22.786  1.00  0.00     0.122 C 
ATOM     21  C   UNL A   1      32.326  18.225  21.910  1.00  0.00     0.028 C 
ENDBRANCH  19  20
BRANCH  19  22
ATOM     22  C   UNL A   1      33.156  18.161  24.623  1.00  0.00     0.017 C 
ATOM     23  C   UNL A   1      34.467  17.870  24.545  1.00  0.00    -0.005 C 
ATOM     24  C   UNL A   1      32.153  17.133  25.105  1.00  0.00     0.054 C 
ATOM     25  C   UNL A   1      35.058  16.544  24.910  1.00  0.00     0.029 C 
ATOM     26  C   UNL A   1      32.783  15.893  25.753  1.00  0.00     0.007 C 
ATOM     27  C   UNL A   1      34.021  15.427  25.003  1.00  0.00     0.005 C 
ENDBRANCH  19  22
ENDBRANCH  17  19
ENDBRANCH  16  17
ENDBRANCH  10  16
ENDBRANCH   7   9
ENDBRANCH   6   7
ENDBRANCH   5   6
ENDBRANCH   4   5
ENDBRANCH   3   4
ENDBRANCH   2   3
ENDBRANCH   1   2
BRANCH   1  28
ATOM     28  O   UNL A   1      44.284  18.357  24.915  1.00  0.00    -0.377 OA
BRANCH  28  29
ATOM     29  C   UNL A   1      45.608  18.830  25.057  1.00  0.00     0.188 C 
BRANCH  29  30
ATOM     30  C   UNL A   1      45.753  20.358  24.951  1.00  0.00     0.188 C 
BRANCH  30  31
ATOM     31  O   UNL A   1      44.856  20.934  24.012  1.00  0.00    -0.376 OA
BRANCH  31  32
ATOM     32  C   UNL A   1      44.978  22.315  23.716  1.00  0.00     0.202 C 
BRANCH  32  33
ATOM     33  C   UNL A   1      43.943  23.309  24.272  1.00  0.00     0.261 C 
BRANCH  33  34
ATOM     34  O   UNL A   1      44.257  23.963  25.508  1.00  0.00    -0.460 OA
BRANCH  34  35
ATOM     35  C   UNL A   1      44.657  25.248  25.468  1.00  0.00     0.338 C 
ATOM     36  O   UNL A   1      45.364  25.777  24.628  1.00  0.00    -0.246 OA
BRANCH  35  37
ATOM     37  C   UNL A   1      43.902  25.966  26.519  1.00  0.00     0.060 A 
ATOM     38  C   UNL A   1      44.173  27.326  26.734  1.00  0.00     0.016 A 
ATOM     39  C   UNL A   1      42.891  25.325  27.239  1.00  0.00     0.016 A 
ATOM     40  C   UNL A   1      43.434  28.046  27.671  1.00  0.00     0.010 A 
ATOM     41  C   UNL A   1      42.183  26.033  28.213  1.00  0.00     0.010 A 
ATOM     42  C   UNL A   1      42.473  27.388  28.451  1.00  0.00    -0.014 A 
BRANCH  42  43
ATOM     43  C   UNL A   1      41.978  28.043  29.681  1.00  0.00     0.031 A 
ATOM     44  C   UNL A   1      40.727  28.870  29.566  1.00  0.00     0.074 A 
ATOM     45  C   UNL A   1      42.591  27.893  30.868  1.00  0.00     0.049 A 
ATOM     46  N   UNL A   1      40.106  29.573  30.475  1.00  0.00    -0.248 NA
ATOM     47  C   UNL A   1      40.094  28.906  28.236  1.00  0.00     0.031 C 
ATOM     48  C   UNL A   1      43.779  27.077  31.113  1.00  0.00     0.029 A 
ATOM     49  N   UNL A   1      42.292  28.434  32.093  1.00  0.00    -0.354 N 
ATOM     50  C   UNL A   1      39.013  30.135  29.826  1.00  0.00     0.074 A 
ATOM     51  C   UNL A   1      39.071  29.718  28.445  1.00  0.00     0.031 C 
ATOM     52  C   UNL A   1      44.119  27.187  32.410  1.00  0.00     0.029 A 
ATOM     53  C   UNL A   1      43.192  28.102  33.076  1.00  0.00     0.049 A 
ATOM     54  H   UNL A   1      41.508  29.008  32.251  1.00  0.00     0.167 HD
ATOM     55  C   UNL A   1      38.041  30.923  30.340  1.00  0.00     0.037 A 
ATOM     56  C   UNL A   1      43.265  28.513  34.357  1.00  0.00     0.037 A 
ATOM     57  C   UNL A   1      37.996  31.349  31.712  1.00  0.00     0.049 A 
ATOM     58  C   UNL A   1      42.220  29.465  34.886  1.00  0.00     0.074 A 
ATOM     59  C   UNL A   1      37.054  32.145  32.337  1.00  0.00     0.029 A 
ATOM     60  N   UNL A   1      38.946  31.022  32.669  1.00  0.00    -0.354 N 
ATOM     61  N   UNL A   1      41.175  29.973  34.276  1.00  0.00    -0.248 NA
ATOM     62  C   UNL A   1      42.364  29.900  36.282  1.00  0.00     0.031 C 
ATOM     63  C   UNL A   1      37.464  32.347  33.659  1.00  0.00     0.029 A 
ATOM     64  C   UNL A   1      38.627  31.624  33.873  1.00  0.00     0.049 A 
ATOM     65  H   UNL A   1      39.730  30.447  32.514  1.00  0.00     0.167 HD
ATOM     66  C   UNL A   1      40.521  30.756  35.221  1.00  0.00     0.074 A 
ATOM     67  C   UNL A   1      41.283  30.648  36.448  1.00  0.00     0.031 C 
ATOM     68  C   UNL A   1      39.393  31.495  35.088  1.00  0.00     0.037 A 
BRANCH  55  69
ATOM     69  C   UNL A   1      36.975  31.402  29.400  1.00  0.00     0.057 A 
ATOM     70  C   UNL A   1      36.990  32.693  28.856  1.00  0.00     0.134 A 
ATOM     71  C   UNL A   1      35.923  30.555  29.029  1.00  0.00     0.134 A 
ATOM     72  F   UNL A   1      37.957  33.561  29.189  1.00  0.00    -0.206 F 
ATOM     73  C   UNL A   1      35.985  33.132  27.992  1.00  0.00     0.040 A 
ATOM     74  C   UNL A   1      34.929  30.973  28.144  1.00  0.00     0.040 A 
ATOM     75  F   UNL A   1      35.848  29.308  29.517  1.00  0.00    -0.206 F 
ATOM     76  C   UNL A   1      34.954  32.267  27.628  1.00  0.00     0.006 A 
ENDBRANCH  55  69
BRANCH  56  77
ATOM     77  C   UNL A   1      44.372  28.049  35.233  1.00  0.00     0.057 A 
ATOM     78  C   UNL A   1      45.562  28.776  35.349  1.00  0.00     0.134 A 
ATOM     79  C   UNL A   1      44.280  26.848  35.946  1.00  0.00     0.134 A 
ATOM     80  F   UNL A   1      45.723  29.920  34.669  1.00  0.00    -0.206 F 
ATOM     81  C   UNL A   1      46.629  28.317  36.126  1.00  0.00     0.040 A 
ATOM     82  C   UNL A   1      45.328  26.390  36.749  1.00  0.00     0.040 A 
ATOM     83  F   UNL A   1      43.169  26.101  35.877  1.00  0.00    -0.206 F 
ATOM     84  C   UNL A   1      46.510  27.122  36.833  1.00  0.00     0.006 A 
ENDBRANCH  56  77
BRANCH  68  85
ATOM     85  C   UNL A   1      38.883  32.208  36.308  1.00  0.00     0.057 A 
ATOM     86  C   UNL A   1      39.207  33.544  36.579  1.00  0.00     0.134 A 
ATOM     87  C   UNL A   1      38.012  31.561  37.196  1.00  0.00     0.134 A 
ATOM     88  F   UNL A   1      40.041  34.218  35.774  1.00  0.00    -0.206 F 
ATOM     89  C   UNL A   1      38.703  34.202  37.703  1.00  0.00     0.040 A 
ATOM     90  C   UNL A   1      37.478  32.219  38.305  1.00  0.00     0.040 A 
ATOM     91  F   UNL A   1      37.651  30.286  36.988  1.00  0.00    -0.206 F 
ATOM     92  C   UNL A   1      37.829  33.541  38.565  1.00  0.00     0.006 A 
ENDBRANCH  68  85
ENDBRANCH  42  43
ENDBRANCH  35  37
ENDBRANCH  34  35
ENDBRANCH  33  34
ENDBRANCH  32  33
ENDBRANCH  31  32
ENDBRANCH  30  31
ENDBRANCH  29  30
ENDBRANCH  28  29
ENDBRANCH   1  28
TORSDOF 25
ENDMDL
MODEL 2
REMARK VINA RESULT:     -10.1      1.632      3.514
REMARK SMILES CCN(C(=O)C[N@H+]1CCC[C@@H](C(=O)OCCOCCOCCOCCOC(=O)c2ccc(-c3c4nc(c(-c5c(F)cccc5F)c5ccc([nH]5)c(-c5c(F)cccc5F)c5nc(c(-c6c(F)cccc6F)c6ccc3[nH]6)C=C5)C=C4)cc2)C1)C1=CCCCC1
REMARK SMILES IDX 19 1 18 2 17 3 16 4 15 5 14 6 12 7 13 8 11 9 7 10 8 11 83 12
REMARK SMILES IDX 9 14 10 15 6 16 4 17 5 18 3 19 2 20 1 21 84 22 85 23 89 24
REMARK SMILES IDX 86 25 88 26 87 27 20 28 21 29 22 30 23 31 24 32 25 33 26 34
REMARK SMILES IDX 27 35 28 36 29 37 30 38 82 39 31 40 81 41 32 42 33 43 34 44
REMARK SMILES IDX 75 45 35 46 80 47 74 48 76 49 36 50 79 51 73 52 72 53 37 55
REMARK SMILES IDX 63 56 46 57 62 58 47 59 50 60 61 61 77 62 48 63 49 64 60 66
REMARK SMILES IDX 78 67 51 68 38 69 39 70 44 71 40 72 41 73 43 74 45 75 42 76
REMARK SMILES IDX 64 77 65 78 70 79 66 80 67 81 69 82 71 83 68 84 52 85 53 86
REMARK SMILES IDX 58 87 54 88 55 89 57 90 59 91 56 92
REMARK H PARENT 7 13 76 54 50 65
REMARK Flexibility Score: inf
ROOT
ATOM      1  C   UNL A   1      42.740  18.695  26.493  1.00  0.00     0.188 C 
ENDROOT
BRANCH   1   2
ATOM      2  C   UNL A   1      41.709  19.773  26.916  1.00  0.00     0.188 C 
BRANCH   2   3
ATOM      3  O   UNL A   1      42.156  21.120  26.860  1.00  0.00    -0.376 OA
BRANCH   3   4
ATOM      4  C   UNL A   1      41.199  22.113  26.512  1.00  0.00     0.202 C 
BRANCH   4   5
ATOM      5  C   UNL A   1      39.728  21.737  26.761  1.00  0.00     0.261 C 
BRANCH   5   6
ATOM      6  O   UNL A   1      38.861  22.105  25.666  1.00  0.00    -0.463 OA
BRANCH   6   7
ATOM      7  C   UNL A   1      37.890  22.984  25.981  1.00  0.00     0.314 C 
ATOM      8  O   UNL A   1      38.126  24.091  26.456  1.00  0.00    -0.252 OA
BRANCH   7   9
ATOM      9  C   UNL A   1      36.486  22.539  25.599  1.00  0.00     0.154 C 
ATOM     10  N   UNL A   1      34.544  23.421  24.439  1.00  0.00    -0.326 N 
ATOM     11  C   UNL A   1      34.068  22.073  24.060  1.00  0.00     0.262 C 
ATOM     12  C   UNL A   1      36.007  23.412  24.438  1.00  0.00     0.278 C 
ATOM     13  H   UNL A   1      34.230  23.647  25.382  1.00  0.00     0.348 HD
ATOM     14  C   UNL A   1      34.648  20.972  24.980  1.00  0.00     0.062 C 
ATOM     15  C   UNL A   1      36.167  21.099  25.203  1.00  0.00     0.027 C 
BRANCH  10  16
ATOM     16  C   UNL A   1      33.941  24.491  23.601  1.00  0.00     0.364 C 
BRANCH  16  17
ATOM     17  C   UNL A   1      32.415  24.655  23.744  1.00  0.00     0.281 C 
ATOM     18  O   UNL A   1      31.724  24.488  22.727  1.00  0.00    -0.268 OA
BRANCH  17  19
ATOM     19  N   UNL A   1      31.864  25.080  24.976  1.00  0.00    -0.312 N 
BRANCH  19  20
ATOM     20  C   UNL A   1      30.893  24.296  25.778  1.00  0.00     0.122 C 
ATOM     21  C   UNL A   1      31.441  23.214  26.701  1.00  0.00     0.028 C 
ENDBRANCH  19  20
BRANCH  19  22
ATOM     22  C   UNL A   1      32.113  26.399  25.392  1.00  0.00     0.017 C 
ATOM     23  C   UNL A   1      33.309  26.729  25.911  1.00  0.00    -0.005 C 
ATOM     24  C   UNL A   1      30.983  27.406  25.328  1.00  0.00     0.054 C 
ATOM     25  C   UNL A   1      33.642  28.078  26.468  1.00  0.00     0.029 C 
ATOM     26  C   UNL A   1      31.409  28.851  25.617  1.00  0.00     0.007 C 
ATOM     27  C   UNL A   1      32.410  28.931  26.759  1.00  0.00     0.005 C 
ENDBRANCH  19  22
ENDBRANCH  17  19
ENDBRANCH  16  17
ENDBRANCH  10  16
ENDBRANCH   7   9
ENDBRANCH   6   7
ENDBRANCH   5   6
ENDBRANCH   4   5
ENDBRANCH   3   4
ENDBRANCH   2   3
ENDBRANCH   1   2
BRANCH   1  28
ATOM     28  O   UNL A   1      43.195  18.545  25.154  1.00  0.00    -0.377 OA
BRANCH  28  29
ATOM     29  C   UNL A   1      44.558  18.799  24.879  1.00  0.00     0.188 C 
BRANCH  29  30
ATOM     30  C   UNL A   1      44.957  20.282  24.955  1.00  0.00     0.188 C 
BRANCH  30  31
ATOM     31  O   UNL A   1      44.652  20.998  23.767  1.00  0.00    -0.376 OA
BRANCH  31  32
ATOM     32  C   UNL A   1      44.798  22.408  23.768  1.00  0.00     0.202 C 
BRANCH  32  33
ATOM     33  C   UNL A   1      43.751  23.283  24.479  1.00  0.00     0.261 C 
BRANCH  33  34
ATOM     34  O   UNL A   1      44.150  23.932  25.692  1.00  0.00    -0.460 OA
BRANCH  34  35
ATOM     35  C   UNL A   1      44.581  25.206  25.624  1.00  0.00     0.338 C 
ATOM     36  O   UNL A   1      45.300  25.699  24.773  1.00  0.00    -0.246 OA
BRANCH  35  37
ATOM     37  C   UNL A   1      43.847  25.965  26.661  1.00  0.00     0.060 A 
ATOM     38  C   UNL A   1      44.171  27.314  26.867  1.00  0.00     0.016 A 
ATOM     39  C   UNL A   1      42.803  25.373  27.376  1.00  0.00     0.016 A 
ATOM     40  C   UNL A   1      43.453  28.073  27.789  1.00  0.00     0.010 A 
ATOM     41  C   UNL A   1      42.115  26.119  28.337  1.00  0.00     0.010 A 
ATOM     42  C   UNL A   1      42.459  27.463  28.565  1.00  0.00    -0.014 A 
BRANCH  42  43
ATOM     43  C   UNL A   1      41.979  28.150  29.784  1.00  0.00     0.031 A 
ATOM     44  C   UNL A   1      40.729  28.977  29.662  1.00  0.00     0.074 A 
ATOM     45  C   UNL A   1      42.604  28.027  30.967  1.00  0.00     0.049 A 
ATOM     46  N   UNL A   1      40.120  29.704  30.560  1.00  0.00    -0.248 NA
ATOM     47  C   UNL A   1      40.081  28.981  28.339  1.00  0.00     0.031 C 
ATOM     48  C   UNL A   1      43.793  27.216  31.219  1.00  0.00     0.029 A 
ATOM     49  N   UNL A   1      42.321  28.600  32.181  1.00  0.00    -0.354 N 
ATOM     50  C   UNL A   1      39.020  30.252  29.910  1.00  0.00     0.074 A 
ATOM     51  C   UNL A   1      39.062  29.801  28.539  1.00  0.00     0.031 C 
ATOM     52  C   UNL A   1      44.148  27.357  32.509  1.00  0.00     0.029 A 
ATOM     53  C   UNL A   1      43.231  28.290  33.163  1.00  0.00     0.049 A 
ATOM     54  H   UNL A   1      41.540  29.179  32.334  1.00  0.00     0.167 HD
ATOM     55  C   UNL A   1      38.056  31.056  30.415  1.00  0.00     0.037 A 
ATOM     56  C   UNL A   1      43.319  28.733  34.432  1.00  0.00     0.037 A 
ATOM     57  C   UNL A   1      38.028  31.515  31.776  1.00  0.00     0.049 A 
ATOM     58  C   UNL A   1      42.282  29.700  34.948  1.00  0.00     0.074 A 
ATOM     59  C   UNL A   1      37.095  32.329  32.391  1.00  0.00     0.029 A 
ATOM     60  N   UNL A   1      38.987  31.210  32.730  1.00  0.00    -0.354 N 
ATOM     61  N   UNL A   1      41.232  30.195  34.338  1.00  0.00    -0.248 NA
ATOM     62  C   UNL A   1      42.443  30.170  36.332  1.00  0.00     0.031 C 
ATOM     63  C   UNL A   1      37.519  32.563  33.703  1.00  0.00     0.029 A 
ATOM     64  C   UNL A   1      38.683  31.842  33.922  1.00  0.00     0.049 A 
ATOM     65  H   UNL A   1      39.769  30.629  32.581  1.00  0.00     0.167 HD
ATOM     66  C   UNL A   1      40.590  31.004  35.270  1.00  0.00     0.074 A 
ATOM     67  C   UNL A   1      41.366  30.925  36.491  1.00  0.00     0.031 C 
ATOM     68  C   UNL A   1      39.462  31.742  35.132  1.00  0.00     0.037 A 
BRANCH  55  69
ATOM     69  C   UNL A   1      36.981  31.513  29.475  1.00  0.00     0.057 A 
ATOM     70  C   UNL A   1      35.868  30.716  29.176  1.00  0.00     0.134 A 
ATOM     71  C   UNL A   1      37.056  32.773  28.868  1.00  0.00     0.134 A 
ATOM     72  F   UNL A   1      35.747  29.490  29.706  1.00  0.00    -0.206 F 
ATOM     73  C   UNL A   1      34.879  31.147  28.289  1.00  0.00     0.040 A 
ATOM     74  C   UNL A   1      36.060  33.226  28.003  1.00  0.00     0.040 A 
ATOM     75  F   UNL A   1      38.097  33.584  29.109  1.00  0.00    -0.206 F 
ATOM     76  C   UNL A   1      34.971  32.410  27.706  1.00  0.00     0.006 A 
ENDBRANCH  55  69
BRANCH  56  77
ATOM     77  C   UNL A   1      44.435  28.288  35.307  1.00  0.00     0.057 A 
ATOM     78  C   UNL A   1      45.605  29.045  35.436  1.00  0.00     0.134 A 
ATOM     79  C   UNL A   1      44.372  27.076  36.006  1.00  0.00     0.134 A 
ATOM     80  F   UNL A   1      45.738  30.201  34.771  1.00  0.00    -0.206 F 
ATOM     81  C   UNL A   1      46.680  28.605  36.212  1.00  0.00     0.040 A 
ATOM     82  C   UNL A   1      45.429  26.637  36.807  1.00  0.00     0.040 A 
ATOM     83  F   UNL A   1      43.281  26.301  35.923  1.00  0.00    -0.206 F 
ATOM     84  C   UNL A   1      46.591  27.399  36.904  1.00  0.00     0.006 A 
ENDBRANCH  56  77
BRANCH  68  85
ATOM     85  C   UNL A   1      38.968  32.487  36.339  1.00  0.00     0.057 A 
ATOM     86  C   UNL A   1      38.101  31.902  37.271  1.00  0.00     0.134 A 
ATOM     87  C   UNL A   1      39.409  33.792  36.597  1.00  0.00     0.134 A 
ATOM     88  F   UNL A   1      37.634  30.659  37.079  1.00  0.00    -0.206 F 
ATOM     89  C   UNL A   1      37.672  32.598  38.403  1.00  0.00     0.040 A 
ATOM     90  C   UNL A   1      39.013  34.486  37.741  1.00  0.00     0.040 A 
ATOM     91  F   UNL A   1      40.251  34.407  35.752  1.00  0.00    -0.206 F 
ATOM     92  C   UNL A   1      38.135  33.891  38.644  1.00  0.00     0.006 A 
ENDBRANCH  68  85
ENDBRANCH  42  43
ENDBRANCH  35  37
ENDBRANCH  34  35
ENDBRANCH  33  34
ENDBRANCH  32  33
ENDBRANCH  31  32
ENDBRANCH  30  31
ENDBRANCH  29  30
ENDBRANCH  28  29
ENDBRANCH   1  28
TORSDOF 25
ENDMDL
MODEL 3
REMARK VINA RESULT:      -9.5      2.789      7.795
REMARK SMILES CCN(C(=O)C[N@H+]1CCC[C@@H](C(=O)OCCOCCOCCOCCOC(=O)c2ccc(-c3c4nc(c(-c5c(F)cccc5F)c5ccc([nH]5)c(-c5c(F)cccc5F)c5nc(c(-c6c(F)cccc6F)c6ccc3[nH]6)C=C5)C=C4)cc2)C1)C1=CCCCC1
REMARK SMILES IDX 19 1 18 2 17 3 16 4 15 5 14 6 12 7 13 8 11 9 7 10 8 11 83 12
REMARK SMILES IDX 9 14 10 15 6 16 4 17 5 18 3 19 2 20 1 21 84 22 85 23 89 24
REMARK SMILES IDX 86 25 88 26 87 27 20 28 21 29 22 30 23 31 24 32 25 33 26 34
REMARK SMILES IDX 27 35 28 36 29 37 30 38 82 39 31 40 81 41 32 42 33 43 34 44
REMARK SMILES IDX 75 45 35 46 80 47 74 48 76 49 36 50 79 51 73 52 72 53 37 55
REMARK SMILES IDX 63 56 46 57 62 58 47 59 50 60 61 61 77 62 48 63 49 64 60 66
REMARK SMILES IDX 78 67 51 68 38 69 39 70 44 71 40 72 41 73 43 74 45 75 42 76
REMARK SMILES IDX 64 77 65 78 70 79 66 80 67 81 69 82 71 83 68 84 52 85 53 86
REMARK SMILES IDX 58 87 54 88 55 89 57 90 59 91 56 92
REMARK H PARENT 7 13 76 54 50 65
REMARK Flexibility Score: inf
ROOT
ATOM      1  C   UNL A   1      36.350  20.242  25.051  1.00  0.00     0.188 C 
ENDROOT
BRANCH   1   2
ATOM      2  C   UNL A   1      35.743  18.878  24.630  1.00  0.00     0.188 C 
BRANCH   2   3
ATOM      3  O   UNL A   1      34.384  18.665  24.980  1.00  0.00    -0.376 OA
BRANCH   3   4
ATOM      4  C   UNL A   1      33.491  18.290  23.939  1.00  0.00     0.202 C 
BRANCH   4   5
ATOM      5  C   UNL A   1      32.390  19.313  23.607  1.00  0.00     0.261 C 
BRANCH   5   6
ATOM      6  O   UNL A   1      32.886  20.668  23.532  1.00  0.00    -0.463 OA
BRANCH   6   7
ATOM      7  C   UNL A   1      32.530  21.460  24.562  1.00  0.00     0.314 C 
ATOM      8  O   UNL A   1      31.603  21.187  25.318  1.00  0.00    -0.252 OA
BRANCH   7   9
ATOM      9  C   UNL A   1      33.438  22.661  24.778  1.00  0.00     0.154 C 
ATOM     10  N   UNL A   1      33.709  24.922  23.933  1.00  0.00    -0.326 N 
ATOM     11  C   UNL A   1      34.347  25.389  25.182  1.00  0.00     0.262 C 
ATOM     12  C   UNL A   1      32.709  23.909  24.276  1.00  0.00     0.278 C 
ATOM     13  H   UNL A   1      34.405  24.486  23.329  1.00  0.00     0.348 HD
ATOM     14  C   UNL A   1      34.953  24.221  25.997  1.00  0.00     0.062 C 
ATOM     15  C   UNL A   1      33.997  23.024  26.152  1.00  0.00     0.027 C 
BRANCH  10  16
ATOM     16  C   UNL A   1      33.182  26.042  23.112  1.00  0.00     0.364 C 
BRANCH  16  17
ATOM     17  C   UNL A   1      31.651  26.055  22.922  1.00  0.00     0.281 C 
ATOM     18  O   UNL A   1      31.191  25.451  21.941  1.00  0.00    -0.268 OA
BRANCH  17  19
ATOM     19  N   UNL A   1      30.841  26.820  23.795  1.00  0.00    -0.312 N 
BRANCH  19  20
ATOM     20  C   UNL A   1      30.606  26.497  25.224  1.00  0.00     0.122 C 
ATOM     21  C   UNL A   1      31.328  27.336  26.271  1.00  0.00     0.028 C 
ENDBRANCH  19  20
BRANCH  19  22
ATOM     22  C   UNL A   1      30.066  27.853  23.241  1.00  0.00     0.017 C 
ATOM     23  C   UNL A   1      30.658  28.846  22.554  1.00  0.00    -0.005 C 
ATOM     24  C   UNL A   1      28.577  27.872  23.516  1.00  0.00     0.054 C 
ATOM     25  C   UNL A   1      29.937  30.039  22.007  1.00  0.00     0.029 C 
ATOM     26  C   UNL A   1      27.800  28.922  22.712  1.00  0.00     0.007 C 
ATOM     27  C   UNL A   1      28.554  30.240  22.621  1.00  0.00     0.005 C 
ENDBRANCH  19  22
ENDBRANCH  17  19
ENDBRANCH  16  17
ENDBRANCH  10  16
ENDBRANCH   7   9
ENDBRANCH   6   7
ENDBRANCH   5   6
ENDBRANCH   4   5
ENDBRANCH   3   4
ENDBRANCH   2   3
ENDBRANCH   1   2
BRANCH   1  28
ATOM     28  O   UNL A   1      37.738  20.535  24.949  1.00  0.00    -0.377 OA
BRANCH  28  29
ATOM     29  C   UNL A   1      38.259  21.586  25.736  1.00  0.00     0.188 C 
BRANCH  29  30
ATOM     30  C   UNL A   1      39.792  21.590  25.859  1.00  0.00     0.188 C 
BRANCH  30  31
ATOM     31  O   UNL A   1      40.251  20.982  27.058  1.00  0.00    -0.376 OA
BRANCH  31  32
ATOM     32  C   UNL A   1      41.639  20.732  27.204  1.00  0.00     0.202 C 
BRANCH  32  33
ATOM     33  C   UNL A   1      42.623  21.242  26.137  1.00  0.00     0.261 C 
BRANCH  33  34
ATOM     34  O   UNL A   1      43.460  22.349  26.489  1.00  0.00    -0.460 OA
BRANCH  34  35
ATOM     35  C   UNL A   1      43.405  23.460  25.731  1.00  0.00     0.338 C 
ATOM     36  O   UNL A   1      43.625  23.552  24.536  1.00  0.00    -0.246 OA
BRANCH  35  37
ATOM     37  C   UNL A   1      42.814  24.526  26.571  1.00  0.00     0.060 A 
ATOM     38  C   UNL A   1      43.515  25.731  26.726  1.00  0.00     0.016 A 
ATOM     39  C   UNL A   1      41.549  24.365  27.145  1.00  0.00     0.016 A 
ATOM     40  C   UNL A   1      42.955  26.777  27.456  1.00  0.00     0.010 A 
ATOM     41  C   UNL A   1      41.009  25.395  27.919  1.00  0.00     0.010 A 
ATOM     42  C   UNL A   1      41.723  26.592  28.099  1.00  0.00    -0.014 A 
BRANCH  42  43
ATOM     43  C   UNL A   1      41.324  27.535  29.167  1.00  0.00     0.031 A 
ATOM     44  C   UNL A   1      42.093  27.480  30.458  1.00  0.00     0.074 A 
ATOM     45  C   UNL A   1      40.336  28.431  28.997  1.00  0.00     0.049 A 
ATOM     46  N   UNL A   1      41.925  28.165  31.557  1.00  0.00    -0.248 NA
ATOM     47  C   UNL A   1      43.203  26.515  30.510  1.00  0.00     0.031 C 
ATOM     48  C   UNL A   1      39.554  28.611  27.776  1.00  0.00     0.029 A 
ATOM     49  N   UNL A   1      39.820  29.355  29.871  1.00  0.00    -0.354 N 
ATOM     50  C   UNL A   1      42.907  27.712  32.430  1.00  0.00     0.074 A 
ATOM     51  C   UNL A   1      43.645  26.675  31.747  1.00  0.00     0.031 C 
ATOM     52  C   UNL A   1      38.643  29.579  27.985  1.00  0.00     0.029 A 
ATOM     53  C   UNL A   1      38.758  30.062  29.361  1.00  0.00     0.049 A 
ATOM     54  H   UNL A   1      40.176  29.497  30.777  1.00  0.00     0.167 HD
ATOM     55  C   UNL A   1      43.175  28.129  33.689  1.00  0.00     0.037 A 
ATOM     56  C   UNL A   1      37.963  30.974  29.952  1.00  0.00     0.037 A 
ATOM     57  C   UNL A   1      42.428  29.149  34.371  1.00  0.00     0.049 A 
ATOM     58  C   UNL A   1      38.224  31.360  31.387  1.00  0.00     0.074 A 
ATOM     59  C   UNL A   1      42.617  29.650  35.646  1.00  0.00     0.029 A 
ATOM     60  N   UNL A   1      41.336  29.816  33.835  1.00  0.00    -0.354 N 
ATOM     61  N   UNL A   1      39.168  30.947  32.199  1.00  0.00    -0.248 NA
ATOM     62  C   UNL A   1      37.308  32.340  31.989  1.00  0.00     0.031 C 
ATOM     63  C   UNL A   1      41.605  30.580  35.903  1.00  0.00     0.029 A 
ATOM     64  C   UNL A   1      40.825  30.705  34.764  1.00  0.00     0.049 A 
ATOM     65  H   UNL A   1      40.978  29.678  32.928  1.00  0.00     0.167 HD
ATOM     66  C   UNL A   1      38.982  31.640  33.390  1.00  0.00     0.074 A 
ATOM     67  C   UNL A   1      37.839  32.507  33.191  1.00  0.00     0.031 C 
ATOM     68  C   UNL A   1      39.692  31.569  34.543  1.00  0.00     0.037 A 
BRANCH  55  69
ATOM     69  C   UNL A   1      44.299  27.450  34.414  1.00  0.00     0.057 A 
ATOM     70  C   UNL A   1      44.098  26.293  35.177  1.00  0.00     0.134 A 
ATOM     71  C   UNL A   1      45.601  27.958  34.339  1.00  0.00     0.134 A 
ATOM     72  F   UNL A   1      42.871  25.768  35.308  1.00  0.00    -0.206 F 
ATOM     73  C   UNL A   1      45.150  25.677  35.859  1.00  0.00     0.040 A 
ATOM     74  C   UNL A   1      46.665  27.335  34.992  1.00  0.00     0.040 A 
ATOM     75  F   UNL A   1      45.861  29.065  33.628  1.00  0.00    -0.206 F 
ATOM     76  C   UNL A   1      46.440  26.195  35.760  1.00  0.00     0.006 A 
ENDBRANCH  55  69
BRANCH  56  77
ATOM     77  C   UNL A   1      36.830  31.579  29.204  1.00  0.00     0.057 A 
ATOM     78  C   UNL A   1      35.671  30.847  28.922  1.00  0.00     0.134 A 
ATOM     79  C   UNL A   1      36.894  32.892  28.723  1.00  0.00     0.134 A 
ATOM     80  F   UNL A   1      35.558  29.576  29.331  1.00  0.00    -0.206 F 
ATOM     81  C   UNL A   1      34.625  31.391  28.171  1.00  0.00     0.040 A 
ATOM     82  C   UNL A   1      35.846  33.459  27.995  1.00  0.00     0.040 A 
ATOM     83  F   UNL A   1      37.978  33.648  28.956  1.00  0.00    -0.206 F 
ATOM     84  C   UNL A   1      34.710  32.703  27.710  1.00  0.00     0.006 A 
ENDBRANCH  56  77
BRANCH  68  85
ATOM     85  C   UNL A   1      39.287  32.483  35.665  1.00  0.00     0.057 A 
ATOM     86  C   UNL A   1      38.410  32.075  36.678  1.00  0.00     0.134 A 
ATOM     87  C   UNL A   1      39.827  33.774  35.757  1.00  0.00     0.134 A 
ATOM     88  F   UNL A   1      37.852  30.856  36.644  1.00  0.00    -0.206 F 
ATOM     89  C   UNL A   1      38.065  32.927  37.729  1.00  0.00     0.040 A 
ATOM     90  C   UNL A   1      39.514  34.622  36.820  1.00  0.00     0.040 A 
ATOM     91  F   UNL A   1      40.684  34.222  34.827  1.00  0.00    -0.206 F 
ATOM     92  C   UNL A   1      38.625  34.202  37.806  1.00  0.00     0.006 A 
ENDBRANCH  68  85
ENDBRANCH  42  43
ENDBRANCH  35  37
ENDBRANCH  34  35
ENDBRANCH  33  34
ENDBRANCH  32  33
ENDBRANCH  31  32
ENDBRANCH  30  31
ENDBRANCH  29  30
ENDBRANCH  28  29
ENDBRANCH   1  28
TORSDOF 25
ENDMDL
