MODEL 1
REMARK VINA RESULT:      -5.4      0.000      0.000
REMARK SMILES O=C(N[C@@H](Cc1ccc(O)cc1)C(=O)N[C@@H](Cc1c[nH]c2ccccc12)C(=O)N[C@@H](CO)C(=O)OCCOCCOCCOCCOC(=O)c1ccc(-c2c3nc(c(-c4c(F)cccc4F)c4ccc([nH]4)c(-c4c(F)cccc4F)c4nc(c(-c5c(F)cccc5F)c5ccc2[nH]5)C=C4)C=C3)cc1)c1ccc(F)cc1
REMARK SMILES IDX 39 1 38 2 37 3 36 4 35 5 33 6 34 7 30 8 29 9 27 10 28 11
REMARK SMILES IDX 16 13 15 14 13 15 14 16 4 18 3 19 1 20 2 21 104 23 105 24
REMARK SMILES IDX 110 25 106 26 109 27 107 28 108 29 5 30 6 31 7 32 12 33 8 34
REMARK SMILES IDX 11 35 9 36 10 37 17 39 18 40 19 41 26 42 20 43 21 44 25 45
REMARK SMILES IDX 22 47 24 48 23 49 31 50 32 51 40 53 41 54 42 55 43 56 44 57
REMARK SMILES IDX 45 58 46 59 47 60 48 61 49 62 50 63 51 64 103 65 52 66
REMARK SMILES IDX 102 67 53 68 54 69 55 70 96 71 56 72 101 73 95 74 97 75
REMARK SMILES IDX 57 76 100 77 94 78 93 79 58 81 84 82 67 83 83 84 68 85 71 86
REMARK SMILES IDX 82 87 98 88 69 89 70 90 81 92 99 93 72 94 59 95 60 96 65 97
REMARK SMILES IDX 61 98 62 99 64 100 66 101 63 102 85 103 86 104 91 105 87 106
REMARK SMILES IDX 88 107 90 108 92 109 89 110 73 111 74 112 79 113 75 114
REMARK SMILES IDX 76 115 78 116 80 117 77 118
REMARK H PARENT 29 12 15 17 3 22 10 38 20 46 32 52 97 80 71 91
REMARK Flexibility Score: inf
ROOT
ATOM      1  C   UNL A   1      39.530  27.585  28.763  1.00  0.00     0.188 C 
ENDROOT
BRANCH   1   2
ATOM      2  O   UNL A   1      39.625  26.694  27.664  1.00  0.00    -0.376 OA
BRANCH   2   3
ATOM      3  C   UNL A   1      40.609  26.974  26.677  1.00  0.00     0.202 C 
BRANCH   3   4
ATOM      4  C   UNL A   1      41.273  25.787  25.956  1.00  0.00     0.261 C 
BRANCH   4   5
ATOM      5  O   UNL A   1      42.525  25.379  26.533  1.00  0.00    -0.462 OA
BRANCH   5   6
ATOM      6  C   UNL A   1      42.657  24.064  26.821  1.00  0.00     0.331 C 
ATOM      7  O   UNL A   1      41.926  23.470  27.610  1.00  0.00    -0.250 OA
BRANCH   6   8
ATOM      8  C   UNL A   1      43.870  23.405  26.140  1.00  0.00     0.218 C 
BRANCH   8   9
ATOM      9  N   UNL A   1      45.260  23.777  26.512  1.00  0.00    -0.339 N 
ATOM     10  C   UNL A   1      45.991  24.628  25.699  1.00  0.00     0.243 C 
ATOM     11  O   UNL A   1      46.184  24.298  24.525  1.00  0.00    -0.273 OA
ATOM     12  H   UNL A   1      45.662  23.417  27.335  1.00  0.00     0.164 HD
BRANCH  10  13
ATOM     13  C   UNL A   1      46.665  25.945  26.296  1.00  0.00     0.175 C 
BRANCH  13  14
ATOM     14  N   UNL A   1      46.892  26.910  25.188  1.00  0.00    -0.342 N 
ATOM     15  C   UNL A   1      47.944  27.147  24.363  1.00  0.00     0.243 C 
ATOM     16  O   UNL A   1      47.685  27.221  23.155  1.00  0.00    -0.273 OA
ATOM     17  H   UNL A   1      46.120  27.497  25.017  1.00  0.00     0.164 HD
BRANCH  15  18
ATOM     18  C   UNL A   1      49.374  27.445  24.847  1.00  0.00     0.176 C 
BRANCH  18  19
ATOM     19  N   UNL A   1      50.298  27.679  23.735  1.00  0.00    -0.340 N 
ATOM     20  O   UNL A   1      52.304  27.610  22.680  1.00  0.00    -0.269 OA
ATOM     21  C   UNL A   1      51.648  27.387  23.693  1.00  0.00     0.251 C 
ATOM     22  H   UNL A   1      49.914  28.091  22.927  1.00  0.00     0.164 HD
BRANCH  21  23
ATOM     23  C   UNL A   1      52.336  26.877  24.908  1.00  0.00     0.040 A 
ATOM     24  C   UNL A   1      53.102  27.718  25.727  1.00  0.00     0.017 A 
ATOM     25  C   UNL A   1      52.252  25.507  25.194  1.00  0.00     0.017 A 
ATOM     26  C   UNL A   1      53.865  27.171  26.764  1.00  0.00     0.040 A 
ATOM     27  C   UNL A   1      53.000  24.969  26.244  1.00  0.00     0.040 A 
ATOM     28  C   UNL A   1      53.816  25.802  27.005  1.00  0.00     0.123 A 
ATOM     29  F   UNL A   1      54.572  25.276  27.977  1.00  0.00    -0.207 F 
ENDBRANCH  21  23
ENDBRANCH  18  19
BRANCH  18  30
ATOM     30  C   UNL A   1      49.567  28.316  26.093  1.00  0.00     0.070 C 
BRANCH  30  31
ATOM     31  C   UNL A   1      49.989  27.662  27.378  1.00  0.00    -0.045 A 
ATOM     32  C   UNL A   1      49.780  26.291  27.569  1.00  0.00     0.007 A 
ATOM     33  C   UNL A   1      50.673  28.387  28.364  1.00  0.00     0.007 A 
ATOM     34  C   UNL A   1      50.142  25.675  28.767  1.00  0.00     0.046 A 
ATOM     35  C   UNL A   1      51.084  27.760  29.542  1.00  0.00     0.046 A 
ATOM     36  C   UNL A   1      50.785  26.419  29.747  1.00  0.00     0.115 A 
BRANCH  36  37
ATOM     37  O   UNL A   1      51.155  25.853  30.929  1.00  0.00    -0.508 OA
ATOM     38  H   UNL A   1      51.923  25.319  30.972  1.00  0.00     0.293 HD
ENDBRANCH  36  37
ENDBRANCH  30  31
ENDBRANCH  18  30
ENDBRANCH  15  18
ENDBRANCH  13  14
BRANCH  13  39
ATOM     39  C   UNL A   1      45.897  26.654  27.422  1.00  0.00     0.072 C 
BRANCH  39  40
ATOM     40  C   UNL A   1      46.468  27.875  28.101  1.00  0.00    -0.020 A 
ATOM     41  C   UNL A   1      46.973  27.815  29.392  1.00  0.00     0.087 A 
ATOM     42  C   UNL A   1      46.535  29.265  27.715  1.00  0.00     0.003 A 
ATOM     43  N   UNL A   1      47.134  29.087  29.861  1.00  0.00    -0.361 N 
ATOM     44  C   UNL A   1      46.779  29.987  28.890  1.00  0.00     0.046 A 
ATOM     45  C   UNL A   1      46.241  30.021  26.554  1.00  0.00     0.010 A 
ATOM     46  H   UNL A   1      47.455  29.321  30.762  1.00  0.00     0.166 HD
ATOM     47  C   UNL A   1      46.601  31.374  28.987  1.00  0.00     0.026 A 
ATOM     48  C   UNL A   1      46.042  31.406  26.638  1.00  0.00     0.001 A 
ATOM     49  C   UNL A   1      46.184  32.065  27.850  1.00  0.00     0.002 A 
ENDBRANCH  39  40
ENDBRANCH  13  39
ENDBRANCH  10  13
ENDBRANCH   8   9
BRANCH   8  50
ATOM     50  C   UNL A   1      43.616  21.900  26.105  1.00  0.00     0.193 C 
BRANCH  50  51
ATOM     51  O   UNL A   1      42.417  21.612  25.391  1.00  0.00    -0.394 OA
ATOM     52  H   UNL A   1      42.578  20.890  24.764  1.00  0.00     0.210 HD
ENDBRANCH  50  51
ENDBRANCH   8  50
ENDBRANCH   6   8
ENDBRANCH   5   6
ENDBRANCH   4   5
ENDBRANCH   3   4
ENDBRANCH   2   3
ENDBRANCH   1   2
BRANCH   1  53
ATOM     53  C   UNL A   1      39.993  29.016  28.443  1.00  0.00     0.188 C 
BRANCH  53  54
ATOM     54  O   UNL A   1      41.143  29.513  29.103  1.00  0.00    -0.377 OA
BRANCH  54  55
ATOM     55  C   UNL A   1      41.829  28.643  30.006  1.00  0.00     0.188 C 
BRANCH  55  56
ATOM     56  C   UNL A   1      41.980  28.988  31.508  1.00  0.00     0.188 C 
BRANCH  56  57
ATOM     57  O   UNL A   1      42.160  27.866  32.351  1.00  0.00    -0.376 OA
BRANCH  57  58
ATOM     58  C   UNL A   1      42.771  28.067  33.612  1.00  0.00     0.202 C 
BRANCH  58  59
ATOM     59  C   UNL A   1      41.988  27.704  34.883  1.00  0.00     0.261 C 
BRANCH  59  60
ATOM     60  O   UNL A   1      42.620  26.803  35.805  1.00  0.00    -0.460 OA
BRANCH  60  61
ATOM     61  C   UNL A   1      42.852  25.537  35.370  1.00  0.00     0.338 C 
ATOM     62  O   UNL A   1      42.035  24.703  35.081  1.00  0.00    -0.246 OA
BRANCH  61  63
ATOM     63  C   UNL A   1      44.312  25.427  35.099  1.00  0.00     0.060 A 
ATOM     64  C   UNL A   1      45.209  25.554  36.170  1.00  0.00     0.016 A 
ATOM     65  C   UNL A   1      44.784  25.163  33.812  1.00  0.00     0.016 A 
ATOM     66  C   UNL A   1      46.584  25.452  35.951  1.00  0.00     0.010 A 
ATOM     67  C   UNL A   1      46.163  25.098  33.587  1.00  0.00     0.010 A 
ATOM     68  C   UNL A   1      47.069  25.278  34.649  1.00  0.00    -0.014 A 
BRANCH  68  69
ATOM     69  C   UNL A   1      48.496  25.557  34.350  1.00  0.00     0.031 A 
ATOM     70  C   UNL A   1      48.855  26.962  33.941  1.00  0.00     0.074 A 
ATOM     71  C   UNL A   1      49.447  24.611  34.426  1.00  0.00     0.049 A 
ATOM     72  N   UNL A   1      49.994  27.441  33.517  1.00  0.00    -0.248 NA
ATOM     73  C   UNL A   1      47.771  27.958  34.015  1.00  0.00     0.031 C 
ATOM     74  C   UNL A   1      49.242  23.231  34.860  1.00  0.00     0.029 A 
ATOM     75  N   UNL A   1      50.785  24.671  34.116  1.00  0.00    -0.354 N 
ATOM     76  C   UNL A   1      49.760  28.787  33.260  1.00  0.00     0.074 A 
ATOM     77  C   UNL A   1      48.370  29.045  33.557  1.00  0.00     0.031 C 
ATOM     78  C   UNL A   1      50.408  22.566  34.758  1.00  0.00     0.029 A 
ATOM     79  C   UNL A   1      51.429  23.462  34.217  1.00  0.00     0.049 A 
ATOM     80  H   UNL A   1      51.238  25.502  33.846  1.00  0.00     0.167 HD
ATOM     81  C   UNL A   1      50.628  29.723  32.813  1.00  0.00     0.037 A 
ATOM     82  C   UNL A   1      52.688  23.117  33.875  1.00  0.00     0.037 A 
ATOM     83  C   UNL A   1      52.010  29.466  32.516  1.00  0.00     0.049 A 
ATOM     84  C   UNL A   1      53.614  24.162  33.304  1.00  0.00     0.074 A 
ATOM     85  C   UNL A   1      52.974  30.354  32.076  1.00  0.00     0.029 A 
ATOM     86  N   UNL A   1      52.618  28.225  32.618  1.00  0.00    -0.354 N 
ATOM     87  N   UNL A   1      53.394  25.438  33.087  1.00  0.00    -0.248 NA
ATOM     88  C   UNL A   1      54.966  23.721  32.926  1.00  0.00     0.031 C 
ATOM     89  C   UNL A   1      54.155  29.639  31.858  1.00  0.00     0.029 A 
ATOM     90  C   UNL A   1      53.941  28.319  32.223  1.00  0.00     0.049 A 
ATOM     91  H   UNL A   1      52.176  27.401  32.927  1.00  0.00     0.167 HD
ATOM     92  C   UNL A   1      54.585  25.954  32.587  1.00  0.00     0.074 A 
ATOM     93  C   UNL A   1      55.528  24.858  32.538  1.00  0.00     0.031 C 
ATOM     94  C   UNL A   1      54.873  27.222  32.205  1.00  0.00     0.037 A 
BRANCH  81  95
ATOM     95  C   UNL A   1      50.098  31.108  32.584  1.00  0.00     0.057 A 
ATOM     96  C   UNL A   1      49.673  31.542  31.322  1.00  0.00     0.134 A 
ATOM     97  C   UNL A   1      49.974  32.005  33.653  1.00  0.00     0.134 A 
ATOM     98  F   UNL A   1      49.783  30.737  30.254  1.00  0.00    -0.206 F 
ATOM     99  C   UNL A   1      49.154  32.823  31.129  1.00  0.00     0.040 A 
ATOM    100  C   UNL A   1      49.433  33.278  33.478  1.00  0.00     0.040 A 
ATOM    101  F   UNL A   1      50.365  31.652  34.887  1.00  0.00    -0.206 F 
ATOM    102  C   UNL A   1      49.024  33.692  32.212  1.00  0.00     0.006 A 
ENDBRANCH  81  95
BRANCH  82 103
ATOM    103  C   UNL A   1      53.148  21.710  34.019  1.00  0.00     0.057 A 
ATOM    104  C   UNL A   1      53.097  20.812  32.944  1.00  0.00     0.134 A 
ATOM    105  C   UNL A   1      53.593  21.211  35.249  1.00  0.00     0.134 A 
ATOM    106  F   UNL A   1      52.652  21.219  31.746  1.00  0.00    -0.206 F 
ATOM    107  C   UNL A   1      53.447  19.469  33.094  1.00  0.00     0.040 A 
ATOM    108  C   UNL A   1      53.974  19.877  35.406  1.00  0.00     0.040 A 
ATOM    109  F   UNL A   1      53.662  22.015  36.321  1.00  0.00    -0.206 F 
ATOM    110  C   UNL A   1      53.890  18.998  34.328  1.00  0.00     0.006 A 
ENDBRANCH  82 103
BRANCH  94 111
ATOM    111  C   UNL A   1      56.275  27.516  31.754  1.00  0.00     0.057 A 
ATOM    112  C   UNL A   1      57.319  27.735  32.661  1.00  0.00     0.134 A 
ATOM    113  C   UNL A   1      56.596  27.506  30.389  1.00  0.00     0.134 A 
ATOM    114  F   UNL A   1      57.078  27.766  33.980  1.00  0.00    -0.206 F 
ATOM    115  C   UNL A   1      58.629  27.947  32.227  1.00  0.00     0.040 A 
ATOM    116  C   UNL A   1      57.905  27.688  29.945  1.00  0.00     0.040 A 
ATOM    117  F   UNL A   1      55.645  27.289  29.468  1.00  0.00    -0.206 F 
ATOM    118  C   UNL A   1      58.927  27.915  30.865  1.00  0.00     0.006 A 
ENDBRANCH  94 111
ENDBRANCH  68  69
ENDBRANCH  61  63
ENDBRANCH  60  61
ENDBRANCH  59  60
ENDBRANCH  58  59
ENDBRANCH  57  58
ENDBRANCH  56  57
ENDBRANCH  55  56
ENDBRANCH  54  55
ENDBRANCH  53  54
ENDBRANCH   1  53
TORSDOF 33
ENDMDL
MODEL 2
REMARK VINA RESULT:      -5.0     11.258     17.156
REMARK SMILES O=C(N[C@@H](Cc1ccc(O)cc1)C(=O)N[C@@H](Cc1c[nH]c2ccccc12)C(=O)N[C@@H](CO)C(=O)OCCOCCOCCOCCOC(=O)c1ccc(-c2c3nc(c(-c4c(F)cccc4F)c4ccc([nH]4)c(-c4c(F)cccc4F)c4nc(c(-c5c(F)cccc5F)c5ccc2[nH]5)C=C4)C=C3)cc1)c1ccc(F)cc1
REMARK SMILES IDX 39 1 38 2 37 3 36 4 35 5 33 6 34 7 30 8 29 9 27 10 28 11
REMARK SMILES IDX 16 13 15 14 13 15 14 16 4 18 3 19 1 20 2 21 104 23 105 24
REMARK SMILES IDX 110 25 106 26 109 27 107 28 108 29 5 30 6 31 7 32 12 33 8 34
REMARK SMILES IDX 11 35 9 36 10 37 17 39 18 40 19 41 26 42 20 43 21 44 25 45
REMARK SMILES IDX 22 47 24 48 23 49 31 50 32 51 40 53 41 54 42 55 43 56 44 57
REMARK SMILES IDX 45 58 46 59 47 60 48 61 49 62 50 63 51 64 103 65 52 66
REMARK SMILES IDX 102 67 53 68 54 69 55 70 96 71 56 72 101 73 95 74 97 75
REMARK SMILES IDX 57 76 100 77 94 78 93 79 58 81 84 82 67 83 83 84 68 85 71 86
REMARK SMILES IDX 82 87 98 88 69 89 70 90 81 92 99 93 72 94 59 95 60 96 65 97
REMARK SMILES IDX 61 98 62 99 64 100 66 101 63 102 85 103 86 104 91 105 87 106
REMARK SMILES IDX 88 107 90 108 92 109 89 110 73 111 74 112 79 113 75 114
REMARK SMILES IDX 76 115 78 116 80 117 77 118
REMARK H PARENT 29 12 15 17 3 22 10 38 20 46 32 52 97 80 71 91
REMARK Flexibility Score: inf
ROOT
ATOM      1  C   UNL A   1      37.405  33.265  35.840  1.00  0.00     0.188 C 
ENDROOT
BRANCH   1   2
ATOM      2  O   UNL A   1      36.631  32.599  34.855  1.00  0.00    -0.376 OA
BRANCH   2   3
ATOM      3  C   UNL A   1      36.092  33.388  33.804  1.00  0.00     0.202 C 
BRANCH   3   4
ATOM      4  C   UNL A   1      35.063  32.737  32.862  1.00  0.00     0.261 C 
BRANCH   4   5
ATOM      5  O   UNL A   1      35.615  32.287  31.613  1.00  0.00    -0.462 OA
BRANCH   5   6
ATOM      6  C   UNL A   1      35.047  32.781  30.489  1.00  0.00     0.331 C 
ATOM      7  O   UNL A   1      34.138  32.215  29.888  1.00  0.00    -0.250 OA
BRANCH   6   8
ATOM      8  C   UNL A   1      35.715  34.073  29.983  1.00  0.00     0.218 C 
BRANCH   8   9
ATOM      9  N   UNL A   1      37.112  34.074  29.477  1.00  0.00    -0.339 N 
ATOM     10  C   UNL A   1      38.164  33.849  30.349  1.00  0.00     0.243 C 
ATOM     11  O   UNL A   1      38.304  34.611  31.311  1.00  0.00    -0.273 OA
ATOM     12  H   UNL A   1      37.289  34.234  28.522  1.00  0.00     0.164 HD
BRANCH  10  13
ATOM     13  C   UNL A   1      39.237  32.706  30.054  1.00  0.00     0.175 C 
BRANCH  13  14
ATOM     14  N   UNL A   1      40.452  32.969  30.871  1.00  0.00    -0.342 N 
ATOM     15  C   UNL A   1      40.897  32.479  32.057  1.00  0.00     0.243 C 
ATOM     16  O   UNL A   1      42.075  32.099  32.083  1.00  0.00    -0.273 OA
ATOM     17  H   UNL A   1      41.057  33.634  30.470  1.00  0.00     0.164 HD
BRANCH  15  18
ATOM     18  C   UNL A   1      40.079  32.489  33.361  1.00  0.00     0.176 C 
BRANCH  18  19
ATOM     19  N   UNL A   1      38.978  31.525  33.331  1.00  0.00    -0.340 N 
ATOM     20  O   UNL A   1      38.034  29.475  33.557  1.00  0.00    -0.269 OA
ATOM     21  C   UNL A   1      39.046  30.168  33.589  1.00  0.00     0.251 C 
ATOM     22  H   UNL A   1      38.090  31.882  33.101  1.00  0.00     0.164 HD
BRANCH  21  23
ATOM     23  C   UNL A   1      40.363  29.522  33.825  1.00  0.00     0.040 A 
ATOM     24  C   UNL A   1      40.980  29.546  35.083  1.00  0.00     0.017 A 
ATOM     25  C   UNL A   1      41.017  28.929  32.735  1.00  0.00     0.017 A 
ATOM     26  C   UNL A   1      42.288  29.072  35.225  1.00  0.00     0.040 A 
ATOM     27  C   UNL A   1      42.316  28.439  32.887  1.00  0.00     0.040 A 
ATOM     28  C   UNL A   1      42.947  28.535  34.124  1.00  0.00     0.123 A 
ATOM     29  F   UNL A   1      44.211  28.113  34.254  1.00  0.00    -0.207 F 
ENDBRANCH  21  23
ENDBRANCH  18  19
BRANCH  18  30
ATOM     30  C   UNL A   1      40.816  32.647  34.696  1.00  0.00     0.070 C 
BRANCH  30  31
ATOM     31  C   UNL A   1      41.484  33.957  35.005  1.00  0.00    -0.045 A 
ATOM     32  C   UNL A   1      40.747  35.146  34.972  1.00  0.00     0.007 A 
ATOM     33  C   UNL A   1      42.824  34.000  35.416  1.00  0.00     0.007 A 
ATOM     34  C   UNL A   1      41.361  36.371  35.231  1.00  0.00     0.046 A 
ATOM     35  C   UNL A   1      43.425  35.221  35.729  1.00  0.00     0.046 A 
ATOM     36  C   UNL A   1      42.699  36.398  35.600  1.00  0.00     0.115 A 
BRANCH  36  37
ATOM     37  O   UNL A   1      43.332  37.575  35.863  1.00  0.00    -0.508 OA
ATOM     38  H   UNL A   1      44.261  37.639  35.764  1.00  0.00     0.293 HD
ENDBRANCH  36  37
ENDBRANCH  30  31
ENDBRANCH  18  30
ENDBRANCH  15  18
ENDBRANCH  13  14
BRANCH  13  39
ATOM     39  C   UNL A   1      38.779  31.260  30.299  1.00  0.00     0.072 C 
BRANCH  39  40
ATOM     40  C   UNL A   1      39.074  30.172  29.297  1.00  0.00    -0.020 A 
ATOM     41  C   UNL A   1      38.063  29.577  28.555  1.00  0.00     0.087 A 
ATOM     42  C   UNL A   1      40.284  29.461  28.956  1.00  0.00     0.003 A 
ATOM     43  N   UNL A   1      38.553  28.445  27.971  1.00  0.00    -0.361 N 
ATOM     44  C   UNL A   1      39.880  28.301  28.282  1.00  0.00     0.046 A 
ATOM     45  C   UNL A   1      41.657  29.557  29.288  1.00  0.00     0.010 A 
ATOM     46  H   UNL A   1      38.031  27.827  27.411  1.00  0.00     0.166 HD
ATOM     47  C   UNL A   1      40.729  27.205  28.067  1.00  0.00     0.026 A 
ATOM     48  C   UNL A   1      42.513  28.464  29.097  1.00  0.00     0.001 A 
ATOM     49  C   UNL A   1      42.043  27.291  28.528  1.00  0.00     0.002 A 
ENDBRANCH  39  40
ENDBRANCH  13  39
ENDBRANCH  10  13
ENDBRANCH   8   9
BRANCH   8  50
ATOM     50  C   UNL A   1      34.718  34.773  29.060  1.00  0.00     0.193 C 
BRANCH  50  51
ATOM     51  O   UNL A   1      33.540  35.130  29.777  1.00  0.00    -0.394 OA
ATOM     52  H   UNL A   1      33.437  36.095  29.772  1.00  0.00     0.210 HD
ENDBRANCH  50  51
ENDBRANCH   8  50
ENDBRANCH   6   8
ENDBRANCH   5   6
ENDBRANCH   4   5
ENDBRANCH   3   4
ENDBRANCH   2   3
ENDBRANCH   1   2
BRANCH   1  53
ATOM     53  C   UNL A   1      37.732  32.396  37.064  1.00  0.00     0.188 C 
BRANCH  53  54
ATOM     54  O   UNL A   1      36.960  32.572  38.239  1.00  0.00    -0.377 OA
BRANCH  54  55
ATOM     55  C   UNL A   1      36.914  31.497  39.179  1.00  0.00     0.188 C 
BRANCH  55  56
ATOM     56  C   UNL A   1      37.421  31.668  40.633  1.00  0.00     0.188 C 
BRANCH  56  57
ATOM     57  O   UNL A   1      38.816  31.493  40.790  1.00  0.00    -0.376 OA
BRANCH  57  58
ATOM     58  C   UNL A   1      39.528  32.446  41.558  1.00  0.00     0.202 C 
BRANCH  58  59
ATOM     59  C   UNL A   1      40.071  33.704  40.863  1.00  0.00     0.261 C 
BRANCH  59  60
ATOM     60  O   UNL A   1      39.114  34.572  40.239  1.00  0.00    -0.460 OA
BRANCH  60  61
ATOM     61  C   UNL A   1      38.366  35.358  41.058  1.00  0.00     0.338 C 
ATOM     62  O   UNL A   1      37.477  35.011  41.790  1.00  0.00    -0.246 OA
BRANCH  61  63
ATOM     63  C   UNL A   1      38.990  36.709  41.057  1.00  0.00     0.060 A 
ATOM     64  C   UNL A   1      38.675  37.598  40.018  1.00  0.00     0.016 A 
ATOM     65  C   UNL A   1      39.841  37.107  42.091  1.00  0.00     0.016 A 
ATOM     66  C   UNL A   1      39.239  38.875  39.990  1.00  0.00     0.010 A 
ATOM     67  C   UNL A   1      40.435  38.373  42.042  1.00  0.00     0.010 A 
ATOM     68  C   UNL A   1      40.165  39.247  40.974  1.00  0.00    -0.014 A 
BRANCH  68  69
ATOM     69  C   UNL A   1      41.050  40.417  40.747  1.00  0.00     0.031 A 
ATOM     70  C   UNL A   1      42.349  40.171  40.025  1.00  0.00     0.074 A 
ATOM     71  C   UNL A   1      40.733  41.653  41.167  1.00  0.00     0.049 A 
ATOM     72  N   UNL A   1      43.346  40.985  39.802  1.00  0.00    -0.248 NA
ATOM     73  C   UNL A   1      42.547  38.813  39.487  1.00  0.00     0.031 C 
ATOM     74  C   UNL A   1      39.487  42.034  41.829  1.00  0.00     0.029 A 
ATOM     75  N   UNL A   1      41.457  42.820  41.113  1.00  0.00    -0.354 N 
ATOM     76  C   UNL A   1      44.294  40.236  39.116  1.00  0.00     0.074 A 
ATOM     77  C   UNL A   1      43.763  38.900  38.972  1.00  0.00     0.031 C 
ATOM     78  C   UNL A   1      39.546  43.340  42.147  1.00  0.00     0.029 A 
ATOM     79  C   UNL A   1      40.847  43.877  41.747  1.00  0.00     0.049 A 
ATOM     80  H   UNL A   1      42.329  42.893  40.663  1.00  0.00     0.167 HD
ATOM     81  C   UNL A   1      45.501  40.628  38.648  1.00  0.00     0.037 A 
ATOM     82  C   UNL A   1      41.308  45.118  42.004  1.00  0.00     0.037 A 
ATOM     83  C   UNL A   1      46.030  41.956  38.792  1.00  0.00     0.049 A 
ATOM     84  C   UNL A   1      42.690  45.508  41.541  1.00  0.00     0.074 A 
ATOM     85  C   UNL A   1      47.236  42.455  38.335  1.00  0.00     0.029 A 
ATOM     86  N   UNL A   1      45.387  42.991  39.452  1.00  0.00    -0.354 N 
ATOM     87  N   UNL A   1      43.571  44.802  40.870  1.00  0.00    -0.248 NA
ATOM     88  C   UNL A   1      43.148  46.866  41.873  1.00  0.00     0.031 C 
ATOM     89  C   UNL A   1      47.349  43.779  38.768  1.00  0.00     0.029 A 
ATOM     90  C   UNL A   1      46.185  44.121  39.439  1.00  0.00     0.049 A 
ATOM     91  H   UNL A   1      44.497  42.931  39.868  1.00  0.00     0.167 HD
ATOM     92  C   UNL A   1      44.662  45.640  40.669  1.00  0.00     0.074 A 
ATOM     93  C   UNL A   1      44.333  46.909  41.281  1.00  0.00     0.031 C 
ATOM     94  C   UNL A   1      45.831  45.384  40.032  1.00  0.00     0.037 A 
BRANCH  81  95
ATOM     95  C   UNL A   1      46.350  39.596  37.966  1.00  0.00     0.057 A 
ATOM     96  C   UNL A   1      47.264  38.802  38.670  1.00  0.00     0.134 A 
ATOM     97  C   UNL A   1      46.218  39.366  36.590  1.00  0.00     0.134 A 
ATOM     98  F   UNL A   1      47.452  38.985  39.986  1.00  0.00    -0.206 F 
ATOM     99  C   UNL A   1      48.026  37.825  38.028  1.00  0.00     0.040 A 
ATOM    100  C   UNL A   1      46.954  38.375  35.942  1.00  0.00     0.040 A 
ATOM    101  F   UNL A   1      45.361  40.094  35.858  1.00  0.00    -0.206 F 
ATOM    102  C   UNL A   1      47.864  37.603  36.661  1.00  0.00     0.006 A 
ENDBRANCH  81  95
BRANCH  82 103
ATOM    103  C   UNL A   1      40.479  46.084  42.775  1.00  0.00     0.057 A 
ATOM    104  C   UNL A   1      40.493  46.103  44.175  1.00  0.00     0.134 A 
ATOM    105  C   UNL A   1      39.608  46.971  42.131  1.00  0.00     0.134 A 
ATOM    106  F   UNL A   1      41.285  45.258  44.853  1.00  0.00    -0.206 F 
ATOM    107  C   UNL A   1      39.655  46.947  44.906  1.00  0.00     0.040 A 
ATOM    108  C   UNL A   1      38.785  47.842  42.848  1.00  0.00     0.040 A 
ATOM    109  F   UNL A   1      39.539  47.002  40.792  1.00  0.00    -0.206 F 
ATOM    110  C   UNL A   1      38.799  47.823  44.242  1.00  0.00     0.006 A 
ENDBRANCH  82 103
BRANCH  94 111
ATOM    111  C   UNL A   1      46.821  46.506  39.908  1.00  0.00     0.057 A 
ATOM    112  C   UNL A   1      46.828  47.377  38.812  1.00  0.00     0.134 A 
ATOM    113  C   UNL A   1      47.734  46.760  40.942  1.00  0.00     0.134 A 
ATOM    114  F   UNL A   1      45.986  47.184  37.786  1.00  0.00    -0.206 F 
ATOM    115  C   UNL A   1      47.717  48.452  38.741  1.00  0.00     0.040 A 
ATOM    116  C   UNL A   1      48.607  47.847  40.895  1.00  0.00     0.040 A 
ATOM    117  F   UNL A   1      47.771  45.971  42.027  1.00  0.00    -0.206 F 
ATOM    118  C   UNL A   1      48.603  48.695  39.789  1.00  0.00     0.006 A 
ENDBRANCH  94 111
ENDBRANCH  68  69
ENDBRANCH  61  63
ENDBRANCH  60  61
ENDBRANCH  59  60
ENDBRANCH  58  59
ENDBRANCH  57  58
ENDBRANCH  56  57
ENDBRANCH  55  56
ENDBRANCH  54  55
ENDBRANCH  53  54
ENDBRANCH   1  53
TORSDOF 33
ENDMDL
MODEL 3
REMARK VINA RESULT:      -4.9      5.528     12.249
REMARK SMILES O=C(N[C@@H](Cc1ccc(O)cc1)C(=O)N[C@@H](Cc1c[nH]c2ccccc12)C(=O)N[C@@H](CO)C(=O)OCCOCCOCCOCCOC(=O)c1ccc(-c2c3nc(c(-c4c(F)cccc4F)c4ccc([nH]4)c(-c4c(F)cccc4F)c4nc(c(-c5c(F)cccc5F)c5ccc2[nH]5)C=C4)C=C3)cc1)c1ccc(F)cc1
REMARK SMILES IDX 39 1 38 2 37 3 36 4 35 5 33 6 34 7 30 8 29 9 27 10 28 11
REMARK SMILES IDX 16 13 15 14 13 15 14 16 4 18 3 19 1 20 2 21 104 23 105 24
REMARK SMILES IDX 110 25 106 26 109 27 107 28 108 29 5 30 6 31 7 32 12 33 8 34
REMARK SMILES IDX 11 35 9 36 10 37 17 39 18 40 19 41 26 42 20 43 21 44 25 45
REMARK SMILES IDX 22 47 24 48 23 49 31 50 32 51 40 53 41 54 42 55 43 56 44 57
REMARK SMILES IDX 45 58 46 59 47 60 48 61 49 62 50 63 51 64 103 65 52 66
REMARK SMILES IDX 102 67 53 68 54 69 55 70 96 71 56 72 101 73 95 74 97 75
REMARK SMILES IDX 57 76 100 77 94 78 93 79 58 81 84 82 67 83 83 84 68 85 71 86
REMARK SMILES IDX 82 87 98 88 69 89 70 90 81 92 99 93 72 94 59 95 60 96 65 97
REMARK SMILES IDX 61 98 62 99 64 100 66 101 63 102 85 103 86 104 91 105 87 106
REMARK SMILES IDX 88 107 90 108 92 109 89 110 73 111 74 112 79 113 75 114
REMARK SMILES IDX 76 115 78 116 80 117 77 118
REMARK H PARENT 29 12 15 17 3 22 10 38 20 46 32 52 97 80 71 91
REMARK Flexibility Score: inf
ROOT
ATOM      1  C   UNL A   1      52.219  31.371  26.009  1.00  0.00     0.188 C 
ENDROOT
BRANCH   1   2
ATOM      2  O   UNL A   1      51.159  30.587  26.532  1.00  0.00    -0.376 OA
BRANCH   2   3
ATOM      3  C   UNL A   1      51.302  29.175  26.475  1.00  0.00     0.202 C 
BRANCH   3   4
ATOM      4  C   UNL A   1      51.578  28.527  25.106  1.00  0.00     0.261 C 
BRANCH   4   5
ATOM      5  O   UNL A   1      50.392  28.133  24.395  1.00  0.00    -0.462 OA
BRANCH   5   6
ATOM      6  C   UNL A   1      50.022  26.837  24.510  1.00  0.00     0.331 C 
ATOM      7  O   UNL A   1      50.689  25.995  25.107  1.00  0.00    -0.250 OA
BRANCH   6   8
ATOM      8  C   UNL A   1      48.732  26.497  23.741  1.00  0.00     0.218 C 
BRANCH   8   9
ATOM      9  N   UNL A   1      47.412  26.469  24.421  1.00  0.00    -0.339 N 
ATOM     10  C   UNL A   1      47.220  27.188  25.590  1.00  0.00     0.243 C 
ATOM     11  O   UNL A   1      47.945  26.940  26.558  1.00  0.00    -0.273 OA
ATOM     12  H   UNL A   1      46.674  25.941  24.042  1.00  0.00     0.164 HD
BRANCH  10  13
ATOM     13  C   UNL A   1      46.017  28.228  25.719  1.00  0.00     0.175 C 
BRANCH  13  14
ATOM     14  N   UNL A   1      44.870  27.733  24.911  1.00  0.00    -0.342 N 
ATOM     15  C   UNL A   1      43.613  27.332  25.231  1.00  0.00     0.243 C 
ATOM     16  O   UNL A   1      42.696  27.822  24.561  1.00  0.00    -0.273 OA
ATOM     17  H   UNL A   1      45.062  27.689  23.946  1.00  0.00     0.164 HD
BRANCH  15  18
ATOM     18  C   UNL A   1      43.290  26.239  26.266  1.00  0.00     0.176 C 
BRANCH  18  19
ATOM     19  N   UNL A   1      42.007  25.586  25.999  1.00  0.00    -0.340 N 
ATOM     20  O   UNL A   1      39.764  25.309  26.185  1.00  0.00    -0.269 OA
ATOM     21  C   UNL A   1      40.771  25.927  26.516  1.00  0.00     0.251 C 
ATOM     22  H   UNL A   1      42.026  24.819  25.382  1.00  0.00     0.164 HD
BRANCH  21  23
ATOM     23  C   UNL A   1      40.665  26.992  27.546  1.00  0.00     0.040 A 
ATOM     24  C   UNL A   1      40.989  26.753  28.889  1.00  0.00     0.017 A 
ATOM     25  C   UNL A   1      40.172  28.246  27.158  1.00  0.00     0.017 A 
ATOM     26  C   UNL A   1      40.721  27.729  29.853  1.00  0.00     0.040 A 
ATOM     27  C   UNL A   1      39.925  29.225  28.123  1.00  0.00     0.040 A 
ATOM     28  C   UNL A   1      40.181  28.950  29.463  1.00  0.00     0.123 A 
ATOM     29  F   UNL A   1      39.894  29.871  30.392  1.00  0.00    -0.207 F 
ENDBRANCH  21  23
ENDBRANCH  18  19
BRANCH  18  30
ATOM     30  C   UNL A   1      44.424  25.341  26.772  1.00  0.00     0.070 C 
BRANCH  30  31
ATOM     31  C   UNL A   1      44.361  24.815  28.179  1.00  0.00    -0.045 A 
ATOM     32  C   UNL A   1      43.670  23.630  28.455  1.00  0.00     0.007 A 
ATOM     33  C   UNL A   1      45.061  25.450  29.215  1.00  0.00     0.007 A 
ATOM     34  C   UNL A   1      43.581  23.145  29.759  1.00  0.00     0.046 A 
ATOM     35  C   UNL A   1      45.017  24.935  30.512  1.00  0.00     0.046 A 
ATOM     36  C   UNL A   1      44.250  23.808  30.779  1.00  0.00     0.115 A 
BRANCH  36  37
ATOM     37  O   UNL A   1      44.188  23.364  32.065  1.00  0.00    -0.508 OA
ATOM     38  H   UNL A   1      44.977  23.216  32.547  1.00  0.00     0.293 HD
ENDBRANCH  36  37
ENDBRANCH  30  31
ENDBRANCH  18  30
ENDBRANCH  15  18
ENDBRANCH  13  14
BRANCH  13  39
ATOM     39  C   UNL A   1      45.526  28.529  27.143  1.00  0.00     0.072 C 
BRANCH  39  40
ATOM     40  C   UNL A   1      44.981  29.888  27.505  1.00  0.00    -0.020 A 
ATOM     41  C   UNL A   1      43.697  30.042  28.012  1.00  0.00     0.087 A 
ATOM     42  C   UNL A   1      45.504  31.225  27.344  1.00  0.00     0.003 A 
ATOM     43  N   UNL A   1      43.359  31.363  27.961  1.00  0.00    -0.361 N 
ATOM     44  C   UNL A   1      44.410  32.091  27.465  1.00  0.00     0.046 A 
ATOM     45  C   UNL A   1      46.729  31.802  26.932  1.00  0.00     0.010 A 
ATOM     46  H   UNL A   1      42.492  31.736  28.239  1.00  0.00     0.166 HD
ATOM     47  C   UNL A   1      44.449  33.434  27.062  1.00  0.00     0.026 A 
ATOM     48  C   UNL A   1      46.780  33.136  26.508  1.00  0.00     0.001 A 
ATOM     49  C   UNL A   1      45.643  33.929  26.539  1.00  0.00     0.002 A 
ENDBRANCH  39  40
ENDBRANCH  13  39
ENDBRANCH  10  13
ENDBRANCH   8   9
BRANCH   8  50
ATOM     50  C   UNL A   1      48.747  27.302  22.442  1.00  0.00     0.193 C 
BRANCH  50  51
ATOM     51  O   UNL A   1      49.955  27.068  21.724  1.00  0.00    -0.394 OA
ATOM     52  H   UNL A   1      49.835  27.323  20.796  1.00  0.00     0.210 HD
ENDBRANCH  50  51
ENDBRANCH   8  50
ENDBRANCH   6   8
ENDBRANCH   5   6
ENDBRANCH   4   5
ENDBRANCH   3   4
ENDBRANCH   2   3
ENDBRANCH   1   2
BRANCH   1  53
ATOM     53  C   UNL A   1      51.822  32.220  24.791  1.00  0.00     0.188 C 
BRANCH  53  54
ATOM     54  O   UNL A   1      52.839  32.619  23.889  1.00  0.00    -0.377 OA
BRANCH  54  55
ATOM     55  C   UNL A   1      52.987  31.882  22.674  1.00  0.00     0.188 C 
BRANCH  55  56
ATOM     56  C   UNL A   1      53.583  32.531  21.399  1.00  0.00     0.188 C 
BRANCH  56  57
ATOM     57  O   UNL A   1      54.989  32.425  21.292  1.00  0.00    -0.376 OA
BRANCH  57  58
ATOM     58  C   UNL A   1      55.786  33.390  21.955  1.00  0.00     0.202 C 
BRANCH  58  59
ATOM     59  C   UNL A   1      55.283  34.839  22.036  1.00  0.00     0.261 C 
BRANCH  59  60
ATOM     60  O   UNL A   1      54.345  35.149  23.076  1.00  0.00    -0.460 OA
BRANCH  60  61
ATOM     61  C   UNL A   1      54.148  36.463  23.360  1.00  0.00     0.338 C 
ATOM     62  O   UNL A   1      54.741  37.405  22.904  1.00  0.00    -0.246 OA
BRANCH  61  63
ATOM     63  C   UNL A   1      52.908  36.554  24.178  1.00  0.00     0.060 A 
ATOM     64  C   UNL A   1      52.935  37.300  25.366  1.00  0.00     0.016 A 
ATOM     65  C   UNL A   1      51.724  35.944  23.756  1.00  0.00     0.016 A 
ATOM     66  C   UNL A   1      51.788  37.409  26.155  1.00  0.00     0.010 A 
ATOM     67  C   UNL A   1      50.586  36.023  24.565  1.00  0.00     0.010 A 
ATOM     68  C   UNL A   1      50.623  36.724  25.785  1.00  0.00    -0.014 A 
BRANCH  68  69
ATOM     69  C   UNL A   1      49.546  36.509  26.783  1.00  0.00     0.031 A 
ATOM     70  C   UNL A   1      48.439  37.529  26.837  1.00  0.00     0.074 A 
ATOM     71  C   UNL A   1      49.539  35.458  27.621  1.00  0.00     0.049 A 
ATOM     72  N   UNL A   1      47.450  37.642  27.683  1.00  0.00    -0.248 NA
ATOM     73  C   UNL A   1      48.462  38.569  25.793  1.00  0.00     0.031 C 
ATOM     74  C   UNL A   1      50.519  34.375  27.636  1.00  0.00     0.029 A 
ATOM     75  N   UNL A   1      48.676  35.147  28.645  1.00  0.00    -0.354 N 
ATOM     76  C   UNL A   1      46.745  38.771  27.283  1.00  0.00     0.074 A 
ATOM     77  C   UNL A   1      47.426  39.318  26.132  1.00  0.00     0.031 C 
ATOM     78  C   UNL A   1      50.219  33.532  28.642  1.00  0.00     0.029 A 
ATOM     79  C   UNL A   1      49.052  34.037  29.364  1.00  0.00     0.049 A 
ATOM     80  H   UNL A   1      47.866  35.669  28.845  1.00  0.00     0.167 HD
ATOM     81  C   UNL A   1      45.628  39.305  27.830  1.00  0.00     0.037 A 
ATOM     82  C   UNL A   1      48.531  33.518  30.494  1.00  0.00     0.037 A 
ATOM     83  C   UNL A   1      44.952  38.762  28.975  1.00  0.00     0.049 A 
ATOM     84  C   UNL A   1      47.332  34.178  31.130  1.00  0.00     0.074 A 
ATOM     85  C   UNL A   1      43.802  39.221  29.592  1.00  0.00     0.029 A 
ATOM     86  N   UNL A   1      45.373  37.646  29.681  1.00  0.00    -0.354 N 
ATOM     87  N   UNL A   1      46.655  35.229  30.733  1.00  0.00    -0.248 NA
ATOM     88  C   UNL A   1      46.824  33.581  32.376  1.00  0.00     0.031 C 
ATOM     89  C   UNL A   1      43.557  38.414  30.707  1.00  0.00     0.029 A 
ATOM     90  C   UNL A   1      44.519  37.417  30.745  1.00  0.00     0.049 A 
ATOM     91  H   UNL A   1      46.160  37.099  29.458  1.00  0.00     0.167 HD
ATOM     92  C   UNL A   1      45.626  35.394  31.654  1.00  0.00     0.074 A 
ATOM     93  C   UNL A   1      45.760  34.332  32.627  1.00  0.00     0.031 C 
ATOM     94  C   UNL A   1      44.654  36.339  31.690  1.00  0.00     0.037 A 
BRANCH  81  95
ATOM     95  C   UNL A   1      45.088  40.562  27.216  1.00  0.00     0.057 A 
ATOM     96  C   UNL A   1      45.672  41.814  27.448  1.00  0.00     0.134 A 
ATOM     97  C   UNL A   1      43.991  40.511  26.346  1.00  0.00     0.134 A 
ATOM     98  F   UNL A   1      46.713  41.933  28.286  1.00  0.00    -0.206 F 
ATOM     99  C   UNL A   1      45.176  42.972  26.847  1.00  0.00     0.040 A 
ATOM    100  C   UNL A   1      43.503  41.657  25.718  1.00  0.00     0.040 A 
ATOM    101  F   UNL A   1      43.385  39.343  26.082  1.00  0.00    -0.206 F 
ATOM    102  C   UNL A   1      44.095  42.893  25.971  1.00  0.00     0.006 A 
ENDBRANCH  81  95
BRANCH  82 103
ATOM    103  C   UNL A   1      49.156  32.330  31.135  1.00  0.00     0.057 A 
ATOM    104  C   UNL A   1      50.210  32.463  32.047  1.00  0.00     0.134 A 
ATOM    105  C   UNL A   1      48.755  31.029  30.804  1.00  0.00     0.134 A 
ATOM    106  F   UNL A   1      50.662  33.681  32.383  1.00  0.00    -0.206 F 
ATOM    107  C   UNL A   1      50.859  31.350  32.587  1.00  0.00     0.040 A 
ATOM    108  C   UNL A   1      49.374  29.907  31.358  1.00  0.00     0.040 A 
ATOM    109  F   UNL A   1      47.755  30.829  29.934  1.00  0.00    -0.206 F 
ATOM    110  C   UNL A   1      50.438  30.066  32.244  1.00  0.00     0.006 A 
ENDBRANCH  82 103
BRANCH  94 111
ATOM    111  C   UNL A   1      43.622  36.241  32.777  1.00  0.00     0.057 A 
ATOM    112  C   UNL A   1      42.499  35.413  32.666  1.00  0.00     0.134 A 
ATOM    113  C   UNL A   1      43.799  36.934  33.983  1.00  0.00     0.134 A 
ATOM    114  F   UNL A   1      42.267  34.730  31.536  1.00  0.00    -0.206 F 
ATOM    115  C   UNL A   1      41.581  35.287  33.711  1.00  0.00     0.040 A 
ATOM    116  C   UNL A   1      42.905  36.795  35.044  1.00  0.00     0.040 A 
ATOM    117  F   UNL A   1      44.862  37.734  34.159  1.00  0.00    -0.206 F 
ATOM    118  C   UNL A   1      41.788  35.972  34.908  1.00  0.00     0.006 A 
ENDBRANCH  94 111
ENDBRANCH  68  69
ENDBRANCH  61  63
ENDBRANCH  60  61
ENDBRANCH  59  60
ENDBRANCH  58  59
ENDBRANCH  57  58
ENDBRANCH  56  57
ENDBRANCH  55  56
ENDBRANCH  54  55
ENDBRANCH  53  54
ENDBRANCH   1  53
TORSDOF 33
ENDMDL
