MODEL 1
REMARK VINA RESULT:     -10.0      0.000      0.000
REMARK SMILES Cn1cc(S(=O)(=O)NC[C@H]2CC[C@@H](C(=O)OCCOCCOCCOCCOC(=O)c3ccc(-c4c5nc(c(-c6c(F)cccc6F)c6ccc([nH]6)c(-c6c(F)cccc6F)c6nc(c(-c7c(F)cccc7F)c7ccc4[nH]7)C=C6)C=C5)cc3)CC2)cn1
REMARK SMILES IDX 21 1 20 2 19 3 18 4 17 5 16 6 14 7 15 8 13 9 10 10 11 11
REMARK SMILES IDX 86 12 12 13 85 14 9 15 8 16 5 18 6 19 7 20 4 21 1 22 2 23
REMARK SMILES IDX 3 24 88 25 87 26 22 27 23 28 24 29 25 30 26 31 27 32 28 33
REMARK SMILES IDX 29 34 30 35 31 36 32 37 84 38 33 39 83 40 34 41 35 42 36 43
REMARK SMILES IDX 77 44 37 45 82 46 76 47 78 48 38 49 81 50 75 51 74 52 39 54
REMARK SMILES IDX 65 55 48 56 64 57 49 58 52 59 63 60 79 61 50 62 51 63 62 65
REMARK SMILES IDX 80 66 53 67 40 68 41 69 46 70 42 71 43 72 45 73 47 74 44 75
REMARK SMILES IDX 66 76 67 77 72 78 68 79 69 80 71 81 73 82 70 83 54 84 55 85
REMARK SMILES IDX 60 86 56 87 57 88 59 89 61 90 58 91
REMARK H PARENT 8 17 78 53 52 64
REMARK Flexibility Score: inf
ROOT
ATOM      1  C   UNL A   1      37.968  22.157  25.664  1.00  0.00     0.188 C 
ENDROOT
BRANCH   1   2
ATOM      2  C   UNL A   1      37.806  23.672  25.833  1.00  0.00     0.188 C 
BRANCH   2   3
ATOM      3  O   UNL A   1      36.456  24.105  25.924  1.00  0.00    -0.376 OA
BRANCH   3   4
ATOM      4  C   UNL A   1      35.499  23.065  25.780  1.00  0.00     0.202 C 
BRANCH   4   5
ATOM      5  C   UNL A   1      34.635  22.804  27.014  1.00  0.00     0.261 C 
BRANCH   5   6
ATOM      6  O   UNL A   1      33.280  22.374  26.781  1.00  0.00    -0.463 OA
BRANCH   6   7
ATOM      7  C   UNL A   1      33.074  21.359  25.915  1.00  0.00     0.309 C 
ATOM      8  O   UNL A   1      33.833  20.406  25.786  1.00  0.00    -0.252 OA
BRANCH   7   9
ATOM      9  C   UNL A   1      31.835  21.564  25.030  1.00  0.00     0.099 C 
ATOM     10  C   UNL A   1      32.426  23.932  23.298  1.00  0.00     0.004 C 
ATOM     11  C   UNL A   1      33.084  22.563  23.075  1.00  0.00     0.006 C 
ATOM     12  C   UNL A   1      31.790  24.109  24.683  1.00  0.00     0.006 C 
ATOM     13  C   UNL A   1      32.236  21.388  23.564  1.00  0.00     0.015 C 
ATOM     14  C   UNL A   1      31.036  22.870  25.150  1.00  0.00     0.015 C 
BRANCH  10  15
ATOM     15  C   UNL A   1      33.359  25.103  22.947  1.00  0.00     0.102 C 
BRANCH  15  16
ATOM     16  N   UNL A   1      33.789  25.921  24.089  1.00  0.00    -0.211 NA
ATOM     17  H   UNL A   1      33.460  25.427  24.919  1.00  0.00     0.141 HD
BRANCH  16  18
ATOM     18  S   UNL A   1      33.361  27.525  24.321  1.00  0.00     0.243 S 
ATOM     19  O   UNL A   1      34.277  28.328  23.547  1.00  0.00    -0.207 OA
ATOM     20  O   UNL A   1      33.216  27.730  25.745  1.00  0.00    -0.207 OA
BRANCH  18  21
ATOM     21  C   UNL A   1      31.826  27.888  23.678  1.00  0.00     0.120 A 
ATOM     22  C   UNL A   1      28.261  27.831  23.293  1.00  0.00     0.173 C 
ATOM     23  N   UNL A   1      29.692  28.016  23.267  1.00  0.00    -0.274 N 
ATOM     24  C   UNL A   1      30.589  27.563  24.187  1.00  0.00     0.130 A 
ATOM     25  N   UNL A   1      30.258  28.662  22.230  1.00  0.00    -0.180 NA
ATOM     26  C   UNL A   1      31.568  28.591  22.491  1.00  0.00     0.156 A 
ENDBRANCH  18  21
ENDBRANCH  16  18
ENDBRANCH  15  16
ENDBRANCH  10  15
ENDBRANCH   7   9
ENDBRANCH   6   7
ENDBRANCH   5   6
ENDBRANCH   4   5
ENDBRANCH   3   4
ENDBRANCH   2   3
ENDBRANCH   1   2
BRANCH   1  27
ATOM     27  O   UNL A   1      39.264  21.581  25.767  1.00  0.00    -0.377 OA
BRANCH  27  28
ATOM     28  C   UNL A   1      40.064  21.882  26.910  1.00  0.00     0.188 C 
BRANCH  28  29
ATOM     29  C   UNL A   1      41.129  20.877  27.394  1.00  0.00     0.188 C 
BRANCH  29  30
ATOM     30  O   UNL A   1      42.473  21.244  27.118  1.00  0.00    -0.376 OA
BRANCH  30  31
ATOM     31  C   UNL A   1      43.021  20.799  25.885  1.00  0.00     0.202 C 
BRANCH  31  32
ATOM     32  C   UNL A   1      43.894  21.822  25.145  1.00  0.00     0.261 C 
BRANCH  32  33
ATOM     33  O   UNL A   1      43.269  23.097  24.918  1.00  0.00    -0.460 OA
BRANCH  33  34
ATOM     34  C   UNL A   1      44.033  24.194  25.093  1.00  0.00     0.338 C 
ATOM     35  O   UNL A   1      45.107  24.448  24.580  1.00  0.00    -0.246 OA
BRANCH  34  36
ATOM     36  C   UNL A   1      43.273  25.144  25.921  1.00  0.00     0.060 A 
ATOM     37  C   UNL A   1      43.753  26.450  26.064  1.00  0.00     0.016 A 
ATOM     38  C   UNL A   1      42.124  24.723  26.593  1.00  0.00     0.016 A 
ATOM     39  C   UNL A   1      43.110  27.330  26.932  1.00  0.00     0.010 A 
ATOM     40  C   UNL A   1      41.490  25.599  27.474  1.00  0.00     0.010 A 
ATOM     41  C   UNL A   1      42.008  26.889  27.679  1.00  0.00    -0.014 A 
BRANCH  41  42
ATOM     42  C   UNL A   1      41.546  27.692  28.832  1.00  0.00     0.031 A 
ATOM     43  C   UNL A   1      42.301  27.571  30.128  1.00  0.00     0.074 A 
ATOM     44  C   UNL A   1      40.498  28.525  28.729  1.00  0.00     0.049 A 
ATOM     45  N   UNL A   1      42.085  28.162  31.275  1.00  0.00    -0.248 NA
ATOM     46  C   UNL A   1      43.455  26.656  30.128  1.00  0.00     0.031 C 
ATOM     47  C   UNL A   1      39.709  28.749  27.521  1.00  0.00     0.029 A 
ATOM     48  N   UNL A   1      39.919  29.339  29.670  1.00  0.00    -0.354 N 
ATOM     49  C   UNL A   1      43.075  27.693  32.129  1.00  0.00     0.074 A 
ATOM     50  C   UNL A   1      43.871  26.744  31.383  1.00  0.00     0.031 C 
ATOM     51  C   UNL A   1      38.736  29.637  27.797  1.00  0.00     0.029 A 
ATOM     52  C   UNL A   1      38.827  30.026  29.204  1.00  0.00     0.049 A 
ATOM     53  H   UNL A   1      40.256  29.421  30.592  1.00  0.00     0.167 HD
ATOM     54  C   UNL A   1      43.308  28.031  33.419  1.00  0.00     0.037 A 
ATOM     55  C   UNL A   1      37.993  30.864  29.849  1.00  0.00     0.037 A 
ATOM     56  C   UNL A   1      42.514  28.969  34.164  1.00  0.00     0.049 A 
ATOM     57  C   UNL A   1      38.238  31.180  31.301  1.00  0.00     0.074 A 
ATOM     58  C   UNL A   1      42.673  29.385  35.474  1.00  0.00     0.029 A 
ATOM     59  N   UNL A   1      41.402  29.629  33.664  1.00  0.00    -0.354 N 
ATOM     60  N   UNL A   1      39.194  30.756  32.093  1.00  0.00    -0.248 NA
ATOM     61  C   UNL A   1      37.289  32.098  31.949  1.00  0.00     0.031 C 
ATOM     62  C   UNL A   1      41.632  30.269  35.779  1.00  0.00     0.029 A 
ATOM     63  C   UNL A   1      40.853  30.436  34.645  1.00  0.00     0.049 A 
ATOM     64  H   UNL A   1      41.056  29.537  32.747  1.00  0.00     0.167 HD
ATOM     65  C   UNL A   1      38.980  31.378  33.318  1.00  0.00     0.074 A 
ATOM     66  C   UNL A   1      37.810  32.215  33.163  1.00  0.00     0.031 C 
ATOM     67  C   UNL A   1      39.691  31.268  34.468  1.00  0.00     0.037 A 
BRANCH  54  68
ATOM     68  C   UNL A   1      44.460  27.359  34.105  1.00  0.00     0.057 A 
ATOM     69  C   UNL A   1      44.316  26.120  34.744  1.00  0.00     0.134 A 
ATOM     70  C   UNL A   1      45.729  27.949  34.116  1.00  0.00     0.134 A 
ATOM     71  F   UNL A   1      43.121  25.510  34.785  1.00  0.00    -0.206 F 
ATOM     72  C   UNL A   1      45.390  25.503  35.388  1.00  0.00     0.040 A 
ATOM     73  C   UNL A   1      46.815  27.332  34.736  1.00  0.00     0.040 A 
ATOM     74  F   UNL A   1      45.931  29.136  33.524  1.00  0.00    -0.206 F 
ATOM     75  C   UNL A   1      46.645  26.107  35.380  1.00  0.00     0.006 A 
ENDBRANCH  54  68
BRANCH  55  76
ATOM     76  C   UNL A   1      36.843  31.467  29.130  1.00  0.00     0.057 A 
ATOM     77  C   UNL A   1      35.691  30.724  28.852  1.00  0.00     0.134 A 
ATOM     78  C   UNL A   1      36.882  32.792  28.682  1.00  0.00     0.134 A 
ATOM     79  F   UNL A   1      35.607  29.441  29.232  1.00  0.00    -0.206 F 
ATOM     80  C   UNL A   1      34.624  31.272  28.137  1.00  0.00     0.040 A 
ATOM     81  C   UNL A   1      35.812  33.360  27.987  1.00  0.00     0.040 A 
ATOM     82  F   UNL A   1      37.961  33.555  28.912  1.00  0.00    -0.206 F 
ATOM     83  C   UNL A   1      34.681  32.596  27.706  1.00  0.00     0.006 A 
ENDBRANCH  55  76
BRANCH  67  84
ATOM     84  C   UNL A   1      39.244  32.100  35.635  1.00  0.00     0.057 A 
ATOM     85  C   UNL A   1      39.647  33.431  35.793  1.00  0.00     0.134 A 
ATOM     86  C   UNL A   1      38.363  31.572  36.588  1.00  0.00     0.134 A 
ATOM     87  F   UNL A   1      40.496  33.993  34.919  1.00  0.00    -0.206 F 
ATOM     88  C   UNL A   1      39.208  34.202  36.870  1.00  0.00     0.040 A 
ATOM     89  C   UNL A   1      37.899  32.339  37.656  1.00  0.00     0.040 A 
ATOM     90  F   UNL A   1      37.930  30.306  36.488  1.00  0.00    -0.206 F 
ATOM     91  C   UNL A   1      38.326  33.658  37.802  1.00  0.00     0.006 A 
ENDBRANCH  67  84
ENDBRANCH  41  42
ENDBRANCH  34  36
ENDBRANCH  33  34
ENDBRANCH  32  33
ENDBRANCH  31  32
ENDBRANCH  30  31
ENDBRANCH  29  30
ENDBRANCH  28  29
ENDBRANCH  27  28
ENDBRANCH   1  27
TORSDOF 24
ENDMDL
MODEL 2
REMARK VINA RESULT:      -9.9      4.395      9.948
REMARK SMILES Cn1cc(S(=O)(=O)NC[C@H]2CC[C@@H](C(=O)OCCOCCOCCOCCOC(=O)c3ccc(-c4c5nc(c(-c6c(F)cccc6F)c6ccc([nH]6)c(-c6c(F)cccc6F)c6nc(c(-c7c(F)cccc7F)c7ccc4[nH]7)C=C6)C=C5)cc3)CC2)cn1
REMARK SMILES IDX 21 1 20 2 19 3 18 4 17 5 16 6 14 7 15 8 13 9 10 10 11 11
REMARK SMILES IDX 86 12 12 13 85 14 9 15 8 16 5 18 6 19 7 20 4 21 1 22 2 23
REMARK SMILES IDX 3 24 88 25 87 26 22 27 23 28 24 29 25 30 26 31 27 32 28 33
REMARK SMILES IDX 29 34 30 35 31 36 32 37 84 38 33 39 83 40 34 41 35 42 36 43
REMARK SMILES IDX 77 44 37 45 82 46 76 47 78 48 38 49 81 50 75 51 74 52 39 54
REMARK SMILES IDX 65 55 48 56 64 57 49 58 52 59 63 60 79 61 50 62 51 63 62 65
REMARK SMILES IDX 80 66 53 67 40 68 41 69 46 70 42 71 43 72 45 73 47 74 44 75
REMARK SMILES IDX 66 76 67 77 72 78 68 79 69 80 71 81 73 82 70 83 54 84 55 85
REMARK SMILES IDX 60 86 56 87 57 88 59 89 61 90 58 91
REMARK H PARENT 8 17 78 53 52 64
REMARK Flexibility Score: inf
ROOT
ATOM      1  C   UNL A   1      34.310  32.294  28.344  1.00  0.00     0.188 C 
ENDROOT
BRANCH   1   2
ATOM      2  C   UNL A   1      34.879  31.064  27.627  1.00  0.00     0.188 C 
BRANCH   2   3
ATOM      3  O   UNL A   1      33.899  30.263  26.983  1.00  0.00    -0.376 OA
BRANCH   3   4
ATOM      4  C   UNL A   1      32.604  30.846  26.941  1.00  0.00     0.202 C 
BRANCH   4   5
ATOM      5  C   UNL A   1      31.703  30.346  25.812  1.00  0.00     0.261 C 
BRANCH   5   6
ATOM      6  O   UNL A   1      32.108  29.137  25.143  1.00  0.00    -0.463 OA
BRANCH   6   7
ATOM      7  C   UNL A   1      31.334  28.040  25.284  1.00  0.00     0.309 C 
ATOM      8  O   UNL A   1      31.339  27.324  26.278  1.00  0.00    -0.252 OA
BRANCH   7   9
ATOM      9  C   UNL A   1      30.508  27.720  24.029  1.00  0.00     0.099 C 
ATOM     10  C   UNL A   1      31.408  25.021  23.101  1.00  0.00     0.004 C 
ATOM     11  C   UNL A   1      30.530  25.214  24.346  1.00  0.00     0.006 C 
ATOM     12  C   UNL A   1      32.120  26.294  22.627  1.00  0.00     0.006 C 
ATOM     13  C   UNL A   1      29.662  26.472  24.295  1.00  0.00     0.015 C 
ATOM     14  C   UNL A   1      31.228  27.528  22.686  1.00  0.00     0.015 C 
BRANCH  10  15
ATOM     15  C   UNL A   1      32.385  23.841  23.242  1.00  0.00     0.102 C 
BRANCH  15  16
ATOM     16  N   UNL A   1      31.799  22.608  23.784  1.00  0.00    -0.211 NA
ATOM     17  H   UNL A   1      30.804  22.805  23.896  1.00  0.00     0.141 HD
BRANCH  16  18
ATOM     18  S   UNL A   1      32.279  21.879  25.215  1.00  0.00     0.243 S 
ATOM     19  O   UNL A   1      31.789  20.522  25.189  1.00  0.00    -0.207 OA
ATOM     20  O   UNL A   1      31.926  22.775  26.293  1.00  0.00    -0.207 OA
BRANCH  18  21
ATOM     21  C   UNL A   1      33.971  21.720  25.327  1.00  0.00     0.120 A 
ATOM     22  C   UNL A   1      37.231  20.281  24.919  1.00  0.00     0.173 C 
ATOM     23  N   UNL A   1      36.037  21.046  25.185  1.00  0.00    -0.274 N 
ATOM     24  C   UNL A   1      34.784  20.790  24.717  1.00  0.00     0.130 A 
ATOM     25  N   UNL A   1      36.101  22.111  26.008  1.00  0.00    -0.180 NA
ATOM     26  C   UNL A   1      34.833  22.528  26.085  1.00  0.00     0.156 A 
ENDBRANCH  18  21
ENDBRANCH  16  18
ENDBRANCH  15  16
ENDBRANCH  10  15
ENDBRANCH   7   9
ENDBRANCH   6   7
ENDBRANCH   5   6
ENDBRANCH   4   5
ENDBRANCH   3   4
ENDBRANCH   2   3
ENDBRANCH   1   2
BRANCH   1  27
ATOM     27  O   UNL A   1      35.002  33.533  28.253  1.00  0.00    -0.377 OA
BRANCH  27  28
ATOM     28  C   UNL A   1      34.265  34.747  28.396  1.00  0.00     0.188 C 
BRANCH  28  29
ATOM     29  C   UNL A   1      33.209  34.882  29.512  1.00  0.00     0.188 C 
BRANCH  29  30
ATOM     30  O   UNL A   1      33.598  35.690  30.614  1.00  0.00    -0.376 OA
BRANCH  30  31
ATOM     31  C   UNL A   1      33.685  35.050  31.881  1.00  0.00     0.202 C 
BRANCH  31  32
ATOM     32  C   UNL A   1      35.109  34.764  32.377  1.00  0.00     0.261 C 
BRANCH  32  33
ATOM     33  O   UNL A   1      35.704  33.567  31.848  1.00  0.00    -0.460 OA
BRANCH  33  34
ATOM     34  C   UNL A   1      36.190  32.678  32.739  1.00  0.00     0.338 C 
ATOM     35  O   UNL A   1      35.857  32.523  33.899  1.00  0.00    -0.246 OA
BRANCH  34  36
ATOM     36  C   UNL A   1      37.120  31.790  32.025  1.00  0.00     0.060 A 
ATOM     37  C   UNL A   1      38.119  31.133  32.753  1.00  0.00     0.016 A 
ATOM     38  C   UNL A   1      37.034  31.654  30.639  1.00  0.00     0.016 A 
ATOM     39  C   UNL A   1      39.077  30.377  32.081  1.00  0.00     0.010 A 
ATOM     40  C   UNL A   1      38.003  30.910  29.965  1.00  0.00     0.010 A 
ATOM     41  C   UNL A   1      39.052  30.307  30.681  1.00  0.00    -0.014 A 
BRANCH  41  42
ATOM     42  C   UNL A   1      40.241  29.805  29.958  1.00  0.00     0.031 A 
ATOM     43  C   UNL A   1      41.384  30.755  29.728  1.00  0.00     0.074 A 
ATOM     44  C   UNL A   1      40.317  28.532  29.537  1.00  0.00     0.049 A 
ATOM     45  N   UNL A   1      42.523  30.555  29.116  1.00  0.00    -0.248 NA
ATOM     46  C   UNL A   1      41.216  32.119  30.258  1.00  0.00     0.031 C 
ATOM     47  C   UNL A   1      39.288  27.513  29.728  1.00  0.00     0.029 A 
ATOM     48  N   UNL A   1      41.316  27.885  28.854  1.00  0.00    -0.354 N 
ATOM     49  C   UNL A   1      43.206  31.762  29.191  1.00  0.00     0.074 A 
ATOM     50  C   UNL A   1      42.344  32.700  29.875  1.00  0.00     0.031 C 
ATOM     51  C   UNL A   1      39.706  26.365  29.163  1.00  0.00     0.029 A 
ATOM     52  C   UNL A   1      41.020  26.578  28.557  1.00  0.00     0.049 A 
ATOM     53  H   UNL A   1      42.163  28.318  28.601  1.00  0.00     0.167 HD
ATOM     54  C   UNL A   1      44.446  32.060  28.740  1.00  0.00     0.037 A 
ATOM     55  C   UNL A   1      41.729  25.667  27.865  1.00  0.00     0.037 A 
ATOM     56  C   UNL A   1      45.302  31.131  28.054  1.00  0.00     0.049 A 
ATOM     57  C   UNL A   1      43.084  26.040  27.322  1.00  0.00     0.074 A 
ATOM     58  C   UNL A   1      46.580  31.334  27.565  1.00  0.00     0.029 A 
ATOM     59  N   UNL A   1      44.958  29.822  27.753  1.00  0.00    -0.354 N 
ATOM     60  N   UNL A   1      43.735  27.175  27.423  1.00  0.00    -0.248 NA
ATOM     61  C   UNL A   1      43.806  25.002  26.572  1.00  0.00     0.031 C 
ATOM     62  C   UNL A   1      46.995  30.157  26.931  1.00  0.00     0.029 A 
ATOM     63  C   UNL A   1      45.993  29.209  27.067  1.00  0.00     0.049 A 
ATOM     64  H   UNL A   1      44.106  29.392  27.994  1.00  0.00     0.167 HD
ATOM     65  C   UNL A   1      44.951  26.977  26.779  1.00  0.00     0.074 A 
ATOM     66  C   UNL A   1      44.952  25.611  26.299  1.00  0.00     0.031 C 
ATOM     67  C   UNL A   1      45.977  27.846  26.604  1.00  0.00     0.037 A 
BRANCH  54  68
ATOM     68  C   UNL A   1      44.935  33.461  28.959  1.00  0.00     0.057 A 
ATOM     69  C   UNL A   1      45.668  33.817  30.099  1.00  0.00     0.134 A 
ATOM     70  C   UNL A   1      44.683  34.461  28.012  1.00  0.00     0.134 A 
ATOM     71  F   UNL A   1      45.926  32.909  31.053  1.00  0.00    -0.206 F 
ATOM     72  C   UNL A   1      46.113  35.125  30.300  1.00  0.00     0.040 A 
ATOM     73  C   UNL A   1      45.143  35.766  28.191  1.00  0.00     0.040 A 
ATOM     74  F   UNL A   1      43.986  34.185  26.900  1.00  0.00    -0.206 F 
ATOM     75  C   UNL A   1      45.855  36.102  29.341  1.00  0.00     0.006 A 
ENDBRANCH  54  68
BRANCH  55  76
ATOM     76  C   UNL A   1      41.176  24.308  27.642  1.00  0.00     0.057 A 
ATOM     77  C   UNL A   1      41.662  23.202  28.346  1.00  0.00     0.134 A 
ATOM     78  C   UNL A   1      40.166  24.081  26.699  1.00  0.00     0.134 A 
ATOM     79  F   UNL A   1      42.649  23.352  29.242  1.00  0.00    -0.206 F 
ATOM     80  C   UNL A   1      41.178  21.914  28.109  1.00  0.00     0.040 A 
ATOM     81  C   UNL A   1      39.656  22.802  26.469  1.00  0.00     0.040 A 
ATOM     82  F   UNL A   1      39.663  25.099  25.987  1.00  0.00    -0.206 F 
ATOM     83  C   UNL A   1      40.168  21.713  27.170  1.00  0.00     0.006 A 
ENDBRANCH  55  76
BRANCH  67  84
ATOM     84  C   UNL A   1      47.198  27.336  25.895  1.00  0.00     0.057 A 
ATOM     85  C   UNL A   1      47.354  27.456  24.509  1.00  0.00     0.134 A 
ATOM     86  C   UNL A   1      48.249  26.757  26.618  1.00  0.00     0.134 A 
ATOM     87  F   UNL A   1      46.380  27.993  23.759  1.00  0.00    -0.206 F 
ATOM     88  C   UNL A   1      48.502  26.997  23.863  1.00  0.00     0.040 A 
ATOM     89  C   UNL A   1      49.412  26.316  25.986  1.00  0.00     0.040 A 
ATOM     90  F   UNL A   1      48.168  26.623  27.950  1.00  0.00    -0.206 F 
ATOM     91  C   UNL A   1      49.539  26.431  24.603  1.00  0.00     0.006 A 
ENDBRANCH  67  84
ENDBRANCH  41  42
ENDBRANCH  34  36
ENDBRANCH  33  34
ENDBRANCH  32  33
ENDBRANCH  31  32
ENDBRANCH  30  31
ENDBRANCH  29  30
ENDBRANCH  28  29
ENDBRANCH  27  28
ENDBRANCH   1  27
TORSDOF 24
ENDMDL
MODEL 3
REMARK VINA RESULT:      -9.7      2.784      8.764
REMARK SMILES Cn1cc(S(=O)(=O)NC[C@H]2CC[C@@H](C(=O)OCCOCCOCCOCCOC(=O)c3ccc(-c4c5nc(c(-c6c(F)cccc6F)c6ccc([nH]6)c(-c6c(F)cccc6F)c6nc(c(-c7c(F)cccc7F)c7ccc4[nH]7)C=C6)C=C5)cc3)CC2)cn1
REMARK SMILES IDX 21 1 20 2 19 3 18 4 17 5 16 6 14 7 15 8 13 9 10 10 11 11
REMARK SMILES IDX 86 12 12 13 85 14 9 15 8 16 5 18 6 19 7 20 4 21 1 22 2 23
REMARK SMILES IDX 3 24 88 25 87 26 22 27 23 28 24 29 25 30 26 31 27 32 28 33
REMARK SMILES IDX 29 34 30 35 31 36 32 37 84 38 33 39 83 40 34 41 35 42 36 43
REMARK SMILES IDX 77 44 37 45 82 46 76 47 78 48 38 49 81 50 75 51 74 52 39 54
REMARK SMILES IDX 65 55 48 56 64 57 49 58 52 59 63 60 79 61 50 62 51 63 62 65
REMARK SMILES IDX 80 66 53 67 40 68 41 69 46 70 42 71 43 72 45 73 47 74 44 75
REMARK SMILES IDX 66 76 67 77 72 78 68 79 69 80 71 81 73 82 70 83 54 84 55 85
REMARK SMILES IDX 60 86 56 87 57 88 59 89 61 90 58 91
REMARK H PARENT 8 17 78 53 52 64
REMARK Flexibility Score: inf
ROOT
ATOM      1  C   UNL A   1      27.277  29.877  23.324  1.00  0.00     0.188 C 
ENDROOT
BRANCH   1   2
ATOM      2  C   UNL A   1      27.837  29.673  21.912  1.00  0.00     0.188 C 
BRANCH   2   3
ATOM      3  O   UNL A   1      29.198  29.268  21.879  1.00  0.00    -0.376 OA
BRANCH   3   4
ATOM      4  C   UNL A   1      29.507  28.191  22.751  1.00  0.00     0.202 C 
BRANCH   4   5
ATOM      5  C   UNL A   1      30.928  28.200  23.316  1.00  0.00     0.261 C 
BRANCH   5   6
ATOM      6  O   UNL A   1      31.124  28.874  24.574  1.00  0.00    -0.463 OA
BRANCH   6   7
ATOM      7  C   UNL A   1      32.373  28.915  25.086  1.00  0.00     0.309 C 
ATOM      8  O   UNL A   1      33.335  29.399  24.503  1.00  0.00    -0.252 OA
BRANCH   7   9
ATOM      9  C   UNL A   1      32.491  28.203  26.442  1.00  0.00     0.099 C 
ATOM     10  C   UNL A   1      32.624  25.274  25.841  1.00  0.00     0.004 C 
ATOM     11  C   UNL A   1      33.800  26.225  25.576  1.00  0.00     0.006 C 
ATOM     12  C   UNL A   1      31.274  25.978  26.032  1.00  0.00     0.006 C 
ATOM     13  C   UNL A   1      33.821  27.447  26.494  1.00  0.00     0.015 C 
ATOM     14  C   UNL A   1      31.380  27.238  26.882  1.00  0.00     0.015 C 
BRANCH  10  15
ATOM     15  C   UNL A   1      32.533  24.140  24.807  1.00  0.00     0.102 C 
BRANCH  15  16
ATOM     16  N   UNL A   1      32.537  22.782  25.369  1.00  0.00    -0.211 NA
ATOM     17  H   UNL A   1      32.275  22.891  26.349  1.00  0.00     0.141 HD
BRANCH  16  18
ATOM     18  S   UNL A   1      33.865  21.760  25.368  1.00  0.00     0.243 S 
ATOM     19  O   UNL A   1      34.153  21.431  26.744  1.00  0.00    -0.207 OA
ATOM     20  O   UNL A   1      34.872  22.362  24.524  1.00  0.00    -0.207 OA
BRANCH  18  21
ATOM     21  C   UNL A   1      33.531  20.260  24.632  1.00  0.00     0.120 A 
ATOM     22  C   UNL A   1      34.040  16.884  23.535  1.00  0.00     0.173 C 
ATOM     23  N   UNL A   1      33.613  18.218  23.882  1.00  0.00    -0.274 N 
ATOM     24  C   UNL A   1      34.263  19.095  24.696  1.00  0.00     0.130 A 
ATOM     25  N   UNL A   1      32.482  18.714  23.343  1.00  0.00    -0.180 NA
ATOM     26  C   UNL A   1      32.429  19.964  23.814  1.00  0.00     0.156 A 
ENDBRANCH  18  21
ENDBRANCH  16  18
ENDBRANCH  15  16
ENDBRANCH  10  15
ENDBRANCH   7   9
ENDBRANCH   6   7
ENDBRANCH   5   6
ENDBRANCH   4   5
ENDBRANCH   3   4
ENDBRANCH   2   3
ENDBRANCH   1   2
BRANCH   1  27
ATOM     27  O   UNL A   1      27.116  31.198  23.824  1.00  0.00    -0.377 OA
BRANCH  27  28
ATOM     28  C   UNL A   1      27.800  32.269  23.175  1.00  0.00     0.188 C 
BRANCH  28  29
ATOM     29  C   UNL A   1      29.303  32.496  23.437  1.00  0.00     0.188 C 
BRANCH  29  30
ATOM     30  O   UNL A   1      29.822  31.832  24.580  1.00  0.00    -0.376 OA
BRANCH  30  31
ATOM     31  C   UNL A   1      30.635  32.601  25.457  1.00  0.00     0.202 C 
BRANCH  31  32
ATOM     32  C   UNL A   1      31.081  31.883  26.739  1.00  0.00     0.261 C 
BRANCH  32  33
ATOM     33  O   UNL A   1      32.504  31.752  26.894  1.00  0.00    -0.460 OA
BRANCH  33  34
ATOM     34  C   UNL A   1      33.139  32.727  27.575  1.00  0.00     0.338 C 
ATOM     35  O   UNL A   1      32.707  33.816  27.902  1.00  0.00    -0.246 OA
BRANCH  34  36
ATOM     36  C   UNL A   1      34.442  32.197  28.008  1.00  0.00     0.060 A 
ATOM     37  C   UNL A   1      34.568  30.824  28.243  1.00  0.00     0.016 A 
ATOM     38  C   UNL A   1      35.512  33.066  28.231  1.00  0.00     0.016 A 
ATOM     39  C   UNL A   1      35.759  30.320  28.760  1.00  0.00     0.010 A 
ATOM     40  C   UNL A   1      36.699  32.563  28.764  1.00  0.00     0.010 A 
ATOM     41  C   UNL A   1      36.809  31.196  29.072  1.00  0.00    -0.014 A 
BRANCH  41  42
ATOM     42  C   UNL A   1      37.920  30.722  29.925  1.00  0.00     0.031 A 
ATOM     43  C   UNL A   1      38.900  29.745  29.335  1.00  0.00     0.074 A 
ATOM     44  C   UNL A   1      38.072  31.163  31.185  1.00  0.00     0.049 A 
ATOM     45  N   UNL A   1      39.946  29.181  29.883  1.00  0.00    -0.248 NA
ATOM     46  C   UNL A   1      38.665  29.348  27.936  1.00  0.00     0.031 C 
ATOM     47  C   UNL A   1      37.206  32.130  31.854  1.00  0.00     0.029 A 
ATOM     48  N   UNL A   1      39.019  30.845  32.125  1.00  0.00    -0.354 N 
ATOM     49  C   UNL A   1      40.493  28.369  28.898  1.00  0.00     0.074 A 
ATOM     50  C   UNL A   1      39.647  28.484  27.731  1.00  0.00     0.031 C 
ATOM     51  C   UNL A   1      37.656  32.320  33.108  1.00  0.00     0.029 A 
ATOM     52  C   UNL A   1      38.828  31.474  33.330  1.00  0.00     0.049 A 
ATOM     53  H   UNL A   1      39.763  30.224  31.952  1.00  0.00     0.167 HD
ATOM     54  C   UNL A   1      41.607  27.604  28.957  1.00  0.00     0.037 A 
ATOM     55  C   UNL A   1      39.519  31.365  34.480  1.00  0.00     0.037 A 
ATOM     56  C   UNL A   1      42.444  27.483  30.119  1.00  0.00     0.049 A 
ATOM     57  C   UNL A   1      40.723  30.462  34.538  1.00  0.00     0.074 A 
ATOM     58  C   UNL A   1      43.600  26.739  30.276  1.00  0.00     0.029 A 
ATOM     59  N   UNL A   1      42.207  28.120  31.327  1.00  0.00    -0.354 N 
ATOM     60  N   UNL A   1      41.251  29.720  33.593  1.00  0.00    -0.248 NA
ATOM     61  C   UNL A   1      41.432  30.384  35.824  1.00  0.00     0.031 C 
ATOM     62  C   UNL A   1      44.041  26.894  31.595  1.00  0.00     0.029 A 
ATOM     63  C   UNL A   1      43.185  27.771  32.243  1.00  0.00     0.049 A 
ATOM     64  H   UNL A   1      41.455  28.729  31.506  1.00  0.00     0.167 HD
ATOM     65  C   UNL A   1      42.367  29.116  34.160  1.00  0.00     0.074 A 
ATOM     66  C   UNL A   1      42.446  29.583  35.528  1.00  0.00     0.031 C 
ATOM     67  C   UNL A   1      43.250  28.253  33.598  1.00  0.00     0.037 A 
BRANCH  54  68
ATOM     68  C   UNL A   1      41.964  26.820  27.729  1.00  0.00     0.057 A 
ATOM     69  C   UNL A   1      41.492  25.517  27.522  1.00  0.00     0.134 A 
ATOM     70  C   UNL A   1      42.778  27.380  26.736  1.00  0.00     0.134 A 
ATOM     71  F   UNL A   1      40.724  24.917  28.444  1.00  0.00    -0.206 F 
ATOM     72  C   UNL A   1      41.835  24.791  26.380  1.00  0.00     0.040 A 
ATOM     73  C   UNL A   1      43.108  26.672  25.580  1.00  0.00     0.040 A 
ATOM     74  F   UNL A   1      43.263  28.622  26.875  1.00  0.00    -0.206 F 
ATOM     75  C   UNL A   1      42.641  25.371  25.403  1.00  0.00     0.006 A 
ENDBRANCH  54  68
BRANCH  55  76
ATOM     76  C   UNL A   1      39.094  32.132  35.678  1.00  0.00     0.057 A 
ATOM     77  C   UNL A   1      38.234  31.573  36.629  1.00  0.00     0.134 A 
ATOM     78  C   UNL A   1      39.518  33.450  35.884  1.00  0.00     0.134 A 
ATOM     79  F   UNL A   1      37.773  30.324  36.471  1.00  0.00    -0.206 F 
ATOM     80  C   UNL A   1      37.794  32.304  37.735  1.00  0.00     0.040 A 
ATOM     81  C   UNL A   1      39.105  34.184  36.998  1.00  0.00     0.040 A 
ATOM     82  F   UNL A   1      40.338  34.044  35.006  1.00  0.00    -0.206 F 
ATOM     83  C   UNL A   1      38.234  33.612  37.923  1.00  0.00     0.006 A 
ENDBRANCH  55  76
BRANCH  67  84
ATOM     84  C   UNL A   1      44.395  27.788  34.450  1.00  0.00     0.057 A 
ATOM     85  C   UNL A   1      45.563  28.547  34.598  1.00  0.00     0.134 A 
ATOM     86  C   UNL A   1      44.308  26.587  35.165  1.00  0.00     0.134 A 
ATOM     87  F   UNL A   1      45.712  29.702  33.933  1.00  0.00    -0.206 F 
ATOM     88  C   UNL A   1      46.613  28.115  35.409  1.00  0.00     0.040 A 
ATOM     89  C   UNL A   1      45.341  26.157  35.998  1.00  0.00     0.040 A 
ATOM     90  F   UNL A   1      43.212  25.819  35.076  1.00  0.00    -0.206 F 
ATOM     91  C   UNL A   1      46.501  26.920  36.117  1.00  0.00     0.006 A 
ENDBRANCH  67  84
ENDBRANCH  41  42
ENDBRANCH  34  36
ENDBRANCH  33  34
ENDBRANCH  32  33
ENDBRANCH  31  32
ENDBRANCH  30  31
ENDBRANCH  29  30
ENDBRANCH  28  29
ENDBRANCH  27  28
ENDBRANCH   1  27
TORSDOF 24
ENDMDL
