MODEL 1
REMARK VINA RESULT:     -10.3      0.000      0.000
REMARK SMILES Cc1ccc(N2CC[C@H]([NH+]3CCOCC3)[C@H](CCC(=O)OCCOCCOCCOCCOC(=O)c3ccc(-c4c5nc(c(-c6c(F)cccc6F)c6ccc([nH]6)c(-c6c(F)cccc6F)c6nc(c(-c7c(F)cccc7F)c7ccc4[nH]7)C=C6)C=C5)cc3)C2)nc1
REMARK SMILES IDX 26 1 25 2 24 3 23 4 22 5 21 6 19 7 20 8 18 9 17 10 16 11
REMARK SMILES IDX 6 12 7 13 90 14 8 15 9 16 5 17 1 18 2 19 3 20 92 21 4 22
REMARK SMILES IDX 91 23 10 24 11 25 15 26 12 28 14 29 13 30 27 31 28 32 29 33
REMARK SMILES IDX 30 34 31 35 32 36 33 37 34 38 35 39 36 40 37 41 89 42 38 43
REMARK SMILES IDX 88 44 39 45 40 46 41 47 82 48 42 49 87 50 81 51 83 52 43 53
REMARK SMILES IDX 86 54 80 55 79 56 44 58 70 59 53 60 69 61 54 62 57 63 68 64
REMARK SMILES IDX 84 65 55 66 56 67 67 69 85 70 58 71 45 72 46 73 51 74 47 75
REMARK SMILES IDX 48 76 50 77 52 78 49 79 71 80 72 81 77 82 73 83 74 84 76 85
REMARK SMILES IDX 78 86 75 87 59 88 60 89 65 90 61 91 62 92 64 93 66 94 63 95
REMARK H PARENT 10 27 83 57 57 68
REMARK Flexibility Score: inf
ROOT
ATOM      1  C   UNL A   1      33.999  34.419  29.976  1.00  0.00     0.188 C 
ENDROOT
BRANCH   1   2
ATOM      2  C   UNL A   1      34.643  34.716  28.609  1.00  0.00     0.188 C 
BRANCH   2   3
ATOM      3  O   UNL A   1      34.790  33.603  27.754  1.00  0.00    -0.376 OA
BRANCH   3   4
ATOM      4  C   UNL A   1      34.091  32.391  27.981  1.00  0.00     0.202 C 
BRANCH   4   5
ATOM      5  C   UNL A   1      34.604  30.984  27.622  1.00  0.00     0.261 C 
BRANCH   5   6
ATOM      6  O   UNL A   1      33.865  30.270  26.632  1.00  0.00    -0.463 OA
BRANCH   6   7
ATOM      7  C   UNL A   1      32.677  29.742  26.993  1.00  0.00     0.305 C 
ATOM      8  O   UNL A   1      31.611  30.346  26.945  1.00  0.00    -0.252 OA
BRANCH   7   9
ATOM      9  C   UNL A   1      32.755  28.253  27.334  1.00  0.00     0.123 C 
BRANCH   9  10
ATOM     10  C   UNL A   1      31.979  27.173  26.542  1.00  0.00     0.023 C 
BRANCH  10  11
ATOM     11  C   UNL A   1      32.630  26.320  25.422  1.00  0.00     0.067 C 
ATOM     12  N   UNL A   1      31.112  26.989  23.551  1.00  0.00    -0.356 N 
ATOM     13  C   UNL A   1      30.540  25.673  23.389  1.00  0.00     0.124 C 
ATOM     14  C   UNL A   1      32.472  27.086  24.059  1.00  0.00     0.127 C 
ATOM     15  C   UNL A   1      30.667  24.850  24.664  1.00  0.00     0.087 C 
ATOM     16  C   UNL A   1      32.102  24.845  25.235  1.00  0.00     0.190 C 
BRANCH  12  17
ATOM     17  C   UNL A   1      30.257  28.069  23.553  1.00  0.00     0.128 A 
ATOM     18  C   UNL A   1      27.624  31.426  23.274  1.00  0.00     0.046 C 
ATOM     19  C   UNL A   1      28.578  30.279  23.382  1.00  0.00    -0.033 A 
ATOM     20  C   UNL A   1      29.894  30.447  23.803  1.00  0.00     0.009 A 
ATOM     21  C   UNL A   1      28.181  28.985  23.074  1.00  0.00     0.117 A 
ATOM     22  C   UNL A   1      30.732  29.333  23.900  1.00  0.00     0.047 A 
ATOM     23  N   UNL A   1      28.987  27.897  23.131  1.00  0.00    -0.239 NA
ENDBRANCH  12  17
BRANCH  16  24
ATOM     24  N   UNL A   1      32.400  23.833  26.289  1.00  0.00    -0.328 N 
ATOM     25  C   UNL A   1      33.834  23.670  26.618  1.00  0.00     0.291 C 
ATOM     26  C   UNL A   1      31.874  22.472  26.217  1.00  0.00     0.291 C 
ATOM     27  H   UNL A   1      31.852  24.315  27.002  1.00  0.00     0.348 HD
ATOM     28  C   UNL A   1      34.596  22.615  25.768  1.00  0.00     0.221 C 
ATOM     29  C   UNL A   1      32.558  21.562  25.208  1.00  0.00     0.221 C 
ATOM     30  O   UNL A   1      33.911  21.364  25.619  1.00  0.00    -0.370 OA
ENDBRANCH  16  24
ENDBRANCH  10  11
ENDBRANCH   9  10
ENDBRANCH   7   9
ENDBRANCH   6   7
ENDBRANCH   5   6
ENDBRANCH   4   5
ENDBRANCH   3   4
ENDBRANCH   2   3
ENDBRANCH   1   2
BRANCH   1  31
ATOM     31  O   UNL A   1      32.899  35.208  30.387  1.00  0.00    -0.377 OA
BRANCH  31  32
ATOM     32  C   UNL A   1      32.921  35.793  31.681  1.00  0.00     0.188 C 
BRANCH  32  33
ATOM     33  C   UNL A   1      34.238  36.304  32.306  1.00  0.00     0.188 C 
BRANCH  33  34
ATOM     34  O   UNL A   1      34.436  36.012  33.679  1.00  0.00    -0.376 OA
BRANCH  34  35
ATOM     35  C   UNL A   1      35.070  34.794  34.043  1.00  0.00     0.202 C 
BRANCH  35  36
ATOM     36  C   UNL A   1      35.973  34.099  33.007  1.00  0.00     0.261 C 
BRANCH  36  37
ATOM     37  O   UNL A   1      36.383  32.761  33.327  1.00  0.00    -0.460 OA
BRANCH  37  38
ATOM     38  C   UNL A   1      36.204  31.820  32.379  1.00  0.00     0.338 C 
ATOM     39  O   UNL A   1      35.146  31.347  31.992  1.00  0.00    -0.246 OA
BRANCH  38  40
ATOM     40  C   UNL A   1      37.503  31.582  31.725  1.00  0.00     0.060 A 
ATOM     41  C   UNL A   1      37.579  31.677  30.330  1.00  0.00     0.016 A 
ATOM     42  C   UNL A   1      38.633  31.263  32.479  1.00  0.00     0.016 A 
ATOM     43  C   UNL A   1      38.779  31.418  29.679  1.00  0.00     0.010 A 
ATOM     44  C   UNL A   1      39.831  30.969  31.823  1.00  0.00     0.010 A 
ATOM     45  C   UNL A   1      39.896  31.010  30.418  1.00  0.00    -0.014 A 
BRANCH  45  46
ATOM     46  C   UNL A   1      41.050  30.433  29.694  1.00  0.00     0.031 A 
ATOM     47  C   UNL A   1      42.234  31.318  29.413  1.00  0.00     0.074 A 
ATOM     48  C   UNL A   1      41.078  29.132  29.355  1.00  0.00     0.049 A 
ATOM     49  N   UNL A   1      43.359  31.035  28.812  1.00  0.00    -0.248 NA
ATOM     50  C   UNL A   1      42.133  32.711  29.879  1.00  0.00     0.031 C 
ATOM     51  C   UNL A   1      40.014  28.167  29.621  1.00  0.00     0.029 A 
ATOM     52  N   UNL A   1      42.047  28.403  28.715  1.00  0.00    -0.354 N 
ATOM     53  C   UNL A   1      44.096  32.213  28.822  1.00  0.00     0.074 A 
ATOM     54  C   UNL A   1      43.280  33.221  29.461  1.00  0.00     0.031 C 
ATOM     55  C   UNL A   1      40.385  26.968  29.136  1.00  0.00     0.029 A 
ATOM     56  C   UNL A   1      41.697  27.093  28.501  1.00  0.00     0.049 A 
ATOM     57  H   UNL A   1      42.912  28.783  28.435  1.00  0.00     0.167 HD
ATOM     58  C   UNL A   1      45.345  32.431  28.346  1.00  0.00     0.037 A 
ATOM     59  C   UNL A   1      42.354  26.114  27.849  1.00  0.00     0.037 A 
ATOM     60  C   UNL A   1      46.153  31.423  27.711  1.00  0.00     0.049 A 
ATOM     61  C   UNL A   1      43.711  26.404  27.261  1.00  0.00     0.074 A 
ATOM     62  C   UNL A   1      47.439  31.538  27.215  1.00  0.00     0.029 A 
ATOM     63  N   UNL A   1      45.746  30.120  27.470  1.00  0.00    -0.354 N 
ATOM     64  N   UNL A   1      44.414  27.511  27.302  1.00  0.00    -0.248 NA
ATOM     65  C   UNL A   1      44.369  25.304  26.542  1.00  0.00     0.031 C 
ATOM     66  C   UNL A   1      47.786  30.324  26.616  1.00  0.00     0.029 A 
ATOM     67  C   UNL A   1      46.742  29.430  26.800  1.00  0.00     0.049 A 
ATOM     68  H   UNL A   1      44.877  29.741  27.737  1.00  0.00     0.167 HD
ATOM     69  C   UNL A   1      45.604  27.232  26.639  1.00  0.00     0.074 A 
ATOM     70  C   UNL A   1      45.536  25.846  26.227  1.00  0.00     0.031 C 
ATOM     71  C   UNL A   1      46.659  28.050  26.392  1.00  0.00     0.037 A 
BRANCH  58  72
ATOM     72  C   UNL A   1      45.899  33.822  28.461  1.00  0.00     0.057 A 
ATOM     73  C   UNL A   1      46.631  34.245  29.579  1.00  0.00     0.134 A 
ATOM     74  C   UNL A   1      45.723  34.742  27.420  1.00  0.00     0.134 A 
ATOM     75  F   UNL A   1      46.821  33.420  30.619  1.00  0.00    -0.206 F 
ATOM     76  C   UNL A   1      47.151  35.538  29.664  1.00  0.00     0.040 A 
ATOM     77  C   UNL A   1      46.262  36.027  27.480  1.00  0.00     0.040 A 
ATOM     78  F   UNL A   1      45.033  34.403  26.320  1.00  0.00    -0.206 F 
ATOM     79  C   UNL A   1      46.974  36.430  28.608  1.00  0.00     0.006 A 
ENDBRANCH  58  72
BRANCH  59  80
ATOM     80  C   UNL A   1      41.730  24.775  27.689  1.00  0.00     0.057 A 
ATOM     81  C   UNL A   1      42.109  23.692  28.489  1.00  0.00     0.134 A 
ATOM     82  C   UNL A   1      40.760  24.541  26.705  1.00  0.00     0.134 A 
ATOM     83  F   UNL A   1      43.049  23.845  29.431  1.00  0.00    -0.206 F 
ATOM     84  C   UNL A   1      41.564  22.419  28.303  1.00  0.00     0.040 A 
ATOM     85  C   UNL A   1      40.185  23.281  26.528  1.00  0.00     0.040 A 
ATOM     86  F   UNL A   1      40.353  25.535  25.904  1.00  0.00    -0.206 F 
ATOM     87  C   UNL A   1      40.595  22.213  27.323  1.00  0.00     0.006 A 
ENDBRANCH  59  80
BRANCH  71  88
ATOM     88  C   UNL A   1      47.836  27.456  25.670  1.00  0.00     0.057 A 
ATOM     89  C   UNL A   1      48.945  26.941  26.353  1.00  0.00     0.134 A 
ATOM     90  C   UNL A   1      47.846  27.373  24.271  1.00  0.00     0.134 A 
ATOM     91  F   UNL A   1      49.005  26.997  27.693  1.00  0.00    -0.206 F 
ATOM     92  C   UNL A   1      50.036  26.398  25.671  1.00  0.00     0.040 A 
ATOM     93  C   UNL A   1      48.916  26.802  23.580  1.00  0.00     0.040 A 
ATOM     94  F   UNL A   1      46.811  27.833  23.552  1.00  0.00    -0.206 F 
ATOM     95  C   UNL A   1      50.020  26.322  24.280  1.00  0.00     0.006 A 
ENDBRANCH  71  88
ENDBRANCH  45  46
ENDBRANCH  38  40
ENDBRANCH  37  38
ENDBRANCH  36  37
ENDBRANCH  35  36
ENDBRANCH  34  35
ENDBRANCH  33  34
ENDBRANCH  32  33
ENDBRANCH  31  32
ENDBRANCH   1  31
TORSDOF 24
ENDMDL
MODEL 2
REMARK VINA RESULT:      -9.8      0.667      5.892
REMARK SMILES Cc1ccc(N2CC[C@H]([NH+]3CCOCC3)[C@H](CCC(=O)OCCOCCOCCOCCOC(=O)c3ccc(-c4c5nc(c(-c6c(F)cccc6F)c6ccc([nH]6)c(-c6c(F)cccc6F)c6nc(c(-c7c(F)cccc7F)c7ccc4[nH]7)C=C6)C=C5)cc3)C2)nc1
REMARK SMILES IDX 26 1 25 2 24 3 23 4 22 5 21 6 19 7 20 8 18 9 17 10 16 11
REMARK SMILES IDX 6 12 7 13 90 14 8 15 9 16 5 17 1 18 2 19 3 20 92 21 4 22
REMARK SMILES IDX 91 23 10 24 11 25 15 26 12 28 14 29 13 30 27 31 28 32 29 33
REMARK SMILES IDX 30 34 31 35 32 36 33 37 34 38 35 39 36 40 37 41 89 42 38 43
REMARK SMILES IDX 88 44 39 45 40 46 41 47 82 48 42 49 87 50 81 51 83 52 43 53
REMARK SMILES IDX 86 54 80 55 79 56 44 58 70 59 53 60 69 61 54 62 57 63 68 64
REMARK SMILES IDX 84 65 55 66 56 67 67 69 85 70 58 71 45 72 46 73 51 74 47 75
REMARK SMILES IDX 48 76 50 77 52 78 49 79 71 80 72 81 77 82 73 83 74 84 76 85
REMARK SMILES IDX 78 86 75 87 59 88 60 89 65 90 61 91 62 92 64 93 66 94 63 95
REMARK H PARENT 10 27 83 57 57 68
REMARK Flexibility Score: inf
ROOT
ATOM      1  C   UNL A   1      33.665  34.353  30.371  1.00  0.00     0.188 C 
ENDROOT
BRANCH   1   2
ATOM      2  C   UNL A   1      34.089  34.825  28.967  1.00  0.00     0.188 C 
BRANCH   2   3
ATOM      3  O   UNL A   1      34.266  33.801  28.012  1.00  0.00    -0.376 OA
BRANCH   3   4
ATOM      4  C   UNL A   1      33.746  32.498  28.210  1.00  0.00     0.202 C 
BRANCH   4   5
ATOM      5  C   UNL A   1      34.494  31.184  27.918  1.00  0.00     0.261 C 
BRANCH   5   6
ATOM      6  O   UNL A   1      33.967  30.372  26.869  1.00  0.00    -0.463 OA
BRANCH   6   7
ATOM      7  C   UNL A   1      32.661  30.042  26.924  1.00  0.00     0.305 C 
ATOM      8  O   UNL A   1      31.749  30.764  26.535  1.00  0.00    -0.252 OA
BRANCH   7   9
ATOM      9  C   UNL A   1      32.418  28.604  27.387  1.00  0.00     0.123 C 
BRANCH   9  10
ATOM     10  C   UNL A   1      31.648  27.570  26.531  1.00  0.00     0.023 C 
BRANCH  10  11
ATOM     11  C   UNL A   1      32.345  26.644  25.499  1.00  0.00     0.067 C 
ATOM     12  N   UNL A   1      30.937  27.218  23.514  1.00  0.00    -0.356 N 
ATOM     13  C   UNL A   1      30.356  25.901  23.400  1.00  0.00     0.124 C 
ATOM     14  C   UNL A   1      32.270  27.330  24.087  1.00  0.00     0.127 C 
ATOM     15  C   UNL A   1      30.404  25.153  24.726  1.00  0.00     0.087 C 
ATOM     16  C   UNL A   1      31.807  25.167  25.371  1.00  0.00     0.190 C 
BRANCH  12  17
ATOM     17  C   UNL A   1      30.098  28.306  23.407  1.00  0.00     0.128 A 
ATOM     18  C   UNL A   1      27.495  31.696  23.362  1.00  0.00     0.046 C 
ATOM     19  C   UNL A   1      28.371  30.484  23.371  1.00  0.00    -0.033 A 
ATOM     20  C   UNL A   1      27.876  29.211  23.108  1.00  0.00     0.009 A 
ATOM     21  C   UNL A   1      29.730  30.584  23.635  1.00  0.00     0.117 A 
ATOM     22  C   UNL A   1      28.748  28.119  23.114  1.00  0.00     0.047 A 
ATOM     23  N   UNL A   1      30.587  29.534  23.677  1.00  0.00    -0.239 NA
ENDBRANCH  12  17
BRANCH  16  24
ATOM     24  N   UNL A   1      32.035  24.216  26.498  1.00  0.00    -0.328 N 
ATOM     25  C   UNL A   1      33.439  23.789  26.685  1.00  0.00     0.291 C 
ATOM     26  C   UNL A   1      31.247  22.994  26.641  1.00  0.00     0.291 C 
ATOM     27  H   UNL A   1      31.690  24.865  27.205  1.00  0.00     0.348 HD
ATOM     28  C   UNL A   1      33.863  22.524  25.886  1.00  0.00     0.221 C 
ATOM     29  C   UNL A   1      31.602  21.873  25.677  1.00  0.00     0.221 C 
ATOM     30  O   UNL A   1      32.932  21.435  25.959  1.00  0.00    -0.370 OA
ENDBRANCH  16  24
ENDBRANCH  10  11
ENDBRANCH   9  10
ENDBRANCH   7   9
ENDBRANCH   6   7
ENDBRANCH   5   6
ENDBRANCH   4   5
ENDBRANCH   3   4
ENDBRANCH   2   3
ENDBRANCH   1   2
BRANCH   1  31
ATOM     31  O   UNL A   1      32.736  35.139  31.093  1.00  0.00    -0.377 OA
BRANCH  31  32
ATOM     32  C   UNL A   1      33.123  35.674  32.350  1.00  0.00     0.188 C 
BRANCH  32  33
ATOM     33  C   UNL A   1      34.587  36.077  32.632  1.00  0.00     0.188 C 
BRANCH  33  34
ATOM     34  O   UNL A   1      35.088  35.765  33.921  1.00  0.00    -0.376 OA
BRANCH  34  35
ATOM     35  C   UNL A   1      35.638  34.476  34.156  1.00  0.00     0.202 C 
BRANCH  35  36
ATOM     36  C   UNL A   1      36.317  33.744  32.983  1.00  0.00     0.261 C 
BRANCH  36  37
ATOM     37  O   UNL A   1      36.356  32.312  33.074  1.00  0.00    -0.460 OA
BRANCH  37  38
ATOM     38  C   UNL A   1      36.303  31.621  31.919  1.00  0.00     0.338 C 
ATOM     39  O   UNL A   1      35.309  31.335  31.268  1.00  0.00    -0.246 OA
BRANCH  38  40
ATOM     40  C   UNL A   1      37.684  31.423  31.444  1.00  0.00     0.060 A 
ATOM     41  C   UNL A   1      37.995  31.769  30.123  1.00  0.00     0.016 A 
ATOM     42  C   UNL A   1      38.661  30.898  32.292  1.00  0.00     0.016 A 
ATOM     43  C   UNL A   1      39.278  31.557  29.633  1.00  0.00     0.010 A 
ATOM     44  C   UNL A   1      39.942  30.654  31.788  1.00  0.00     0.010 A 
ATOM     45  C   UNL A   1      40.241  30.949  30.446  1.00  0.00    -0.014 A 
BRANCH  45  46
ATOM     46  C   UNL A   1      41.481  30.441  29.815  1.00  0.00     0.031 A 
ATOM     47  C   UNL A   1      41.491  29.031  29.292  1.00  0.00     0.074 A 
ATOM     48  C   UNL A   1      42.550  31.238  29.646  1.00  0.00     0.049 A 
ATOM     49  N   UNL A   1      42.448  28.374  28.690  1.00  0.00    -0.248 NA
ATOM     50  C   UNL A   1      40.249  28.259  29.470  1.00  0.00     0.031 C 
ATOM     51  C   UNL A   1      42.639  32.635  30.064  1.00  0.00     0.029 A 
ATOM     52  N   UNL A   1      43.768  30.977  29.070  1.00  0.00    -0.354 N 
ATOM     53  C   UNL A   1      41.927  27.114  28.423  1.00  0.00     0.074 A 
ATOM     54  C   UNL A   1      40.583  27.086  28.955  1.00  0.00     0.031 C 
ATOM     55  C   UNL A   1      43.855  33.108  29.739  1.00  0.00     0.029 A 
ATOM     56  C   UNL A   1      44.636  32.039  29.119  1.00  0.00     0.049 A 
ATOM     57  H   UNL A   1      43.997  30.111  28.661  1.00  0.00     0.167 HD
ATOM     58  C   UNL A   1      42.517  26.075  27.786  1.00  0.00     0.037 A 
ATOM     59  C   UNL A   1      45.922  32.127  28.727  1.00  0.00     0.037 A 
ATOM     60  C   UNL A   1      43.856  26.109  27.259  1.00  0.00     0.049 A 
ATOM     61  C   UNL A   1      46.580  30.930  28.088  1.00  0.00     0.074 A 
ATOM     62  C   UNL A   1      44.537  25.117  26.576  1.00  0.00     0.029 A 
ATOM     63  N   UNL A   1      44.723  27.186  27.369  1.00  0.00    -0.354 N 
ATOM     64  N   UNL A   1      46.072  29.753  27.812  1.00  0.00    -0.248 NA
ATOM     65  C   UNL A   1      47.991  31.079  27.701  1.00  0.00     0.031 C 
ATOM     66  C   UNL A   1      45.837  25.569  26.331  1.00  0.00     0.029 A 
ATOM     67  C   UNL A   1      45.945  26.869  26.800  1.00  0.00     0.049 A 
ATOM     68  H   UNL A   1      44.501  28.048  27.790  1.00  0.00     0.167 HD
ATOM     69  C   UNL A   1      47.090  29.033  27.196  1.00  0.00     0.074 A 
ATOM     70  C   UNL A   1      48.236  29.914  27.120  1.00  0.00     0.031 C 
ATOM     71  C   UNL A   1      47.079  27.757  26.735  1.00  0.00     0.037 A 
BRANCH  58  72
ATOM     72  C   UNL A   1      41.731  24.803  27.656  1.00  0.00     0.057 A 
ATOM     73  C   UNL A   1      40.722  24.641  26.697  1.00  0.00     0.134 A 
ATOM     74  C   UNL A   1      42.012  23.710  28.486  1.00  0.00     0.134 A 
ATOM     75  F   UNL A   1      40.391  25.654  25.882  1.00  0.00    -0.206 F 
ATOM     76  C   UNL A   1      40.009  23.446  26.581  1.00  0.00     0.040 A 
ATOM     77  C   UNL A   1      41.327  22.501  28.361  1.00  0.00     0.040 A 
ATOM     78  F   UNL A   1      42.966  23.795  29.426  1.00  0.00    -0.206 F 
ATOM     79  C   UNL A   1      40.318  22.369  27.410  1.00  0.00     0.006 A 
ENDBRANCH  58  72
BRANCH  59  80
ATOM     80  C   UNL A   1      46.686  33.381  28.950  1.00  0.00     0.057 A 
ATOM     81  C   UNL A   1      47.362  33.623  30.150  1.00  0.00     0.134 A 
ATOM     82  C   UNL A   1      46.730  34.385  27.973  1.00  0.00     0.134 A 
ATOM     83  F   UNL A   1      47.337  32.713  31.134  1.00  0.00    -0.206 F 
ATOM     84  C   UNL A   1      48.035  34.826  30.383  1.00  0.00     0.040 A 
ATOM     85  C   UNL A   1      47.424  35.579  28.180  1.00  0.00     0.040 A 
ATOM     86  F   UNL A   1      46.104  34.218  26.800  1.00  0.00    -0.206 F 
ATOM     87  C   UNL A   1      48.071  35.805  29.392  1.00  0.00     0.006 A 
ENDBRANCH  59  80
BRANCH  71  88
ATOM     88  C   UNL A   1      48.334  27.250  26.081  1.00  0.00     0.057 A 
ATOM     89  C   UNL A   1      48.552  27.363  24.702  1.00  0.00     0.134 A 
ATOM     90  C   UNL A   1      49.351  26.665  26.847  1.00  0.00     0.134 A 
ATOM     91  F   UNL A   1      47.615  27.905  23.908  1.00  0.00    -0.206 F 
ATOM     92  C   UNL A   1      49.718  26.882  24.104  1.00  0.00     0.040 A 
ATOM     93  C   UNL A   1      50.536  26.211  26.266  1.00  0.00     0.040 A 
ATOM     94  F   UNL A   1      49.216  26.536  28.176  1.00  0.00    -0.206 F 
ATOM     95  C   UNL A   1      50.717  26.310  24.889  1.00  0.00     0.006 A 
ENDBRANCH  71  88
ENDBRANCH  45  46
ENDBRANCH  38  40
ENDBRANCH  37  38
ENDBRANCH  36  37
ENDBRANCH  35  36
ENDBRANCH  34  35
ENDBRANCH  33  34
ENDBRANCH  32  33
ENDBRANCH  31  32
ENDBRANCH   1  31
TORSDOF 24
ENDMDL
MODEL 3
REMARK VINA RESULT:      -9.4      3.510      9.397
REMARK SMILES Cc1ccc(N2CC[C@H]([NH+]3CCOCC3)[C@H](CCC(=O)OCCOCCOCCOCCOC(=O)c3ccc(-c4c5nc(c(-c6c(F)cccc6F)c6ccc([nH]6)c(-c6c(F)cccc6F)c6nc(c(-c7c(F)cccc7F)c7ccc4[nH]7)C=C6)C=C5)cc3)C2)nc1
REMARK SMILES IDX 26 1 25 2 24 3 23 4 22 5 21 6 19 7 20 8 18 9 17 10 16 11
REMARK SMILES IDX 6 12 7 13 90 14 8 15 9 16 5 17 1 18 2 19 3 20 92 21 4 22
REMARK SMILES IDX 91 23 10 24 11 25 15 26 12 28 14 29 13 30 27 31 28 32 29 33
REMARK SMILES IDX 30 34 31 35 32 36 33 37 34 38 35 39 36 40 37 41 89 42 38 43
REMARK SMILES IDX 88 44 39 45 40 46 41 47 82 48 42 49 87 50 81 51 83 52 43 53
REMARK SMILES IDX 86 54 80 55 79 56 44 58 70 59 53 60 69 61 54 62 57 63 68 64
REMARK SMILES IDX 84 65 55 66 56 67 67 69 85 70 58 71 45 72 46 73 51 74 47 75
REMARK SMILES IDX 48 76 50 77 52 78 49 79 71 80 72 81 77 82 73 83 74 84 76 85
REMARK SMILES IDX 78 86 75 87 59 88 60 89 65 90 61 91 62 92 64 93 66 94 63 95
REMARK H PARENT 10 27 83 57 57 68
REMARK Flexibility Score: inf
ROOT
ATOM      1  C   UNL A   1      34.315  24.915  24.240  1.00  0.00     0.188 C 
ENDROOT
BRANCH   1   2
ATOM      2  C   UNL A   1      33.746  25.431  25.575  1.00  0.00     0.188 C 
BRANCH   2   3
ATOM      3  O   UNL A   1      32.983  26.616  25.491  1.00  0.00    -0.376 OA
BRANCH   3   4
ATOM      4  C   UNL A   1      33.576  27.896  25.631  1.00  0.00     0.202 C 
BRANCH   4   5
ATOM      5  C   UNL A   1      33.462  28.803  26.871  1.00  0.00     0.261 C 
BRANCH   5   6
ATOM      6  O   UNL A   1      34.077  30.087  26.779  1.00  0.00    -0.463 OA
BRANCH   6   7
ATOM      7  C   UNL A   1      33.414  31.140  27.298  1.00  0.00     0.305 C 
ATOM      8  O   UNL A   1      32.272  31.459  26.985  1.00  0.00    -0.252 OA
BRANCH   7   9
ATOM      9  C   UNL A   1      34.168  31.829  28.437  1.00  0.00     0.123 C 
BRANCH   9  10
ATOM     10  C   UNL A   1      35.237  32.920  28.192  1.00  0.00     0.023 C 
BRANCH  10  11
ATOM     11  C   UNL A   1      35.638  33.964  29.268  1.00  0.00     0.067 C 
ATOM     12  N   UNL A   1      37.117  32.490  30.644  1.00  0.00    -0.356 N 
ATOM     13  C   UNL A   1      36.259  32.515  31.805  1.00  0.00     0.124 C 
ATOM     14  C   UNL A   1      37.097  33.640  29.753  1.00  0.00     0.127 C 
ATOM     15  C   UNL A   1      34.820  32.843  31.428  1.00  0.00     0.087 C 
ATOM     16  C   UNL A   1      34.705  34.096  30.533  1.00  0.00     0.190 C 
BRANCH  12  17
ATOM     17  C   UNL A   1      37.636  31.275  30.251  1.00  0.00     0.128 A 
ATOM     18  C   UNL A   1      39.125  27.550  28.775  1.00  0.00     0.046 C 
ATOM     19  C   UNL A   1      38.572  28.831  29.312  1.00  0.00    -0.033 A 
ATOM     20  C   UNL A   1      37.492  28.862  30.188  1.00  0.00     0.009 A 
ATOM     21  C   UNL A   1      39.127  30.054  28.961  1.00  0.00     0.117 A 
ATOM     22  C   UNL A   1      37.031  30.091  30.669  1.00  0.00     0.047 A 
ATOM     23  N   UNL A   1      38.676  31.258  29.391  1.00  0.00    -0.239 NA
ENDBRANCH  12  17
BRANCH  16  24
ATOM     24  N   UNL A   1      33.340  34.676  30.365  1.00  0.00    -0.328 N 
ATOM     25  C   UNL A   1      33.117  35.400  29.094  1.00  0.00     0.291 C 
ATOM     26  C   UNL A   1      32.735  35.520  31.391  1.00  0.00     0.291 C 
ATOM     27  H   UNL A   1      32.875  33.770  30.426  1.00  0.00     0.348 HD
ATOM     28  C   UNL A   1      33.465  36.916  29.121  1.00  0.00     0.221 C 
ATOM     29  C   UNL A   1      33.281  36.937  31.476  1.00  0.00     0.221 C 
ATOM     30  O   UNL A   1      32.960  37.621  30.264  1.00  0.00    -0.370 OA
ENDBRANCH  16  24
ENDBRANCH  10  11
ENDBRANCH   9  10
ENDBRANCH   7   9
ENDBRANCH   6   7
ENDBRANCH   5   6
ENDBRANCH   4   5
ENDBRANCH   3   4
ENDBRANCH   2   3
ENDBRANCH   1   2
BRANCH   1  31
ATOM     31  O   UNL A   1      34.885  23.621  24.207  1.00  0.00    -0.377 OA
BRANCH  31  32
ATOM     32  C   UNL A   1      35.979  23.332  25.066  1.00  0.00     0.188 C 
BRANCH  32  33
ATOM     33  C   UNL A   1      36.247  21.895  25.565  1.00  0.00     0.188 C 
BRANCH  33  34
ATOM     34  O   UNL A   1      37.547  21.637  26.067  1.00  0.00    -0.376 OA
BRANCH  34  35
ATOM     35  C   UNL A   1      38.607  22.521  25.731  1.00  0.00     0.202 C 
BRANCH  35  36
ATOM     36  C   UNL A   1      39.583  22.951  26.841  1.00  0.00     0.261 C 
BRANCH  36  37
ATOM     37  O   UNL A   1      40.561  23.935  26.472  1.00  0.00    -0.460 OA
BRANCH  37  38
ATOM     38  C   UNL A   1      41.853  23.554  26.488  1.00  0.00     0.338 C 
ATOM     39  O   UNL A   1      42.299  22.431  26.310  1.00  0.00    -0.246 OA
BRANCH  38  40
ATOM     40  C   UNL A   1      42.683  24.769  26.561  1.00  0.00     0.060 A 
ATOM     41  C   UNL A   1      42.965  25.461  25.376  1.00  0.00     0.016 A 
ATOM     42  C   UNL A   1      43.183  25.219  27.784  1.00  0.00     0.016 A 
ATOM     43  C   UNL A   1      43.780  26.587  25.406  1.00  0.00     0.010 A 
ATOM     44  C   UNL A   1      44.029  26.331  27.809  1.00  0.00     0.010 A 
ATOM     45  C   UNL A   1      44.358  26.995  26.613  1.00  0.00    -0.014 A 
BRANCH  45  46
ATOM     46  C   UNL A   1      45.462  27.980  26.571  1.00  0.00     0.031 A 
ATOM     47  C   UNL A   1      45.124  29.439  26.709  1.00  0.00     0.074 A 
ATOM     48  C   UNL A   1      46.744  27.584  26.483  1.00  0.00     0.049 A 
ATOM     49  N   UNL A   1      45.916  30.479  26.717  1.00  0.00    -0.248 NA
ATOM     50  C   UNL A   1      43.697  29.767  26.863  1.00  0.00     0.031 C 
ATOM     51  C   UNL A   1      47.196  26.197  26.396  1.00  0.00     0.029 A 
ATOM     52  N   UNL A   1      47.900  28.321  26.457  1.00  0.00    -0.354 N 
ATOM     53  C   UNL A   1      45.086  31.582  26.871  1.00  0.00     0.074 A 
ATOM     54  C   UNL A   1      43.727  31.089  26.921  1.00  0.00     0.031 C 
ATOM     55  C   UNL A   1      48.539  26.184  26.316  1.00  0.00     0.029 A 
ATOM     56  C   UNL A   1      49.034  27.560  26.314  1.00  0.00     0.049 A 
ATOM     57  H   UNL A   1      47.916  29.303  26.532  1.00  0.00     0.167 HD
ATOM     58  C   UNL A   1      45.427  32.889  26.968  1.00  0.00     0.037 A 
ATOM     59  C   UNL A   1      50.320  27.935  26.177  1.00  0.00     0.037 A 
ATOM     60  C   UNL A   1      46.782  33.373  26.917  1.00  0.00     0.049 A 
ATOM     61  C   UNL A   1      50.666  29.402  26.213  1.00  0.00     0.074 A 
ATOM     62  C   UNL A   1      47.234  34.676  27.030  1.00  0.00     0.029 A 
ATOM     63  N   UNL A   1      47.900  32.576  26.725  1.00  0.00    -0.354 N 
ATOM     64  N   UNL A   1      49.879  30.436  26.389  1.00  0.00    -0.248 NA
ATOM     65  C   UNL A   1      52.083  29.752  26.036  1.00  0.00     0.031 C 
ATOM     66  C   UNL A   1      48.619  34.675  26.839  1.00  0.00     0.029 A 
ATOM     67  C   UNL A   1      49.039  33.363  26.678  1.00  0.00     0.049 A 
ATOM     68  H   UNL A   1      47.886  31.596  26.635  1.00  0.00     0.167 HD
ATOM     69  C   UNL A   1      50.706  31.554  26.371  1.00  0.00     0.074 A 
ATOM     70  C   UNL A   1      52.058  31.068  26.189  1.00  0.00     0.031 C 
ATOM     71  C   UNL A   1      50.378  32.865  26.493  1.00  0.00     0.037 A 
BRANCH  58  72
ATOM     72  C   UNL A   1      44.316  33.889  27.101  1.00  0.00     0.057 A 
ATOM     73  C   UNL A   1      43.707  34.483  25.987  1.00  0.00     0.134 A 
ATOM     74  C   UNL A   1      43.826  34.238  28.366  1.00  0.00     0.134 A 
ATOM     75  F   UNL A   1      44.139  34.207  24.748  1.00  0.00    -0.206 F 
ATOM     76  C   UNL A   1      42.665  35.402  26.128  1.00  0.00     0.040 A 
ATOM     77  C   UNL A   1      42.766  35.132  28.519  1.00  0.00     0.040 A 
ATOM     78  F   UNL A   1      44.362  33.706  29.475  1.00  0.00    -0.206 F 
ATOM     79  C   UNL A   1      42.187  35.722  27.398  1.00  0.00     0.006 A 
ENDBRANCH  58  72
BRANCH  59  80
ATOM     80  C   UNL A   1      51.378  26.914  25.966  1.00  0.00     0.057 A 
ATOM     81  C   UNL A   1      51.759  26.510  24.682  1.00  0.00     0.134 A 
ATOM     82  C   UNL A   1      52.010  26.291  27.051  1.00  0.00     0.134 A 
ATOM     83  F   UNL A   1      51.175  27.050  23.604  1.00  0.00    -0.206 F 
ATOM     84  C   UNL A   1      52.714  25.510  24.482  1.00  0.00     0.040 A 
ATOM     85  C   UNL A   1      52.988  25.312  26.866  1.00  0.00     0.040 A 
ATOM     86  F   UNL A   1      51.691  26.631  28.308  1.00  0.00    -0.206 F 
ATOM     87  C   UNL A   1      53.335  24.912  25.578  1.00  0.00     0.006 A 
ENDBRANCH  59  80
BRANCH  71  88
ATOM     88  C   UNL A   1      51.504  33.862  26.465  1.00  0.00     0.057 A 
ATOM     89  C   UNL A   1      52.234  34.192  27.614  1.00  0.00     0.134 A 
ATOM     90  C   UNL A   1      51.880  34.478  25.264  1.00  0.00     0.134 A 
ATOM     91  F   UNL A   1      51.920  33.645  28.799  1.00  0.00    -0.206 F 
ATOM     92  C   UNL A   1      53.272  35.125  27.577  1.00  0.00     0.040 A 
ATOM     93  C   UNL A   1      52.938  35.387  25.208  1.00  0.00     0.040 A 
ATOM     94  F   UNL A   1      51.234  34.199  24.121  1.00  0.00    -0.206 F 
ATOM     95  C   UNL A   1      53.630  35.720  26.370  1.00  0.00     0.006 A 
ENDBRANCH  71  88
ENDBRANCH  45  46
ENDBRANCH  38  40
ENDBRANCH  37  38
ENDBRANCH  36  37
ENDBRANCH  35  36
ENDBRANCH  34  35
ENDBRANCH  33  34
ENDBRANCH  32  33
ENDBRANCH  31  32
ENDBRANCH   1  31
TORSDOF 24
ENDMDL
