MODEL 1
REMARK VINA RESULT:     -10.6      0.000      0.000
REMARK SMILES O=C(NCc1ccc(C(=O)OCCOCCOCCOCCOC(=O)c2ccc(-c3c4nc(c(-c5c(F)cccc5F)c5ccc([nH]5)c(-c5c(F)cccc5F)c5nc(c(-c6c(F)cccc6F)c6ccc3[nH]6)C=C5)C=C4)cc2)o1)Nc1ccc(F)c(Cl)c1
REMARK SMILES IDX 16 1 15 2 14 3 13 4 12 5 11 6 9 7 10 8 8 9 5 10 6 11 80 12
REMARK SMILES IDX 7 13 4 14 3 15 1 16 2 17 81 18 82 21 83 22 89 23 84 24 87 25
REMARK SMILES IDX 85 26 88 27 86 28 17 29 18 30 19 31 20 32 21 33 22 34 23 35
REMARK SMILES IDX 24 36 25 37 26 38 27 39 79 40 28 41 78 42 29 43 30 44 31 45
REMARK SMILES IDX 72 46 32 47 77 48 71 49 73 50 33 51 76 52 70 53 69 54 34 56
REMARK SMILES IDX 60 57 43 58 59 59 44 60 47 61 58 62 74 63 45 64 46 65 57 67
REMARK SMILES IDX 75 68 48 69 35 70 36 71 41 72 37 73 38 74 40 75 42 76 39 77
REMARK SMILES IDX 61 78 62 79 67 80 63 81 64 82 66 83 68 84 65 85 49 86 50 87
REMARK SMILES IDX 55 88 51 89 52 90 54 91 56 92 53 93
REMARK H PARENT 3 19 81 20 73 55 47 66
REMARK Flexibility Score: inf
ROOT
ATOM      1  C   UNL A   1      37.616  21.497  25.740  1.00  0.00     0.188 C 
ENDROOT
BRANCH   1   2
ATOM      2  C   UNL A   1      36.917  21.853  24.419  1.00  0.00     0.188 C 
BRANCH   2   3
ATOM      3  O   UNL A   1      36.798  23.261  24.206  1.00  0.00    -0.376 OA
BRANCH   3   4
ATOM      4  C   UNL A   1      35.565  23.846  24.615  1.00  0.00     0.202 C 
BRANCH   4   5
ATOM      5  C   UNL A   1      34.558  24.060  23.475  1.00  0.00     0.261 C 
BRANCH   5   6
ATOM      6  O   UNL A   1      34.714  25.290  22.750  1.00  0.00    -0.457 OA
BRANCH   6   7
ATOM      7  C   UNL A   1      33.585  25.865  22.258  1.00  0.00     0.374 C 
ATOM      8  O   UNL A   1      33.263  25.865  21.077  1.00  0.00    -0.242 OA
BRANCH   7   9
ATOM      9  C   UNL A   1      32.788  26.333  23.367  1.00  0.00     0.211 A 
ATOM     10  C   UNL A   1      31.063  26.243  24.740  1.00  0.00     0.124 A 
ATOM     11  C   UNL A   1      31.933  27.169  25.274  1.00  0.00     0.048 A 
ATOM     12  O   UNL A   1      31.567  25.753  23.571  1.00  0.00    -0.452 OA
ATOM     13  C   UNL A   1      33.048  27.217  24.400  1.00  0.00     0.058 A 
BRANCH  10  14
ATOM     14  C   UNL A   1      29.760  25.681  25.184  1.00  0.00     0.193 C 
BRANCH  14  15
ATOM     15  N   UNL A   1      29.982  24.887  26.371  1.00  0.00    -0.331 N 
ATOM     16  O   UNL A   1      30.510  23.078  27.541  1.00  0.00    -0.248 OA
ATOM     17  C   UNL A   1      30.686  23.736  26.520  1.00  0.00     0.319 C 
ATOM     18  N   UNL A   1      31.564  23.427  25.518  1.00  0.00    -0.308 N 
ATOM     19  H   UNL A   1      29.561  25.232  27.192  1.00  0.00     0.165 HD
ATOM     20  H   UNL A   1      31.777  24.138  24.873  1.00  0.00     0.171 HD
BRANCH  18  21
ATOM     21  C   UNL A   1      32.189  22.177  25.326  1.00  0.00     0.044 A 
ATOM     22  C   UNL A   1      33.164  21.783  26.253  1.00  0.00     0.029 A 
ATOM     23  C   UNL A   1      31.898  21.342  24.241  1.00  0.00     0.049 A 
ATOM     24  C   UNL A   1      33.811  20.552  26.116  1.00  0.00     0.043 A 
ATOM     25  C   UNL A   1      32.559  20.120  24.097  1.00  0.00     0.078 A 
ATOM     26  C   UNL A   1      33.505  19.727  25.039  1.00  0.00     0.141 A 
ATOM     27  Cl  UNL A   1      32.203  19.116  22.743  1.00  0.00    -0.081 Cl
ATOM     28  F   UNL A   1      34.142  18.553  24.926  1.00  0.00    -0.205 F 
ENDBRANCH  18  21
ENDBRANCH  14  15
ENDBRANCH  10  14
ENDBRANCH   7   9
ENDBRANCH   6   7
ENDBRANCH   5   6
ENDBRANCH   4   5
ENDBRANCH   3   4
ENDBRANCH   2   3
ENDBRANCH   1   2
BRANCH   1  29
ATOM     29  O   UNL A   1      38.974  21.901  25.784  1.00  0.00    -0.377 OA
BRANCH  29  30
ATOM     30  C   UNL A   1      39.949  20.923  26.143  1.00  0.00     0.188 C 
BRANCH  30  31
ATOM     31  C   UNL A   1      40.775  21.046  27.439  1.00  0.00     0.188 C 
BRANCH  31  32
ATOM     32  O   UNL A   1      42.115  20.568  27.314  1.00  0.00    -0.376 OA
BRANCH  32  33
ATOM     33  C   UNL A   1      42.631  20.491  25.989  1.00  0.00     0.202 C 
BRANCH  33  34
ATOM     34  C   UNL A   1      43.932  21.282  25.816  1.00  0.00     0.261 C 
BRANCH  34  35
ATOM     35  O   UNL A   1      43.894  22.606  26.369  1.00  0.00    -0.460 OA
BRANCH  35  36
ATOM     36  C   UNL A   1      43.521  23.601  25.536  1.00  0.00     0.338 C 
ATOM     37  O   UNL A   1      43.543  23.597  24.319  1.00  0.00    -0.246 OA
BRANCH  36  38
ATOM     38  C   UNL A   1      42.917  24.669  26.350  1.00  0.00     0.060 A 
ATOM     39  C   UNL A   1      43.483  25.949  26.312  1.00  0.00     0.016 A 
ATOM     40  C   UNL A   1      41.811  24.399  27.159  1.00  0.00     0.016 A 
ATOM     41  C   UNL A   1      42.963  26.959  27.123  1.00  0.00     0.010 A 
ATOM     42  C   UNL A   1      41.304  25.403  27.980  1.00  0.00     0.010 A 
ATOM     43  C   UNL A   1      41.900  26.676  27.990  1.00  0.00    -0.014 A 
BRANCH  43  44
ATOM     44  C   UNL A   1      41.525  27.627  29.059  1.00  0.00     0.031 A 
ATOM     45  C   UNL A   1      42.278  27.563  30.358  1.00  0.00     0.074 A 
ATOM     46  C   UNL A   1      40.509  28.492  28.899  1.00  0.00     0.049 A 
ATOM     47  N   UNL A   1      42.053  28.196  31.479  1.00  0.00    -0.248 NA
ATOM     48  C   UNL A   1      43.436  26.655  30.396  1.00  0.00     0.031 C 
ATOM     49  C   UNL A   1      39.729  28.667  27.677  1.00  0.00     0.029 A 
ATOM     50  N   UNL A   1      39.949  29.370  29.791  1.00  0.00    -0.354 N 
ATOM     51  C   UNL A   1      43.035  27.757  32.357  1.00  0.00     0.074 A 
ATOM     52  C   UNL A   1      43.847  26.794  31.648  1.00  0.00     0.031 C 
ATOM     53  C   UNL A   1      38.770  29.583  27.904  1.00  0.00     0.029 A 
ATOM     54  C   UNL A   1      38.852  30.030  29.293  1.00  0.00     0.049 A 
ATOM     55  H   UNL A   1      40.299  29.515  30.700  1.00  0.00     0.167 HD
ATOM     56  C   UNL A   1      43.242  28.126  33.642  1.00  0.00     0.037 A 
ATOM     57  C   UNL A   1      37.998  30.872  29.905  1.00  0.00     0.037 A 
ATOM     58  C   UNL A   1      42.428  29.074  34.352  1.00  0.00     0.049 A 
ATOM     59  C   UNL A   1      38.203  31.210  31.358  1.00  0.00     0.074 A 
ATOM     60  C   UNL A   1      42.561  29.521  35.653  1.00  0.00     0.029 A 
ATOM     61  N   UNL A   1      41.320  29.711  33.817  1.00  0.00    -0.354 N 
ATOM     62  N   UNL A   1      39.146  30.808  32.176  1.00  0.00    -0.248 NA
ATOM     63  C   UNL A   1      37.219  32.112  31.977  1.00  0.00     0.031 C 
ATOM     64  C   UNL A   1      41.511  30.405  35.918  1.00  0.00     0.029 A 
ATOM     65  C   UNL A   1      40.746  30.534  34.769  1.00  0.00     0.049 A 
ATOM     66  H   UNL A   1      40.991  29.595  32.897  1.00  0.00     0.167 HD
ATOM     67  C   UNL A   1      38.887  31.428  33.392  1.00  0.00     0.074 A 
ATOM     68  C   UNL A   1      37.699  32.234  33.207  1.00  0.00     0.031 C 
ATOM     69  C   UNL A   1      39.573  31.340  34.558  1.00  0.00     0.037 A 
BRANCH  56  70
ATOM     70  C   UNL A   1      44.384  27.479  34.362  1.00  0.00     0.057 A 
ATOM     71  C   UNL A   1      45.656  28.063  34.401  1.00  0.00     0.134 A 
ATOM     72  C   UNL A   1      44.205  26.263  35.036  1.00  0.00     0.134 A 
ATOM     73  F   UNL A   1      45.893  29.216  33.757  1.00  0.00    -0.206 F 
ATOM     74  C   UNL A   1      46.716  27.451  35.068  1.00  0.00     0.040 A 
ATOM     75  C   UNL A   1      45.254  25.653  35.723  1.00  0.00     0.040 A 
ATOM     76  F   UNL A   1      43.011  25.653  35.033  1.00  0.00    -0.206 F 
ATOM     77  C   UNL A   1      46.516  26.245  35.737  1.00  0.00     0.006 A 
ENDBRANCH  56  70
BRANCH  57  78
ATOM     78  C   UNL A   1      36.854  31.445  29.155  1.00  0.00     0.057 A 
ATOM     79  C   UNL A   1      35.744  30.661  28.822  1.00  0.00     0.134 A 
ATOM     80  C   UNL A   1      36.854  32.779  28.730  1.00  0.00     0.134 A 
ATOM     81  F   UNL A   1      35.700  29.369  29.179  1.00  0.00    -0.206 F 
ATOM     82  C   UNL A   1      34.679  31.178  28.084  1.00  0.00     0.040 A 
ATOM     83  C   UNL A   1      35.786  33.315  28.008  1.00  0.00     0.040 A 
ATOM     84  F   UNL A   1      37.890  33.580  29.016  1.00  0.00    -0.206 F 
ATOM     85  C   UNL A   1      34.698  32.512  27.678  1.00  0.00     0.006 A 
ENDBRANCH  57  78
BRANCH  69  86
ATOM     86  C   UNL A   1      39.086  32.163  35.711  1.00  0.00     0.057 A 
ATOM     87  C   UNL A   1      38.277  31.618  36.714  1.00  0.00     0.134 A 
ATOM     88  C   UNL A   1      39.494  33.495  35.857  1.00  0.00     0.134 A 
ATOM     89  F   UNL A   1      37.846  30.351  36.627  1.00  0.00    -0.206 F 
ATOM     90  C   UNL A   1      37.885  32.372  37.821  1.00  0.00     0.040 A 
ATOM     91  C   UNL A   1      39.124  34.253  36.966  1.00  0.00     0.040 A 
ATOM     92  F   UNL A   1      40.277  34.071  34.931  1.00  0.00    -0.206 F 
ATOM     93  C   UNL A   1      38.316  33.692  37.953  1.00  0.00     0.006 A 
ENDBRANCH  69  86
ENDBRANCH  43  44
ENDBRANCH  36  38
ENDBRANCH  35  36
ENDBRANCH  34  35
ENDBRANCH  33  34
ENDBRANCH  32  33
ENDBRANCH  31  32
ENDBRANCH  30  31
ENDBRANCH  29  30
ENDBRANCH   1  29
TORSDOF 23
ENDMDL
MODEL 2
REMARK VINA RESULT:     -10.3      3.914      7.748
REMARK SMILES O=C(NCc1ccc(C(=O)OCCOCCOCCOCCOC(=O)c2ccc(-c3c4nc(c(-c5c(F)cccc5F)c5ccc([nH]5)c(-c5c(F)cccc5F)c5nc(c(-c6c(F)cccc6F)c6ccc3[nH]6)C=C5)C=C4)cc2)o1)Nc1ccc(F)c(Cl)c1
REMARK SMILES IDX 16 1 15 2 14 3 13 4 12 5 11 6 9 7 10 8 8 9 5 10 6 11 80 12
REMARK SMILES IDX 7 13 4 14 3 15 1 16 2 17 81 18 82 21 83 22 89 23 84 24 87 25
REMARK SMILES IDX 85 26 88 27 86 28 17 29 18 30 19 31 20 32 21 33 22 34 23 35
REMARK SMILES IDX 24 36 25 37 26 38 27 39 79 40 28 41 78 42 29 43 30 44 31 45
REMARK SMILES IDX 72 46 32 47 77 48 71 49 73 50 33 51 76 52 70 53 69 54 34 56
REMARK SMILES IDX 60 57 43 58 59 59 44 60 47 61 58 62 74 63 45 64 46 65 57 67
REMARK SMILES IDX 75 68 48 69 35 70 36 71 41 72 37 73 38 74 40 75 42 76 39 77
REMARK SMILES IDX 61 78 62 79 67 80 63 81 64 82 66 83 68 84 65 85 49 86 50 87
REMARK SMILES IDX 55 88 51 89 52 90 54 91 56 92 53 93
REMARK H PARENT 3 19 81 20 73 55 47 66
REMARK Flexibility Score: inf
ROOT
ATOM      1  C   UNL A   1      35.254  23.769  25.110  1.00  0.00     0.188 C 
ENDROOT
BRANCH   1   2
ATOM      2  C   UNL A   1      34.460  25.084  25.119  1.00  0.00     0.188 C 
BRANCH   2   3
ATOM      3  O   UNL A   1      33.867  25.393  23.855  1.00  0.00    -0.376 OA
BRANCH   3   4
ATOM      4  C   UNL A   1      33.692  26.779  23.577  1.00  0.00     0.202 C 
BRANCH   4   5
ATOM      5  C   UNL A   1      32.761  27.074  22.391  1.00  0.00     0.261 C 
BRANCH   5   6
ATOM      6  O   UNL A   1      31.554  26.295  22.361  1.00  0.00    -0.457 OA
BRANCH   6   7
ATOM      7  C   UNL A   1      30.519  26.731  23.127  1.00  0.00     0.374 C 
ATOM      8  O   UNL A   1      29.712  27.586  22.783  1.00  0.00    -0.242 OA
BRANCH   7   9
ATOM      9  C   UNL A   1      30.459  25.923  24.320  1.00  0.00     0.211 A 
ATOM     10  C   UNL A   1      30.655  24.032  25.441  1.00  0.00     0.124 A 
ATOM     11  C   UNL A   1      30.509  25.027  26.385  1.00  0.00     0.048 A 
ATOM     12  O   UNL A   1      30.600  24.569  24.188  1.00  0.00    -0.452 OA
ATOM     13  C   UNL A   1      30.397  26.243  25.666  1.00  0.00     0.058 A 
BRANCH  10  14
ATOM     14  C   UNL A   1      30.880  22.565  25.521  1.00  0.00     0.193 C 
BRANCH  14  15
ATOM     15  N   UNL A   1      32.113  22.326  26.236  1.00  0.00    -0.331 N 
ATOM     16  O   UNL A   1      33.756  21.123  27.115  1.00  0.00    -0.248 OA
ATOM     17  C   UNL A   1      32.920  21.235  26.223  1.00  0.00     0.319 C 
ATOM     18  N   UNL A   1      32.746  20.362  25.185  1.00  0.00    -0.308 N 
ATOM     19  H   UNL A   1      32.411  23.063  26.817  1.00  0.00     0.165 HD
ATOM     20  H   UNL A   1      32.207  20.674  24.422  1.00  0.00     0.171 HD
BRANCH  18  21
ATOM     21  C   UNL A   1      33.268  19.055  25.110  1.00  0.00     0.044 A 
ATOM     22  C   UNL A   1      34.575  18.897  24.627  1.00  0.00     0.029 A 
ATOM     23  C   UNL A   1      32.528  17.921  25.465  1.00  0.00     0.049 A 
ATOM     24  C   UNL A   1      35.146  17.625  24.539  1.00  0.00     0.043 A 
ATOM     25  C   UNL A   1      33.095  16.649  25.359  1.00  0.00     0.078 A 
ATOM     26  C   UNL A   1      34.403  16.507  24.905  1.00  0.00     0.141 A 
ATOM     27  Cl  UNL A   1      32.161  15.264  25.781  1.00  0.00    -0.081 Cl
ATOM     28  F   UNL A   1      34.970  15.296  24.807  1.00  0.00    -0.205 F 
ENDBRANCH  18  21
ENDBRANCH  14  15
ENDBRANCH  10  14
ENDBRANCH   7   9
ENDBRANCH   6   7
ENDBRANCH   5   6
ENDBRANCH   4   5
ENDBRANCH   3   4
ENDBRANCH   2   3
ENDBRANCH   1   2
BRANCH   1  29
ATOM     29  O   UNL A   1      36.656  23.960  25.044  1.00  0.00    -0.377 OA
BRANCH  29  30
ATOM     30  C   UNL A   1      37.469  23.268  25.990  1.00  0.00     0.188 C 
BRANCH  30  31
ATOM     31  C   UNL A   1      38.326  22.052  25.582  1.00  0.00     0.188 C 
BRANCH  31  32
ATOM     32  O   UNL A   1      37.577  21.000  24.971  1.00  0.00    -0.376 OA
BRANCH  32  33
ATOM     33  C   UNL A   1      38.173  19.707  25.003  1.00  0.00     0.202 C 
BRANCH  33  34
ATOM     34  C   UNL A   1      39.364  19.630  25.965  1.00  0.00     0.261 C 
BRANCH  34  35
ATOM     35  O   UNL A   1      40.579  19.163  25.361  1.00  0.00    -0.460 OA
BRANCH  35  36
ATOM     36  C   UNL A   1      41.690  19.200  26.127  1.00  0.00     0.338 C 
ATOM     37  O   UNL A   1      42.471  18.292  26.347  1.00  0.00    -0.246 OA
BRANCH  36  38
ATOM     38  C   UNL A   1      41.905  20.597  26.543  1.00  0.00     0.060 A 
ATOM     39  C   UNL A   1      42.076  21.576  25.557  1.00  0.00     0.016 A 
ATOM     40  C   UNL A   1      41.955  20.929  27.899  1.00  0.00     0.016 A 
ATOM     41  C   UNL A   1      42.341  22.894  25.930  1.00  0.00     0.010 A 
ATOM     42  C   UNL A   1      42.236  22.242  28.269  1.00  0.00     0.010 A 
ATOM     43  C   UNL A   1      42.465  23.220  27.287  1.00  0.00    -0.014 A 
BRANCH  43  44
ATOM     44  C   UNL A   1      43.029  24.524  27.701  1.00  0.00     0.031 A 
ATOM     45  C   UNL A   1      42.074  25.608  28.114  1.00  0.00     0.074 A 
ATOM     46  C   UNL A   1      44.351  24.756  27.661  1.00  0.00     0.049 A 
ATOM     47  N   UNL A   1      42.312  26.863  28.390  1.00  0.00    -0.248 NA
ATOM     48  C   UNL A   1      40.657  25.222  28.221  1.00  0.00     0.031 C 
ATOM     49  C   UNL A   1      45.375  23.775  27.308  1.00  0.00     0.029 A 
ATOM     50  N   UNL A   1      45.053  25.910  27.901  1.00  0.00    -0.354 N 
ATOM     51  C   UNL A   1      41.077  27.417  28.697  1.00  0.00     0.074 A 
ATOM     52  C   UNL A   1      40.089  26.371  28.556  1.00  0.00     0.031 C 
ATOM     53  C   UNL A   1      46.578  24.378  27.331  1.00  0.00     0.029 A 
ATOM     54  C   UNL A   1      46.401  25.789  27.667  1.00  0.00     0.049 A 
ATOM     55  H   UNL A   1      44.632  26.744  28.211  1.00  0.00     0.167 HD
ATOM     56  C   UNL A   1      40.792  28.688  29.064  1.00  0.00     0.037 A 
ATOM     57  C   UNL A   1      47.370  26.724  27.694  1.00  0.00     0.037 A 
ATOM     58  C   UNL A   1      41.771  29.731  29.191  1.00  0.00     0.049 A 
ATOM     59  C   UNL A   1      47.018  28.149  28.030  1.00  0.00     0.074 A 
ATOM     60  C   UNL A   1      41.584  31.049  29.565  1.00  0.00     0.029 A 
ATOM     61  N   UNL A   1      43.123  29.572  28.934  1.00  0.00    -0.354 N 
ATOM     62  N   UNL A   1      45.850  28.662  28.339  1.00  0.00    -0.248 NA
ATOM     63  C   UNL A   1      48.116  29.128  28.012  1.00  0.00     0.031 C 
ATOM     64  C   UNL A   1      42.821  31.698  29.502  1.00  0.00     0.029 A 
ATOM     65  C   UNL A   1      43.782  30.774  29.123  1.00  0.00     0.049 A 
ATOM     66  H   UNL A   1      43.552  28.730  28.660  1.00  0.00     0.167 HD
ATOM     67  C   UNL A   1      46.078  30.011  28.580  1.00  0.00     0.074 A 
ATOM     68  C   UNL A   1      47.494  30.239  28.382  1.00  0.00     0.031 C 
ATOM     69  C   UNL A   1      45.195  30.975  28.936  1.00  0.00     0.037 A 
BRANCH  56  70
ATOM     70  C   UNL A   1      39.355  29.015  29.328  1.00  0.00     0.057 A 
ATOM     71  C   UNL A   1      38.798  28.902  30.608  1.00  0.00     0.134 A 
ATOM     72  C   UNL A   1      38.522  29.461  28.294  1.00  0.00     0.134 A 
ATOM     73  F   UNL A   1      39.541  28.461  31.635  1.00  0.00    -0.206 F 
ATOM     74  C   UNL A   1      37.458  29.203  30.847  1.00  0.00     0.040 A 
ATOM     75  C   UNL A   1      37.186  29.783  28.526  1.00  0.00     0.040 A 
ATOM     76  F   UNL A   1      38.996  29.587  27.045  1.00  0.00    -0.206 F 
ATOM     77  C   UNL A   1      36.648  29.650  29.805  1.00  0.00     0.006 A 
ENDBRANCH  56  70
BRANCH  57  78
ATOM     78  C   UNL A   1      48.770  26.352  27.372  1.00  0.00     0.057 A 
ATOM     79  C   UNL A   1      49.237  26.368  26.054  1.00  0.00     0.134 A 
ATOM     80  C   UNL A   1      49.664  25.946  28.371  1.00  0.00     0.134 A 
ATOM     81  F   UNL A   1      48.417  26.723  25.054  1.00  0.00    -0.206 F 
ATOM     82  C   UNL A   1      50.540  25.984  25.735  1.00  0.00     0.040 A 
ATOM     83  C   UNL A   1      50.976  25.578  28.069  1.00  0.00     0.040 A 
ATOM     84  F   UNL A   1      49.274  25.906  29.653  1.00  0.00    -0.206 F 
ATOM     85  C   UNL A   1      51.415  25.591  26.747  1.00  0.00     0.006 A 
ENDBRANCH  57  78
BRANCH  69  86
ATOM     86  C   UNL A   1      45.732  32.353  29.176  1.00  0.00     0.057 A 
ATOM     87  C   UNL A   1      46.251  32.733  30.419  1.00  0.00     0.134 A 
ATOM     88  C   UNL A   1      45.799  33.282  28.131  1.00  0.00     0.134 A 
ATOM     89  F   UNL A   1      46.207  31.890  31.461  1.00  0.00    -0.206 F 
ATOM     90  C   UNL A   1      46.812  33.996  30.615  1.00  0.00     0.040 A 
ATOM     91  C   UNL A   1      46.374  34.540  28.310  1.00  0.00     0.040 A 
ATOM     92  F   UNL A   1      45.325  32.972  26.914  1.00  0.00    -0.206 F 
ATOM     93  C   UNL A   1      46.883  34.900  29.556  1.00  0.00     0.006 A 
ENDBRANCH  69  86
ENDBRANCH  43  44
ENDBRANCH  36  38
ENDBRANCH  35  36
ENDBRANCH  34  35
ENDBRANCH  33  34
ENDBRANCH  32  33
ENDBRANCH  31  32
ENDBRANCH  30  31
ENDBRANCH  29  30
ENDBRANCH   1  29
TORSDOF 23
ENDMDL
MODEL 3
REMARK VINA RESULT:     -10.3      3.993      6.045
REMARK SMILES O=C(NCc1ccc(C(=O)OCCOCCOCCOCCOC(=O)c2ccc(-c3c4nc(c(-c5c(F)cccc5F)c5ccc([nH]5)c(-c5c(F)cccc5F)c5nc(c(-c6c(F)cccc6F)c6ccc3[nH]6)C=C5)C=C4)cc2)o1)Nc1ccc(F)c(Cl)c1
REMARK SMILES IDX 16 1 15 2 14 3 13 4 12 5 11 6 9 7 10 8 8 9 5 10 6 11 80 12
REMARK SMILES IDX 7 13 4 14 3 15 1 16 2 17 81 18 82 21 83 22 89 23 84 24 87 25
REMARK SMILES IDX 85 26 88 27 86 28 17 29 18 30 19 31 20 32 21 33 22 34 23 35
REMARK SMILES IDX 24 36 25 37 26 38 27 39 79 40 28 41 78 42 29 43 30 44 31 45
REMARK SMILES IDX 72 46 32 47 77 48 71 49 73 50 33 51 76 52 70 53 69 54 34 56
REMARK SMILES IDX 60 57 43 58 59 59 44 60 47 61 58 62 74 63 45 64 46 65 57 67
REMARK SMILES IDX 75 68 48 69 35 70 36 71 41 72 37 73 38 74 40 75 42 76 39 77
REMARK SMILES IDX 61 78 62 79 67 80 63 81 64 82 66 83 68 84 65 85 49 86 50 87
REMARK SMILES IDX 55 88 51 89 52 90 54 91 56 92 53 93
REMARK H PARENT 3 19 81 20 73 55 47 66
REMARK Flexibility Score: inf
ROOT
ATOM      1  C   UNL A   1      35.268  23.095  24.016  1.00  0.00     0.188 C 
ENDROOT
BRANCH   1   2
ATOM      2  C   UNL A   1      34.419  24.350  23.766  1.00  0.00     0.188 C 
BRANCH   2   3
ATOM      3  O   UNL A   1      34.011  24.493  22.403  1.00  0.00    -0.376 OA
BRANCH   3   4
ATOM      4  C   UNL A   1      33.571  25.793  22.022  1.00  0.00     0.202 C 
BRANCH   4   5
ATOM      5  C   UNL A   1      32.200  25.819  21.330  1.00  0.00     0.261 C 
BRANCH   5   6
ATOM      6  O   UNL A   1      31.073  25.879  22.219  1.00  0.00    -0.457 OA
BRANCH   6   7
ATOM      7  C   UNL A   1      30.775  27.091  22.757  1.00  0.00     0.374 C 
ATOM      8  O   UNL A   1      30.267  28.019  22.141  1.00  0.00    -0.242 OA
BRANCH   7   9
ATOM      9  C   UNL A   1      31.023  27.037  24.177  1.00  0.00     0.211 A 
ATOM     10  C   UNL A   1      31.697  26.046  26.031  1.00  0.00     0.124 A 
ATOM     11  C   UNL A   1      31.516  27.376  26.347  1.00  0.00     0.048 A 
ATOM     12  O   UNL A   1      31.374  25.832  24.723  1.00  0.00    -0.452 OA
ATOM     13  C   UNL A   1      31.098  28.015  25.154  1.00  0.00     0.058 A 
BRANCH  10  14
ATOM     14  C   UNL A   1      32.178  24.864  26.794  1.00  0.00     0.193 C 
BRANCH  14  15
ATOM     15  N   UNL A   1      31.109  23.895  26.863  1.00  0.00    -0.331 N 
ATOM     16  O   UNL A   1      29.924  22.124  26.247  1.00  0.00    -0.248 OA
ATOM     17  C   UNL A   1      31.026  22.661  26.305  1.00  0.00     0.319 C 
ATOM     18  N   UNL A   1      32.201  22.106  25.878  1.00  0.00    -0.308 N 
ATOM     19  H   UNL A   1      30.326  24.170  27.394  1.00  0.00     0.165 HD
ATOM     20  H   UNL A   1      33.035  22.533  26.182  1.00  0.00     0.171 HD
BRANCH  18  21
ATOM     21  C   UNL A   1      32.325  20.979  25.041  1.00  0.00     0.044 A 
ATOM     22  C   UNL A   1      32.137  21.162  23.663  1.00  0.00     0.029 A 
ATOM     23  C   UNL A   1      32.593  19.695  25.530  1.00  0.00     0.049 A 
ATOM     24  C   UNL A   1      32.255  20.081  22.785  1.00  0.00     0.043 A 
ATOM     25  C   UNL A   1      32.693  18.613  24.652  1.00  0.00     0.078 A 
ATOM     26  C   UNL A   1      32.532  18.813  23.284  1.00  0.00     0.141 A 
ATOM     27  Cl  UNL A   1      33.002  17.038  25.276  1.00  0.00    -0.081 Cl
ATOM     28  F   UNL A   1      32.635  17.791  22.423  1.00  0.00    -0.205 F 
ENDBRANCH  18  21
ENDBRANCH  14  15
ENDBRANCH  10  14
ENDBRANCH   7   9
ENDBRANCH   6   7
ENDBRANCH   5   6
ENDBRANCH   4   5
ENDBRANCH   3   4
ENDBRANCH   2   3
ENDBRANCH   1   2
BRANCH   1  29
ATOM     29  O   UNL A   1      36.662  23.354  24.032  1.00  0.00    -0.377 OA
BRANCH  29  30
ATOM     30  C   UNL A   1      37.357  23.181  25.266  1.00  0.00     0.188 C 
BRANCH  30  31
ATOM     31  C   UNL A   1      38.146  21.892  25.573  1.00  0.00     0.188 C 
BRANCH  31  32
ATOM     32  O   UNL A   1      37.558  20.712  25.023  1.00  0.00    -0.376 OA
BRANCH  32  33
ATOM     33  C   UNL A   1      38.385  19.553  24.998  1.00  0.00     0.202 C 
BRANCH  33  34
ATOM     34  C   UNL A   1      39.600  19.675  25.924  1.00  0.00     0.261 C 
BRANCH  34  35
ATOM     35  O   UNL A   1      40.845  19.302  25.313  1.00  0.00    -0.460 OA
BRANCH  35  36
ATOM     36  C   UNL A   1      41.895  19.116  26.141  1.00  0.00     0.338 C 
ATOM     37  O   UNL A   1      42.394  18.060  26.482  1.00  0.00    -0.246 OA
BRANCH  36  38
ATOM     38  C   UNL A   1      42.460  20.440  26.455  1.00  0.00     0.060 A 
ATOM     39  C   UNL A   1      42.299  20.955  27.747  1.00  0.00     0.016 A 
ATOM     40  C   UNL A   1      43.128  21.173  25.471  1.00  0.00     0.016 A 
ATOM     41  C   UNL A   1      42.773  22.232  28.047  1.00  0.00     0.010 A 
ATOM     42  C   UNL A   1      43.586  22.454  25.768  1.00  0.00     0.010 A 
ATOM     43  C   UNL A   1      43.380  23.001  27.045  1.00  0.00    -0.014 A 
BRANCH  43  44
ATOM     44  C   UNL A   1      43.623  24.446  27.248  1.00  0.00     0.031 A 
ATOM     45  C   UNL A   1      45.037  24.944  27.153  1.00  0.00     0.074 A 
ATOM     46  C   UNL A   1      42.622  25.285  27.558  1.00  0.00     0.049 A 
ATOM     47  N   UNL A   1      45.519  26.130  27.416  1.00  0.00    -0.248 NA
ATOM     48  C   UNL A   1      46.045  23.966  26.708  1.00  0.00     0.031 C 
ATOM     49  C   UNL A   1      41.209  24.925  27.647  1.00  0.00     0.029 A 
ATOM     50  N   UNL A   1      42.655  26.618  27.881  1.00  0.00    -0.354 N 
ATOM     51  C   UNL A   1      46.883  26.040  27.176  1.00  0.00     0.074 A 
ATOM     52  C   UNL A   1      47.158  24.681  26.764  1.00  0.00     0.031 C 
ATOM     53  C   UNL A   1      40.509  26.009  28.027  1.00  0.00     0.029 A 
ATOM     54  C   UNL A   1      41.429  27.125  28.237  1.00  0.00     0.049 A 
ATOM     55  H   UNL A   1      43.477  27.159  27.859  1.00  0.00     0.167 HD
ATOM     56  C   UNL A   1      47.824  27.005  27.289  1.00  0.00     0.037 A 
ATOM     57  C   UNL A   1      41.101  28.344  28.707  1.00  0.00     0.037 A 
ATOM     58  C   UNL A   1      47.554  28.352  27.711  1.00  0.00     0.049 A 
ATOM     59  C   UNL A   1      42.177  29.380  28.898  1.00  0.00     0.074 A 
ATOM     60  C   UNL A   1      48.438  29.406  27.849  1.00  0.00     0.029 A 
ATOM     61  N   UNL A   1      46.303  28.823  28.073  1.00  0.00    -0.354 N 
ATOM     62  N   UNL A   1      43.462  29.293  28.650  1.00  0.00    -0.248 NA
ATOM     63  C   UNL A   1      41.759  30.680  29.445  1.00  0.00     0.031 C 
ATOM     64  C   UNL A   1      47.725  30.509  28.330  1.00  0.00     0.029 A 
ATOM     65  C   UNL A   1      46.392  30.149  28.455  1.00  0.00     0.049 A 
ATOM     66  H   UNL A   1      45.473  28.293  28.061  1.00  0.00     0.167 HD
ATOM     67  C   UNL A   1      43.999  30.532  28.979  1.00  0.00     0.074 A 
ATOM     68  C   UNL A   1      42.902  31.353  29.447  1.00  0.00     0.031 C 
ATOM     69  C   UNL A   1      45.285  30.953  28.901  1.00  0.00     0.037 A 
BRANCH  56  70
ATOM     70  C   UNL A   1      49.236  26.622  26.972  1.00  0.00     0.057 A 
ATOM     71  C   UNL A   1      49.768  26.773  25.685  1.00  0.00     0.134 A 
ATOM     72  C   UNL A   1      50.077  26.108  27.967  1.00  0.00     0.134 A 
ATOM     73  F   UNL A   1      49.005  27.241  24.685  1.00  0.00    -0.206 F 
ATOM     74  C   UNL A   1      51.083  26.408  25.395  1.00  0.00     0.040 A 
ATOM     75  C   UNL A   1      51.399  25.759  27.692  1.00  0.00     0.040 A 
ATOM     76  F   UNL A   1      49.625  25.937  29.218  1.00  0.00    -0.206 F 
ATOM     77  C   UNL A   1      51.905  25.904  26.401  1.00  0.00     0.006 A 
ENDBRANCH  56  70
BRANCH  57  78
ATOM     78  C   UNL A   1      39.692  28.651  29.054  1.00  0.00     0.057 A 
ATOM     79  C   UNL A   1      38.819  29.198  28.108  1.00  0.00     0.134 A 
ATOM     80  C   UNL A   1      39.193  28.431  30.344  1.00  0.00     0.134 A 
ATOM     81  F   UNL A   1      39.248  29.455  26.864  1.00  0.00    -0.206 F 
ATOM     82  C   UNL A   1      37.502  29.527  28.432  1.00  0.00     0.040 A 
ATOM     83  C   UNL A   1      37.873  28.737  30.678  1.00  0.00     0.040 A 
ATOM     84  F   UNL A   1      39.982  27.913  31.295  1.00  0.00    -0.206 F 
ATOM     85  C   UNL A   1      37.025  29.292  29.721  1.00  0.00     0.006 A 
ENDBRANCH  57  78
BRANCH  69  86
ATOM     86  C   UNL A   1      45.574  32.371  29.287  1.00  0.00     0.057 A 
ATOM     87  C   UNL A   1      45.393  33.429  28.388  1.00  0.00     0.134 A 
ATOM     88  C   UNL A   1      45.965  32.688  30.593  1.00  0.00     0.134 A 
ATOM     89  F   UNL A   1      45.029  33.189  27.119  1.00  0.00    -0.206 F 
ATOM     90  C   UNL A   1      45.599  34.754  28.775  1.00  0.00     0.040 A 
ATOM     91  C   UNL A   1      46.155  34.008  30.997  1.00  0.00     0.040 A 
ATOM     92  F   UNL A   1      46.146  31.718  31.503  1.00  0.00    -0.206 F 
ATOM     93  C   UNL A   1      45.973  35.047  30.086  1.00  0.00     0.006 A 
ENDBRANCH  69  86
ENDBRANCH  43  44
ENDBRANCH  36  38
ENDBRANCH  35  36
ENDBRANCH  34  35
ENDBRANCH  33  34
ENDBRANCH  32  33
ENDBRANCH  31  32
ENDBRANCH  30  31
ENDBRANCH  29  30
ENDBRANCH   1  29
TORSDOF 23
ENDMDL
