MODEL 1
REMARK VINA RESULT:      -8.3      0.000      0.000
REMARK SMILES C[C@@H]1[C@@H](C(=O)OCCOCCOCCOCCOC(=O)c2ccc(-c3c4nc(c(-c5c(F)cccc5F)c5ccc([nH]5)c(-c5c(F)cccc5F)c5nc(c(-c6c(F)cccc6F)c6ccc3[nH]6)C=C5)C=C4)cc2)CCN1C(=O)CCCSc1ccccc1
REMARK SMILES IDX 10 1 9 2 8 3 7 4 6 5 4 6 5 7 3 8 1 9 2 10 77 11 75 12 76 13
REMARK SMILES IDX 78 14 79 15 80 16 81 17 82 18 83 19 84 20 85 21 89 22 86 23
REMARK SMILES IDX 88 24 87 25 11 26 12 27 13 28 14 29 15 30 16 31 17 32 18 33
REMARK SMILES IDX 19 34 20 35 21 36 22 37 74 38 23 39 73 40 24 41 25 42 26 43
REMARK SMILES IDX 67 44 27 45 72 46 66 47 68 48 28 49 71 50 65 51 64 52 29 54
REMARK SMILES IDX 55 55 38 56 54 57 39 58 42 59 53 60 69 61 40 62 41 63 52 65
REMARK SMILES IDX 70 66 43 67 30 68 31 69 36 70 32 71 33 72 35 73 37 74 34 75
REMARK SMILES IDX 56 76 57 77 62 78 58 79 59 80 61 81 63 82 60 83 44 84 45 85
REMARK SMILES IDX 50 86 46 87 47 88 49 89 51 90 48 91
REMARK H PARENT 68 53 42 64
REMARK Flexibility Score: inf
ROOT
ATOM      1  C   UNL A   1      34.794  32.937  29.944  1.00  0.00     0.188 C 
ENDROOT
BRANCH   1   2
ATOM      2  O   UNL A   1      35.591  32.458  28.884  1.00  0.00    -0.376 OA
BRANCH   2   3
ATOM      3  C   UNL A   1      35.119  31.789  27.725  1.00  0.00     0.202 C 
BRANCH   3   4
ATOM      4  C   UNL A   1      33.755  31.120  27.469  1.00  0.00     0.261 C 
BRANCH   4   5
ATOM      5  O   UNL A   1      33.682  30.061  26.528  1.00  0.00    -0.463 OA
BRANCH   5   6
ATOM      6  C   UNL A   1      32.418  29.666  26.272  1.00  0.00     0.311 C 
ATOM      7  O   UNL A   1      31.525  29.659  27.109  1.00  0.00    -0.252 OA
BRANCH   6   8
ATOM      8  C   UNL A   1      32.242  29.340  24.799  1.00  0.00     0.123 C 
ATOM      9  C   UNL A   1      30.466  28.327  23.279  1.00  0.00     0.032 C 
ATOM     10  C   UNL A   1      31.074  28.365  24.674  1.00  0.00     0.096 C 
ATOM     11  N   UNL A   1      31.693  27.101  25.060  1.00  0.00    -0.339 N 
ATOM     12  C   UNL A   1      33.415  28.533  24.269  1.00  0.00     0.039 C 
ATOM     13  C   UNL A   1      33.131  27.135  24.815  1.00  0.00     0.121 C 
BRANCH  11  14
ATOM     14  C   UNL A   1      31.170  26.271  26.049  1.00  0.00     0.222 C 
ATOM     15  O   UNL A   1      31.400  26.440  27.247  1.00  0.00    -0.275 OA
BRANCH  14  16
ATOM     16  C   UNL A   1      30.414  25.043  25.566  1.00  0.00     0.101 C 
BRANCH  16  17
ATOM     17  C   UNL A   1      31.175  23.764  25.211  1.00  0.00     0.021 C 
BRANCH  17  18
ATOM     18  C   UNL A   1      32.083  23.154  26.302  1.00  0.00     0.075 C 
BRANCH  18  19
ATOM     19  S   UNL A   1      33.056  21.607  26.003  1.00  0.00    -0.126 SA
BRANCH  19  20
ATOM     20  C   UNL A   1      34.708  22.159  25.637  1.00  0.00     0.007 A 
ATOM     21  C   UNL A   1      35.279  23.282  26.246  1.00  0.00     0.015 A 
ATOM     22  C   UNL A   1      35.451  21.461  24.679  1.00  0.00     0.015 A 
ATOM     23  C   UNL A   1      36.606  23.639  25.965  1.00  0.00     0.001 A 
ATOM     24  C   UNL A   1      36.785  21.787  24.432  1.00  0.00     0.001 A 
ATOM     25  C   UNL A   1      37.367  22.871  25.083  1.00  0.00     0.000 A 
ENDBRANCH  19  20
ENDBRANCH  18  19
ENDBRANCH  17  18
ENDBRANCH  16  17
ENDBRANCH  14  16
ENDBRANCH  11  14
ENDBRANCH   6   8
ENDBRANCH   5   6
ENDBRANCH   4   5
ENDBRANCH   3   4
ENDBRANCH   2   3
ENDBRANCH   1   2
BRANCH   1  26
ATOM     26  C   UNL A   1      35.013  32.346  31.345  1.00  0.00     0.188 C 
BRANCH  26  27
ATOM     27  O   UNL A   1      34.022  32.705  32.283  1.00  0.00    -0.377 OA
BRANCH  27  28
ATOM     28  C   UNL A   1      34.095  33.997  32.881  1.00  0.00     0.188 C 
BRANCH  28  29
ATOM     29  C   UNL A   1      35.084  34.312  34.031  1.00  0.00     0.188 C 
BRANCH  29  30
ATOM     30  O   UNL A   1      35.529  33.180  34.760  1.00  0.00    -0.376 OA
BRANCH  30  31
ATOM     31  C   UNL A   1      36.678  32.494  34.292  1.00  0.00     0.202 C 
BRANCH  31  32
ATOM     32  C   UNL A   1      38.028  32.978  34.840  1.00  0.00     0.261 C 
BRANCH  32  33
ATOM     33  O   UNL A   1      38.776  33.855  33.981  1.00  0.00    -0.460 OA
BRANCH  33  34
ATOM     34  C   UNL A   1      38.434  33.887  32.677  1.00  0.00     0.338 C 
ATOM     35  O   UNL A   1      37.597  34.605  32.153  1.00  0.00    -0.246 OA
BRANCH  34  36
ATOM     36  C   UNL A   1      39.388  33.039  31.934  1.00  0.00     0.060 A 
ATOM     37  C   UNL A   1      40.393  32.366  32.642  1.00  0.00     0.016 A 
ATOM     38  C   UNL A   1      39.290  32.904  30.547  1.00  0.00     0.016 A 
ATOM     39  C   UNL A   1      41.329  31.588  31.958  1.00  0.00     0.010 A 
ATOM     40  C   UNL A   1      40.240  32.143  29.862  1.00  0.00     0.010 A 
ATOM     41  C   UNL A   1      41.286  31.512  30.560  1.00  0.00    -0.014 A 
BRANCH  41  42
ATOM     42  C   UNL A   1      42.445  30.959  29.817  1.00  0.00     0.031 A 
ATOM     43  C   UNL A   1      42.359  29.543  29.315  1.00  0.00     0.074 A 
ATOM     44  C   UNL A   1      43.543  31.696  29.571  1.00  0.00     0.049 A 
ATOM     45  N   UNL A   1      43.257  28.821  28.696  1.00  0.00    -0.248 NA
ATOM     46  C   UNL A   1      41.083  28.846  29.549  1.00  0.00     0.031 C 
ATOM     47  C   UNL A   1      43.732  33.090  29.960  1.00  0.00     0.029 A 
ATOM     48  N   UNL A   1      44.714  31.359  28.937  1.00  0.00    -0.354 N 
ATOM     49  C   UNL A   1      42.660  27.586  28.476  1.00  0.00     0.074 A 
ATOM     50  C   UNL A   1      41.336  27.644  29.057  1.00  0.00     0.031 C 
ATOM     51  C   UNL A   1      44.956  33.488  29.568  1.00  0.00     0.029 A 
ATOM     52  C   UNL A   1      45.648  32.366  28.935  1.00  0.00     0.049 A 
ATOM     53  H   UNL A   1      44.869  30.478  28.525  1.00  0.00     0.167 HD
ATOM     54  C   UNL A   1      43.165  26.503  27.839  1.00  0.00     0.037 A 
ATOM     55  C   UNL A   1      46.921  32.370  28.494  1.00  0.00     0.037 A 
ATOM     56  C   UNL A   1      44.483  26.445  27.267  1.00  0.00     0.049 A 
ATOM     57  C   UNL A   1      47.492  31.123  27.865  1.00  0.00     0.074 A 
ATOM     58  C   UNL A   1      45.083  25.398  26.589  1.00  0.00     0.029 A 
ATOM     59  N   UNL A   1      45.411  27.474  27.315  1.00  0.00    -0.354 N 
ATOM     60  N   UNL A   1      46.913  29.968  27.640  1.00  0.00    -0.248 NA
ATOM     61  C   UNL A   1      48.895  31.182  27.427  1.00  0.00     0.031 C 
ATOM     62  C   UNL A   1      46.394  25.772  26.280  1.00  0.00     0.029 A 
ATOM     63  C   UNL A   1      46.589  27.076  26.705  1.00  0.00     0.049 A 
ATOM     64  H   UNL A   1      45.255  28.357  27.721  1.00  0.00     0.167 HD
ATOM     65  C   UNL A   1      47.867  29.179  27.003  1.00  0.00     0.074 A 
ATOM     66  C   UNL A   1      49.057  29.992  26.869  1.00  0.00     0.031 C 
ATOM     67  C   UNL A   1      47.765  27.899  26.567  1.00  0.00     0.037 A 
BRANCH  54  68
ATOM     68  C   UNL A   1      42.296  25.280  27.759  1.00  0.00     0.057 A 
ATOM     69  C   UNL A   1      41.321  25.124  26.766  1.00  0.00     0.134 A 
ATOM     70  C   UNL A   1      42.459  24.232  28.674  1.00  0.00     0.134 A 
ATOM     71  F   UNL A   1      41.102  26.097  25.869  1.00  0.00    -0.206 F 
ATOM     72  C   UNL A   1      40.522  23.980  26.700  1.00  0.00     0.040 A 
ATOM     73  C   UNL A   1      41.687  23.072  28.601  1.00  0.00     0.040 A 
ATOM     74  F   UNL A   1      43.376  24.314  29.650  1.00  0.00    -0.206 F 
ATOM     75  C   UNL A   1      40.709  22.946  27.615  1.00  0.00     0.006 A 
ENDBRANCH  54  68
BRANCH  55  76
ATOM     76  C   UNL A   1      47.762  33.586  28.644  1.00  0.00     0.057 A 
ATOM     77  C   UNL A   1      47.837  34.550  27.631  1.00  0.00     0.134 A 
ATOM     78  C   UNL A   1      48.541  33.798  29.789  1.00  0.00     0.134 A 
ATOM     79  F   UNL A   1      47.136  34.392  26.498  1.00  0.00    -0.206 F 
ATOM     80  C   UNL A   1      48.670  35.664  27.739  1.00  0.00     0.040 A 
ATOM     81  C   UNL A   1      49.356  34.923  29.923  1.00  0.00     0.040 A 
ATOM     82  F   UNL A   1      48.518  32.914  30.798  1.00  0.00    -0.206 F 
ATOM     83  C   UNL A   1      49.430  35.856  28.892  1.00  0.00     0.006 A 
ENDBRANCH  55  76
BRANCH  67  84
ATOM     84  C   UNL A   1      48.953  27.310  25.859  1.00  0.00     0.057 A 
ATOM     85  C   UNL A   1      49.077  27.332  24.464  1.00  0.00     0.134 A 
ATOM     86  C   UNL A   1      50.010  26.751  26.591  1.00  0.00     0.134 A 
ATOM     87  F   UNL A   1      48.099  27.843  23.702  1.00  0.00    -0.206 F 
ATOM     88  C   UNL A   1      50.196  26.795  23.823  1.00  0.00     0.040 A 
ATOM     89  C   UNL A   1      51.147  26.241  25.963  1.00  0.00     0.040 A 
ATOM     90  F   UNL A   1      49.963  26.708  27.932  1.00  0.00    -0.206 F 
ATOM     91  C   UNL A   1      51.238  26.255  24.574  1.00  0.00     0.006 A 
ENDBRANCH  67  84
ENDBRANCH  41  42
ENDBRANCH  34  36
ENDBRANCH  33  34
ENDBRANCH  32  33
ENDBRANCH  31  32
ENDBRANCH  30  31
ENDBRANCH  29  30
ENDBRANCH  28  29
ENDBRANCH  27  28
ENDBRANCH  26  27
ENDBRANCH   1  26
TORSDOF 26
ENDMDL
MODEL 2
REMARK VINA RESULT:      -8.2      5.341      9.500
REMARK SMILES C[C@@H]1[C@@H](C(=O)OCCOCCOCCOCCOC(=O)c2ccc(-c3c4nc(c(-c5c(F)cccc5F)c5ccc([nH]5)c(-c5c(F)cccc5F)c5nc(c(-c6c(F)cccc6F)c6ccc3[nH]6)C=C5)C=C4)cc2)CCN1C(=O)CCCSc1ccccc1
REMARK SMILES IDX 10 1 9 2 8 3 7 4 6 5 4 6 5 7 3 8 1 9 2 10 77 11 75 12 76 13
REMARK SMILES IDX 78 14 79 15 80 16 81 17 82 18 83 19 84 20 85 21 89 22 86 23
REMARK SMILES IDX 88 24 87 25 11 26 12 27 13 28 14 29 15 30 16 31 17 32 18 33
REMARK SMILES IDX 19 34 20 35 21 36 22 37 74 38 23 39 73 40 24 41 25 42 26 43
REMARK SMILES IDX 67 44 27 45 72 46 66 47 68 48 28 49 71 50 65 51 64 52 29 54
REMARK SMILES IDX 55 55 38 56 54 57 39 58 42 59 53 60 69 61 40 62 41 63 52 65
REMARK SMILES IDX 70 66 43 67 30 68 31 69 36 70 32 71 33 72 35 73 37 74 34 75
REMARK SMILES IDX 56 76 57 77 62 78 58 79 59 80 61 81 63 82 60 83 44 84 45 85
REMARK SMILES IDX 50 86 46 87 47 88 49 89 51 90 48 91
REMARK H PARENT 68 53 42 64
REMARK Flexibility Score: inf
ROOT
ATOM      1  C   UNL A   1      38.946  31.322  34.112  1.00  0.00     0.188 C 
ENDROOT
BRANCH   1   2
ATOM      2  O   UNL A   1      40.226  30.932  34.561  1.00  0.00    -0.376 OA
BRANCH   2   3
ATOM      3  C   UNL A   1      40.502  30.170  35.724  1.00  0.00     0.202 C 
BRANCH   3   4
ATOM      4  C   UNL A   1      41.514  29.026  35.928  1.00  0.00     0.261 C 
BRANCH   4   5
ATOM      5  O   UNL A   1      42.194  28.508  34.796  1.00  0.00    -0.463 OA
BRANCH   5   6
ATOM      6  C   UNL A   1      42.133  27.163  34.711  1.00  0.00     0.311 C 
ATOM      7  O   UNL A   1      42.278  26.539  33.668  1.00  0.00    -0.252 OA
BRANCH   6   8
ATOM      8  C   UNL A   1      41.972  26.544  36.089  1.00  0.00     0.123 C 
ATOM      9  C   UNL A   1      43.440  25.945  38.083  1.00  0.00     0.032 C 
ATOM     10  C   UNL A   1      43.356  26.119  36.573  1.00  0.00     0.096 C 
ATOM     11  N   UNL A   1      43.562  24.872  35.844  1.00  0.00    -0.339 N 
ATOM     12  C   UNL A   1      41.221  25.225  36.017  1.00  0.00     0.039 C 
ATOM     13  C   UNL A   1      42.284  24.264  35.491  1.00  0.00     0.121 C 
BRANCH  11  14
ATOM     14  C   UNL A   1      44.693  24.624  35.069  1.00  0.00     0.222 C 
ATOM     15  O   UNL A   1      44.758  24.917  33.875  1.00  0.00    -0.275 OA
BRANCH  14  16
ATOM     16  C   UNL A   1      45.805  23.831  35.739  1.00  0.00     0.101 C 
BRANCH  16  17
ATOM     17  C   UNL A   1      47.268  24.124  35.401  1.00  0.00     0.021 C 
BRANCH  17  18
ATOM     18  C   UNL A   1      48.011  23.097  34.518  1.00  0.00     0.075 C 
BRANCH  18  19
ATOM     19  S   UNL A   1      48.844  21.612  35.246  1.00  0.00    -0.126 SA
BRANCH  19  20
ATOM     20  C   UNL A   1      47.520  20.551  35.783  1.00  0.00     0.007 A 
ATOM     21  C   UNL A   1      46.647  19.924  34.887  1.00  0.00     0.015 A 
ATOM     22  C   UNL A   1      47.326  20.364  37.156  1.00  0.00     0.015 A 
ATOM     23  C   UNL A   1      45.658  19.050  35.361  1.00  0.00     0.001 A 
ATOM     24  C   UNL A   1      46.372  19.462  37.626  1.00  0.00     0.001 A 
ATOM     25  C   UNL A   1      45.542  18.796  36.728  1.00  0.00     0.000 A 
ENDBRANCH  19  20
ENDBRANCH  18  19
ENDBRANCH  17  18
ENDBRANCH  16  17
ENDBRANCH  14  16
ENDBRANCH  11  14
ENDBRANCH   6   8
ENDBRANCH   5   6
ENDBRANCH   4   5
ENDBRANCH   3   4
ENDBRANCH   2   3
ENDBRANCH   1   2
BRANCH   1  26
ATOM     26  C   UNL A   1      38.063  32.149  35.060  1.00  0.00     0.188 C 
BRANCH  26  27
ATOM     27  O   UNL A   1      37.916  33.499  34.678  1.00  0.00    -0.377 OA
BRANCH  27  28
ATOM     28  C   UNL A   1      36.616  34.081  34.740  1.00  0.00     0.188 C 
BRANCH  28  29
ATOM     29  C   UNL A   1      35.777  34.348  33.466  1.00  0.00     0.188 C 
BRANCH  29  30
ATOM     30  O   UNL A   1      35.498  35.715  33.213  1.00  0.00    -0.376 OA
BRANCH  30  31
ATOM     31  C   UNL A   1      34.430  36.028  32.335  1.00  0.00     0.202 C 
BRANCH  31  32
ATOM     32  C   UNL A   1      33.788  34.844  31.598  1.00  0.00     0.261 C 
BRANCH  32  33
ATOM     33  O   UNL A   1      32.961  35.179  30.472  1.00  0.00    -0.460 OA
BRANCH  33  34
ATOM     34  C   UNL A   1      33.163  34.496  29.327  1.00  0.00     0.338 C 
ATOM     35  O   UNL A   1      32.476  34.530  28.318  1.00  0.00    -0.246 OA
BRANCH  34  36
ATOM     36  C   UNL A   1      34.480  33.835  29.417  1.00  0.00     0.060 A 
ATOM     37  C   UNL A   1      34.611  32.681  30.202  1.00  0.00     0.016 A 
ATOM     38  C   UNL A   1      35.582  34.347  28.727  1.00  0.00     0.016 A 
ATOM     39  C   UNL A   1      35.854  32.060  30.332  1.00  0.00     0.010 A 
ATOM     40  C   UNL A   1      36.830  33.737  28.876  1.00  0.00     0.010 A 
ATOM     41  C   UNL A   1      36.979  32.613  29.709  1.00  0.00    -0.014 A 
BRANCH  41  42
ATOM     42  C   UNL A   1      38.336  32.152  30.094  1.00  0.00     0.031 A 
ATOM     43  C   UNL A   1      38.806  30.817  29.584  1.00  0.00     0.074 A 
ATOM     44  C   UNL A   1      39.145  32.903  30.862  1.00  0.00     0.049 A 
ATOM     45  N   UNL A   1      39.919  30.175  29.829  1.00  0.00    -0.248 NA
ATOM     46  C   UNL A   1      37.890  30.108  28.674  1.00  0.00     0.031 C 
ATOM     47  C   UNL A   1      38.829  34.231  31.381  1.00  0.00     0.029 A 
ATOM     48  N   UNL A   1      40.404  32.642  31.346  1.00  0.00    -0.354 N 
ATOM     49  C   UNL A   1      39.833  28.987  29.113  1.00  0.00     0.074 A 
ATOM     50  C   UNL A   1      38.546  28.981  28.452  1.00  0.00     0.031 C 
ATOM     51  C   UNL A   1      39.863  34.664  32.125  1.00  0.00     0.029 A 
ATOM     52  C   UNL A   1      40.895  33.630  32.163  1.00  0.00     0.049 A 
ATOM     53  H   UNL A   1      40.905  31.822  31.128  1.00  0.00     0.167 HD
ATOM     54  C   UNL A   1      40.747  27.994  29.008  1.00  0.00     0.037 A 
ATOM     55  C   UNL A   1      42.037  33.679  32.878  1.00  0.00     0.037 A 
ATOM     56  C   UNL A   1      42.024  27.999  29.671  1.00  0.00     0.049 A 
ATOM     57  C   UNL A   1      43.002  32.522  32.814  1.00  0.00     0.074 A 
ATOM     58  C   UNL A   1      43.026  27.045  29.617  1.00  0.00     0.029 A 
ATOM     59  N   UNL A   1      42.471  29.002  30.516  1.00  0.00    -0.354 N 
ATOM     60  N   UNL A   1      42.924  31.413  32.117  1.00  0.00    -0.248 NA
ATOM     61  C   UNL A   1      44.217  32.624  33.637  1.00  0.00     0.031 C 
ATOM     62  C   UNL A   1      44.053  27.443  30.478  1.00  0.00     0.029 A 
ATOM     63  C   UNL A   1      43.722  28.677  31.015  1.00  0.00     0.049 A 
ATOM     64  H   UNL A   1      41.974  29.824  30.731  1.00  0.00     0.167 HD
ATOM     65  C   UNL A   1      44.092  30.707  32.388  1.00  0.00     0.074 A 
ATOM     66  C   UNL A   1      44.865  31.517  33.304  1.00  0.00     0.031 C 
ATOM     67  C   UNL A   1      44.488  29.498  31.919  1.00  0.00     0.037 A 
BRANCH  54  68
ATOM     68  C   UNL A   1      40.381  26.802  28.170  1.00  0.00     0.057 A 
ATOM     69  C   UNL A   1      39.490  25.820  28.623  1.00  0.00     0.134 A 
ATOM     70  C   UNL A   1      40.906  26.651  26.881  1.00  0.00     0.134 A 
ATOM     71  F   UNL A   1      38.965  25.894  29.856  1.00  0.00    -0.206 F 
ATOM     72  C   UNL A   1      39.155  24.718  27.834  1.00  0.00     0.040 A 
ATOM     73  C   UNL A   1      40.555  25.570  26.071  1.00  0.00     0.040 A 
ATOM     74  F   UNL A   1      41.763  27.556  26.383  1.00  0.00    -0.206 F 
ATOM     75  C   UNL A   1      39.682  24.595  26.550  1.00  0.00     0.006 A 
ENDBRANCH  54  68
BRANCH  55  76
ATOM     76  C   UNL A   1      42.332  34.855  33.738  1.00  0.00     0.057 A 
ATOM     77  C   UNL A   1      43.030  35.963  33.242  1.00  0.00     0.134 A 
ATOM     78  C   UNL A   1      41.957  34.885  35.087  1.00  0.00     0.134 A 
ATOM     79  F   UNL A   1      43.441  35.984  31.965  1.00  0.00    -0.206 F 
ATOM     80  C   UNL A   1      43.364  37.045  34.058  1.00  0.00     0.040 A 
ATOM     81  C   UNL A   1      42.257  35.974  35.907  1.00  0.00     0.040 A 
ATOM     82  F   UNL A   1      41.287  33.856  35.628  1.00  0.00    -0.206 F 
ATOM     83  C   UNL A   1      42.972  37.054  35.395  1.00  0.00     0.006 A 
ENDBRANCH  55  76
BRANCH  67  84
ATOM     84  C   UNL A   1      45.840  28.996  32.346  1.00  0.00     0.057 A 
ATOM     85  C   UNL A   1      46.030  28.285  33.537  1.00  0.00     0.134 A 
ATOM     86  C   UNL A   1      46.960  29.190  31.525  1.00  0.00     0.134 A 
ATOM     87  F   UNL A   1      45.003  28.073  34.374  1.00  0.00    -0.206 F 
ATOM     88  C   UNL A   1      47.289  27.811  33.911  1.00  0.00     0.040 A 
ATOM     89  C   UNL A   1      48.216  28.692  31.872  1.00  0.00     0.040 A 
ATOM     90  F   UNL A   1      46.848  29.851  30.363  1.00  0.00    -0.206 F 
ATOM     91  C   UNL A   1      48.386  28.008  33.073  1.00  0.00     0.006 A 
ENDBRANCH  67  84
ENDBRANCH  41  42
ENDBRANCH  34  36
ENDBRANCH  33  34
ENDBRANCH  32  33
ENDBRANCH  31  32
ENDBRANCH  30  31
ENDBRANCH  29  30
ENDBRANCH  28  29
ENDBRANCH  27  28
ENDBRANCH  26  27
ENDBRANCH   1  26
TORSDOF 26
ENDMDL
MODEL 3
REMARK VINA RESULT:      -8.1      5.993     10.897
REMARK SMILES C[C@@H]1[C@@H](C(=O)OCCOCCOCCOCCOC(=O)c2ccc(-c3c4nc(c(-c5c(F)cccc5F)c5ccc([nH]5)c(-c5c(F)cccc5F)c5nc(c(-c6c(F)cccc6F)c6ccc3[nH]6)C=C5)C=C4)cc2)CCN1C(=O)CCCSc1ccccc1
REMARK SMILES IDX 10 1 9 2 8 3 7 4 6 5 4 6 5 7 3 8 1 9 2 10 77 11 75 12 76 13
REMARK SMILES IDX 78 14 79 15 80 16 81 17 82 18 83 19 84 20 85 21 89 22 86 23
REMARK SMILES IDX 88 24 87 25 11 26 12 27 13 28 14 29 15 30 16 31 17 32 18 33
REMARK SMILES IDX 19 34 20 35 21 36 22 37 74 38 23 39 73 40 24 41 25 42 26 43
REMARK SMILES IDX 67 44 27 45 72 46 66 47 68 48 28 49 71 50 65 51 64 52 29 54
REMARK SMILES IDX 55 55 38 56 54 57 39 58 42 59 53 60 69 61 40 62 41 63 52 65
REMARK SMILES IDX 70 66 43 67 30 68 31 69 36 70 32 71 33 72 35 73 37 74 34 75
REMARK SMILES IDX 56 76 57 77 62 78 58 79 59 80 61 81 63 82 60 83 44 84 45 85
REMARK SMILES IDX 50 86 46 87 47 88 49 89 51 90 48 91
REMARK H PARENT 68 53 42 64
REMARK Flexibility Score: inf
ROOT
ATOM      1  C   UNL A   1      36.035  31.304  28.129  1.00  0.00     0.188 C 
ENDROOT
BRANCH   1   2
ATOM      2  O   UNL A   1      36.405  30.109  28.782  1.00  0.00    -0.376 OA
BRANCH   2   3
ATOM      3  C   UNL A   1      37.730  29.636  28.961  1.00  0.00     0.202 C 
BRANCH   3   4
ATOM      4  C   UNL A   1      38.780  29.242  27.904  1.00  0.00     0.261 C 
BRANCH   4   5
ATOM      5  O   UNL A   1      39.494  28.028  28.073  1.00  0.00    -0.463 OA
BRANCH   5   6
ATOM      6  C   UNL A   1      40.786  28.215  28.413  1.00  0.00     0.311 C 
ATOM      7  O   UNL A   1      41.326  29.313  28.457  1.00  0.00    -0.252 OA
BRANCH   6   8
ATOM      8  C   UNL A   1      41.430  26.904  28.828  1.00  0.00     0.123 C 
ATOM      9  C   UNL A   1      43.775  25.967  29.172  1.00  0.00     0.032 C 
ATOM     10  C   UNL A   1      42.899  26.955  28.413  1.00  0.00     0.096 C 
ATOM     11  N   UNL A   1      42.820  26.667  26.985  1.00  0.00    -0.339 N 
ATOM     12  C   UNL A   1      40.890  25.741  28.014  1.00  0.00     0.039 C 
ATOM     13  C   UNL A   1      41.614  25.903  26.680  1.00  0.00     0.121 C 
BRANCH  11  14
ATOM     14  C   UNL A   1      43.400  27.480  26.014  1.00  0.00     0.222 C 
ATOM     15  O   UNL A   1      42.904  28.550  25.661  1.00  0.00    -0.275 OA
BRANCH  14  16
ATOM     16  C   UNL A   1      44.611  26.906  25.294  1.00  0.00     0.101 C 
BRANCH  16  17
ATOM     17  C   UNL A   1      45.345  25.695  25.872  1.00  0.00     0.021 C 
BRANCH  17  18
ATOM     18  C   UNL A   1      45.068  24.322  25.221  1.00  0.00     0.075 C 
BRANCH  18  19
ATOM     19  S   UNL A   1      45.051  22.760  26.215  1.00  0.00    -0.126 SA
BRANCH  19  20
ATOM     20  C   UNL A   1      43.350  22.521  26.679  1.00  0.00     0.007 A 
ATOM     21  C   UNL A   1      42.335  22.313  25.739  1.00  0.00     0.015 A 
ATOM     22  C   UNL A   1      43.011  22.578  28.036  1.00  0.00     0.015 A 
ATOM     23  C   UNL A   1      41.020  22.071  26.162  1.00  0.00     0.001 A 
ATOM     24  C   UNL A   1      41.713  22.293  28.460  1.00  0.00     0.001 A 
ATOM     25  C   UNL A   1      40.717  22.030  27.524  1.00  0.00     0.000 A 
ENDBRANCH  19  20
ENDBRANCH  18  19
ENDBRANCH  17  18
ENDBRANCH  16  17
ENDBRANCH  14  16
ENDBRANCH  11  14
ENDBRANCH   6   8
ENDBRANCH   5   6
ENDBRANCH   4   5
ENDBRANCH   3   4
ENDBRANCH   2   3
ENDBRANCH   1   2
BRANCH   1  26
ATOM     26  C   UNL A   1      34.555  31.714  28.145  1.00  0.00     0.188 C 
BRANCH  26  27
ATOM     27  O   UNL A   1      34.308  32.998  27.613  1.00  0.00    -0.377 OA
BRANCH  27  28
ATOM     28  C   UNL A   1      33.525  33.908  28.382  1.00  0.00     0.188 C 
BRANCH  28  29
ATOM     29  C   UNL A   1      33.940  35.389  28.568  1.00  0.00     0.188 C 
BRANCH  29  30
ATOM     30  O   UNL A   1      33.696  35.917  29.861  1.00  0.00    -0.376 OA
BRANCH  30  31
ATOM     31  C   UNL A   1      33.501  35.005  30.929  1.00  0.00     0.202 C 
BRANCH  31  32
ATOM     32  C   UNL A   1      34.735  34.690  31.786  1.00  0.00     0.261 C 
BRANCH  32  33
ATOM     33  O   UNL A   1      35.377  33.431  31.524  1.00  0.00    -0.460 OA
BRANCH  33  34
ATOM     34  C   UNL A   1      36.562  33.461  30.880  1.00  0.00     0.338 C 
ATOM     35  O   UNL A   1      36.840  34.101  29.878  1.00  0.00    -0.246 OA
BRANCH  34  36
ATOM     36  C   UNL A   1      37.547  32.734  31.706  1.00  0.00     0.060 A 
ATOM     37  C   UNL A   1      37.123  32.128  32.896  1.00  0.00     0.016 A 
ATOM     38  C   UNL A   1      38.884  32.647  31.307  1.00  0.00     0.016 A 
ATOM     39  C   UNL A   1      38.043  31.467  33.711  1.00  0.00     0.010 A 
ATOM     40  C   UNL A   1      39.808  32.005  32.135  1.00  0.00     0.010 A 
ATOM     41  C   UNL A   1      39.398  31.444  33.359  1.00  0.00    -0.014 A 
BRANCH  41  42
ATOM     42  C   UNL A   1      40.413  31.030  34.360  1.00  0.00     0.031 A 
ATOM     43  C   UNL A   1      40.841  32.032  35.396  1.00  0.00     0.074 A 
ATOM     44  C   UNL A   1      40.932  29.789  34.367  1.00  0.00     0.049 A 
ATOM     45  N   UNL A   1      41.748  31.928  36.333  1.00  0.00    -0.248 NA
ATOM     46  C   UNL A   1      40.150  33.333  35.368  1.00  0.00     0.031 C 
ATOM     47  C   UNL A   1      40.568  28.713  33.449  1.00  0.00     0.029 A 
ATOM     48  N   UNL A   1      41.890  29.232  35.179  1.00  0.00    -0.354 N 
ATOM     49  C   UNL A   1      41.744  33.149  36.997  1.00  0.00     0.074 A 
ATOM     50  C   UNL A   1      40.769  33.990  36.336  1.00  0.00     0.031 C 
ATOM     51  C   UNL A   1      41.306  27.626  33.740  1.00  0.00     0.029 A 
ATOM     52  C   UNL A   1      42.217  27.943  34.839  1.00  0.00     0.049 A 
ATOM     53  H   UNL A   1      42.303  29.714  35.932  1.00  0.00     0.167 HD
ATOM     54  C   UNL A   1      42.479  33.533  38.067  1.00  0.00     0.037 A 
ATOM     55  C   UNL A   1      43.162  27.125  35.344  1.00  0.00     0.037 A 
ATOM     56  C   UNL A   1      43.452  32.699  38.719  1.00  0.00     0.049 A 
ATOM     57  C   UNL A   1      44.029  27.605  36.480  1.00  0.00     0.074 A 
ATOM     58  C   UNL A   1      44.239  32.991  39.820  1.00  0.00     0.029 A 
ATOM     59  N   UNL A   1      43.779  31.411  38.325  1.00  0.00    -0.354 N 
ATOM     60  N   UNL A   1      44.003  28.751  37.117  1.00  0.00    -0.248 NA
ATOM     61  C   UNL A   1      45.059  26.675  36.969  1.00  0.00     0.031 C 
ATOM     62  C   UNL A   1      45.085  31.903  40.053  1.00  0.00     0.029 A 
ATOM     63  C   UNL A   1      44.777  30.906  39.141  1.00  0.00     0.049 A 
ATOM     64  H   UNL A   1      43.362  30.926  37.576  1.00  0.00     0.167 HD
ATOM     65  C   UNL A   1      44.982  28.665  38.102  1.00  0.00     0.074 A 
ATOM     66  C   UNL A   1      45.576  27.351  37.984  1.00  0.00     0.031 C 
ATOM     67  C   UNL A   1      45.354  29.590  39.021  1.00  0.00     0.037 A 
BRANCH  54  68
ATOM     68  C   UNL A   1      42.281  34.933  38.577  1.00  0.00     0.057 A 
ATOM     69  C   UNL A   1      43.028  36.014  38.091  1.00  0.00     0.134 A 
ATOM     70  C   UNL A   1      41.308  35.205  39.547  1.00  0.00     0.134 A 
ATOM     71  F   UNL A   1      43.988  35.820  37.174  1.00  0.00    -0.206 F 
ATOM     72  C   UNL A   1      42.832  37.311  38.570  1.00  0.00     0.040 A 
ATOM     73  C   UNL A   1      41.082  36.501  40.011  1.00  0.00     0.040 A 
ATOM     74  F   UNL A   1      40.554  34.217  40.053  1.00  0.00    -0.206 F 
ATOM     75  C   UNL A   1      41.851  37.559  39.528  1.00  0.00     0.006 A 
ENDBRANCH  54  68
BRANCH  55  76
ATOM     76  C   UNL A   1      43.360  25.767  34.771  1.00  0.00     0.057 A 
ATOM     77  C   UNL A   1      44.188  25.559  33.661  1.00  0.00     0.134 A 
ATOM     78  C   UNL A   1      42.697  24.650  35.295  1.00  0.00     0.134 A 
ATOM     79  F   UNL A   1      44.831  26.592  33.095  1.00  0.00    -0.206 F 
ATOM     80  C   UNL A   1      44.333  24.298  33.080  1.00  0.00     0.040 A 
ATOM     81  C   UNL A   1      42.856  23.378  34.743  1.00  0.00     0.040 A 
ATOM     82  F   UNL A   1      41.888  24.779  36.357  1.00  0.00    -0.206 F 
ATOM     83  C   UNL A   1      43.668  23.201  33.626  1.00  0.00     0.006 A 
ENDBRANCH  55  76
BRANCH  67  84
ATOM     84  C   UNL A   1      46.419  29.200  40.008  1.00  0.00     0.057 A 
ATOM     85  C   UNL A   1      47.776  29.473  39.789  1.00  0.00     0.134 A 
ATOM     86  C   UNL A   1      46.074  28.581  41.217  1.00  0.00     0.134 A 
ATOM     87  F   UNL A   1      48.177  30.054  38.649  1.00  0.00    -0.206 F 
ATOM     88  C   UNL A   1      48.751  29.119  40.723  1.00  0.00     0.040 A 
ATOM     89  C   UNL A   1      47.037  28.252  42.173  1.00  0.00     0.040 A 
ATOM     90  F   UNL A   1      44.792  28.302  41.499  1.00  0.00    -0.206 F 
ATOM     91  C   UNL A   1      48.381  28.514  41.923  1.00  0.00     0.006 A 
ENDBRANCH  67  84
ENDBRANCH  41  42
ENDBRANCH  34  36
ENDBRANCH  33  34
ENDBRANCH  32  33
ENDBRANCH  31  32
ENDBRANCH  30  31
ENDBRANCH  29  30
ENDBRANCH  28  29
ENDBRANCH  27  28
ENDBRANCH  26  27
ENDBRANCH   1  26
TORSDOF 26
ENDMDL
