MODEL 1
REMARK VINA RESULT:      -9.8      0.000      0.000
REMARK SMILES CC1(C)CC[C@@]2(C(=O)OCCOCCOCCOCCOC(=O)c3ccc(-c4c5nc(c(-c6c(F)cccc6F)c6ccc([nH]6)c(-c6c(F)cccc6F)c6nc(c(-c7c(F)cccc7F)c7ccc4[nH]7)C=C6)C=C5)cc3)CC[C@@]3(C)C(=CC[C@H]4[C@@]5(C)CC[C@H](O)C(C)(C)[C@@H]5CC[C@]43C)[C@@H]2C1
REMARK SMILES IDX 16 1 15 2 14 3 13 4 12 5 11 6 10 7 9 8 7 9 8 10 6 11 1 12
REMARK SMILES IDX 2 13 3 14 4 15 101 16 5 17 100 18 82 19 78 20 80 21 83 22
REMARK SMILES IDX 79 23 81 24 98 25 84 26 85 27 97 28 99 29 86 30 96 31 87 32
REMARK SMILES IDX 88 33 95 34 89 35 92 36 90 37 93 38 94 39 91 40 17 42 18 43
REMARK SMILES IDX 19 44 20 45 21 46 22 47 23 48 24 49 25 50 77 51 26 52 76 53
REMARK SMILES IDX 27 54 28 55 29 56 70 57 30 58 75 59 69 60 71 61 31 62 74 63
REMARK SMILES IDX 68 64 67 65 32 67 58 68 41 69 57 70 42 71 45 72 56 73 72 74
REMARK SMILES IDX 43 75 44 76 55 78 73 79 46 80 33 81 34 82 39 83 35 84 36 85
REMARK SMILES IDX 38 86 40 87 37 88 59 89 60 90 65 91 61 92 62 93 64 94 66 95
REMARK SMILES IDX 63 96 47 97 48 98 53 99 49 100 50 101 52 102 54 103 51 104
REMARK H PARENT 91 41 71 66 45 77
REMARK Flexibility Score: inf
ROOT
ATOM      1  C   UNL A   1      34.872  24.806  25.230  1.00  0.00     0.188 C 
ENDROOT
BRANCH   1   2
ATOM      2  O   UNL A   1      33.862  25.600  25.819  1.00  0.00    -0.377 OA
BRANCH   2   3
ATOM      3  C   UNL A   1      33.636  26.947  25.404  1.00  0.00     0.188 C 
BRANCH   3   4
ATOM      4  C   UNL A   1      33.715  27.900  26.615  1.00  0.00     0.188 C 
BRANCH   4   5
ATOM      5  O   UNL A   1      34.787  28.816  26.528  1.00  0.00    -0.376 OA
BRANCH   5   6
ATOM      6  C   UNL A   1      35.510  29.060  27.727  1.00  0.00     0.202 C 
BRANCH   6   7
ATOM      7  C   UNL A   1      36.898  29.518  27.507  1.00  0.00     0.261 C 
BRANCH   7   8
ATOM      8  O   UNL A   1      37.709  28.587  28.184  1.00  0.00    -0.463 OA
BRANCH   8   9
ATOM      9  C   UNL A   1      38.982  28.936  28.468  1.00  0.00     0.312 C 
ATOM     10  O   UNL A   1      39.337  30.108  28.540  1.00  0.00    -0.252 OA
BRANCH   9  11
ATOM     11  C   UNL A   1      39.738  27.800  29.111  1.00  0.00     0.075 C 
ATOM     12  C   UNL A   1      43.150  27.375  26.382  1.00  0.00     0.011 C 
ATOM     13  C   UNL A   1      42.085  28.252  27.102  1.00  0.00    -0.035 C 
ATOM     14  C   UNL A   1      42.391  29.648  26.435  1.00  0.00     0.011 C 
ATOM     15  C   UNL A   1      40.726  27.624  26.669  1.00  0.00     0.007 C 
ATOM     16  C   UNL A   1      42.294  28.275  28.721  1.00  0.00     0.015 C 
ATOM     17  C   UNL A   1      39.956  26.911  27.833  1.00  0.00     0.020 C 
ATOM     18  C   UNL A   1      41.067  28.140  29.827  1.00  0.00     0.033 C 
ATOM     19  C   UNL A   1      40.754  29.178  31.074  1.00  0.00    -0.063 C 
ATOM     20  C   UNL A   1      38.792  27.223  30.215  1.00  0.00     0.020 C 
ATOM     21  C   UNL A   1      39.553  28.938  32.136  1.00  0.00    -0.006 C 
ATOM     22  C   UNL A   1      41.404  30.350  31.174  1.00  0.00    -0.027 C 
ATOM     23  C   UNL A   1      38.390  28.259  31.352  1.00  0.00     0.013 C 
ATOM     24  C   UNL A   1      40.046  27.846  33.134  1.00  0.00     0.017 C 
ATOM     25  C   UNL A   1      39.178  30.381  33.124  1.00  0.00    -0.020 C 
ATOM     26  C   UNL A   1      40.755  31.630  31.677  1.00  0.00     0.032 C 
ATOM     27  C   UNL A   1      39.237  31.623  32.209  1.00  0.00     0.006 C 
ATOM     28  C   UNL A   1      37.897  30.649  34.028  1.00  0.00     0.008 C 
ATOM     29  C   UNL A   1      40.320  30.476  34.227  1.00  0.00     0.012 C 
ATOM     30  C   UNL A   1      37.641  32.158  31.610  1.00  0.00    -0.025 C 
ATOM     31  C   UNL A   1      37.440  32.217  34.145  1.00  0.00     0.005 C 
ATOM     32  C   UNL A   1      37.838  33.391  30.760  1.00  0.00     0.012 C 
ATOM     33  C   UNL A   1      36.599  31.270  30.848  1.00  0.00     0.010 C 
ATOM     34  C   UNL A   1      36.697  32.526  32.852  1.00  0.00     0.003 C 
ATOM     35  C   UNL A   1      35.401  32.122  30.318  1.00  0.00     0.033 C 
ATOM     36  C   UNL A   1      35.513  33.585  32.623  1.00  0.00    -0.006 C 
ATOM     37  C   UNL A   1      34.761  33.186  31.261  1.00  0.00     0.120 C 
ATOM     38  C   UNL A   1      35.799  35.115  32.746  1.00  0.00     0.014 C 
ATOM     39  C   UNL A   1      34.460  33.398  33.753  1.00  0.00     0.014 C 
BRANCH  37  40
ATOM     40  O   UNL A   1      34.447  34.346  30.472  1.00  0.00    -0.393 OA
ATOM     41  H   UNL A   1      34.906  35.118  30.837  1.00  0.00     0.210 HD
ENDBRANCH  37  40
ENDBRANCH   9  11
ENDBRANCH   8   9
ENDBRANCH   7   8
ENDBRANCH   6   7
ENDBRANCH   5   6
ENDBRANCH   4   5
ENDBRANCH   3   4
ENDBRANCH   2   3
ENDBRANCH   1   2
BRANCH   1  42
ATOM     42  C   UNL A   1      34.720  23.289  25.470  1.00  0.00     0.188 C 
BRANCH  42  43
ATOM     43  O   UNL A   1      36.036  22.796  25.491  1.00  0.00    -0.376 OA
BRANCH  43  44
ATOM     44  C   UNL A   1      36.373  21.441  25.743  1.00  0.00     0.202 C 
BRANCH  44  45
ATOM     45  C   UNL A   1      37.823  21.377  25.209  1.00  0.00     0.261 C 
BRANCH  45  46
ATOM     46  O   UNL A   1      38.773  21.787  26.221  1.00  0.00    -0.460 OA
BRANCH  46  47
ATOM     47  C   UNL A   1      39.862  20.974  26.233  1.00  0.00     0.338 C 
ATOM     48  O   UNL A   1      39.887  19.825  25.866  1.00  0.00    -0.246 OA
BRANCH  47  49
ATOM     49  C   UNL A   1      41.064  21.835  26.359  1.00  0.00     0.060 A 
ATOM     50  C   UNL A   1      42.280  21.170  26.626  1.00  0.00     0.016 A 
ATOM     51  C   UNL A   1      41.033  23.200  26.046  1.00  0.00     0.016 A 
ATOM     52  C   UNL A   1      43.469  21.870  26.603  1.00  0.00     0.010 A 
ATOM     53  C   UNL A   1      42.214  23.930  26.126  1.00  0.00     0.010 A 
ATOM     54  C   UNL A   1      43.400  23.262  26.481  1.00  0.00    -0.014 A 
BRANCH  54  55
ATOM     55  C   UNL A   1      44.355  23.970  27.335  1.00  0.00     0.031 A 
ATOM     56  C   UNL A   1      45.444  24.681  26.573  1.00  0.00     0.074 A 
ATOM     57  C   UNL A   1      44.175  24.053  28.656  1.00  0.00     0.049 A 
ATOM     58  N   UNL A   1      46.389  25.466  26.998  1.00  0.00    -0.248 NA
ATOM     59  C   UNL A   1      45.445  24.513  25.105  1.00  0.00     0.031 C 
ATOM     60  C   UNL A   1      43.082  23.445  29.415  1.00  0.00     0.029 A 
ATOM     61  N   UNL A   1      44.928  24.693  29.594  1.00  0.00    -0.354 N 
ATOM     62  C   UNL A   1      47.061  25.881  25.852  1.00  0.00     0.074 A 
ATOM     63  C   UNL A   1      46.437  25.280  24.713  1.00  0.00     0.031 C 
ATOM     64  C   UNL A   1      43.259  23.716  30.720  1.00  0.00     0.029 A 
ATOM     65  C   UNL A   1      44.488  24.487  30.875  1.00  0.00     0.049 A 
ATOM     66  H   UNL A   1      45.709  25.249  29.372  1.00  0.00     0.167 HD
ATOM     67  C   UNL A   1      48.139  26.682  25.760  1.00  0.00     0.037 A 
ATOM     68  C   UNL A   1      45.069  24.866  32.026  1.00  0.00     0.037 A 
ATOM     69  C   UNL A   1      48.790  27.175  26.931  1.00  0.00     0.049 A 
ATOM     70  C   UNL A   1      46.336  25.671  31.920  1.00  0.00     0.074 A 
ATOM     71  C   UNL A   1      49.930  27.938  27.036  1.00  0.00     0.029 A 
ATOM     72  N   UNL A   1      48.348  26.903  28.223  1.00  0.00    -0.354 N 
ATOM     73  N   UNL A   1      46.978  26.062  30.839  1.00  0.00    -0.248 NA
ATOM     74  C   UNL A   1      46.958  26.091  33.176  1.00  0.00     0.031 C 
ATOM     75  C   UNL A   1      50.211  28.079  28.398  1.00  0.00     0.029 A 
ATOM     76  C   UNL A   1      49.209  27.461  29.139  1.00  0.00     0.049 A 
ATOM     77  H   UNL A   1      47.540  26.388  28.447  1.00  0.00     0.167 HD
ATOM     78  C   UNL A   1      48.073  26.789  31.280  1.00  0.00     0.074 A 
ATOM     79  C   UNL A   1      47.994  26.793  32.732  1.00  0.00     0.031 C 
ATOM     80  C   UNL A   1      49.058  27.402  30.573  1.00  0.00     0.037 A 
BRANCH  67  81
ATOM     81  C   UNL A   1      48.689  26.924  24.385  1.00  0.00     0.057 A 
ATOM     82  C   UNL A   1      49.966  26.486  24.000  1.00  0.00     0.134 A 
ATOM     83  C   UNL A   1      47.978  27.710  23.470  1.00  0.00     0.134 A 
ATOM     84  F   UNL A   1      50.730  25.785  24.852  1.00  0.00    -0.206 F 
ATOM     85  C   UNL A   1      50.522  26.839  22.767  1.00  0.00     0.040 A 
ATOM     86  C   UNL A   1      48.510  28.045  22.224  1.00  0.00     0.040 A 
ATOM     87  F   UNL A   1      46.770  28.199  23.788  1.00  0.00    -0.206 F 
ATOM     88  C   UNL A   1      49.789  27.616  21.872  1.00  0.00     0.006 A 
ENDBRANCH  67  81
BRANCH  68  89
ATOM     89  C   UNL A   1      44.469  24.455  33.318  1.00  0.00     0.057 A 
ATOM     90  C   UNL A   1      44.789  23.236  33.924  1.00  0.00     0.134 A 
ATOM     91  C   UNL A   1      43.610  25.314  34.021  1.00  0.00     0.134 A 
ATOM     92  F   UNL A   1      45.598  22.366  33.302  1.00  0.00    -0.206 F 
ATOM     93  C   UNL A   1      44.281  22.886  35.178  1.00  0.00     0.040 A 
ATOM     94  C   UNL A   1      43.115  24.988  35.284  1.00  0.00     0.040 A 
ATOM     95  F   UNL A   1      43.272  26.504  33.503  1.00  0.00    -0.206 F 
ATOM     96  C   UNL A   1      43.450  23.769  35.867  1.00  0.00     0.006 A 
ENDBRANCH  68  89
BRANCH  80  97
ATOM     97  C   UNL A   1      50.094  28.130  31.369  1.00  0.00     0.057 A 
ATOM     98  C   UNL A   1      51.282  27.511  31.767  1.00  0.00     0.134 A 
ATOM     99  C   UNL A   1      49.920  29.485  31.672  1.00  0.00     0.134 A 
ATOM    100  F   UNL A   1      51.496  26.213  31.503  1.00  0.00    -0.206 F 
ATOM    101  C   UNL A   1      52.259  28.213  32.470  1.00  0.00     0.040 A 
ATOM    102  C   UNL A   1      50.904  30.206  32.343  1.00  0.00     0.040 A 
ATOM    103  F   UNL A   1      48.808  30.134  31.293  1.00  0.00    -0.206 F 
ATOM    104  C   UNL A   1      52.072  29.566  32.751  1.00  0.00     0.006 A 
ENDBRANCH  80  97
ENDBRANCH  54  55
ENDBRANCH  47  49
ENDBRANCH  46  47
ENDBRANCH  45  46
ENDBRANCH  44  45
ENDBRANCH  43  44
ENDBRANCH  42  43
ENDBRANCH   1  42
TORSDOF 21
ENDMDL
MODEL 2
REMARK VINA RESULT:      -9.5      0.906      5.683
REMARK SMILES CC1(C)CC[C@@]2(C(=O)OCCOCCOCCOCCOC(=O)c3ccc(-c4c5nc(c(-c6c(F)cccc6F)c6ccc([nH]6)c(-c6c(F)cccc6F)c6nc(c(-c7c(F)cccc7F)c7ccc4[nH]7)C=C6)C=C5)cc3)CC[C@@]3(C)C(=CC[C@H]4[C@@]5(C)CC[C@H](O)C(C)(C)[C@@H]5CC[C@]43C)[C@@H]2C1
REMARK SMILES IDX 16 1 15 2 14 3 13 4 12 5 11 6 10 7 9 8 7 9 8 10 6 11 1 12
REMARK SMILES IDX 2 13 3 14 4 15 101 16 5 17 100 18 82 19 78 20 80 21 83 22
REMARK SMILES IDX 79 23 81 24 98 25 84 26 85 27 97 28 99 29 86 30 96 31 87 32
REMARK SMILES IDX 88 33 95 34 89 35 92 36 90 37 93 38 94 39 91 40 17 42 18 43
REMARK SMILES IDX 19 44 20 45 21 46 22 47 23 48 24 49 25 50 77 51 26 52 76 53
REMARK SMILES IDX 27 54 28 55 29 56 70 57 30 58 75 59 69 60 71 61 31 62 74 63
REMARK SMILES IDX 68 64 67 65 32 67 58 68 41 69 57 70 42 71 45 72 56 73 72 74
REMARK SMILES IDX 43 75 44 76 55 78 73 79 46 80 33 81 34 82 39 83 35 84 36 85
REMARK SMILES IDX 38 86 40 87 37 88 59 89 60 90 65 91 61 92 62 93 64 94 66 95
REMARK SMILES IDX 63 96 47 97 48 98 53 99 49 100 50 101 52 102 54 103 51 104
REMARK H PARENT 91 41 71 66 45 77
REMARK Flexibility Score: inf
ROOT
ATOM      1  C   UNL A   1      34.130  24.948  25.910  1.00  0.00     0.188 C 
ENDROOT
BRANCH   1   2
ATOM      2  O   UNL A   1      33.233  25.935  25.442  1.00  0.00    -0.377 OA
BRANCH   2   3
ATOM      3  C   UNL A   1      33.645  27.289  25.254  1.00  0.00     0.188 C 
BRANCH   3   4
ATOM      4  C   UNL A   1      33.891  27.967  26.618  1.00  0.00     0.188 C 
BRANCH   4   5
ATOM      5  O   UNL A   1      34.879  28.974  26.564  1.00  0.00    -0.376 OA
BRANCH   5   6
ATOM      6  C   UNL A   1      35.583  29.236  27.770  1.00  0.00     0.202 C 
BRANCH   6   7
ATOM      7  C   UNL A   1      36.961  29.728  27.565  1.00  0.00     0.261 C 
BRANCH   7   8
ATOM      8  O   UNL A   1      37.797  28.745  28.130  1.00  0.00    -0.463 OA
BRANCH   8   9
ATOM      9  C   UNL A   1      39.064  29.087  28.445  1.00  0.00     0.312 C 
ATOM     10  O   UNL A   1      39.419  30.256  28.545  1.00  0.00    -0.252 OA
BRANCH   9  11
ATOM     11  C   UNL A   1      39.806  27.938  29.081  1.00  0.00     0.075 C 
ATOM     12  C   UNL A   1      43.308  27.608  26.453  1.00  0.00     0.011 C 
ATOM     13  C   UNL A   1      42.214  28.459  27.162  1.00  0.00    -0.035 C 
ATOM     14  C   UNL A   1      42.532  29.874  26.544  1.00  0.00     0.011 C 
ATOM     15  C   UNL A   1      40.875  27.835  26.668  1.00  0.00     0.007 C 
ATOM     16  C   UNL A   1      42.371  28.438  28.787  1.00  0.00     0.015 C 
ATOM     17  C   UNL A   1      40.072  27.086  27.787  1.00  0.00     0.020 C 
ATOM     18  C   UNL A   1      41.109  28.266  29.849  1.00  0.00     0.033 C 
ATOM     19  C   UNL A   1      40.749  29.268  31.113  1.00  0.00    -0.063 C 
ATOM     20  C   UNL A   1      38.829  27.326  30.137  1.00  0.00     0.020 C 
ATOM     21  C   UNL A   1      39.517  28.992  32.128  1.00  0.00    -0.006 C 
ATOM     22  C   UNL A   1      41.388  30.440  31.265  1.00  0.00    -0.027 C 
ATOM     23  C   UNL A   1      38.384  28.328  31.289  1.00  0.00     0.013 C 
ATOM     24  C   UNL A   1      39.985  27.876  33.111  1.00  0.00     0.017 C 
ATOM     25  C   UNL A   1      39.100  30.405  33.142  1.00  0.00    -0.020 C 
ATOM     26  C   UNL A   1      40.715  31.702  31.781  1.00  0.00     0.032 C 
ATOM     27  C   UNL A   1      39.180  31.672  32.264  1.00  0.00     0.006 C 
ATOM     28  C   UNL A   1      37.789  30.641  34.011  1.00  0.00     0.008 C 
ATOM     29  C   UNL A   1      40.205  30.477  34.284  1.00  0.00     0.012 C 
ATOM     30  C   UNL A   1      37.601  32.213  31.628  1.00  0.00    -0.025 C 
ATOM     31  C   UNL A   1      37.318  32.202  34.155  1.00  0.00     0.005 C 
ATOM     32  C   UNL A   1      37.817  33.470  30.818  1.00  0.00     0.012 C 
ATOM     33  C   UNL A   1      36.590  31.341  30.808  1.00  0.00     0.010 C 
ATOM     34  C   UNL A   1      36.615  32.542  32.848  1.00  0.00     0.003 C 
ATOM     35  C   UNL A   1      35.404  32.200  30.264  1.00  0.00     0.033 C 
ATOM     36  C   UNL A   1      35.432  33.601  32.610  1.00  0.00    -0.006 C 
ATOM     37  C   UNL A   1      34.727  33.234  31.213  1.00  0.00     0.120 C 
ATOM     38  C   UNL A   1      35.704  35.128  32.783  1.00  0.00     0.014 C 
ATOM     39  C   UNL A   1      34.344  33.376  33.699  1.00  0.00     0.014 C 
BRANCH  37  40
ATOM     40  O   UNL A   1      34.431  34.413  30.447  1.00  0.00    -0.393 OA
ATOM     41  H   UNL A   1      33.730  34.918  30.888  1.00  0.00     0.210 HD
ENDBRANCH  37  40
ENDBRANCH   9  11
ENDBRANCH   8   9
ENDBRANCH   7   8
ENDBRANCH   6   7
ENDBRANCH   5   6
ENDBRANCH   4   5
ENDBRANCH   3   4
ENDBRANCH   2   3
ENDBRANCH   1   2
BRANCH   1  42
ATOM     42  C   UNL A   1      34.637  23.973  24.827  1.00  0.00     0.188 C 
BRANCH  42  43
ATOM     43  O   UNL A   1      35.633  23.215  25.465  1.00  0.00    -0.376 OA
BRANCH  43  44
ATOM     44  C   UNL A   1      36.749  23.776  26.139  1.00  0.00     0.202 C 
BRANCH  44  45
ATOM     45  C   UNL A   1      37.765  22.611  26.081  1.00  0.00     0.261 C 
BRANCH  45  46
ATOM     46  O   UNL A   1      39.125  23.102  26.057  1.00  0.00    -0.460 OA
BRANCH  46  47
ATOM     47  C   UNL A   1      39.974  22.233  26.664  1.00  0.00     0.338 C 
ATOM     48  O   UNL A   1      39.765  21.059  26.851  1.00  0.00    -0.246 OA
BRANCH  47  49
ATOM     49  C   UNL A   1      41.324  22.848  26.665  1.00  0.00     0.060 A 
ATOM     50  C   UNL A   1      42.399  21.992  26.986  1.00  0.00     0.016 A 
ATOM     51  C   UNL A   1      41.545  24.149  26.192  1.00  0.00     0.016 A 
ATOM     52  C   UNL A   1      43.699  22.438  26.859  1.00  0.00     0.010 A 
ATOM     53  C   UNL A   1      42.847  24.637  26.163  1.00  0.00     0.010 A 
ATOM     54  C   UNL A   1      43.895  23.793  26.573  1.00  0.00    -0.014 A 
BRANCH  54  55
ATOM     55  C   UNL A   1      45.003  24.392  27.319  1.00  0.00     0.031 A 
ATOM     56  C   UNL A   1      44.755  24.494  28.802  1.00  0.00     0.074 A 
ATOM     57  C   UNL A   1      46.158  24.698  26.719  1.00  0.00     0.049 A 
ATOM     58  N   UNL A   1      45.544  24.884  29.759  1.00  0.00    -0.248 NA
ATOM     59  C   UNL A   1      43.430  24.053  29.285  1.00  0.00     0.031 C 
ATOM     60  C   UNL A   1      46.459  24.532  25.297  1.00  0.00     0.029 A 
ATOM     61  N   UNL A   1      47.297  25.220  27.252  1.00  0.00    -0.354 N 
ATOM     62  C   UNL A   1      44.810  24.713  30.929  1.00  0.00     0.074 A 
ATOM     63  C   UNL A   1      43.523  24.188  30.588  1.00  0.00     0.031 C 
ATOM     64  C   UNL A   1      47.703  24.984  25.064  1.00  0.00     0.029 A 
ATOM     65  C   UNL A   1      48.259  25.490  26.315  1.00  0.00     0.049 A 
ATOM     66  H   UNL A   1      47.417  25.386  28.215  1.00  0.00     0.167 HD
ATOM     67  C   UNL A   1      45.174  25.001  32.193  1.00  0.00     0.037 A 
ATOM     68  C   UNL A   1      49.436  26.116  26.485  1.00  0.00     0.037 A 
ATOM     69  C   UNL A   1      46.430  25.620  32.473  1.00  0.00     0.049 A 
ATOM     70  C   UNL A   1      49.792  26.534  27.887  1.00  0.00     0.074 A 
ATOM     71  C   UNL A   1      46.939  26.046  33.678  1.00  0.00     0.029 A 
ATOM     72  N   UNL A   1      47.365  25.929  31.489  1.00  0.00    -0.354 N 
ATOM     73  N   UNL A   1      49.099  26.378  28.995  1.00  0.00    -0.248 NA
ATOM     74  C   UNL A   1      51.079  27.205  28.069  1.00  0.00     0.031 C 
ATOM     75  C   UNL A   1      48.162  26.669  33.413  1.00  0.00     0.029 A 
ATOM     76  C   UNL A   1      48.443  26.570  32.054  1.00  0.00     0.049 A 
ATOM     77  H   UNL A   1      47.269  25.721  30.532  1.00  0.00     0.167 HD
ATOM     78  C   UNL A   1      49.871  26.918  30.013  1.00  0.00     0.074 A 
ATOM     79  C   UNL A   1      51.093  27.391  29.383  1.00  0.00     0.031 C 
ATOM     80  C   UNL A   1      49.616  27.021  31.344  1.00  0.00     0.037 A 
BRANCH  67  81
ATOM     81  C   UNL A   1      44.153  24.756  33.265  1.00  0.00     0.057 A 
ATOM     82  C   UNL A   1      43.335  25.779  33.769  1.00  0.00     0.134 A 
ATOM     83  C   UNL A   1      44.068  23.504  33.885  1.00  0.00     0.134 A 
ATOM     84  F   UNL A   1      43.412  27.022  33.266  1.00  0.00    -0.206 F 
ATOM     85  C   UNL A   1      42.490  25.571  34.863  1.00  0.00     0.040 A 
ATOM     86  C   UNL A   1      43.206  23.275  34.959  1.00  0.00     0.040 A 
ATOM     87  F   UNL A   1      44.852  22.491  33.484  1.00  0.00    -0.206 F 
ATOM     88  C   UNL A   1      42.419  24.313  35.457  1.00  0.00     0.006 A 
ENDBRANCH  67  81
BRANCH  68  89
ATOM     89  C   UNL A   1      50.295  26.391  25.309  1.00  0.00     0.057 A 
ATOM     90  C   UNL A   1      49.945  27.345  24.347  1.00  0.00     0.134 A 
ATOM     91  C   UNL A   1      51.536  25.754  25.156  1.00  0.00     0.134 A 
ATOM     92  F   UNL A   1      48.770  27.985  24.430  1.00  0.00    -0.206 F 
ATOM     93  C   UNL A   1      50.794  27.657  23.282  1.00  0.00     0.040 A 
ATOM     94  C   UNL A   1      52.404  26.072  24.110  1.00  0.00     0.040 A 
ATOM     95  F   UNL A   1      51.940  24.838  26.048  1.00  0.00    -0.206 F 
ATOM     96  C   UNL A   1      52.033  27.027  23.168  1.00  0.00     0.006 A 
ENDBRANCH  68  89
BRANCH  80  97
ATOM     97  C   UNL A   1      50.686  27.645  32.180  1.00  0.00     0.057 A 
ATOM     98  C   UNL A   1      51.734  26.890  32.714  1.00  0.00     0.134 A 
ATOM     99  C   UNL A   1      50.696  29.030  32.386  1.00  0.00     0.134 A 
ATOM    100  F   UNL A   1      51.770  25.560  32.547  1.00  0.00    -0.206 F 
ATOM    101  C   UNL A   1      52.749  27.492  33.455  1.00  0.00     0.040 A 
ATOM    102  C   UNL A   1      51.723  29.646  33.095  1.00  0.00     0.040 A 
ATOM    103  F   UNL A   1      49.726  29.804  31.875  1.00  0.00    -0.206 F 
ATOM    104  C   UNL A   1      52.747  28.874  33.639  1.00  0.00     0.006 A 
ENDBRANCH  80  97
ENDBRANCH  54  55
ENDBRANCH  47  49
ENDBRANCH  46  47
ENDBRANCH  45  46
ENDBRANCH  44  45
ENDBRANCH  43  44
ENDBRANCH  42  43
ENDBRANCH   1  42
TORSDOF 21
ENDMDL
MODEL 3
REMARK VINA RESULT:      -8.8      1.503      5.944
REMARK SMILES CC1(C)CC[C@@]2(C(=O)OCCOCCOCCOCCOC(=O)c3ccc(-c4c5nc(c(-c6c(F)cccc6F)c6ccc([nH]6)c(-c6c(F)cccc6F)c6nc(c(-c7c(F)cccc7F)c7ccc4[nH]7)C=C6)C=C5)cc3)CC[C@@]3(C)C(=CC[C@H]4[C@@]5(C)CC[C@H](O)C(C)(C)[C@@H]5CC[C@]43C)[C@@H]2C1
REMARK SMILES IDX 16 1 15 2 14 3 13 4 12 5 11 6 10 7 9 8 7 9 8 10 6 11 1 12
REMARK SMILES IDX 2 13 3 14 4 15 101 16 5 17 100 18 82 19 78 20 80 21 83 22
REMARK SMILES IDX 79 23 81 24 98 25 84 26 85 27 97 28 99 29 86 30 96 31 87 32
REMARK SMILES IDX 88 33 95 34 89 35 92 36 90 37 93 38 94 39 91 40 17 42 18 43
REMARK SMILES IDX 19 44 20 45 21 46 22 47 23 48 24 49 25 50 77 51 26 52 76 53
REMARK SMILES IDX 27 54 28 55 29 56 70 57 30 58 75 59 69 60 71 61 31 62 74 63
REMARK SMILES IDX 68 64 67 65 32 67 58 68 41 69 57 70 42 71 45 72 56 73 72 74
REMARK SMILES IDX 43 75 44 76 55 78 73 79 46 80 33 81 34 82 39 83 35 84 36 85
REMARK SMILES IDX 38 86 40 87 37 88 59 89 60 90 65 91 61 92 62 93 64 94 66 95
REMARK SMILES IDX 63 96 47 97 48 98 53 99 49 100 50 101 52 102 54 103 51 104
REMARK H PARENT 91 41 71 66 45 77
REMARK Flexibility Score: inf
ROOT
ATOM      1  C   UNL A   1      34.134  25.762  25.410  1.00  0.00     0.188 C 
ENDROOT
BRANCH   1   2
ATOM      2  O   UNL A   1      32.952  26.468  25.089  1.00  0.00    -0.377 OA
BRANCH   2   3
ATOM      3  C   UNL A   1      32.946  27.889  24.953  1.00  0.00     0.188 C 
BRANCH   3   4
ATOM      4  C   UNL A   1      32.525  28.552  26.281  1.00  0.00     0.188 C 
BRANCH   4   5
ATOM      5  O   UNL A   1      33.513  29.413  26.806  1.00  0.00    -0.376 OA
BRANCH   5   6
ATOM      6  C   UNL A   1      34.724  28.804  27.231  1.00  0.00     0.202 C 
BRANCH   6   7
ATOM      7  C   UNL A   1      35.782  29.768  27.602  1.00  0.00     0.261 C 
BRANCH   7   8
ATOM      8  O   UNL A   1      36.632  29.069  28.480  1.00  0.00    -0.463 OA
BRANCH   8   9
ATOM      9  C   UNL A   1      37.832  29.612  28.776  1.00  0.00     0.312 C 
ATOM     10  O   UNL A   1      38.135  30.751  28.437  1.00  0.00    -0.252 OA
BRANCH   9  11
ATOM     11  C   UNL A   1      38.512  28.874  29.902  1.00  0.00     0.075 C 
ATOM     12  C   UNL A   1      42.305  27.721  28.018  1.00  0.00     0.011 C 
ATOM     13  C   UNL A   1      41.122  28.716  28.195  1.00  0.00    -0.035 C 
ATOM     14  C   UNL A   1      41.489  29.771  27.083  1.00  0.00     0.011 C 
ATOM     15  C   UNL A   1      39.861  27.860  27.871  1.00  0.00     0.007 C 
ATOM     16  C   UNL A   1      41.085  29.372  29.689  1.00  0.00     0.015 C 
ATOM     17  C   UNL A   1      38.943  27.585  29.111  1.00  0.00     0.020 C 
ATOM     18  C   UNL A   1      39.709  29.569  30.594  1.00  0.00     0.033 C 
ATOM     19  C   UNL A   1      39.185  30.976  31.285  1.00  0.00    -0.063 C 
ATOM     20  C   UNL A   1      37.427  28.687  31.012  1.00  0.00     0.020 C 
ATOM     21  C   UNL A   1      37.845  31.062  32.193  1.00  0.00    -0.006 C 
ATOM     22  C   UNL A   1      39.782  32.146  31.003  1.00  0.00    -0.027 C 
ATOM     23  C   UNL A   1      36.831  30.042  31.594  1.00  0.00     0.013 C 
ATOM     24  C   UNL A   1      38.211  30.479  33.592  1.00  0.00     0.017 C 
ATOM     25  C   UNL A   1      37.289  32.736  32.483  1.00  0.00    -0.020 C 
ATOM     26  C   UNL A   1      39.032  33.463  30.879  1.00  0.00     0.032 C 
ATOM     27  C   UNL A   1      37.452  33.535  31.172  1.00  0.00     0.006 C 
ATOM     28  C   UNL A   1      35.880  33.224  33.038  1.00  0.00     0.008 C 
ATOM     29  C   UNL A   1      38.249  33.340  33.598  1.00  0.00     0.012 C 
ATOM     30  C   UNL A   1      35.951  33.667  30.212  1.00  0.00    -0.025 C 
ATOM     31  C   UNL A   1      35.370  34.673  32.475  1.00  0.00     0.005 C 
ATOM     32  C   UNL A   1      36.242  34.493  28.981  1.00  0.00     0.012 C 
ATOM     33  C   UNL A   1      35.059  32.473  29.729  1.00  0.00     0.010 C 
ATOM     34  C   UNL A   1      34.822  34.403  31.080  1.00  0.00     0.003 C 
ATOM     35  C   UNL A   1      33.932  32.956  28.761  1.00  0.00     0.033 C 
ATOM     36  C   UNL A   1      33.659  35.193  30.306  1.00  0.00    -0.006 C 
ATOM     37  C   UNL A   1      33.131  34.243  29.123  1.00  0.00     0.120 C 
ATOM     38  C   UNL A   1      33.883  36.671  29.858  1.00  0.00     0.014 C 
ATOM     39  C   UNL A   1      32.452  35.365  31.274  1.00  0.00     0.014 C 
BRANCH  37  40
ATOM     40  O   UNL A   1      32.909  34.984  27.912  1.00  0.00    -0.393 OA
ATOM     41  H   UNL A   1      32.378  34.451  27.299  1.00  0.00     0.210 HD
ENDBRANCH  37  40
ENDBRANCH   9  11
ENDBRANCH   8   9
ENDBRANCH   7   8
ENDBRANCH   6   7
ENDBRANCH   5   6
ENDBRANCH   4   5
ENDBRANCH   3   4
ENDBRANCH   2   3
ENDBRANCH   1   2
BRANCH   1  42
ATOM     42  C   UNL A   1      34.369  24.487  24.574  1.00  0.00     0.188 C 
BRANCH  42  43
ATOM     43  O   UNL A   1      35.734  24.196  24.740  1.00  0.00    -0.376 OA
BRANCH  43  44
ATOM     44  C   UNL A   1      36.288  23.629  25.916  1.00  0.00     0.202 C 
BRANCH  44  45
ATOM     45  C   UNL A   1      37.688  23.195  25.422  1.00  0.00     0.261 C 
BRANCH  45  46
ATOM     46  O   UNL A   1      38.683  23.350  26.461  1.00  0.00    -0.460 OA
BRANCH  46  47
ATOM     47  C   UNL A   1      39.615  22.363  26.403  1.00  0.00     0.338 C 
ATOM     48  O   UNL A   1      39.691  21.516  25.547  1.00  0.00    -0.246 OA
BRANCH  47  49
ATOM     49  C   UNL A   1      40.737  22.752  27.293  1.00  0.00     0.060 A 
ATOM     50  C   UNL A   1      40.660  24.040  27.865  1.00  0.00     0.016 A 
ATOM     51  C   UNL A   1      41.717  21.834  27.693  1.00  0.00     0.016 A 
ATOM     52  C   UNL A   1      41.573  24.424  28.825  1.00  0.00     0.010 A 
ATOM     53  C   UNL A   1      42.702  22.254  28.580  1.00  0.00     0.010 A 
ATOM     54  C   UNL A   1      42.654  23.571  29.071  1.00  0.00    -0.014 A 
BRANCH  54  55
ATOM     55  C   UNL A   1      43.923  24.276  29.259  1.00  0.00     0.031 A 
ATOM     56  C   UNL A   1      44.388  24.324  30.692  1.00  0.00     0.074 A 
ATOM     57  C   UNL A   1      44.632  24.719  28.217  1.00  0.00     0.049 A 
ATOM     58  N   UNL A   1      45.493  24.783  31.200  1.00  0.00    -0.248 NA
ATOM     59  C   UNL A   1      43.486  23.731  31.702  1.00  0.00     0.031 C 
ATOM     60  C   UNL A   1      44.249  24.613  26.809  1.00  0.00     0.029 A 
ATOM     61  N   UNL A   1      45.836  25.356  28.196  1.00  0.00    -0.354 N 
ATOM     62  C   UNL A   1      45.407  24.511  32.563  1.00  0.00     0.074 A 
ATOM     63  C   UNL A   1      44.163  23.852  32.820  1.00  0.00     0.031 C 
ATOM     64  C   UNL A   1      45.195  25.204  26.058  1.00  0.00     0.029 A 
ATOM     65  C   UNL A   1      46.222  25.747  26.942  1.00  0.00     0.049 A 
ATOM     66  H   UNL A   1      46.376  25.517  29.004  1.00  0.00     0.167 HD
ATOM     67  C   UNL A   1      46.291  24.816  33.532  1.00  0.00     0.037 A 
ATOM     68  C   UNL A   1      47.280  26.497  26.590  1.00  0.00     0.037 A 
ATOM     69  C   UNL A   1      47.471  25.565  33.241  1.00  0.00     0.049 A 
ATOM     70  C   UNL A   1      48.209  26.928  27.694  1.00  0.00     0.074 A 
ATOM     71  C   UNL A   1      48.442  26.025  34.101  1.00  0.00     0.029 A 
ATOM     72  N   UNL A   1      47.807  25.994  31.960  1.00  0.00    -0.354 N 
ATOM     73  N   UNL A   1      48.130  26.676  28.984  1.00  0.00    -0.248 NA
ATOM     74  C   UNL A   1      49.366  27.734  27.306  1.00  0.00     0.031 C 
ATOM     75  C   UNL A   1      49.339  26.785  33.343  1.00  0.00     0.029 A 
ATOM     76  C   UNL A   1      48.962  26.740  32.005  1.00  0.00     0.049 A 
ATOM     77  H   UNL A   1      47.295  25.793  31.144  1.00  0.00     0.167 HD
ATOM     78  C   UNL A   1      49.235  27.280  29.564  1.00  0.00     0.074 A 
ATOM     79  C   UNL A   1      49.974  27.897  28.474  1.00  0.00     0.031 C 
ATOM     80  C   UNL A   1      49.622  27.331  30.866  1.00  0.00     0.037 A 
BRANCH  67  81
ATOM     81  C   UNL A   1      45.915  24.440  34.935  1.00  0.00     0.057 A 
ATOM     82  C   UNL A   1      45.194  25.305  35.775  1.00  0.00     0.134 A 
ATOM     83  C   UNL A   1      46.381  23.245  35.494  1.00  0.00     0.134 A 
ATOM     84  F   UNL A   1      44.774  26.497  35.324  1.00  0.00    -0.206 F 
ATOM     85  C   UNL A   1      44.973  25.003  37.122  1.00  0.00     0.040 A 
ATOM     86  C   UNL A   1      46.141  22.918  36.830  1.00  0.00     0.040 A 
ATOM     87  F   UNL A   1      47.114  22.391  34.763  1.00  0.00    -0.206 F 
ATOM     88  C   UNL A   1      45.442  23.802  37.651  1.00  0.00     0.006 A 
ENDBRANCH  67  81
BRANCH  68  89
ATOM     89  C   UNL A   1      47.463  26.886  25.172  1.00  0.00     0.057 A 
ATOM     90  C   UNL A   1      46.699  27.897  24.581  1.00  0.00     0.134 A 
ATOM     91  C   UNL A   1      48.468  26.301  24.387  1.00  0.00     0.134 A 
ATOM     92  F   UNL A   1      45.717  28.493  25.274  1.00  0.00    -0.206 F 
ATOM     93  C   UNL A   1      46.926  28.315  23.267  1.00  0.00     0.040 A 
ATOM     94  C   UNL A   1      48.722  26.724  23.081  1.00  0.00     0.040 A 
ATOM     95  F   UNL A   1      49.246  25.334  24.894  1.00  0.00    -0.206 F 
ATOM     96  C   UNL A   1      47.949  27.734  22.517  1.00  0.00     0.006 A 
ENDBRANCH  68  89
BRANCH  80  97
ATOM     97  C   UNL A   1      50.897  28.056  31.153  1.00  0.00     0.057 A 
ATOM     98  C   UNL A   1      52.130  27.397  31.163  1.00  0.00     0.134 A 
ATOM     99  C   UNL A   1      50.886  29.442  31.350  1.00  0.00     0.134 A 
ATOM    100  F   UNL A   1      52.194  26.069  30.983  1.00  0.00    -0.206 F 
ATOM    101  C   UNL A   1      53.315  28.093  31.389  1.00  0.00     0.040 A 
ATOM    102  C   UNL A   1      52.068  30.153  31.542  1.00  0.00     0.040 A 
ATOM    103  F   UNL A   1      49.732  30.127  31.327  1.00  0.00    -0.206 F 
ATOM    104  C   UNL A   1      53.285  29.475  31.571  1.00  0.00     0.006 A 
ENDBRANCH  80  97
ENDBRANCH  54  55
ENDBRANCH  47  49
ENDBRANCH  46  47
ENDBRANCH  45  46
ENDBRANCH  44  45
ENDBRANCH  43  44
ENDBRANCH  42  43
ENDBRANCH   1  42
TORSDOF 21
ENDMDL
