MODEL 1
REMARK VINA RESULT:      -8.5      0.000      0.000
REMARK SMILES O=C(OCCOCCOCCOCCOC(=O)c1ccc(-c2c3nc(c(-c4c(F)cccc4F)c4ccc([nH]4)c(-c4c(F)cccc4F)c4nc(c(-c5c(F)cccc5F)c5ccc2[nH]5)C=C4)C=C3)cc1)c1ccc(NS(=O)(=O)C2=Cc3ccccc3CC2)cc1
REMARK SMILES IDX 8 1 7 2 6 3 5 4 4 5 3 6 2 7 1 8 72 9 73 10 91 11 74 12 90 13
REMARK SMILES IDX 75 14 76 15 77 17 78 18 79 19 80 20 81 21 89 22 82 23 88 24
REMARK SMILES IDX 83 25 87 26 84 27 86 28 85 29 9 30 10 31 11 32 12 33 13 34
REMARK SMILES IDX 14 35 15 36 16 37 17 38 18 39 19 40 71 41 20 42 70 43 21 44
REMARK SMILES IDX 22 45 23 46 64 47 24 48 69 49 63 50 65 51 25 52 68 53 62 54
REMARK SMILES IDX 61 55 26 57 52 58 35 59 51 60 36 61 39 62 50 63 66 64 37 65
REMARK SMILES IDX 38 66 49 68 67 69 40 70 27 71 28 72 33 73 29 74 30 75 32 76
REMARK SMILES IDX 34 77 31 78 53 79 54 80 59 81 55 82 56 83 58 84 60 85 57 86
REMARK SMILES IDX 41 87 42 88 47 89 43 90 44 91 46 92 48 93 45 94
REMARK H PARENT 76 16 65 56 39 67
REMARK Flexibility Score: inf
ROOT
ATOM      1  C   UNL A   1      33.745  34.548  28.380  1.00  0.00     0.188 C 
ENDROOT
BRANCH   1   2
ATOM      2  C   UNL A   1      35.060  34.423  29.157  1.00  0.00     0.188 C 
BRANCH   2   3
ATOM      3  O   UNL A   1      35.228  33.117  29.717  1.00  0.00    -0.376 OA
BRANCH   3   4
ATOM      4  C   UNL A   1      34.652  32.051  28.979  1.00  0.00     0.202 C 
BRANCH   4   5
ATOM      5  C   UNL A   1      35.557  31.292  28.011  1.00  0.00     0.261 C 
BRANCH   5   6
ATOM      6  O   UNL A   1      35.882  29.925  28.316  1.00  0.00    -0.460 OA
BRANCH   6   7
ATOM      7  C   UNL A   1      36.793  29.370  29.144  1.00  0.00     0.338 C 
ATOM      8  O   UNL A   1      36.551  29.341  30.350  1.00  0.00    -0.246 OA
BRANCH   7   9
ATOM      9  C   UNL A   1      38.124  28.883  28.689  1.00  0.00     0.060 A 
ATOM     10  C   UNL A   1      38.922  27.983  29.382  1.00  0.00     0.018 A 
ATOM     11  C   UNL A   1      38.608  29.385  27.468  1.00  0.00     0.018 A 
ATOM     12  C   UNL A   1      40.064  27.449  28.777  1.00  0.00     0.027 A 
ATOM     13  C   UNL A   1      39.753  28.847  26.871  1.00  0.00     0.027 A 
ATOM     14  C   UNL A   1      40.440  27.806  27.489  1.00  0.00     0.049 A 
BRANCH  14  15
ATOM     15  N   UNL A   1      41.352  27.059  26.690  1.00  0.00    -0.280 N 
ATOM     16  H   UNL A   1      41.331  26.078  26.774  1.00  0.00     0.180 HD
BRANCH  15  17
ATOM     17  S   UNL A   1      42.462  27.721  25.612  1.00  0.00     0.258 S 
ATOM     18  O   UNL A   1      42.663  26.654  24.649  1.00  0.00    -0.202 OA
ATOM     19  O   UNL A   1      41.896  28.980  25.170  1.00  0.00    -0.202 OA
BRANCH  17  20
ATOM     20  C   UNL A   1      43.984  28.024  26.511  1.00  0.00     0.066 C 
ATOM     21  C   UNL A   1      44.001  27.572  27.790  1.00  0.00     0.026 C 
ATOM     22  C   UNL A   1      45.262  27.666  25.767  1.00  0.00     0.055 C 
ATOM     23  C   UNL A   1      44.280  26.105  27.896  1.00  0.00    -0.021 A 
ATOM     24  C   UNL A   1      45.366  26.146  25.594  1.00  0.00     0.041 C 
ATOM     25  C   UNL A   1      43.946  25.414  29.061  1.00  0.00     0.008 A 
ATOM     26  C   UNL A   1      44.868  25.407  26.815  1.00  0.00    -0.040 A 
ATOM     27  C   UNL A   1      44.104  24.027  29.117  1.00  0.00     0.001 A 
ATOM     28  C   UNL A   1      44.970  24.014  26.861  1.00  0.00     0.004 A 
ATOM     29  C   UNL A   1      44.580  23.327  28.008  1.00  0.00     0.000 A 
ENDBRANCH  17  20
ENDBRANCH  15  17
ENDBRANCH  14  15
ENDBRANCH   7   9
ENDBRANCH   6   7
ENDBRANCH   5   6
ENDBRANCH   4   5
ENDBRANCH   3   4
ENDBRANCH   2   3
ENDBRANCH   1   2
BRANCH   1  30
ATOM     30  O   UNL A   1      32.648  35.125  29.091  1.00  0.00    -0.377 OA
BRANCH  30  31
ATOM     31  C   UNL A   1      32.956  36.095  30.083  1.00  0.00     0.188 C 
BRANCH  31  32
ATOM     32  C   UNL A   1      32.533  35.820  31.539  1.00  0.00     0.188 C 
BRANCH  32  33
ATOM     33  O   UNL A   1      33.065  34.625  32.087  1.00  0.00    -0.376 OA
BRANCH  33  34
ATOM     34  C   UNL A   1      34.309  34.746  32.771  1.00  0.00     0.202 C 
BRANCH  34  35
ATOM     35  C   UNL A   1      34.856  33.480  33.453  1.00  0.00     0.261 C 
BRANCH  35  36
ATOM     36  O   UNL A   1      36.132  33.022  32.981  1.00  0.00    -0.460 OA
BRANCH  36  37
ATOM     37  C   UNL A   1      37.236  33.442  33.637  1.00  0.00     0.338 C 
ATOM     38  O   UNL A   1      37.291  34.301  34.500  1.00  0.00    -0.246 OA
BRANCH  37  39
ATOM     39  C   UNL A   1      38.339  32.511  33.302  1.00  0.00     0.060 A 
ATOM     40  C   UNL A   1      39.536  32.616  34.025  1.00  0.00     0.016 A 
ATOM     41  C   UNL A   1      38.183  31.496  32.349  1.00  0.00     0.016 A 
ATOM     42  C   UNL A   1      40.591  31.740  33.766  1.00  0.00     0.010 A 
ATOM     43  C   UNL A   1      39.248  30.628  32.078  1.00  0.00     0.010 A 
ATOM     44  C   UNL A   1      40.470  30.775  32.756  1.00  0.00    -0.014 A 
BRANCH  44  45
ATOM     45  C   UNL A   1      41.703  30.140  32.226  1.00  0.00     0.031 A 
ATOM     46  C   UNL A   1      42.402  30.836  31.088  1.00  0.00     0.074 A 
ATOM     47  C   UNL A   1      42.228  29.021  32.756  1.00  0.00     0.049 A 
ATOM     48  N   UNL A   1      43.518  30.530  30.479  1.00  0.00    -0.248 NA
ATOM     49  C   UNL A   1      41.749  32.053  30.573  1.00  0.00     0.031 C 
ATOM     50  C   UNL A   1      41.673  28.269  33.878  1.00  0.00     0.029 A 
ATOM     51  N   UNL A   1      43.365  28.329  32.414  1.00  0.00    -0.354 N 
ATOM     52  C   UNL A   1      43.700  31.515  29.516  1.00  0.00     0.074 A 
ATOM     53  C   UNL A   1      42.566  32.407  29.595  1.00  0.00     0.031 C 
ATOM     54  C   UNL A   1      42.474  27.217  34.135  1.00  0.00     0.029 A 
ATOM     55  C   UNL A   1      43.586  27.213  33.185  1.00  0.00     0.049 A 
ATOM     56  H   UNL A   1      43.965  28.607  31.685  1.00  0.00     0.167 HD
ATOM     57  C   UNL A   1      44.727  31.676  28.650  1.00  0.00     0.037 A 
ATOM     58  C   UNL A   1      44.573  26.297  33.121  1.00  0.00     0.037 A 
ATOM     59  C   UNL A   1      45.850  30.785  28.556  1.00  0.00     0.049 A 
ATOM     60  C   UNL A   1      45.664  26.451  32.090  1.00  0.00     0.074 A 
ATOM     61  C   UNL A   1      46.948  30.866  27.719  1.00  0.00     0.029 A 
ATOM     62  N   UNL A   1      46.010  29.640  29.320  1.00  0.00    -0.354 N 
ATOM     63  N   UNL A   1      45.853  27.410  31.216  1.00  0.00    -0.248 NA
ATOM     64  C   UNL A   1      46.686  25.393  32.045  1.00  0.00     0.031 C 
ATOM     65  C   UNL A   1      47.749  29.741  27.942  1.00  0.00     0.029 A 
ATOM     66  C   UNL A   1      47.176  28.988  28.955  1.00  0.00     0.049 A 
ATOM     67  H   UNL A   1      45.387  29.334  30.018  1.00  0.00     0.167 HD
ATOM     68  C   UNL A   1      47.028  27.091  30.545  1.00  0.00     0.074 A 
ATOM     69  C   UNL A   1      47.514  25.854  31.118  1.00  0.00     0.031 C 
ATOM     70  C   UNL A   1      47.652  27.764  29.546  1.00  0.00     0.037 A 
BRANCH  57  71
ATOM     71  C   UNL A   1      44.651  32.845  27.713  1.00  0.00     0.057 A 
ATOM     72  C   UNL A   1      45.118  34.115  28.073  1.00  0.00     0.134 A 
ATOM     73  C   UNL A   1      44.092  32.698  26.437  1.00  0.00     0.134 A 
ATOM     74  F   UNL A   1      45.642  34.327  29.291  1.00  0.00    -0.206 F 
ATOM     75  C   UNL A   1      45.007  35.205  27.208  1.00  0.00     0.040 A 
ATOM     76  C   UNL A   1      44.000  33.774  25.554  1.00  0.00     0.040 A 
ATOM     77  F   UNL A   1      43.623  31.509  26.032  1.00  0.00    -0.206 F 
ATOM     78  C   UNL A   1      44.452  35.034  25.942  1.00  0.00     0.006 A 
ENDBRANCH  57  71
BRANCH  58  79
ATOM     79  C   UNL A   1      44.592  25.145  34.060  1.00  0.00     0.057 A 
ATOM     80  C   UNL A   1      44.175  23.870  33.655  1.00  0.00     0.134 A 
ATOM     81  C   UNL A   1      44.982  25.298  35.396  1.00  0.00     0.134 A 
ATOM     82  F   UNL A   1      43.762  23.664  32.396  1.00  0.00    -0.206 F 
ATOM     83  C   UNL A   1      44.127  22.797  34.548  1.00  0.00     0.040 A 
ATOM     84  C   UNL A   1      44.963  24.229  36.292  1.00  0.00     0.040 A 
ATOM     85  F   UNL A   1      45.385  26.494  35.850  1.00  0.00    -0.206 F 
ATOM     86  C   UNL A   1      44.527  22.974  35.870  1.00  0.00     0.006 A 
ENDBRANCH  58  79
BRANCH  70  87
ATOM     87  C   UNL A   1      48.952  27.206  29.042  1.00  0.00     0.057 A 
ATOM     88  C   UNL A   1      49.006  26.255  28.017  1.00  0.00     0.134 A 
ATOM     89  C   UNL A   1      50.170  27.663  29.565  1.00  0.00     0.134 A 
ATOM     90  F   UNL A   1      47.877  25.770  27.479  1.00  0.00    -0.206 F 
ATOM     91  C   UNL A   1      50.223  25.758  27.547  1.00  0.00     0.040 A 
ATOM     92  C   UNL A   1      51.393  27.193  29.084  1.00  0.00     0.040 A 
ATOM     93  F   UNL A   1      50.191  28.583  30.541  1.00  0.00    -0.206 F 
ATOM     94  C   UNL A   1      51.422  26.233  28.077  1.00  0.00     0.006 A 
ENDBRANCH  70  87
ENDBRANCH  44  45
ENDBRANCH  37  39
ENDBRANCH  36  37
ENDBRANCH  35  36
ENDBRANCH  34  35
ENDBRANCH  33  34
ENDBRANCH  32  33
ENDBRANCH  31  32
ENDBRANCH  30  31
ENDBRANCH   1  30
TORSDOF 23
ENDMDL
MODEL 2
REMARK VINA RESULT:      -8.2      1.270      2.008
REMARK SMILES O=C(OCCOCCOCCOCCOC(=O)c1ccc(-c2c3nc(c(-c4c(F)cccc4F)c4ccc([nH]4)c(-c4c(F)cccc4F)c4nc(c(-c5c(F)cccc5F)c5ccc2[nH]5)C=C4)C=C3)cc1)c1ccc(NS(=O)(=O)C2=Cc3ccccc3CC2)cc1
REMARK SMILES IDX 8 1 7 2 6 3 5 4 4 5 3 6 2 7 1 8 72 9 73 10 91 11 74 12 90 13
REMARK SMILES IDX 75 14 76 15 77 17 78 18 79 19 80 20 81 21 89 22 82 23 88 24
REMARK SMILES IDX 83 25 87 26 84 27 86 28 85 29 9 30 10 31 11 32 12 33 13 34
REMARK SMILES IDX 14 35 15 36 16 37 17 38 18 39 19 40 71 41 20 42 70 43 21 44
REMARK SMILES IDX 22 45 23 46 64 47 24 48 69 49 63 50 65 51 25 52 68 53 62 54
REMARK SMILES IDX 61 55 26 57 52 58 35 59 51 60 36 61 39 62 50 63 66 64 37 65
REMARK SMILES IDX 38 66 49 68 67 69 40 70 27 71 28 72 33 73 29 74 30 75 32 76
REMARK SMILES IDX 34 77 31 78 53 79 54 80 59 81 55 82 56 83 58 84 60 85 57 86
REMARK SMILES IDX 41 87 42 88 47 89 43 90 44 91 46 92 48 93 45 94
REMARK H PARENT 76 16 65 56 39 67
REMARK Flexibility Score: inf
ROOT
ATOM      1  C   UNL A   1      34.187  33.902  28.951  1.00  0.00     0.188 C 
ENDROOT
BRANCH   1   2
ATOM      2  C   UNL A   1      35.234  33.524  30.004  1.00  0.00     0.188 C 
BRANCH   2   3
ATOM      3  O   UNL A   1      35.825  32.248  29.735  1.00  0.00    -0.376 OA
BRANCH   3   4
ATOM      4  C   UNL A   1      35.495  31.668  28.483  1.00  0.00     0.202 C 
BRANCH   4   5
ATOM      5  C   UNL A   1      36.569  30.836  27.785  1.00  0.00     0.261 C 
BRANCH   5   6
ATOM      6  O   UNL A   1      36.838  29.516  28.287  1.00  0.00    -0.460 OA
BRANCH   6   7
ATOM      7  C   UNL A   1      37.575  29.072  29.329  1.00  0.00     0.338 C 
ATOM      8  O   UNL A   1      37.029  28.947  30.424  1.00  0.00    -0.246 OA
BRANCH   7   9
ATOM      9  C   UNL A   1      39.040  28.825  29.249  1.00  0.00     0.060 A 
ATOM     10  C   UNL A   1      39.789  28.158  30.209  1.00  0.00     0.018 A 
ATOM     11  C   UNL A   1      39.713  29.314  28.116  1.00  0.00     0.018 A 
ATOM     12  C   UNL A   1      41.118  27.815  29.948  1.00  0.00     0.027 A 
ATOM     13  C   UNL A   1      41.045  28.968  27.862  1.00  0.00     0.027 A 
ATOM     14  C   UNL A   1      41.730  28.136  28.744  1.00  0.00     0.049 A 
BRANCH  14  15
ATOM     15  N   UNL A   1      42.925  27.524  28.269  1.00  0.00    -0.280 N 
ATOM     16  H   UNL A   1      43.761  28.037  28.350  1.00  0.00     0.180 HD
BRANCH  15  17
ATOM     17  S   UNL A   1      43.019  25.991  27.581  1.00  0.00     0.258 S 
ATOM     18  O   UNL A   1      44.355  25.551  27.937  1.00  0.00    -0.202 OA
ATOM     19  O   UNL A   1      41.873  25.254  28.075  1.00  0.00    -0.202 OA
BRANCH  17  20
ATOM     20  C   UNL A   1      42.895  26.182  25.801  1.00  0.00     0.066 C 
ATOM     21  C   UNL A   1      43.684  27.147  25.266  1.00  0.00     0.026 C 
ATOM     22  C   UNL A   1      42.960  24.888  25.002  1.00  0.00     0.055 C 
ATOM     23  C   UNL A   1      45.105  26.713  25.078  1.00  0.00    -0.021 A 
ATOM     24  C   UNL A   1      44.363  24.277  25.096  1.00  0.00     0.041 C 
ATOM     25  C   UNL A   1      46.110  27.667  24.925  1.00  0.00     0.008 A 
ATOM     26  C   UNL A   1      45.439  25.338  25.070  1.00  0.00    -0.040 A 
ATOM     27  C   UNL A   1      47.447  27.265  24.862  1.00  0.00     0.001 A 
ATOM     28  C   UNL A   1      46.782  24.951  25.061  1.00  0.00     0.004 A 
ATOM     29  C   UNL A   1      47.782  25.915  24.967  1.00  0.00     0.000 A 
ENDBRANCH  17  20
ENDBRANCH  15  17
ENDBRANCH  14  15
ENDBRANCH   7   9
ENDBRANCH   6   7
ENDBRANCH   5   6
ENDBRANCH   4   5
ENDBRANCH   3   4
ENDBRANCH   2   3
ENDBRANCH   1   2
BRANCH   1  30
ATOM     30  O   UNL A   1      33.047  34.620  29.430  1.00  0.00    -0.377 OA
BRANCH  30  31
ATOM     31  C   UNL A   1      33.291  35.754  30.249  1.00  0.00     0.188 C 
BRANCH  31  32
ATOM     32  C   UNL A   1      32.600  35.832  31.625  1.00  0.00     0.188 C 
BRANCH  32  33
ATOM     33  O   UNL A   1      33.042  34.858  32.556  1.00  0.00    -0.376 OA
BRANCH  33  34
ATOM     34  C   UNL A   1      34.343  35.052  33.100  1.00  0.00     0.202 C 
BRANCH  34  35
ATOM     35  C   UNL A   1      34.914  33.916  33.967  1.00  0.00     0.261 C 
BRANCH  35  36
ATOM     36  O   UNL A   1      36.114  33.300  33.473  1.00  0.00    -0.460 OA
BRANCH  36  37
ATOM     37  C   UNL A   1      37.293  33.888  33.769  1.00  0.00     0.338 C 
ATOM     38  O   UNL A   1      37.456  34.952  34.343  1.00  0.00    -0.246 OA
BRANCH  37  39
ATOM     39  C   UNL A   1      38.368  32.906  33.493  1.00  0.00     0.060 A 
ATOM     40  C   UNL A   1      39.620  33.111  34.088  1.00  0.00     0.016 A 
ATOM     41  C   UNL A   1      38.135  31.757  32.726  1.00  0.00     0.016 A 
ATOM     42  C   UNL A   1      40.653  32.195  33.882  1.00  0.00     0.010 A 
ATOM     43  C   UNL A   1      39.176  30.847  32.506  1.00  0.00     0.010 A 
ATOM     44  C   UNL A   1      40.451  31.086  33.048  1.00  0.00    -0.014 A 
BRANCH  44  45
ATOM     45  C   UNL A   1      41.636  30.363  32.522  1.00  0.00     0.031 A 
ATOM     46  C   UNL A   1      42.298  30.929  31.293  1.00  0.00     0.074 A 
ATOM     47  C   UNL A   1      42.155  29.282  33.130  1.00  0.00     0.049 A 
ATOM     48  N   UNL A   1      43.373  30.531  30.663  1.00  0.00    -0.248 NA
ATOM     49  C   UNL A   1      41.655  32.113  30.697  1.00  0.00     0.031 C 
ATOM     50  C   UNL A   1      41.635  28.655  34.342  1.00  0.00     0.029 A 
ATOM     51  N   UNL A   1      43.253  28.523  32.801  1.00  0.00    -0.354 N 
ATOM     52  C   UNL A   1      43.535  31.416  29.604  1.00  0.00     0.074 A 
ATOM     53  C   UNL A   1      42.432  32.348  29.653  1.00  0.00     0.031 C 
ATOM     54  C   UNL A   1      42.418  27.606  34.659  1.00  0.00     0.029 A 
ATOM     55  C   UNL A   1      43.480  27.477  33.662  1.00  0.00     0.049 A 
ATOM     56  H   UNL A   1      43.824  28.713  32.022  1.00  0.00     0.167 HD
ATOM     57  C   UNL A   1      44.521  31.462  28.679  1.00  0.00     0.037 A 
ATOM     58  C   UNL A   1      44.436  26.526  33.638  1.00  0.00     0.037 A 
ATOM     59  C   UNL A   1      45.612  30.529  28.617  1.00  0.00     0.049 A 
ATOM     60  C   UNL A   1      45.479  26.548  32.547  1.00  0.00     0.074 A 
ATOM     61  C   UNL A   1      46.668  30.496  27.725  1.00  0.00     0.029 A 
ATOM     62  N   UNL A   1      45.777  29.454  29.476  1.00  0.00    -0.354 N 
ATOM     63  N   UNL A   1      45.650  27.415  31.579  1.00  0.00    -0.248 NA
ATOM     64  C   UNL A   1      46.466  25.457  32.553  1.00  0.00     0.031 C 
ATOM     65  C   UNL A   1      47.447  29.370  28.014  1.00  0.00     0.029 A 
ATOM     66  C   UNL A   1      46.904  28.734  29.120  1.00  0.00     0.049 A 
ATOM     67  H   UNL A   1      45.182  29.236  30.229  1.00  0.00     0.167 HD
ATOM     68  C   UNL A   1      46.781  26.997  30.886  1.00  0.00     0.074 A 
ATOM     69  C   UNL A   1      47.260  25.803  31.549  1.00  0.00     0.031 C 
ATOM     70  C   UNL A   1      47.374  27.554  29.800  1.00  0.00     0.037 A 
BRANCH  57  71
ATOM     71  C   UNL A   1      44.432  32.541  27.642  1.00  0.00     0.057 A 
ATOM     72  C   UNL A   1      44.878  33.846  27.889  1.00  0.00     0.134 A 
ATOM     73  C   UNL A   1      43.882  32.272  26.382  1.00  0.00     0.134 A 
ATOM     74  F   UNL A   1      45.392  34.174  29.085  1.00  0.00    -0.206 F 
ATOM     75  C   UNL A   1      44.755  34.852  26.930  1.00  0.00     0.040 A 
ATOM     76  C   UNL A   1      43.778  33.264  25.406  1.00  0.00     0.040 A 
ATOM     77  F   UNL A   1      43.433  31.044  26.082  1.00  0.00    -0.206 F 
ATOM     78  C   UNL A   1      44.209  34.560  25.682  1.00  0.00     0.006 A 
ENDBRANCH  57  71
BRANCH  58  79
ATOM     79  C   UNL A   1      44.469  25.466  34.679  1.00  0.00     0.057 A 
ATOM     80  C   UNL A   1      45.047  25.698  35.934  1.00  0.00     0.134 A 
ATOM     81  C   UNL A   1      43.966  24.183  34.431  1.00  0.00     0.134 A 
ATOM     82  F   UNL A   1      45.572  26.898  36.223  1.00  0.00    -0.206 F 
ATOM     83  C   UNL A   1      45.141  24.689  36.894  1.00  0.00     0.040 A 
ATOM     84  C   UNL A   1      44.032  23.172  35.391  1.00  0.00     0.040 A 
ATOM     85  F   UNL A   1      43.406  23.893  33.248  1.00  0.00    -0.206 F 
ATOM     86  C   UNL A   1      44.628  23.422  36.626  1.00  0.00     0.006 A 
ENDBRANCH  58  79
BRANCH  70  87
ATOM     87  C   UNL A   1      48.631  26.909  29.290  1.00  0.00     0.057 A 
ATOM     88  C   UNL A   1      49.901  27.404  29.605  1.00  0.00     0.134 A 
ATOM     89  C   UNL A   1      48.565  25.748  28.508  1.00  0.00     0.134 A 
ATOM     90  F   UNL A   1      50.033  28.516  30.343  1.00  0.00    -0.206 F 
ATOM     91  C   UNL A   1      51.061  26.784  29.138  1.00  0.00     0.040 A 
ATOM     92  C   UNL A   1      49.718  25.104  28.058  1.00  0.00     0.040 A 
ATOM     93  F   UNL A   1      47.379  25.213  28.179  1.00  0.00    -0.206 F 
ATOM     94  C   UNL A   1      50.972  25.625  28.368  1.00  0.00     0.006 A 
ENDBRANCH  70  87
ENDBRANCH  44  45
ENDBRANCH  37  39
ENDBRANCH  36  37
ENDBRANCH  35  36
ENDBRANCH  34  35
ENDBRANCH  33  34
ENDBRANCH  32  33
ENDBRANCH  31  32
ENDBRANCH  30  31
ENDBRANCH   1  30
TORSDOF 23
ENDMDL
MODEL 3
REMARK VINA RESULT:      -7.2      1.880      6.318
REMARK SMILES O=C(OCCOCCOCCOCCOC(=O)c1ccc(-c2c3nc(c(-c4c(F)cccc4F)c4ccc([nH]4)c(-c4c(F)cccc4F)c4nc(c(-c5c(F)cccc5F)c5ccc2[nH]5)C=C4)C=C3)cc1)c1ccc(NS(=O)(=O)C2=Cc3ccccc3CC2)cc1
REMARK SMILES IDX 8 1 7 2 6 3 5 4 4 5 3 6 2 7 1 8 72 9 73 10 91 11 74 12 90 13
REMARK SMILES IDX 75 14 76 15 77 17 78 18 79 19 80 20 81 21 89 22 82 23 88 24
REMARK SMILES IDX 83 25 87 26 84 27 86 28 85 29 9 30 10 31 11 32 12 33 13 34
REMARK SMILES IDX 14 35 15 36 16 37 17 38 18 39 19 40 71 41 20 42 70 43 21 44
REMARK SMILES IDX 22 45 23 46 64 47 24 48 69 49 63 50 65 51 25 52 68 53 62 54
REMARK SMILES IDX 61 55 26 57 52 58 35 59 51 60 36 61 39 62 50 63 66 64 37 65
REMARK SMILES IDX 38 66 49 68 67 69 40 70 27 71 28 72 33 73 29 74 30 75 32 76
REMARK SMILES IDX 34 77 31 78 53 79 54 80 59 81 55 82 56 83 58 84 60 85 57 86
REMARK SMILES IDX 41 87 42 88 47 89 43 90 44 91 46 92 48 93 45 94
REMARK H PARENT 76 16 65 56 39 67
REMARK Flexibility Score: inf
ROOT
ATOM      1  C   UNL A   1      34.945  31.691  29.138  1.00  0.00     0.188 C 
ENDROOT
BRANCH   1   2
ATOM      2  C   UNL A   1      35.831  31.326  30.334  1.00  0.00     0.188 C 
BRANCH   2   3
ATOM      3  O   UNL A   1      37.086  30.775  29.921  1.00  0.00    -0.376 OA
BRANCH   3   4
ATOM      4  C   UNL A   1      37.350  30.821  28.528  1.00  0.00     0.202 C 
BRANCH   4   5
ATOM      5  C   UNL A   1      38.404  29.862  27.976  1.00  0.00     0.261 C 
BRANCH   5   6
ATOM      6  O   UNL A   1      38.264  28.461  28.265  1.00  0.00    -0.460 OA
BRANCH   6   7
ATOM      7  C   UNL A   1      39.001  27.607  29.008  1.00  0.00     0.338 C 
ATOM      8  O   UNL A   1      38.710  27.459  30.194  1.00  0.00    -0.246 OA
BRANCH   7   9
ATOM      9  C   UNL A   1      40.214  26.913  28.497  1.00  0.00     0.060 A 
ATOM     10  C   UNL A   1      41.375  27.546  28.073  1.00  0.00     0.018 A 
ATOM     11  C   UNL A   1      40.170  25.510  28.431  1.00  0.00     0.018 A 
ATOM     12  C   UNL A   1      42.519  26.795  27.791  1.00  0.00     0.027 A 
ATOM     13  C   UNL A   1      41.320  24.765  28.145  1.00  0.00     0.027 A 
ATOM     14  C   UNL A   1      42.530  25.411  27.909  1.00  0.00     0.049 A 
BRANCH  14  15
ATOM     15  N   UNL A   1      43.717  24.628  27.992  1.00  0.00    -0.280 N 
ATOM     16  H   UNL A   1      44.372  24.870  28.685  1.00  0.00     0.180 HD
BRANCH  15  17
ATOM     17  S   UNL A   1      44.085  23.322  26.997  1.00  0.00     0.258 S 
ATOM     18  O   UNL A   1      45.477  23.052  27.310  1.00  0.00    -0.202 OA
ATOM     19  O   UNL A   1      43.086  22.308  27.272  1.00  0.00    -0.202 OA
BRANCH  17  20
ATOM     20  C   UNL A   1      43.939  23.870  25.295  1.00  0.00     0.066 C 
ATOM     21  C   UNL A   1      43.924  25.215  25.120  1.00  0.00     0.026 C 
ATOM     22  C   UNL A   1      44.867  23.180  24.307  1.00  0.00     0.055 C 
ATOM     23  C   UNL A   1      45.288  25.832  25.157  1.00  0.00    -0.021 A 
ATOM     24  C   UNL A   1      46.323  23.579  24.579  1.00  0.00     0.041 C 
ATOM     25  C   UNL A   1      45.427  27.200  25.392  1.00  0.00     0.008 A 
ATOM     26  C   UNL A   1      46.441  25.034  24.970  1.00  0.00    -0.040 A 
ATOM     27  C   UNL A   1      46.702  27.754  25.537  1.00  0.00     0.001 A 
ATOM     28  C   UNL A   1      47.708  25.588  25.171  1.00  0.00     0.004 A 
ATOM     29  C   UNL A   1      47.835  26.944  25.464  1.00  0.00     0.000 A 
ENDBRANCH  17  20
ENDBRANCH  15  17
ENDBRANCH  14  15
ENDBRANCH   7   9
ENDBRANCH   6   7
ENDBRANCH   5   6
ENDBRANCH   4   5
ENDBRANCH   3   4
ENDBRANCH   2   3
ENDBRANCH   1   2
BRANCH   1  30
ATOM     30  O   UNL A   1      34.090  32.822  29.313  1.00  0.00    -0.377 OA
BRANCH  30  31
ATOM     31  C   UNL A   1      34.713  34.084  29.507  1.00  0.00     0.188 C 
BRANCH  31  32
ATOM     32  C   UNL A   1      33.960  35.162  30.312  1.00  0.00     0.188 C 
BRANCH  32  33
ATOM     33  O   UNL A   1      33.552  34.747  31.605  1.00  0.00    -0.376 OA
BRANCH  33  34
ATOM     34  C   UNL A   1      33.649  35.723  32.638  1.00  0.00     0.202 C 
BRANCH  34  35
ATOM     35  C   UNL A   1      34.496  35.355  33.868  1.00  0.00     0.261 C 
BRANCH  35  36
ATOM     36  O   UNL A   1      35.842  34.937  33.594  1.00  0.00    -0.460 OA
BRANCH  36  37
ATOM     37  C   UNL A   1      36.484  34.215  34.539  1.00  0.00     0.338 C 
ATOM     38  O   UNL A   1      36.021  33.816  35.594  1.00  0.00    -0.246 OA
BRANCH  37  39
ATOM     39  C   UNL A   1      37.780  33.780  33.969  1.00  0.00     0.060 A 
ATOM     40  C   UNL A   1      37.779  33.181  32.702  1.00  0.00     0.016 A 
ATOM     41  C   UNL A   1      38.993  34.025  34.628  1.00  0.00     0.016 A 
ATOM     42  C   UNL A   1      38.981  32.785  32.112  1.00  0.00     0.010 A 
ATOM     43  C   UNL A   1      40.196  33.612  34.043  1.00  0.00     0.010 A 
ATOM     44  C   UNL A   1      40.190  32.952  32.803  1.00  0.00    -0.014 A 
BRANCH  44  45
ATOM     45  C   UNL A   1      41.377  32.179  32.358  1.00  0.00     0.031 A 
ATOM     46  C   UNL A   1      41.718  30.934  33.134  1.00  0.00     0.074 A 
ATOM     47  C   UNL A   1      42.101  32.519  31.278  1.00  0.00     0.049 A 
ATOM     48  N   UNL A   1      42.661  30.051  32.928  1.00  0.00    -0.248 NA
ATOM     49  C   UNL A   1      40.868  30.644  34.303  1.00  0.00     0.031 C 
ATOM     50  C   UNL A   1      41.859  33.677  30.421  1.00  0.00     0.029 A 
ATOM     51  N   UNL A   1      43.194  31.905  30.715  1.00  0.00    -0.354 N 
ATOM     52  C   UNL A   1      42.514  29.105  33.935  1.00  0.00     0.074 A 
ATOM     53  C   UNL A   1      41.419  29.537  34.772  1.00  0.00     0.031 C 
ATOM     54  C   UNL A   1      42.777  33.688  29.436  1.00  0.00     0.029 A 
ATOM     55  C   UNL A   1      43.681  32.550  29.605  1.00  0.00     0.049 A 
ATOM     56  H   UNL A   1      43.591  31.079  31.075  1.00  0.00     0.167 HD
ATOM     57  C   UNL A   1      43.218  27.968  34.141  1.00  0.00     0.037 A 
ATOM     58  C   UNL A   1      44.739  32.253  28.823  1.00  0.00     0.037 A 
ATOM     59  C   UNL A   1      44.318  27.541  33.321  1.00  0.00     0.049 A 
ATOM     60  C   UNL A   1      45.561  31.023  29.121  1.00  0.00     0.074 A 
ATOM     61  C   UNL A   1      45.089  26.399  33.440  1.00  0.00     0.029 A 
ATOM     62  N   UNL A   1      44.811  28.249  32.237  1.00  0.00    -0.354 N 
ATOM     63  N   UNL A   1      45.386  30.111  30.047  1.00  0.00    -0.248 NA
ATOM     64  C   UNL A   1      46.726  30.780  28.257  1.00  0.00     0.031 C 
ATOM     65  C   UNL A   1      46.082  26.441  32.456  1.00  0.00     0.029 A 
ATOM     66  C   UNL A   1      45.895  27.583  31.692  1.00  0.00     0.049 A 
ATOM     67  H   UNL A   1      44.445  29.100  31.903  1.00  0.00     0.167 HD
ATOM     68  C   UNL A   1      46.393  29.172  29.854  1.00  0.00     0.074 A 
ATOM     69  C   UNL A   1      47.171  29.620  28.718  1.00  0.00     0.031 C 
ATOM     70  C   UNL A   1      46.650  28.037  30.552  1.00  0.00     0.037 A 
BRANCH  57  71
ATOM     71  C   UNL A   1      42.832  27.134  35.326  1.00  0.00     0.057 A 
ATOM     72  C   UNL A   1      41.703  26.304  35.312  1.00  0.00     0.134 A 
ATOM     73  C   UNL A   1      43.595  27.170  36.500  1.00  0.00     0.134 A 
ATOM     74  F   UNL A   1      40.916  26.244  34.226  1.00  0.00    -0.206 F 
ATOM     75  C   UNL A   1      41.331  25.561  36.433  1.00  0.00     0.040 A 
ATOM     76  C   UNL A   1      43.248  26.411  37.617  1.00  0.00     0.040 A 
ATOM     77  F   UNL A   1      44.686  27.946  36.579  1.00  0.00    -0.206 F 
ATOM     78  C   UNL A   1      42.108  25.609  37.588  1.00  0.00     0.006 A 
ENDBRANCH  57  71
BRANCH  58  79
ATOM     79  C   UNL A   1      45.092  33.124  27.671  1.00  0.00     0.057 A 
ATOM     80  C   UNL A   1      44.555  32.897  26.397  1.00  0.00     0.134 A 
ATOM     81  C   UNL A   1      46.007  34.175  27.804  1.00  0.00     0.134 A 
ATOM     82  F   UNL A   1      43.695  31.887  26.198  1.00  0.00    -0.206 F 
ATOM     83  C   UNL A   1      44.931  33.669  25.296  1.00  0.00     0.040 A 
ATOM     84  C   UNL A   1      46.373  34.970  26.717  1.00  0.00     0.040 A 
ATOM     85  F   UNL A   1      46.562  34.442  28.995  1.00  0.00    -0.206 F 
ATOM     86  C   UNL A   1      45.840  34.713  25.456  1.00  0.00     0.006 A 
ENDBRANCH  58  79
BRANCH  70  87
ATOM     87  C   UNL A   1      47.786  27.176  30.079  1.00  0.00     0.057 A 
ATOM     88  C   UNL A   1      47.626  26.227  29.062  1.00  0.00     0.134 A 
ATOM     89  C   UNL A   1      49.068  27.332  30.623  1.00  0.00     0.134 A 
ATOM     90  F   UNL A   1      46.423  26.023  28.506  1.00  0.00    -0.206 F 
ATOM     91  C   UNL A   1      48.696  25.445  28.621  1.00  0.00     0.040 A 
ATOM     92  C   UNL A   1      50.150  26.575  30.171  1.00  0.00     0.040 A 
ATOM     93  F   UNL A   1      49.293  28.232  31.592  1.00  0.00    -0.206 F 
ATOM     94  C   UNL A   1      49.965  25.624  29.172  1.00  0.00     0.006 A 
ENDBRANCH  70  87
ENDBRANCH  44  45
ENDBRANCH  37  39
ENDBRANCH  36  37
ENDBRANCH  35  36
ENDBRANCH  34  35
ENDBRANCH  33  34
ENDBRANCH  32  33
ENDBRANCH  31  32
ENDBRANCH  30  31
ENDBRANCH   1  30
TORSDOF 23
ENDMDL
