MODEL 1
REMARK VINA RESULT:     -11.5      0.000      0.000
REMARK SMILES Cc1ccc(C2=NN(C(=O)CCC(=O)OCCOCCOCCOCCOC(=O)c3ccc(-c4c5nc(c(-c6c(F)cccc6F)c6ccc([nH]6)c(-c6c(F)cccc6F)c6nc(c(-c7c(F)cccc7F)c7ccc4[nH]7)C=C6)C=C5)cc3)[C@H](C[C@H]3C=c4cccc(C)c4=NC3=O)C2)cc1
REMARK SMILES IDX 19 1 18 2 17 3 16 4 15 5 13 6 14 7 12 8 11 9 9 10 10 11 8 12
REMARK SMILES IDX 6 13 7 14 98 15 84 16 5 17 1 18 2 19 3 20 100 21 4 22 99 23
REMARK SMILES IDX 85 24 86 25 87 26 96 27 88 28 95 29 97 30 89 31 94 32 90 33
REMARK SMILES IDX 92 34 91 35 93 36 20 37 21 38 22 39 23 40 24 41 25 42 26 43
REMARK SMILES IDX 27 44 28 45 29 46 30 47 31 48 83 49 32 50 82 51 33 52 34 53
REMARK SMILES IDX 35 54 76 55 36 56 81 57 75 58 77 59 37 60 80 61 74 62 73 63
REMARK SMILES IDX 38 65 64 66 47 67 63 68 48 69 51 70 62 71 78 72 49 73 50 74
REMARK SMILES IDX 61 76 79 77 52 78 39 79 40 80 45 81 41 82 42 83 44 84 46 85
REMARK SMILES IDX 43 86 65 87 66 88 71 89 67 90 68 91 70 92 72 93 69 94 53 95
REMARK SMILES IDX 54 96 59 97 55 98 56 99 58 100 60 101 57 102
REMARK H PARENT 77 64 51 75
REMARK Flexibility Score: inf
ROOT
ATOM      1  C   UNL A   1      39.856  28.887  30.816  1.00  0.00     0.188 C 
ENDROOT
BRANCH   1   2
ATOM      2  O   UNL A   1      39.167  30.147  30.676  1.00  0.00    -0.376 OA
BRANCH   2   3
ATOM      3  C   UNL A   1      38.755  30.520  29.371  1.00  0.00     0.202 C 
BRANCH   3   4
ATOM      4  C   UNL A   1      37.568  31.430  29.299  1.00  0.00     0.261 C 
BRANCH   4   5
ATOM      5  O   UNL A   1      36.905  31.138  28.046  1.00  0.00    -0.463 OA
BRANCH   5   6
ATOM      6  C   UNL A   1      35.583  31.130  27.897  1.00  0.00     0.306 C 
ATOM      7  O   UNL A   1      34.953  32.119  27.539  1.00  0.00    -0.252 OA
BRANCH   6   8
ATOM      8  C   UNL A   1      34.933  29.722  28.053  1.00  0.00     0.132 C 
BRANCH   8   9
ATOM      9  C   UNL A   1      33.778  28.778  27.373  1.00  0.00     0.114 C 
BRANCH   9  10
ATOM     10  C   UNL A   1      32.150  28.251  27.009  1.00  0.00     0.243 C 
ATOM     11  O   UNL A   1      31.656  27.777  28.062  1.00  0.00    -0.273 OA
BRANCH  10  12
ATOM     12  N   UNL A   1      31.308  28.294  25.690  1.00  0.00    -0.230 N 
ATOM     13  C   UNL A   1      29.935  29.623  23.275  1.00  0.00     0.070 C 
ATOM     14  N   UNL A   1      31.004  29.923  24.432  1.00  0.00    -0.174 NA
ATOM     15  C   UNL A   1      29.314  27.727  23.356  1.00  0.00     0.086 C 
ATOM     16  C   UNL A   1      30.286  26.785  24.865  1.00  0.00     0.118 C 
BRANCH  13  17
ATOM     17  C   UNL A   1      29.231  30.657  22.555  1.00  0.00    -0.002 A 
ATOM     18  C   UNL A   1      27.119  33.545  20.284  1.00  0.00     0.044 C 
ATOM     19  C   UNL A   1      27.943  32.573  21.064  1.00  0.00    -0.051 A 
ATOM     20  C   UNL A   1      28.073  31.262  20.578  1.00  0.00     0.004 A 
ATOM     21  C   UNL A   1      28.534  32.937  22.281  1.00  0.00     0.004 A 
ATOM     22  C   UNL A   1      28.740  30.301  21.316  1.00  0.00     0.010 A 
ATOM     23  C   UNL A   1      29.179  31.969  23.040  1.00  0.00     0.010 A 
ENDBRANCH  13  17
BRANCH  16  24
ATOM     24  C   UNL A   1      30.691  24.867  25.248  1.00  0.00     0.045 C 
BRANCH  24  25
ATOM     25  C   UNL A   1      32.246  23.749  24.646  1.00  0.00     0.106 C 
ATOM     26  C   UNL A   1      32.068  22.087  24.279  1.00  0.00    -0.003 C 
ATOM     27  C   UNL A   1      33.566  23.944  23.776  1.00  0.00     0.253 C 
ATOM     28  C   UNL A   1      32.846  21.168  23.741  1.00  0.00    -0.003 A 
ATOM     29  N   UNL A   1      34.542  22.929  23.991  1.00  0.00    -0.212 NA
ATOM     30  O   UNL A   1      33.809  24.945  23.115  1.00  0.00    -0.272 OA
ATOM     31  C   UNL A   1      32.388  19.786  23.863  1.00  0.00     0.010 A 
ATOM     32  C   UNL A   1      34.172  21.676  24.059  1.00  0.00     0.077 A 
ATOM     33  C   UNL A   1      33.140  18.931  24.559  1.00  0.00     0.001 A 
ATOM     34  C   UNL A   1      34.965  20.585  24.752  1.00  0.00    -0.025 A 
ATOM     35  C   UNL A   1      34.448  19.356  24.999  1.00  0.00     0.005 A 
ATOM     36  C   UNL A   1      36.238  21.047  25.345  1.00  0.00     0.047 C 
ENDBRANCH  24  25
ENDBRANCH  16  24
ENDBRANCH  10  12
ENDBRANCH   9  10
ENDBRANCH   8   9
ENDBRANCH   6   8
ENDBRANCH   5   6
ENDBRANCH   4   5
ENDBRANCH   3   4
ENDBRANCH   2   3
ENDBRANCH   1   2
BRANCH   1  37
ATOM     37  C   UNL A   1      39.601  27.497  29.801  1.00  0.00     0.188 C 
BRANCH  37  38
ATOM     38  O   UNL A   1      39.629  27.079  28.063  1.00  0.00    -0.377 OA
BRANCH  38  39
ATOM     39  C   UNL A   1      40.713  26.572  26.840  1.00  0.00     0.188 C 
BRANCH  39  40
ATOM     40  C   UNL A   1      41.531  25.163  26.800  1.00  0.00     0.188 C 
BRANCH  40  41
ATOM     41  O   UNL A   1      42.875  25.167  26.271  1.00  0.00    -0.376 OA
BRANCH  41  42
ATOM     42  C   UNL A   1      43.376  26.077  25.332  1.00  0.00     0.202 C 
BRANCH  42  43
ATOM     43  C   UNL A   1      44.685  26.500  25.904  1.00  0.00     0.261 C 
BRANCH  43  44
ATOM     44  O   UNL A   1      44.986  27.774  25.150  1.00  0.00    -0.460 OA
BRANCH  44  45
ATOM     45  C   UNL A   1      46.081  28.604  25.342  1.00  0.00     0.338 C 
ATOM     46  O   UNL A   1      47.043  28.550  24.578  1.00  0.00    -0.246 OA
BRANCH  45  47
ATOM     47  C   UNL A   1      46.131  29.617  26.568  1.00  0.00     0.060 A 
ATOM     48  C   UNL A   1      47.019  29.459  27.651  1.00  0.00     0.016 A 
ATOM     49  C   UNL A   1      45.202  30.602  26.844  1.00  0.00     0.016 A 
ATOM     50  C   UNL A   1      46.764  30.003  29.014  1.00  0.00     0.010 A 
ATOM     51  C   UNL A   1      44.883  30.985  28.229  1.00  0.00     0.010 A 
ATOM     52  C   UNL A   1      45.497  30.484  29.417  1.00  0.00    -0.014 A 
BRANCH  52  53
ATOM     53  C   UNL A   1      44.824  30.794  31.006  1.00  0.00     0.031 A 
ATOM     54  C   UNL A   1      43.871  29.630  31.191  1.00  0.00     0.074 A 
ATOM     55  C   UNL A   1      45.116  31.634  32.226  1.00  0.00     0.049 A 
ATOM     56  N   UNL A   1      43.269  29.371  32.282  1.00  0.00    -0.248 NA
ATOM     57  C   UNL A   1      43.700  28.514  30.246  1.00  0.00     0.031 C 
ATOM     58  C   UNL A   1      44.772  31.629  33.704  1.00  0.00     0.029 A 
ATOM     59  N   UNL A   1      45.935  32.736  32.528  1.00  0.00    -0.354 N 
ATOM     60  C   UNL A   1      43.157  27.996  32.397  1.00  0.00     0.074 A 
ATOM     61  C   UNL A   1      43.337  27.512  31.056  1.00  0.00     0.031 C 
ATOM     62  C   UNL A   1      45.090  32.726  34.468  1.00  0.00     0.029 A 
ATOM     63  C   UNL A   1      45.641  33.645  33.558  1.00  0.00     0.049 A 
ATOM     64  H   UNL A   1      46.750  32.876  31.995  1.00  0.00     0.167 HD
ATOM     65  C   UNL A   1      43.095  27.485  33.667  1.00  0.00     0.037 A 
ATOM     66  C   UNL A   1      45.190  34.888  33.225  1.00  0.00     0.037 A 
ATOM     67  C   UNL A   1      42.998  28.602  34.664  1.00  0.00     0.049 A 
ATOM     68  C   UNL A   1      43.634  34.570  33.165  1.00  0.00     0.074 A 
ATOM     69  C   UNL A   1      43.648  28.975  35.830  1.00  0.00     0.029 A 
ATOM     70  N   UNL A   1      42.240  29.731  34.318  1.00  0.00    -0.354 N 
ATOM     71  N   UNL A   1      43.127  33.346  33.049  1.00  0.00    -0.248 NA
ATOM     72  C   UNL A   1      42.563  35.472  33.582  1.00  0.00     0.031 C 
ATOM     73  C   UNL A   1      43.315  30.363  36.103  1.00  0.00     0.029 A 
ATOM     74  C   UNL A   1      42.502  30.864  35.070  1.00  0.00     0.049 A 
ATOM     75  H   UNL A   1      41.572  29.718  33.594  1.00  0.00     0.167 HD
ATOM     76  C   UNL A   1      42.070  33.199  33.923  1.00  0.00     0.074 A 
ATOM     77  C   UNL A   1      41.582  34.584  33.876  1.00  0.00     0.031 C 
ATOM     78  C   UNL A   1      41.740  32.114  34.768  1.00  0.00     0.037 A 
BRANCH  65  79
ATOM     79  C   UNL A   1      43.256  26.014  34.071  1.00  0.00     0.057 A 
ATOM     80  C   UNL A   1      42.315  25.437  34.952  1.00  0.00     0.134 A 
ATOM     81  C   UNL A   1      44.278  25.115  33.689  1.00  0.00     0.134 A 
ATOM     82  F   UNL A   1      41.274  26.139  35.417  1.00  0.00    -0.206 F 
ATOM     83  C   UNL A   1      42.366  24.107  35.399  1.00  0.00     0.040 A 
ATOM     84  C   UNL A   1      44.317  23.761  34.094  1.00  0.00     0.040 A 
ATOM     85  F   UNL A   1      45.312  25.492  32.929  1.00  0.00    -0.206 F 
ATOM     86  C   UNL A   1      43.356  23.250  34.952  1.00  0.00     0.006 A 
ENDBRANCH  65  79
BRANCH  66  87
ATOM     87  C   UNL A   1      46.224  35.330  32.181  1.00  0.00     0.057 A 
ATOM     88  C   UNL A   1      46.053  35.541  30.459  1.00  0.00     0.134 A 
ATOM     89  C   UNL A   1      47.526  36.259  32.880  1.00  0.00     0.134 A 
ATOM     90  F   UNL A   1      45.024  34.963  29.817  1.00  0.00    -0.206 F 
ATOM     91  C   UNL A   1      47.070  36.543  29.428  1.00  0.00     0.040 A 
ATOM     92  C   UNL A   1      48.658  37.436  31.629  1.00  0.00     0.040 A 
ATOM     93  F   UNL A   1      47.806  35.716  34.089  1.00  0.00    -0.206 F 
ATOM     94  C   UNL A   1      48.311  37.482  29.967  1.00  0.00     0.006 A 
ENDBRANCH  66  87
BRANCH  78  95
ATOM     95  C   UNL A   1      40.388  32.038  35.410  1.00  0.00     0.057 A 
ATOM     96  C   UNL A   1      40.147  32.466  36.697  1.00  0.00     0.134 A 
ATOM     97  C   UNL A   1      39.251  31.585  34.691  1.00  0.00     0.134 A 
ATOM     98  F   UNL A   1      41.135  32.569  37.595  1.00  0.00    -0.206 F 
ATOM     99  C   UNL A   1      38.860  32.784  37.104  1.00  0.00     0.040 A 
ATOM    100  C   UNL A   1      37.962  31.816  35.113  1.00  0.00     0.040 A 
ATOM    101  F   UNL A   1      39.296  30.890  33.550  1.00  0.00    -0.206 F 
ATOM    102  C   UNL A   1      37.767  32.500  36.290  1.00  0.00     0.006 A 
ENDBRANCH  78  95
ENDBRANCH  52  53
ENDBRANCH  45  47
ENDBRANCH  44  45
ENDBRANCH  43  44
ENDBRANCH  42  43
ENDBRANCH  41  42
ENDBRANCH  40  41
ENDBRANCH  39  40
ENDBRANCH  38  39
ENDBRANCH  37  38
ENDBRANCH   1  37
TORSDOF 26
ENDMDL
MODEL 2
REMARK VINA RESULT:     -11.4      6.632     13.109
REMARK SMILES Cc1ccc(C2=NN(C(=O)CCC(=O)OCCOCCOCCOCCOC(=O)c3ccc(-c4c5nc(c(-c6c(F)cccc6F)c6ccc([nH]6)c(-c6c(F)cccc6F)c6nc(c(-c7c(F)cccc7F)c7ccc4[nH]7)C=C6)C=C5)cc3)[C@H](C[C@H]3C=c4cccc(C)c4=NC3=O)C2)cc1
REMARK SMILES IDX 19 1 18 2 17 3 16 4 15 5 13 6 14 7 12 8 11 9 9 10 10 11 8 12
REMARK SMILES IDX 6 13 7 14 98 15 84 16 5 17 1 18 2 19 3 20 100 21 4 22 99 23
REMARK SMILES IDX 85 24 86 25 87 26 96 27 88 28 95 29 97 30 89 31 94 32 90 33
REMARK SMILES IDX 92 34 91 35 93 36 20 37 21 38 22 39 23 40 24 41 25 42 26 43
REMARK SMILES IDX 27 44 28 45 29 46 30 47 31 48 83 49 32 50 82 51 33 52 34 53
REMARK SMILES IDX 35 54 76 55 36 56 81 57 75 58 77 59 37 60 80 61 74 62 73 63
REMARK SMILES IDX 38 65 64 66 47 67 63 68 48 69 51 70 62 71 78 72 49 73 50 74
REMARK SMILES IDX 61 76 79 77 52 78 39 79 40 80 45 81 41 82 42 83 44 84 46 85
REMARK SMILES IDX 43 86 65 87 66 88 71 89 67 90 68 91 70 92 72 93 69 94 53 95
REMARK SMILES IDX 54 96 59 97 55 98 56 99 58 100 60 101 57 102
REMARK H PARENT 77 64 51 75
REMARK Flexibility Score: inf
ROOT
ATOM      1  C   UNL A   1      48.566  21.563  38.857  1.00  0.00     0.188 C 
ENDROOT
BRANCH   1   2
ATOM      2  O   UNL A   1      49.910  22.027  38.614  1.00  0.00    -0.376 OA
BRANCH   2   3
ATOM      3  C   UNL A   1      50.872  21.058  38.229  1.00  0.00     0.202 C 
BRANCH   3   4
ATOM      4  C   UNL A   1      50.668  20.439  36.880  1.00  0.00     0.261 C 
BRANCH   4   5
ATOM      5  O   UNL A   1      51.987  20.227  36.324  1.00  0.00    -0.463 OA
BRANCH   5   6
ATOM      6  C   UNL A   1      52.218  20.049  35.026  1.00  0.00     0.306 C 
ATOM      7  O   UNL A   1      52.312  18.937  34.519  1.00  0.00    -0.252 OA
BRANCH   6   8
ATOM      8  C   UNL A   1      52.191  21.363  34.189  1.00  0.00     0.132 C 
BRANCH   8   9
ATOM      9  C   UNL A   1      51.238  22.667  33.909  1.00  0.00     0.114 C 
BRANCH   9  10
ATOM     10  C   UNL A   1      50.471  23.915  32.951  1.00  0.00     0.243 C 
ATOM     11  O   UNL A   1      50.761  23.707  31.748  1.00  0.00    -0.273 OA
BRANCH  10  12
ATOM     12  N   UNL A   1      49.559  25.123  33.349  1.00  0.00    -0.230 N 
ATOM     13  C   UNL A   1      48.283  27.172  35.261  1.00  0.00     0.070 C 
ATOM     14  N   UNL A   1      49.469  26.096  35.185  1.00  0.00    -0.174 NA
ATOM     15  C   UNL A   1      47.331  27.304  33.511  1.00  0.00     0.086 C 
ATOM     16  C   UNL A   1      48.219  26.052  32.188  1.00  0.00     0.118 C 
BRANCH  13  17
ATOM     17  C   UNL A   1      47.730  27.661  36.502  1.00  0.00    -0.002 A 
ATOM     18  C   UNL A   1      46.089  29.295  40.050  1.00  0.00     0.044 C 
ATOM     19  C   UNL A   1      46.751  28.712  38.844  1.00  0.00    -0.051 A 
ATOM     20  C   UNL A   1      46.938  29.532  37.720  1.00  0.00     0.004 A 
ATOM     21  C   UNL A   1      47.131  27.365  38.807  1.00  0.00     0.004 A 
ATOM     22  C   UNL A   1      47.452  29.011  36.547  1.00  0.00     0.010 A 
ATOM     23  C   UNL A   1      47.619  26.829  37.622  1.00  0.00     0.010 A 
ENDBRANCH  13  17
BRANCH  16  24
ATOM     24  C   UNL A   1      48.291  25.992  30.193  1.00  0.00     0.045 C 
BRANCH  24  25
ATOM     25  C   UNL A   1      46.788  25.874  28.867  1.00  0.00     0.106 C 
ATOM     26  C   UNL A   1      45.236  25.308  29.316  1.00  0.00    -0.003 C 
ATOM     27  C   UNL A   1      46.278  26.685  27.594  1.00  0.00     0.253 C 
ATOM     28  C   UNL A   1      44.060  25.260  28.723  1.00  0.00    -0.003 A 
ATOM     29  N   UNL A   1      45.385  25.942  26.770  1.00  0.00    -0.212 NA
ATOM     30  O   UNL A   1      46.725  27.770  27.249  1.00  0.00    -0.272 OA
ATOM     31  C   UNL A   1      43.045  24.434  29.374  1.00  0.00     0.010 A 
ATOM     32  C   UNL A   1      44.435  25.229  27.318  1.00  0.00     0.077 A 
ATOM     33  C   UNL A   1      42.575  23.374  28.714  1.00  0.00     0.001 A 
ATOM     34  C   UNL A   1      43.760  24.045  26.652  1.00  0.00    -0.025 A 
ATOM     35  C   UNL A   1      42.949  23.196  27.330  1.00  0.00     0.005 A 
ATOM     36  C   UNL A   1      44.250  23.758  25.288  1.00  0.00     0.047 C 
ENDBRANCH  24  25
ENDBRANCH  16  24
ENDBRANCH  10  12
ENDBRANCH   9  10
ENDBRANCH   8   9
ENDBRANCH   6   8
ENDBRANCH   5   6
ENDBRANCH   4   5
ENDBRANCH   3   4
ENDBRANCH   2   3
ENDBRANCH   1   2
BRANCH   1  37
ATOM     37  C   UNL A   1      47.226  21.788  37.769  1.00  0.00     0.188 C 
BRANCH  37  38
ATOM     38  O   UNL A   1      46.175  20.804  36.709  1.00  0.00    -0.377 OA
BRANCH  38  39
ATOM     39  C   UNL A   1      45.615  20.736  35.095  1.00  0.00     0.188 C 
BRANCH  39  40
ATOM     40  C   UNL A   1      45.677  21.941  34.000  1.00  0.00     0.188 C 
BRANCH  40  41
ATOM     41  O   UNL A   1      46.081  23.253  34.448  1.00  0.00    -0.376 OA
BRANCH  41  42
ATOM     42  C   UNL A   1      45.337  24.429  34.295  1.00  0.00     0.202 C 
BRANCH  42  43
ATOM     43  C   UNL A   1      43.964  24.044  34.726  1.00  0.00     0.261 C 
BRANCH  43  44
ATOM     44  O   UNL A   1      44.131  23.803  36.208  1.00  0.00    -0.460 OA
BRANCH  44  45
ATOM     45  C   UNL A   1      44.229  24.775  37.194  1.00  0.00     0.338 C 
ATOM     46  O   UNL A   1      44.905  24.574  38.201  1.00  0.00    -0.246 OA
BRANCH  45  47
ATOM     47  C   UNL A   1      43.446  26.154  37.059  1.00  0.00     0.060 A 
ATOM     48  C   UNL A   1      42.053  26.223  36.858  1.00  0.00     0.016 A 
ATOM     49  C   UNL A   1      44.021  27.400  36.891  1.00  0.00     0.016 A 
ATOM     50  C   UNL A   1      41.368  27.373  36.204  1.00  0.00     0.010 A 
ATOM     51  C   UNL A   1      43.357  28.446  36.097  1.00  0.00     0.010 A 
ATOM     52  C   UNL A   1      42.070  28.367  35.484  1.00  0.00    -0.014 A 
BRANCH  52  53
ATOM     53  C   UNL A   1      41.525  29.560  34.321  1.00  0.00     0.031 A 
ATOM     54  C   UNL A   1      42.135  29.059  33.027  1.00  0.00     0.074 A 
ATOM     55  C   UNL A   1      40.491  30.654  34.206  1.00  0.00     0.049 A 
ATOM     56  N   UNL A   1      41.873  29.549  31.882  1.00  0.00    -0.248 NA
ATOM     57  C   UNL A   1      42.902  27.811  32.877  1.00  0.00     0.031 C 
ATOM     58  C   UNL A   1      39.776  31.416  33.104  1.00  0.00     0.029 A 
ATOM     59  N   UNL A   1      39.661  31.364  35.091  1.00  0.00    -0.354 N 
ATOM     60  C   UNL A   1      41.900  28.518  30.957  1.00  0.00     0.074 A 
ATOM     61  C   UNL A   1      42.654  27.480  31.603  1.00  0.00     0.031 C 
ATOM     62  C   UNL A   1      39.018  32.513  33.434  1.00  0.00     0.029 A 
ATOM     63  C   UNL A   1      39.192  32.660  34.821  1.00  0.00     0.049 A 
ATOM     64  H   UNL A   1      39.397  30.934  35.936  1.00  0.00     0.167 HD
ATOM     65  C   UNL A   1      41.117  28.668  29.842  1.00  0.00     0.037 A 
ATOM     66  C   UNL A   1      39.733  33.708  35.505  1.00  0.00     0.037 A 
ATOM     67  C   UNL A   1      40.518  30.044  29.818  1.00  0.00     0.049 A 
ATOM     68  C   UNL A   1      40.948  34.028  34.531  1.00  0.00     0.074 A 
ATOM     69  C   UNL A   1      39.256  30.594  29.658  1.00  0.00     0.029 A 
ATOM     70  N   UNL A   1      41.301  31.112  30.281  1.00  0.00    -0.354 N 
ATOM     71  N   UNL A   1      41.421  33.176  33.627  1.00  0.00    -0.248 NA
ATOM     72  C   UNL A   1      41.467  35.358  34.224  1.00  0.00     0.031 C 
ATOM     73  C   UNL A   1      39.308  31.973  30.113  1.00  0.00     0.029 A 
ATOM     74  C   UNL A   1      40.593  32.257  30.609  1.00  0.00     0.049 A 
ATOM     75  H   UNL A   1      42.280  31.052  30.367  1.00  0.00     0.167 HD
ATOM     76  C   UNL A   1      41.643  33.840  32.438  1.00  0.00     0.074 A 
ATOM     77  C   UNL A   1      42.023  35.141  33.007  1.00  0.00     0.031 C 
ATOM     78  C   UNL A   1      41.349  33.444  31.112  1.00  0.00     0.037 A 
BRANCH  65  79
ATOM     79  C   UNL A   1      40.749  27.578  28.828  1.00  0.00     0.057 A 
ATOM     80  C   UNL A   1      39.690  26.692  29.125  1.00  0.00     0.134 A 
ATOM     81  C   UNL A   1      41.369  27.302  27.587  1.00  0.00     0.134 A 
ATOM     82  F   UNL A   1      38.985  26.804  30.257  1.00  0.00    -0.206 F 
ATOM     83  C   UNL A   1      39.271  25.652  28.280  1.00  0.00     0.040 A 
ATOM     84  C   UNL A   1      40.928  26.287  26.706  1.00  0.00     0.040 A 
ATOM     85  F   UNL A   1      42.446  27.970  27.163  1.00  0.00    -0.206 F 
ATOM     86  C   UNL A   1      39.873  25.457  27.050  1.00  0.00     0.006 A 
ENDBRANCH  65  79
BRANCH  66  87
ATOM     87  C   UNL A   1      39.638  33.220  36.958  1.00  0.00     0.057 A 
ATOM     88  C   UNL A   1      40.897  32.714  38.052  1.00  0.00     0.134 A 
ATOM     89  C   UNL A   1      38.191  33.781  37.758  1.00  0.00     0.134 A 
ATOM     90  F   UNL A   1      42.098  32.361  37.565  1.00  0.00    -0.206 F 
ATOM     91  C   UNL A   1      40.802  32.697  39.810  1.00  0.00     0.040 A 
ATOM     92  C   UNL A   1      38.152  33.767  39.814  1.00  0.00     0.040 A 
ATOM     93  F   UNL A   1      37.189  33.753  36.847  1.00  0.00    -0.206 F 
ATOM     94  C   UNL A   1      39.507  33.219  40.682  1.00  0.00     0.006 A 
ENDBRANCH  66  87
BRANCH  78  95
ATOM     95  C   UNL A   1      41.944  34.182  29.953  1.00  0.00     0.057 A 
ATOM     96  C   UNL A   1      43.263  34.048  29.578  1.00  0.00     0.134 A 
ATOM     97  C   UNL A   1      41.152  35.015  29.120  1.00  0.00     0.134 A 
ATOM     98  F   UNL A   1      44.191  33.611  30.439  1.00  0.00    -0.206 F 
ATOM     99  C   UNL A   1      43.669  34.382  28.295  1.00  0.00     0.040 A 
ATOM    100  C   UNL A   1      41.563  35.429  27.874  1.00  0.00     0.040 A 
ATOM    101  F   UNL A   1      39.944  35.490  29.441  1.00  0.00    -0.206 F 
ATOM    102  C   UNL A   1      42.801  35.035  27.423  1.00  0.00     0.006 A 
ENDBRANCH  78  95
ENDBRANCH  52  53
ENDBRANCH  45  47
ENDBRANCH  44  45
ENDBRANCH  43  44
ENDBRANCH  42  43
ENDBRANCH  41  42
ENDBRANCH  40  41
ENDBRANCH  39  40
ENDBRANCH  38  39
ENDBRANCH  37  38
ENDBRANCH   1  37
TORSDOF 26
ENDMDL
MODEL 3
REMARK VINA RESULT:     -11.3      1.743      2.394
REMARK SMILES Cc1ccc(C2=NN(C(=O)CCC(=O)OCCOCCOCCOCCOC(=O)c3ccc(-c4c5nc(c(-c6c(F)cccc6F)c6ccc([nH]6)c(-c6c(F)cccc6F)c6nc(c(-c7c(F)cccc7F)c7ccc4[nH]7)C=C6)C=C5)cc3)[C@H](C[C@H]3C=c4cccc(C)c4=NC3=O)C2)cc1
REMARK SMILES IDX 19 1 18 2 17 3 16 4 15 5 13 6 14 7 12 8 11 9 9 10 10 11 8 12
REMARK SMILES IDX 6 13 7 14 98 15 84 16 5 17 1 18 2 19 3 20 100 21 4 22 99 23
REMARK SMILES IDX 85 24 86 25 87 26 96 27 88 28 95 29 97 30 89 31 94 32 90 33
REMARK SMILES IDX 92 34 91 35 93 36 20 37 21 38 22 39 23 40 24 41 25 42 26 43
REMARK SMILES IDX 27 44 28 45 29 46 30 47 31 48 83 49 32 50 82 51 33 52 34 53
REMARK SMILES IDX 35 54 76 55 36 56 81 57 75 58 77 59 37 60 80 61 74 62 73 63
REMARK SMILES IDX 38 65 64 66 47 67 63 68 48 69 51 70 62 71 78 72 49 73 50 74
REMARK SMILES IDX 61 76 79 77 52 78 39 79 40 80 45 81 41 82 42 83 44 84 46 85
REMARK SMILES IDX 43 86 65 87 66 88 71 89 67 90 68 91 70 92 72 93 69 94 53 95
REMARK SMILES IDX 54 96 59 97 55 98 56 99 58 100 60 101 57 102
REMARK H PARENT 77 64 51 75
REMARK Flexibility Score: inf
ROOT
ATOM      1  C   UNL A   1      39.863  28.906  31.131  1.00  0.00     0.188 C 
ENDROOT
BRANCH   1   2
ATOM      2  O   UNL A   1      39.320  30.209  30.835  1.00  0.00    -0.376 OA
BRANCH   2   3
ATOM      3  C   UNL A   1      38.885  30.445  29.506  1.00  0.00     0.202 C 
BRANCH   3   4
ATOM      4  C   UNL A   1      37.707  31.358  29.359  1.00  0.00     0.261 C 
BRANCH   4   5
ATOM      5  O   UNL A   1      37.086  31.023  28.095  1.00  0.00    -0.463 OA
BRANCH   5   6
ATOM      6  C   UNL A   1      35.774  31.078  27.883  1.00  0.00     0.306 C 
ATOM      7  O   UNL A   1      35.214  32.086  27.464  1.00  0.00    -0.252 OA
BRANCH   6   8
ATOM      8  C   UNL A   1      35.044  29.712  28.051  1.00  0.00     0.132 C 
BRANCH   8   9
ATOM      9  C   UNL A   1      33.874  28.806  27.346  1.00  0.00     0.114 C 
BRANCH   9  10
ATOM     10  C   UNL A   1      32.238  28.284  27.006  1.00  0.00     0.243 C 
ATOM     11  O   UNL A   1      31.744  27.850  28.075  1.00  0.00    -0.273 OA
BRANCH  10  12
ATOM     12  N   UNL A   1      31.392  28.293  25.689  1.00  0.00    -0.230 N 
ATOM     13  C   UNL A   1      30.005  29.560  23.249  1.00  0.00     0.070 C 
ATOM     14  N   UNL A   1      31.077  29.890  24.394  1.00  0.00    -0.174 NA
ATOM     15  C   UNL A   1      29.391  27.664  23.377  1.00  0.00     0.086 C 
ATOM     16  C   UNL A   1      30.372  26.762  24.904  1.00  0.00     0.118 C 
BRANCH  13  17
ATOM     17  C   UNL A   1      29.295  30.574  22.507  1.00  0.00    -0.002 A 
ATOM     18  C   UNL A   1      27.247  33.691  20.494  1.00  0.00     0.044 C 
ATOM     19  C   UNL A   1      27.885  32.549  21.216  1.00  0.00    -0.051 A 
ATOM     20  C   UNL A   1      28.442  32.784  22.484  1.00  0.00     0.004 A 
ATOM     21  C   UNL A   1      27.979  31.282  20.628  1.00  0.00     0.004 A 
ATOM     22  C   UNL A   1      29.132  31.786  23.146  1.00  0.00     0.010 A 
ATOM     23  C   UNL A   1      28.697  30.284  21.275  1.00  0.00     0.010 A 
ENDBRANCH  13  17
BRANCH  16  24
ATOM     24  C   UNL A   1      30.784  24.855  25.331  1.00  0.00     0.045 C 
BRANCH  24  25
ATOM     25  C   UNL A   1      32.294  23.702  24.682  1.00  0.00     0.106 C 
ATOM     26  C   UNL A   1      32.108  22.015  24.463  1.00  0.00    -0.003 C 
ATOM     27  C   UNL A   1      33.529  23.837  23.684  1.00  0.00     0.253 C 
ATOM     28  C   UNL A   1      32.846  21.062  23.931  1.00  0.00    -0.003 A 
ATOM     29  N   UNL A   1      34.534  22.848  23.889  1.00  0.00    -0.212 NA
ATOM     30  O   UNL A   1      33.699  24.783  22.927  1.00  0.00    -0.272 OA
ATOM     31  C   UNL A   1      32.420  19.691  24.201  1.00  0.00     0.010 A 
ATOM     32  C   UNL A   1      34.189  21.602  24.088  1.00  0.00     0.077 A 
ATOM     33  C   UNL A   1      33.242  18.898  24.892  1.00  0.00     0.001 A 
ATOM     34  C   UNL A   1      35.055  20.574  24.791  1.00  0.00    -0.025 A 
ATOM     35  C   UNL A   1      34.578  19.366  25.179  1.00  0.00     0.005 A 
ATOM     36  C   UNL A   1      36.369  21.090  25.229  1.00  0.00     0.047 C 
ENDBRANCH  24  25
ENDBRANCH  16  24
ENDBRANCH  10  12
ENDBRANCH   9  10
ENDBRANCH   8   9
ENDBRANCH   6   8
ENDBRANCH   5   6
ENDBRANCH   4   5
ENDBRANCH   3   4
ENDBRANCH   2   3
ENDBRANCH   1   2
BRANCH   1  37
ATOM     37  C   UNL A   1      39.320  27.417  30.412  1.00  0.00     0.188 C 
BRANCH  37  38
ATOM     38  O   UNL A   1      39.020  26.741  28.784  1.00  0.00    -0.377 OA
BRANCH  38  39
ATOM     39  C   UNL A   1      39.784  25.794  27.582  1.00  0.00     0.188 C 
BRANCH  39  40
ATOM     40  C   UNL A   1      40.026  24.184  27.632  1.00  0.00     0.188 C 
BRANCH  40  41
ATOM     41  O   UNL A   1      41.336  23.678  27.295  1.00  0.00    -0.376 OA
BRANCH  41  42
ATOM     42  C   UNL A   1      42.155  24.164  26.268  1.00  0.00     0.202 C 
BRANCH  42  43
ATOM     43  C   UNL A   1      43.497  24.283  26.905  1.00  0.00     0.261 C 
BRANCH  43  44
ATOM     44  O   UNL A   1      44.221  25.240  25.987  1.00  0.00    -0.460 OA
BRANCH  44  45
ATOM     45  C   UNL A   1      45.510  25.725  26.156  1.00  0.00     0.338 C 
ATOM     46  O   UNL A   1      46.454  25.197  25.573  1.00  0.00    -0.246 OA
BRANCH  45  47
ATOM     47  C   UNL A   1      45.799  26.949  27.131  1.00  0.00     0.060 A 
ATOM     48  C   UNL A   1      46.258  26.781  28.452  1.00  0.00     0.016 A 
ATOM     49  C   UNL A   1      45.433  28.264  26.910  1.00  0.00     0.016 A 
ATOM     50  C   UNL A   1      46.032  27.775  29.539  1.00  0.00     0.010 A 
ATOM     51  C   UNL A   1      45.069  29.153  28.026  1.00  0.00     0.010 A 
ATOM     52  C   UNL A   1      45.108  28.838  29.417  1.00  0.00    -0.014 A 
BRANCH  52  53
ATOM     53  C   UNL A   1      44.367  29.875  30.621  1.00  0.00     0.031 A 
ATOM     54  C   UNL A   1      43.691  28.877  31.541  1.00  0.00     0.074 A 
ATOM     55  C   UNL A   1      44.454  31.300  31.111  1.00  0.00     0.049 A 
ATOM     56  N   UNL A   1      43.149  29.188  32.650  1.00  0.00    -0.248 NA
ATOM     57  C   UNL A   1      43.779  27.413  31.417  1.00  0.00     0.031 C 
ATOM     58  C   UNL A   1      44.104  32.083  32.364  1.00  0.00     0.029 A 
ATOM     59  N   UNL A   1      45.008  32.503  30.641  1.00  0.00    -0.354 N 
ATOM     60  C   UNL A   1      43.341  28.137  33.532  1.00  0.00     0.074 A 
ATOM     61  C   UNL A   1      43.637  27.014  32.687  1.00  0.00     0.031 C 
ATOM     62  C   UNL A   1      44.166  33.455  32.332  1.00  0.00     0.029 A 
ATOM     63  C   UNL A   1      44.511  33.765  31.006  1.00  0.00     0.049 A 
ATOM     64  H   UNL A   1      45.779  32.459  30.029  1.00  0.00     0.167 HD
ATOM     65  C   UNL A   1      43.379  28.450  34.866  1.00  0.00     0.037 A 
ATOM     66  C   UNL A   1      43.802  34.480  30.087  1.00  0.00     0.037 A 
ATOM     67  C   UNL A   1      43.029  29.896  35.063  1.00  0.00     0.049 A 
ATOM     68  C   UNL A   1      42.354  33.904  30.400  1.00  0.00     0.074 A 
ATOM     69  C   UNL A   1      43.568  30.984  35.729  1.00  0.00     0.029 A 
ATOM     70  N   UNL A   1      42.045  30.455  34.234  1.00  0.00    -0.354 N 
ATOM     71  N   UNL A   1      42.130  32.769  31.055  1.00  0.00    -0.248 NA
ATOM     72  C   UNL A   1      41.107  34.663  30.359  1.00  0.00     0.031 C 
ATOM     73  C   UNL A   1      42.936  32.185  35.211  1.00  0.00     0.029 A 
ATOM     74  C   UNL A   1      42.044  31.839  34.179  1.00  0.00     0.049 A 
ATOM     75  H   UNL A   1      41.404  29.905  33.728  1.00  0.00     0.167 HD
ATOM     76  C   UNL A   1      41.122  32.958  31.977  1.00  0.00     0.074 A 
ATOM     77  C   UNL A   1      40.342  33.944  31.216  1.00  0.00     0.031 C 
ATOM     78  C   UNL A   1      41.029  32.519  33.318  1.00  0.00     0.037 A 
BRANCH  65  79
ATOM     79  C   UNL A   1      43.854  27.540  36.006  1.00  0.00     0.057 A 
ATOM     80  C   UNL A   1      45.233  27.266  36.136  1.00  0.00     0.134 A 
ATOM     81  C   UNL A   1      43.066  26.883  36.979  1.00  0.00     0.134 A 
ATOM     82  F   UNL A   1      46.132  27.805  35.303  1.00  0.00    -0.206 F 
ATOM     83  C   UNL A   1      45.783  26.443  37.131  1.00  0.00     0.040 A 
ATOM     84  C   UNL A   1      43.610  26.088  38.014  1.00  0.00     0.040 A 
ATOM     85  F   UNL A   1      41.730  26.944  36.974  1.00  0.00    -0.206 F 
ATOM     86  C   UNL A   1      44.975  25.866  38.095  1.00  0.00     0.006 A 
ENDBRANCH  65  79
BRANCH  66  87
ATOM     87  C   UNL A   1      44.725  34.423  28.861  1.00  0.00     0.057 A 
ATOM     88  C   UNL A   1      44.617  33.439  27.426  1.00  0.00     0.134 A 
ATOM     89  C   UNL A   1      45.636  35.895  28.641  1.00  0.00     0.134 A 
ATOM     90  F   UNL A   1      43.855  32.333  27.434  1.00  0.00    -0.206 F 
ATOM     91  C   UNL A   1      45.353  33.791  25.866  1.00  0.00     0.040 A 
ATOM     92  C   UNL A   1      46.446  36.267  26.786  1.00  0.00     0.040 A 
ATOM     93  F   UNL A   1      45.983  36.344  29.871  1.00  0.00    -0.206 F 
ATOM     94  C   UNL A   1      46.215  35.152  25.525  1.00  0.00     0.006 A 
ENDBRANCH  66  87
BRANCH  78  95
ATOM     95  C   UNL A   1      39.720  32.578  34.045  1.00  0.00     0.057 A 
ATOM     96  C   UNL A   1      39.273  33.711  34.688  1.00  0.00     0.134 A 
ATOM     97  C   UNL A   1      38.824  31.477  34.048  1.00  0.00     0.134 A 
ATOM     98  F   UNL A   1      40.120  34.672  35.079  1.00  0.00    -0.206 F 
ATOM     99  C   UNL A   1      37.924  33.877  34.967  1.00  0.00     0.040 A 
ATOM    100  C   UNL A   1      37.499  31.596  34.397  1.00  0.00     0.040 A 
ATOM    101  F   UNL A   1      39.155  30.223  33.724  1.00  0.00    -0.206 F 
ATOM    102  C   UNL A   1      37.026  32.830  34.777  1.00  0.00     0.006 A 
ENDBRANCH  78  95
ENDBRANCH  52  53
ENDBRANCH  45  47
ENDBRANCH  44  45
ENDBRANCH  43  44
ENDBRANCH  42  43
ENDBRANCH  41  42
ENDBRANCH  40  41
ENDBRANCH  39  40
ENDBRANCH  38  39
ENDBRANCH  37  38
ENDBRANCH   1  37
TORSDOF 26
ENDMDL
