MODEL 1
REMARK VINA RESULT:     -10.6      0.000      0.000
REMARK SMILES Cc1cc(Cl)cc2c1O[C@H](C(F)(F)F)C(C(=O)OCCOCCOCCOCCOC(=O)c1ccc(-c3c4nc(c(-c5c(F)cccc5F)c5ccc([nH]5)c(-c5c(F)cccc5F)c5nc(c(-c6c(F)cccc6F)c6ccc3[nH]6)C=C5)C=C4)cc1)=C2
REMARK SMILES IDX 25 1 24 2 23 3 22 4 21 5 20 6 19 7 18 8 16 9 17 10 15 11
REMARK SMILES IDX 1 12 2 13 3 14 8 15 4 16 7 17 9 18 5 19 6 20 87 21 10 22
REMARK SMILES IDX 11 23 12 24 13 25 14 26 26 27 27 28 28 29 29 30 30 31 31 32
REMARK SMILES IDX 32 33 33 34 34 35 86 36 35 37 85 38 36 39 37 40 38 41 79 42
REMARK SMILES IDX 39 43 84 44 78 45 80 46 40 47 83 48 77 49 76 50 41 52 67 53
REMARK SMILES IDX 50 54 66 55 51 56 54 57 65 58 81 59 52 60 53 61 64 63 82 64
REMARK SMILES IDX 55 65 42 66 43 67 48 68 44 69 45 70 47 71 49 72 46 73 68 74
REMARK SMILES IDX 69 75 74 76 70 77 71 78 73 79 75 80 72 81 56 82 57 83 62 84
REMARK SMILES IDX 58 85 59 86 61 87 63 88 60 89
REMARK H PARENT 80 51 54 62
REMARK Flexibility Score: inf
ROOT
ATOM      1  C   UNL A   1      41.257  21.925  27.541  1.00  0.00     0.188 C 
ENDROOT
BRANCH   1   2
ATOM      2  O   UNL A   1      39.904  22.097  27.115  1.00  0.00    -0.377 OA
BRANCH   2   3
ATOM      3  C   UNL A   1      39.454  21.330  26.009  1.00  0.00     0.188 C 
BRANCH   3   4
ATOM      4  C   UNL A   1      38.105  21.810  25.444  1.00  0.00     0.188 C 
BRANCH   4   5
ATOM      5  O   UNL A   1      37.776  23.136  25.848  1.00  0.00    -0.376 OA
BRANCH   5   6
ATOM      6  C   UNL A   1      36.411  23.421  26.126  1.00  0.00     0.202 C 
BRANCH   6   7
ATOM      7  C   UNL A   1      35.496  23.764  24.940  1.00  0.00     0.261 C 
BRANCH   7   8
ATOM      8  O   UNL A   1      34.176  23.202  24.997  1.00  0.00    -0.460 OA
BRANCH   8   9
ATOM      9  C   UNL A   1      33.312  23.715  25.893  1.00  0.00     0.338 C 
ATOM     10  O   UNL A   1      33.145  23.344  27.041  1.00  0.00    -0.246 OA
BRANCH   9  11
ATOM     11  C   UNL A   1      32.706  24.926  25.295  1.00  0.00     0.087 C 
ATOM     12  C   UNL A   1      30.099  28.268  22.409  1.00  0.00     0.048 C 
ATOM     13  C   UNL A   1      30.913  28.343  23.671  1.00  0.00    -0.007 A 
ATOM     14  C   UNL A   1      30.956  29.542  24.396  1.00  0.00     0.027 A 
ATOM     15  C   UNL A   1      31.563  27.208  24.187  1.00  0.00     0.131 A 
ATOM     16  C   UNL A   1      31.662  29.612  25.597  1.00  0.00     0.042 A 
ATOM     17  C   UNL A   1      32.229  27.270  25.416  1.00  0.00     0.019 A 
ATOM     18  O   UNL A   1      31.485  26.067  23.439  1.00  0.00    -0.475 OA
ATOM     19  Cl  UNL A   1      31.713  31.091  26.473  1.00  0.00    -0.084 Cl
ATOM     20  C   UNL A   1      32.300  28.483  26.108  1.00  0.00     0.032 A 
ATOM     21  C   UNL A   1      32.792  26.062  25.998  1.00  0.00     0.027 C 
ATOM     22  C   UNL A   1      32.109  24.844  23.914  1.00  0.00     0.316 C 
BRANCH  22  23
ATOM     23  C   UNL A   1      31.070  23.720  23.789  1.00  0.00     0.430 C 
ATOM     24  F   UNL A   1      31.575  22.657  23.116  1.00  0.00    -0.167 F 
ATOM     25  F   UNL A   1      30.664  23.256  24.993  1.00  0.00    -0.167 F 
ATOM     26  F   UNL A   1      29.966  24.131  23.123  1.00  0.00    -0.167 F 
ENDBRANCH  22  23
ENDBRANCH   9  11
ENDBRANCH   8   9
ENDBRANCH   7   8
ENDBRANCH   6   7
ENDBRANCH   5   6
ENDBRANCH   4   5
ENDBRANCH   3   4
ENDBRANCH   2   3
ENDBRANCH   1   2
BRANCH   1  27
ATOM     27  C   UNL A   1      42.261  21.032  26.773  1.00  0.00     0.188 C 
BRANCH  27  28
ATOM     28  O   UNL A   1      43.507  21.661  26.495  1.00  0.00    -0.376 OA
BRANCH  28  29
ATOM     29  C   UNL A   1      44.120  21.354  25.251  1.00  0.00     0.202 C 
BRANCH  29  30
ATOM     30  C   UNL A   1      44.178  22.536  24.278  1.00  0.00     0.261 C 
BRANCH  30  31
ATOM     31  O   UNL A   1      43.561  23.744  24.749  1.00  0.00    -0.460 OA
BRANCH  31  32
ATOM     32  C   UNL A   1      44.373  24.757  25.120  1.00  0.00     0.338 C 
ATOM     33  O   UNL A   1      45.440  25.074  24.623  1.00  0.00    -0.246 OA
BRANCH  32  34
ATOM     34  C   UNL A   1      43.645  25.554  26.126  1.00  0.00     0.060 A 
ATOM     35  C   UNL A   1      44.086  26.851  26.416  1.00  0.00     0.016 A 
ATOM     36  C   UNL A   1      42.507  25.034  26.748  1.00  0.00     0.016 A 
ATOM     37  C   UNL A   1      43.394  27.626  27.347  1.00  0.00     0.010 A 
ATOM     38  C   UNL A   1      41.827  25.804  27.693  1.00  0.00     0.010 A 
ATOM     39  C   UNL A   1      42.281  27.095  28.013  1.00  0.00    -0.014 A 
BRANCH  39  40
ATOM     40  C   UNL A   1      41.696  27.828  29.159  1.00  0.00     0.031 A 
ATOM     41  C   UNL A   1      42.371  27.718  30.498  1.00  0.00     0.074 A 
ATOM     42  C   UNL A   1      40.610  28.605  29.010  1.00  0.00     0.049 A 
ATOM     43  N   UNL A   1      42.073  28.306  31.626  1.00  0.00    -0.248 NA
ATOM     44  C   UNL A   1      43.541  26.827  30.572  1.00  0.00     0.031 C 
ATOM     45  C   UNL A   1      39.882  28.809  27.758  1.00  0.00     0.029 A 
ATOM     46  N   UNL A   1      39.934  29.375  29.923  1.00  0.00    -0.354 N 
ATOM     47  C   UNL A   1      43.029  27.876  32.536  1.00  0.00     0.074 A 
ATOM     48  C   UNL A   1      43.886  26.939  31.845  1.00  0.00     0.031 C 
ATOM     49  C   UNL A   1      38.863  29.659  27.982  1.00  0.00     0.029 A 
ATOM     50  C   UNL A   1      38.856  30.043  29.393  1.00  0.00     0.049 A 
ATOM     51  H   UNL A   1      40.196  29.443  30.870  1.00  0.00     0.167 HD
ATOM     52  C   UNL A   1      43.191  28.247  33.828  1.00  0.00     0.037 A 
ATOM     53  C   UNL A   1      37.970  30.870  29.983  1.00  0.00     0.037 A 
ATOM     54  C   UNL A   1      42.331  29.168  34.518  1.00  0.00     0.049 A 
ATOM     55  C   UNL A   1      38.117  31.197  31.447  1.00  0.00     0.074 A 
ATOM     56  C   UNL A   1      42.419  29.608  35.826  1.00  0.00     0.029 A 
ATOM     57  N   UNL A   1      41.220  29.780  33.960  1.00  0.00    -0.354 N 
ATOM     58  N   UNL A   1      39.050  30.820  32.286  1.00  0.00    -0.248 NA
ATOM     59  C   UNL A   1      37.091  32.065  32.046  1.00  0.00     0.031 C 
ATOM     60  C   UNL A   1      41.332  30.450  36.075  1.00  0.00     0.029 A 
ATOM     61  C   UNL A   1      40.598  30.575  34.906  1.00  0.00     0.049 A 
ATOM     62  H   UNL A   1      40.918  29.666  33.029  1.00  0.00     0.167 HD
ATOM     63  C   UNL A   1      38.745  31.430  33.498  1.00  0.00     0.074 A 
ATOM     64  C   UNL A   1      37.541  32.203  33.286  1.00  0.00     0.031 C 
ATOM     65  C   UNL A   1      39.410  31.357  34.677  1.00  0.00     0.037 A 
BRANCH  52  66
ATOM     66  C   UNL A   1      44.345  27.657  34.579  1.00  0.00     0.057 A 
ATOM     67  C   UNL A   1      44.225  26.444  35.269  1.00  0.00     0.134 A 
ATOM     68  C   UNL A   1      45.602  28.274  34.565  1.00  0.00     0.134 A 
ATOM     69  F   UNL A   1      43.044  25.811  35.332  1.00  0.00    -0.206 F 
ATOM     70  C   UNL A   1      45.314  25.870  35.927  1.00  0.00     0.040 A 
ATOM     71  C   UNL A   1      46.703  27.698  35.197  1.00  0.00     0.040 A 
ATOM     72  F   UNL A   1      45.783  29.435  33.919  1.00  0.00    -0.206 F 
ATOM     73  C   UNL A   1      46.560  26.492  35.884  1.00  0.00     0.006 A 
ENDBRANCH  52  66
BRANCH  53  74
ATOM     74  C   UNL A   1      36.873  31.471  29.180  1.00  0.00     0.057 A 
ATOM     75  C   UNL A   1      36.939  32.801  28.751  1.00  0.00     0.134 A 
ATOM     76  C   UNL A   1      35.737  30.734  28.823  1.00  0.00     0.134 A 
ATOM     77  F   UNL A   1      37.990  33.566  29.081  1.00  0.00    -0.206 F 
ATOM     78  C   UNL A   1      35.913  33.379  28.001  1.00  0.00     0.040 A 
ATOM     79  C   UNL A   1      34.715  31.293  28.055  1.00  0.00     0.040 A 
ATOM     80  F   UNL A   1      35.613  29.454  29.206  1.00  0.00    -0.206 F 
ATOM     81  C   UNL A   1      34.799  32.622  27.645  1.00  0.00     0.006 A 
ENDBRANCH  53  74
BRANCH  65  82
ATOM     82  C   UNL A   1      38.887  32.151  35.838  1.00  0.00     0.057 A 
ATOM     83  C   UNL A   1      38.153  31.552  36.866  1.00  0.00     0.134 A 
ATOM     84  C   UNL A   1      39.239  33.499  35.990  1.00  0.00     0.134 A 
ATOM     85  F   UNL A   1      37.781  30.267  36.777  1.00  0.00    -0.206 F 
ATOM     86  C   UNL A   1      37.790  32.265  38.011  1.00  0.00     0.040 A 
ATOM     87  C   UNL A   1      38.902  34.215  37.139  1.00  0.00     0.040 A 
ATOM     88  F   UNL A   1      39.954  34.128  35.045  1.00  0.00    -0.206 F 
ATOM     89  C   UNL A   1      38.178  33.597  38.156  1.00  0.00     0.006 A 
ENDBRANCH  65  82
ENDBRANCH  39  40
ENDBRANCH  32  34
ENDBRANCH  31  32
ENDBRANCH  30  31
ENDBRANCH  29  30
ENDBRANCH  28  29
ENDBRANCH  27  28
ENDBRANCH   1  27
TORSDOF 21
ENDMDL
MODEL 2
REMARK VINA RESULT:     -10.6      4.959     10.192
REMARK SMILES Cc1cc(Cl)cc2c1O[C@H](C(F)(F)F)C(C(=O)OCCOCCOCCOCCOC(=O)c1ccc(-c3c4nc(c(-c5c(F)cccc5F)c5ccc([nH]5)c(-c5c(F)cccc5F)c5nc(c(-c6c(F)cccc6F)c6ccc3[nH]6)C=C5)C=C4)cc1)=C2
REMARK SMILES IDX 25 1 24 2 23 3 22 4 21 5 20 6 19 7 18 8 16 9 17 10 15 11
REMARK SMILES IDX 1 12 2 13 3 14 8 15 4 16 7 17 9 18 5 19 6 20 87 21 10 22
REMARK SMILES IDX 11 23 12 24 13 25 14 26 26 27 27 28 28 29 29 30 30 31 31 32
REMARK SMILES IDX 32 33 33 34 34 35 86 36 35 37 85 38 36 39 37 40 38 41 79 42
REMARK SMILES IDX 39 43 84 44 78 45 80 46 40 47 83 48 77 49 76 50 41 52 67 53
REMARK SMILES IDX 50 54 66 55 51 56 54 57 65 58 81 59 52 60 53 61 64 63 82 64
REMARK SMILES IDX 55 65 42 66 43 67 48 68 44 69 45 70 47 71 49 72 46 73 68 74
REMARK SMILES IDX 69 75 74 76 70 77 71 78 73 79 75 80 72 81 56 82 57 83 62 84
REMARK SMILES IDX 58 85 59 86 61 87 63 88 60 89
REMARK H PARENT 80 51 54 62
REMARK Flexibility Score: inf
ROOT
ATOM      1  C   UNL A   1      32.839  36.157  30.516  1.00  0.00     0.188 C 
ENDROOT
BRANCH   1   2
ATOM      2  O   UNL A   1      32.917  34.810  30.049  1.00  0.00    -0.377 OA
BRANCH   2   3
ATOM      3  C   UNL A   1      33.570  34.574  28.811  1.00  0.00     0.188 C 
BRANCH   3   4
ATOM      4  C   UNL A   1      34.694  33.526  28.906  1.00  0.00     0.188 C 
BRANCH   4   5
ATOM      5  O   UNL A   1      34.688  32.607  27.816  1.00  0.00    -0.376 OA
BRANCH   5   6
ATOM      6  C   UNL A   1      34.062  31.347  28.019  1.00  0.00     0.202 C 
BRANCH   6   7
ATOM      7  C   UNL A   1      34.446  30.197  27.076  1.00  0.00     0.261 C 
BRANCH   7   8
ATOM      8  O   UNL A   1      34.044  28.887  27.503  1.00  0.00    -0.460 OA
BRANCH   8   9
ATOM      9  C   UNL A   1      32.814  28.462  27.157  1.00  0.00     0.338 C 
ATOM     10  O   UNL A   1      31.752  28.873  27.589  1.00  0.00    -0.246 OA
BRANCH   9  11
ATOM     11  C   UNL A   1      32.964  27.514  26.030  1.00  0.00     0.087 C 
ATOM     12  C   UNL A   1      32.741  25.086  21.520  1.00  0.00     0.048 C 
ATOM     13  C   UNL A   1      33.474  24.880  22.817  1.00  0.00    -0.007 A 
ATOM     14  C   UNL A   1      34.452  23.879  22.908  1.00  0.00     0.027 A 
ATOM     15  C   UNL A   1      33.261  25.731  23.916  1.00  0.00     0.131 A 
ATOM     16  C   UNL A   1      35.178  23.713  24.085  1.00  0.00     0.042 A 
ATOM     17  C   UNL A   1      34.027  25.591  25.078  1.00  0.00     0.019 A 
ATOM     18  O   UNL A   1      32.299  26.689  23.769  1.00  0.00    -0.475 OA
ATOM     19  Cl  UNL A   1      36.369  22.477  24.187  1.00  0.00    -0.084 Cl
ATOM     20  C   UNL A   1      34.969  24.562  25.172  1.00  0.00     0.032 A 
ATOM     21  C   UNL A   1      33.884  26.551  26.162  1.00  0.00     0.027 C 
ATOM     22  C   UNL A   1      32.033  27.623  24.850  1.00  0.00     0.316 C 
BRANCH  22  23
ATOM     23  C   UNL A   1      32.017  29.035  24.243  1.00  0.00     0.430 C 
ATOM     24  F   UNL A   1      31.815  28.990  22.903  1.00  0.00    -0.167 F 
ATOM     25  F   UNL A   1      31.031  29.805  24.756  1.00  0.00    -0.167 F 
ATOM     26  F   UNL A   1      33.186  29.683  24.454  1.00  0.00    -0.167 F 
ENDBRANCH  22  23
ENDBRANCH   9  11
ENDBRANCH   8   9
ENDBRANCH   7   8
ENDBRANCH   6   7
ENDBRANCH   5   6
ENDBRANCH   4   5
ENDBRANCH   3   4
ENDBRANCH   2   3
ENDBRANCH   1   2
BRANCH   1  27
ATOM     27  C   UNL A   1      33.445  36.603  31.869  1.00  0.00     0.188 C 
BRANCH  27  28
ATOM     28  O   UNL A   1      33.505  35.572  32.849  1.00  0.00    -0.376 OA
BRANCH  28  29
ATOM     29  C   UNL A   1      34.755  35.368  33.493  1.00  0.00     0.202 C 
BRANCH  29  30
ATOM     30  C   UNL A   1      35.848  34.823  32.569  1.00  0.00     0.261 C 
BRANCH  30  31
ATOM     31  O   UNL A   1      35.795  33.408  32.329  1.00  0.00    -0.460 OA
BRANCH  31  32
ATOM     32  C   UNL A   1      36.503  32.607  33.153  1.00  0.00     0.338 C 
ATOM     33  O   UNL A   1      36.268  32.348  34.320  1.00  0.00    -0.246 OA
BRANCH  32  34
ATOM     34  C   UNL A   1      37.525  31.930  32.331  1.00  0.00     0.060 A 
ATOM     35  C   UNL A   1      38.633  31.352  32.962  1.00  0.00     0.016 A 
ATOM     36  C   UNL A   1      37.364  31.833  30.946  1.00  0.00     0.016 A 
ATOM     37  C   UNL A   1      39.594  30.687  32.202  1.00  0.00     0.010 A 
ATOM     38  C   UNL A   1      38.338  31.183  30.185  1.00  0.00     0.010 A 
ATOM     39  C   UNL A   1      39.467  30.627  30.807  1.00  0.00    -0.014 A 
BRANCH  39  40
ATOM     40  C   UNL A   1      40.599  30.129  29.990  1.00  0.00     0.031 A 
ATOM     41  C   UNL A   1      41.746  31.060  29.714  1.00  0.00     0.074 A 
ATOM     42  C   UNL A   1      40.626  28.866  29.533  1.00  0.00     0.049 A 
ATOM     43  N   UNL A   1      42.861  30.832  29.072  1.00  0.00    -0.248 NA
ATOM     44  C   UNL A   1      41.619  32.432  30.236  1.00  0.00     0.031 C 
ATOM     45  C   UNL A   1      39.585  27.864  29.754  1.00  0.00     0.029 A 
ATOM     46  N   UNL A   1      41.575  28.208  28.790  1.00  0.00    -0.354 N 
ATOM     47  C   UNL A   1      43.577  32.021  29.132  1.00  0.00     0.074 A 
ATOM     48  C   UNL A   1      42.751  32.982  29.828  1.00  0.00     0.031 C 
ATOM     49  C   UNL A   1      39.958  26.713  29.165  1.00  0.00     0.029 A 
ATOM     50  C   UNL A   1      41.252  26.902  28.512  1.00  0.00     0.049 A 
ATOM     51  H   UNL A   1      42.409  28.633  28.485  1.00  0.00     0.167 HD
ATOM     52  C   UNL A   1      44.821  32.280  28.667  1.00  0.00     0.037 A 
ATOM     53  C   UNL A   1      41.928  25.969  27.812  1.00  0.00     0.037 A 
ATOM     54  C   UNL A   1      45.636  31.327  27.964  1.00  0.00     0.049 A 
ATOM     55  C   UNL A   1      43.274  26.310  27.224  1.00  0.00     0.074 A 
ATOM     56  C   UNL A   1      46.912  31.498  27.459  1.00  0.00     0.029 A 
ATOM     57  N   UNL A   1      45.249  30.033  27.657  1.00  0.00    -0.354 N 
ATOM     58  N   UNL A   1      43.960  27.422  27.326  1.00  0.00    -0.248 NA
ATOM     59  C   UNL A   1      43.940  25.267  26.429  1.00  0.00     0.031 C 
ATOM     60  C   UNL A   1      47.280  30.320  26.802  1.00  0.00     0.029 A 
ATOM     61  C   UNL A   1      46.253  29.400  26.946  1.00  0.00     0.049 A 
ATOM     62  H   UNL A   1      44.389  29.624  27.907  1.00  0.00     0.167 HD
ATOM     63  C   UNL A   1      45.149  27.202  26.639  1.00  0.00     0.074 A 
ATOM     64  C   UNL A   1      45.093  25.851  26.126  1.00  0.00     0.031 C 
ATOM     65  C   UNL A   1      46.194  28.046  26.458  1.00  0.00     0.037 A 
BRANCH  52  66
ATOM     66  C   UNL A   1      45.380  33.649  28.907  1.00  0.00     0.057 A 
ATOM     67  C   UNL A   1      46.212  33.917  30.002  1.00  0.00     0.134 A 
ATOM     68  C   UNL A   1      45.137  34.692  28.006  1.00  0.00     0.134 A 
ATOM     69  F   UNL A   1      46.472  32.963  30.909  1.00  0.00    -0.206 F 
ATOM     70  C   UNL A   1      46.773  35.180  30.197  1.00  0.00     0.040 A 
ATOM     71  C   UNL A   1      45.712  35.951  28.177  1.00  0.00     0.040 A 
ATOM     72  F   UNL A   1      44.352  34.498  26.936  1.00  0.00    -0.206 F 
ATOM     73  C   UNL A   1      46.532  36.198  29.278  1.00  0.00     0.006 A 
ENDBRANCH  52  66
BRANCH  53  74
ATOM     74  C   UNL A   1      41.353  24.609  27.647  1.00  0.00     0.057 A 
ATOM     75  C   UNL A   1      41.811  23.534  28.417  1.00  0.00     0.134 A 
ATOM     76  C   UNL A   1      40.336  24.350  26.721  1.00  0.00     0.134 A 
ATOM     77  F   UNL A   1      42.800  23.713  29.306  1.00  0.00    -0.206 F 
ATOM     78  C   UNL A   1      41.284  22.250  28.268  1.00  0.00     0.040 A 
ATOM     79  C   UNL A   1      39.784  23.076  26.577  1.00  0.00     0.040 A 
ATOM     80  F   UNL A   1      39.855  25.338  25.950  1.00  0.00    -0.206 F 
ATOM     81  C   UNL A   1      40.261  22.020  27.351  1.00  0.00     0.006 A 
ENDBRANCH  53  74
BRANCH  65  82
ATOM     82  C   UNL A   1      47.389  27.545  25.701  1.00  0.00     0.057 A 
ATOM     83  C   UNL A   1      48.444  26.889  26.344  1.00  0.00     0.134 A 
ATOM     84  C   UNL A   1      47.417  27.604  24.301  1.00  0.00     0.134 A 
ATOM     85  F   UNL A   1      48.478  26.805  27.682  1.00  0.00    -0.206 F 
ATOM     86  C   UNL A   1      49.484  26.302  25.620  1.00  0.00     0.040 A 
ATOM     87  C   UNL A   1      48.438  27.001  23.566  1.00  0.00     0.040 A 
ATOM     88  F   UNL A   1      46.428  28.208  23.625  1.00  0.00    -0.206 F 
ATOM     89  C   UNL A   1      49.474  26.345  24.226  1.00  0.00     0.006 A 
ENDBRANCH  65  82
ENDBRANCH  39  40
ENDBRANCH  32  34
ENDBRANCH  31  32
ENDBRANCH  30  31
ENDBRANCH  29  30
ENDBRANCH  28  29
ENDBRANCH  27  28
ENDBRANCH   1  27
TORSDOF 21
ENDMDL
MODEL 3
REMARK VINA RESULT:     -10.6      0.830      6.107
REMARK SMILES Cc1cc(Cl)cc2c1O[C@H](C(F)(F)F)C(C(=O)OCCOCCOCCOCCOC(=O)c1ccc(-c3c4nc(c(-c5c(F)cccc5F)c5ccc([nH]5)c(-c5c(F)cccc5F)c5nc(c(-c6c(F)cccc6F)c6ccc3[nH]6)C=C5)C=C4)cc1)=C2
REMARK SMILES IDX 25 1 24 2 23 3 22 4 21 5 20 6 19 7 18 8 16 9 17 10 15 11
REMARK SMILES IDX 1 12 2 13 3 14 8 15 4 16 7 17 9 18 5 19 6 20 87 21 10 22
REMARK SMILES IDX 11 23 12 24 13 25 14 26 26 27 27 28 28 29 29 30 30 31 31 32
REMARK SMILES IDX 32 33 33 34 34 35 86 36 35 37 85 38 36 39 37 40 38 41 79 42
REMARK SMILES IDX 39 43 84 44 78 45 80 46 40 47 83 48 77 49 76 50 41 52 67 53
REMARK SMILES IDX 50 54 66 55 51 56 54 57 65 58 81 59 52 60 53 61 64 63 82 64
REMARK SMILES IDX 55 65 42 66 43 67 48 68 44 69 45 70 47 71 49 72 46 73 68 74
REMARK SMILES IDX 69 75 74 76 70 77 71 78 73 79 75 80 72 81 56 82 57 83 62 84
REMARK SMILES IDX 58 85 59 86 61 87 63 88 60 89
REMARK H PARENT 80 51 54 62
REMARK Flexibility Score: inf
ROOT
ATOM      1  C   UNL A   1      39.732  21.454  26.404  1.00  0.00     0.188 C 
ENDROOT
BRANCH   1   2
ATOM      2  O   UNL A   1      38.518  21.771  25.721  1.00  0.00    -0.377 OA
BRANCH   2   3
ATOM      3  C   UNL A   1      37.887  20.740  24.976  1.00  0.00     0.188 C 
BRANCH   3   4
ATOM      4  C   UNL A   1      36.369  20.657  25.218  1.00  0.00     0.188 C 
BRANCH   4   5
ATOM      5  O   UNL A   1      35.894  21.661  26.110  1.00  0.00    -0.376 OA
BRANCH   5   6
ATOM      6  C   UNL A   1      34.493  21.730  26.340  1.00  0.00     0.202 C 
BRANCH   6   7
ATOM      7  C   UNL A   1      33.859  23.122  26.483  1.00  0.00     0.261 C 
BRANCH   7   8
ATOM      8  O   UNL A   1      34.609  24.204  25.912  1.00  0.00    -0.460 OA
BRANCH   8   9
ATOM      9  C   UNL A   1      34.521  24.398  24.583  1.00  0.00     0.338 C 
ATOM     10  O   UNL A   1      35.057  23.735  23.712  1.00  0.00    -0.246 OA
BRANCH   9  11
ATOM     11  C   UNL A   1      33.521  25.464  24.345  1.00  0.00     0.087 C 
ATOM     12  C   UNL A   1      29.483  28.237  22.832  1.00  0.00     0.048 C 
ATOM     13  C   UNL A   1      30.647  28.450  23.761  1.00  0.00    -0.007 A 
ATOM     14  C   UNL A   1      30.697  29.605  24.554  1.00  0.00     0.027 A 
ATOM     15  C   UNL A   1      31.643  27.471  23.915  1.00  0.00     0.131 A 
ATOM     16  C   UNL A   1      31.740  29.790  25.460  1.00  0.00     0.042 A 
ATOM     17  C   UNL A   1      32.662  27.639  24.860  1.00  0.00     0.019 A 
ATOM     18  O   UNL A   1      31.542  26.366  23.119  1.00  0.00    -0.475 OA
ATOM     19  Cl  UNL A   1      31.795  31.215  26.421  1.00  0.00    -0.084 Cl
ATOM     20  C   UNL A   1      32.724  28.815  25.614  1.00  0.00     0.032 A 
ATOM     21  C   UNL A   1      33.616  26.567  25.097  1.00  0.00     0.027 C 
ATOM     22  C   UNL A   1      32.519  25.296  23.233  1.00  0.00     0.316 C 
BRANCH  22  23
ATOM     23  C   UNL A   1      31.742  23.974  23.336  1.00  0.00     0.430 C 
ATOM     24  F   UNL A   1      31.666  23.549  24.620  1.00  0.00    -0.167 F 
ATOM     25  F   UNL A   1      30.469  24.088  22.892  1.00  0.00    -0.167 F 
ATOM     26  F   UNL A   1      32.332  22.991  22.618  1.00  0.00    -0.167 F 
ENDBRANCH  22  23
ENDBRANCH   9  11
ENDBRANCH   8   9
ENDBRANCH   7   8
ENDBRANCH   6   7
ENDBRANCH   5   6
ENDBRANCH   4   5
ENDBRANCH   3   4
ENDBRANCH   2   3
ENDBRANCH   1   2
BRANCH   1  27
ATOM     27  C   UNL A   1      40.406  20.064  26.295  1.00  0.00     0.188 C 
BRANCH  27  28
ATOM     28  O   UNL A   1      41.703  20.089  25.710  1.00  0.00    -0.376 OA
BRANCH  28  29
ATOM     29  C   UNL A   1      42.655  20.967  26.295  1.00  0.00     0.202 C 
BRANCH  29  30
ATOM     30  C   UNL A   1      43.358  21.882  25.286  1.00  0.00     0.261 C 
BRANCH  30  31
ATOM     31  O   UNL A   1      42.830  23.214  25.200  1.00  0.00    -0.460 OA
BRANCH  31  32
ATOM     32  C   UNL A   1      43.699  24.240  25.324  1.00  0.00     0.338 C 
ATOM     33  O   UNL A   1      44.652  24.497  24.609  1.00  0.00    -0.246 OA
BRANCH  32  34
ATOM     34  C   UNL A   1      43.176  25.130  26.379  1.00  0.00     0.060 A 
ATOM     35  C   UNL A   1      43.727  26.408  26.526  1.00  0.00     0.016 A 
ATOM     36  C   UNL A   1      42.118  24.713  27.192  1.00  0.00     0.016 A 
ATOM     37  C   UNL A   1      43.228  27.269  27.503  1.00  0.00     0.010 A 
ATOM     38  C   UNL A   1      41.632  25.570  28.181  1.00  0.00     0.010 A 
ATOM     39  C   UNL A   1      42.200  26.843  28.356  1.00  0.00    -0.014 A 
BRANCH  39  40
ATOM     40  C   UNL A   1      41.837  27.666  29.532  1.00  0.00     0.031 A 
ATOM     41  C   UNL A   1      40.665  28.600  29.418  1.00  0.00     0.074 A 
ATOM     42  C   UNL A   1      42.510  27.561  30.691  1.00  0.00     0.049 A 
ATOM     43  N   UNL A   1      40.133  29.376  30.325  1.00  0.00    -0.248 NA
ATOM     44  C   UNL A   1      40.002  28.664  28.104  1.00  0.00     0.031 C 
ATOM     45  C   UNL A   1      43.648  26.676  30.931  1.00  0.00     0.029 A 
ATOM     46  N   UNL A   1      42.325  28.206  31.889  1.00  0.00    -0.354 N 
ATOM     47  C   UNL A   1      39.062  30.001  29.701  1.00  0.00     0.074 A 
ATOM     48  C   UNL A   1      39.049  29.556  28.326  1.00  0.00     0.031 C 
ATOM     49  C   UNL A   1      44.055  26.827  32.204  1.00  0.00     0.029 A 
ATOM     50  C   UNL A   1      43.219  27.831  32.862  1.00  0.00     0.049 A 
ATOM     51  H   UNL A   1      41.617  28.874  32.038  1.00  0.00     0.167 HD
ATOM     52  C   UNL A   1      38.158  30.855  30.234  1.00  0.00     0.037 A 
ATOM     53  C   UNL A   1      43.345  28.251  34.137  1.00  0.00     0.037 A 
ATOM     54  C   UNL A   1      38.179  31.308  31.597  1.00  0.00     0.049 A 
ATOM     55  C   UNL A   1      42.380  29.272  34.682  1.00  0.00     0.074 A 
ATOM     56  C   UNL A   1      37.301  32.170  32.229  1.00  0.00     0.029 A 
ATOM     57  N   UNL A   1      39.134  30.946  32.534  1.00  0.00    -0.354 N 
ATOM     58  N   UNL A   1      41.344  29.823  34.097  1.00  0.00    -0.248 NA
ATOM     59  C   UNL A   1      42.597  29.729  36.064  1.00  0.00     0.031 C 
ATOM     60  C   UNL A   1      37.752  32.368  33.537  1.00  0.00     0.029 A 
ATOM     61  C   UNL A   1      38.880  31.588  33.733  1.00  0.00     0.049 A 
ATOM     62  H   UNL A   1      39.880  30.325  32.371  1.00  0.00     0.167 HD
ATOM     63  C   UNL A   1      40.769  30.661  35.045  1.00  0.00     0.074 A 
ATOM     64  C   UNL A   1      41.568  30.547  36.245  1.00  0.00     0.031 C 
ATOM     65  C   UNL A   1      39.672  31.449  34.929  1.00  0.00     0.037 A 
BRANCH  52  66
ATOM     66  C   UNL A   1      37.064  31.353  29.339  1.00  0.00     0.057 A 
ATOM     67  C   UNL A   1      35.908  30.597  29.106  1.00  0.00     0.134 A 
ATOM     68  C   UNL A   1      37.137  32.624  28.755  1.00  0.00     0.134 A 
ATOM     69  F   UNL A   1      35.784  29.366  29.626  1.00  0.00    -0.206 F 
ATOM     70  C   UNL A   1      34.868  31.083  28.314  1.00  0.00     0.040 A 
ATOM     71  C   UNL A   1      36.092  33.130  27.982  1.00  0.00     0.040 A 
ATOM     72  F   UNL A   1      38.215  33.398  28.943  1.00  0.00    -0.206 F 
ATOM     73  C   UNL A   1      34.953  32.357  27.758  1.00  0.00     0.006 A 
ENDBRANCH  52  66
BRANCH  53  74
ATOM     74  C   UNL A   1      44.415  27.686  35.000  1.00  0.00     0.057 A 
ATOM     75  C   UNL A   1      44.188  26.544  35.776  1.00  0.00     0.134 A 
ATOM     76  C   UNL A   1      45.685  28.270  35.069  1.00  0.00     0.134 A 
ATOM     77  F   UNL A   1      42.984  25.952  35.770  1.00  0.00    -0.206 F 
ATOM     78  C   UNL A   1      45.183  26.006  36.594  1.00  0.00     0.040 A 
ATOM     79  C   UNL A   1      46.696  27.730  35.865  1.00  0.00     0.040 A 
ATOM     80  F   UNL A   1      45.965  29.368  34.350  1.00  0.00    -0.206 F 
ATOM     81  C   UNL A   1      46.445  26.596  36.635  1.00  0.00     0.006 A 
ENDBRANCH  53  74
BRANCH  65  82
ATOM     82  C   UNL A   1      39.233  32.237  36.128  1.00  0.00     0.057 A 
ATOM     83  C   UNL A   1      39.675  33.545  36.351  1.00  0.00     0.134 A 
ATOM     84  C   UNL A   1      38.254  31.725  36.992  1.00  0.00     0.134 A 
ATOM     85  F   UNL A   1      40.614  34.088  35.563  1.00  0.00    -0.206 F 
ATOM     86  C   UNL A   1      39.155  34.321  37.389  1.00  0.00     0.040 A 
ATOM     87  C   UNL A   1      37.711  32.499  38.017  1.00  0.00     0.040 A 
ATOM     88  F   UNL A   1      37.778  30.482  36.823  1.00  0.00    -0.206 F 
ATOM     89  C   UNL A   1      38.159  33.803  38.216  1.00  0.00     0.006 A 
ENDBRANCH  65  82
ENDBRANCH  39  40
ENDBRANCH  32  34
ENDBRANCH  31  32
ENDBRANCH  30  31
ENDBRANCH  29  30
ENDBRANCH  28  29
ENDBRANCH  27  28
ENDBRANCH   1  27
TORSDOF 21
ENDMDL
