MODEL 1
REMARK VINA RESULT:     -10.5      0.000      0.000
REMARK SMILES CCc1cc(C)c2c(c1)C=C(C(=O)OCCOCCOCCOCCOC(=O)c1ccc(-c3c4nc(c(-c5c(F)cccc5F)c5ccc([nH]5)c(-c5c(F)cccc5F)c5nc(c(-c6c(F)cccc6F)c6ccc3[nH]6)C=C5)C=C4)cc1)[C@@H](C(F)(F)F)O2
REMARK SMILES IDX 21 1 20 2 19 3 18 4 17 5 16 6 15 7 14 8 12 9 13 10 11 11
REMARK SMILES IDX 3 12 4 13 9 14 5 15 8 16 6 17 7 18 10 19 88 20 83 21 2 22
REMARK SMILES IDX 1 23 84 24 85 25 86 26 87 27 22 28 23 29 24 30 25 31 26 32
REMARK SMILES IDX 27 33 28 34 29 35 30 36 82 37 31 38 81 39 32 40 33 41 34 42
REMARK SMILES IDX 75 43 35 44 80 45 74 46 76 47 36 48 79 49 73 50 72 51 37 53
REMARK SMILES IDX 63 54 46 55 62 56 47 57 50 58 61 59 77 60 48 61 49 62 60 64
REMARK SMILES IDX 78 65 51 66 38 67 39 68 44 69 40 70 41 71 43 72 45 73 42 74
REMARK SMILES IDX 64 75 65 76 70 77 66 78 67 79 69 80 71 81 68 82 52 83 53 84
REMARK SMILES IDX 58 85 54 86 55 87 57 88 59 89 56 90
REMARK H PARENT 76 52 50 63
REMARK Flexibility Score: inf
ROOT
ATOM      1  C   UNL A   1      33.093  28.908  26.485  1.00  0.00     0.188 C 
ENDROOT
BRANCH   1   2
ATOM      2  O   UNL A   1      33.726  28.525  25.265  1.00  0.00    -0.377 OA
BRANCH   2   3
ATOM      3  C   UNL A   1      33.099  28.918  24.054  1.00  0.00     0.188 C 
BRANCH   3   4
ATOM      4  C   UNL A   1      31.689  28.319  23.885  1.00  0.00     0.188 C 
BRANCH   4   5
ATOM      5  O   UNL A   1      31.637  27.028  23.311  1.00  0.00    -0.376 OA
BRANCH   5   6
ATOM      6  C   UNL A   1      30.556  26.132  23.511  1.00  0.00     0.202 C 
BRANCH   6   7
ATOM      7  C   UNL A   1      30.431  25.053  24.606  1.00  0.00     0.261 C 
BRANCH   7   8
ATOM      8  O   UNL A   1      31.052  23.792  24.379  1.00  0.00    -0.460 OA
BRANCH   8   9
ATOM      9  C   UNL A   1      31.202  22.990  25.447  1.00  0.00     0.338 C 
ATOM     10  O   UNL A   1      30.444  22.882  26.394  1.00  0.00    -0.246 OA
BRANCH   9  11
ATOM     11  C   UNL A   1      32.368  22.119  25.192  1.00  0.00     0.087 C 
ATOM     12  C   UNL A   1      34.035  17.680  24.405  1.00  0.00    -0.047 A 
ATOM     13  C   UNL A   1      35.344  18.154  24.574  1.00  0.00     0.011 A 
ATOM     14  C   UNL A   1      32.977  18.594  24.435  1.00  0.00     0.015 A 
ATOM     15  C   UNL A   1      35.600  19.521  24.770  1.00  0.00    -0.008 A 
ATOM     16  C   UNL A   1      33.217  19.952  24.669  1.00  0.00     0.018 A 
ATOM     17  C   UNL A   1      37.006  19.998  25.001  1.00  0.00     0.048 C 
ATOM     18  C   UNL A   1      34.525  20.422  24.801  1.00  0.00     0.130 A 
ATOM     19  C   UNL A   1      32.096  20.846  24.882  1.00  0.00     0.027 C 
ATOM     20  O   UNL A   1      34.828  21.742  24.990  1.00  0.00    -0.475 OA
ATOM     21  C   UNL A   1      33.757  22.698  25.221  1.00  0.00     0.316 C 
BRANCH  12  22
ATOM     22  C   UNL A   1      33.753  16.204  24.276  1.00  0.00     0.032 C 
ATOM     23  C   UNL A   1      32.852  15.668  25.377  1.00  0.00     0.009 C 
ENDBRANCH  12  22
BRANCH  21  24
ATOM     24  C   UNL A   1      34.048  23.435  26.533  1.00  0.00     0.430 C 
ATOM     25  F   UNL A   1      33.414  22.850  27.580  1.00  0.00    -0.167 F 
ATOM     26  F   UNL A   1      35.368  23.434  26.834  1.00  0.00    -0.167 F 
ATOM     27  F   UNL A   1      33.646  24.725  26.486  1.00  0.00    -0.167 F 
ENDBRANCH  21  24
ENDBRANCH   9  11
ENDBRANCH   8   9
ENDBRANCH   7   8
ENDBRANCH   6   7
ENDBRANCH   5   6
ENDBRANCH   4   5
ENDBRANCH   3   4
ENDBRANCH   2   3
ENDBRANCH   1   2
BRANCH   1  28
ATOM     28  C   UNL A   1      32.888  30.401  26.839  1.00  0.00     0.188 C 
BRANCH  28  29
ATOM     29  O   UNL A   1      31.598  30.902  26.518  1.00  0.00    -0.376 OA
BRANCH  29  30
ATOM     30  C   UNL A   1      31.368  32.298  26.541  1.00  0.00     0.202 C 
BRANCH  30  31
ATOM     31  C   UNL A   1      32.513  33.185  27.044  1.00  0.00     0.261 C 
BRANCH  31  32
ATOM     32  O   UNL A   1      32.251  33.935  28.236  1.00  0.00    -0.460 OA
BRANCH  32  33
ATOM     33  C   UNL A   1      33.203  34.791  28.655  1.00  0.00     0.338 C 
ATOM     34  O   UNL A   1      33.106  35.999  28.806  1.00  0.00    -0.246 OA
BRANCH  33  35
ATOM     35  C   UNL A   1      34.365  33.982  29.060  1.00  0.00     0.060 A 
ATOM     36  C   UNL A   1      34.176  32.833  29.841  1.00  0.00     0.016 A 
ATOM     37  C   UNL A   1      35.645  34.369  28.658  1.00  0.00     0.016 A 
ATOM     38  C   UNL A   1      35.277  32.083  30.252  1.00  0.00     0.010 A 
ATOM     39  C   UNL A   1      36.746  33.638  29.097  1.00  0.00     0.010 A 
ATOM     40  C   UNL A   1      36.567  32.515  29.923  1.00  0.00    -0.014 A 
BRANCH  40  41
ATOM     41  C   UNL A   1      37.742  31.959  30.626  1.00  0.00     0.031 A 
ATOM     42  C   UNL A   1      38.506  30.857  29.949  1.00  0.00     0.074 A 
ATOM     43  C   UNL A   1      38.097  32.387  31.848  1.00  0.00     0.049 A 
ATOM     44  N   UNL A   1      39.486  30.120  30.401  1.00  0.00    -0.248 NA
ATOM     45  C   UNL A   1      38.096  30.541  28.571  1.00  0.00     0.031 C 
ATOM     46  C   UNL A   1      37.466  33.483  32.579  1.00  0.00     0.029 A 
ATOM     47  N   UNL A   1      39.069  31.925  32.696  1.00  0.00    -0.354 N 
ATOM     48  C   UNL A   1      39.809  29.252  29.365  1.00  0.00     0.074 A 
ATOM     49  C   UNL A   1      38.898  29.530  28.278  1.00  0.00     0.031 C 
ATOM     50  C   UNL A   1      38.058  33.598  33.781  1.00  0.00     0.029 A 
ATOM     51  C   UNL A   1      39.075  32.555  33.916  1.00  0.00     0.049 A 
ATOM     52  H   UNL A   1      39.701  31.210  32.455  1.00  0.00     0.167 HD
ATOM     53  C   UNL A   1      40.781  28.311  29.324  1.00  0.00     0.037 A 
ATOM     54  C   UNL A   1      39.800  32.291  35.018  1.00  0.00     0.037 A 
ATOM     55  C   UNL A   1      41.654  28.012  30.429  1.00  0.00     0.049 A 
ATOM     56  C   UNL A   1      40.775  31.143  35.000  1.00  0.00     0.074 A 
ATOM     57  C   UNL A   1      42.676  27.084  30.498  1.00  0.00     0.029 A 
ATOM     58  N   UNL A   1      41.584  28.626  31.671  1.00  0.00    -0.354 N 
ATOM     59  N   UNL A   1      41.104  30.345  34.011  1.00  0.00    -0.248 NA
ATOM     60  C   UNL A   1      41.472  30.851  36.261  1.00  0.00     0.031 C 
ATOM     61  C   UNL A   1      43.180  27.089  31.804  1.00  0.00     0.029 A 
ATOM     62  C   UNL A   1      42.513  28.063  32.531  1.00  0.00     0.049 A 
ATOM     63  H   UNL A   1      40.966  29.355  31.908  1.00  0.00     0.167 HD
ATOM     64  C   UNL A   1      42.057  29.473  34.522  1.00  0.00     0.074 A 
ATOM     65  C   UNL A   1      42.270  29.854  35.903  1.00  0.00     0.031 C 
ATOM     66  C   UNL A   1      42.698  28.445  33.909  1.00  0.00     0.037 A 
BRANCH  53  67
ATOM     67  C   UNL A   1      40.899  27.513  28.057  1.00  0.00     0.057 A 
ATOM     68  C   UNL A   1      41.744  27.936  27.023  1.00  0.00     0.134 A 
ATOM     69  C   UNL A   1      40.203  26.310  27.870  1.00  0.00     0.134 A 
ATOM     70  F   UNL A   1      42.438  29.079  27.134  1.00  0.00    -0.206 F 
ATOM     71  C   UNL A   1      41.903  27.186  25.857  1.00  0.00     0.040 A 
ATOM     72  C   UNL A   1      40.380  25.535  26.721  1.00  0.00     0.040 A 
ATOM     73  F   UNL A   1      39.391  25.837  28.828  1.00  0.00    -0.206 F 
ATOM     74  C   UNL A   1      41.231  25.974  25.710  1.00  0.00     0.006 A 
ENDBRANCH  53  67
BRANCH  54  75
ATOM     75  C   UNL A   1      39.624  33.111  36.244  1.00  0.00     0.057 A 
ATOM     76  C   UNL A   1      38.675  32.783  37.220  1.00  0.00     0.134 A 
ATOM     77  C   UNL A   1      40.427  34.233  36.476  1.00  0.00     0.134 A 
ATOM     78  F   UNL A   1      37.878  31.718  37.060  1.00  0.00    -0.206 F 
ATOM     79  C   UNL A   1      38.525  33.549  38.378  1.00  0.00     0.040 A 
ATOM     80  C   UNL A   1      40.306  34.991  37.641  1.00  0.00     0.040 A 
ATOM     81  F   UNL A   1      41.372  34.581  35.589  1.00  0.00    -0.206 F 
ATOM     82  C   UNL A   1      39.347  34.653  38.594  1.00  0.00     0.006 A 
ENDBRANCH  54  75
BRANCH  66  83
ATOM     83  C   UNL A   1      43.691  27.672  34.729  1.00  0.00     0.057 A 
ATOM     84  C   UNL A   1      45.014  28.113  34.859  1.00  0.00     0.134 A 
ATOM     85  C   UNL A   1      43.346  26.473  35.368  1.00  0.00     0.134 A 
ATOM     86  F   UNL A   1      45.416  29.248  34.265  1.00  0.00    -0.206 F 
ATOM     87  C   UNL A   1      45.957  27.393  35.594  1.00  0.00     0.040 A 
ATOM     88  C   UNL A   1      44.272  25.760  36.131  1.00  0.00     0.040 A 
ATOM     89  F   UNL A   1      42.092  26.000  35.294  1.00  0.00    -0.206 F 
ATOM     90  C   UNL A   1      45.584  26.215  36.239  1.00  0.00     0.006 A 
ENDBRANCH  66  83
ENDBRANCH  40  41
ENDBRANCH  33  35
ENDBRANCH  32  33
ENDBRANCH  31  32
ENDBRANCH  30  31
ENDBRANCH  29  30
ENDBRANCH  28  29
ENDBRANCH   1  28
TORSDOF 22
ENDMDL
MODEL 2
REMARK VINA RESULT:     -10.5      0.734      5.957
REMARK SMILES CCc1cc(C)c2c(c1)C=C(C(=O)OCCOCCOCCOCCOC(=O)c1ccc(-c3c4nc(c(-c5c(F)cccc5F)c5ccc([nH]5)c(-c5c(F)cccc5F)c5nc(c(-c6c(F)cccc6F)c6ccc3[nH]6)C=C5)C=C4)cc1)[C@@H](C(F)(F)F)O2
REMARK SMILES IDX 21 1 20 2 19 3 18 4 17 5 16 6 15 7 14 8 12 9 13 10 11 11
REMARK SMILES IDX 3 12 4 13 9 14 5 15 8 16 6 17 7 18 10 19 88 20 83 21 2 22
REMARK SMILES IDX 1 23 84 24 85 25 86 26 87 27 22 28 23 29 24 30 25 31 26 32
REMARK SMILES IDX 27 33 28 34 29 35 30 36 82 37 31 38 81 39 32 40 33 41 34 42
REMARK SMILES IDX 75 43 35 44 80 45 74 46 76 47 36 48 79 49 73 50 72 51 37 53
REMARK SMILES IDX 63 54 46 55 62 56 47 57 50 58 61 59 77 60 48 61 49 62 60 64
REMARK SMILES IDX 78 65 51 66 38 67 39 68 44 69 40 70 41 71 43 72 45 73 42 74
REMARK SMILES IDX 64 75 65 76 70 77 66 78 67 79 69 80 71 81 68 82 52 83 53 84
REMARK SMILES IDX 58 85 54 86 55 87 57 88 59 89 56 90
REMARK H PARENT 76 52 50 63
REMARK Flexibility Score: inf
ROOT
ATOM      1  C   UNL A   1      33.207  29.024  26.412  1.00  0.00     0.188 C 
ENDROOT
BRANCH   1   2
ATOM      2  O   UNL A   1      33.513  28.523  25.110  1.00  0.00    -0.377 OA
BRANCH   2   3
ATOM      3  C   UNL A   1      32.728  29.000  24.028  1.00  0.00     0.188 C 
BRANCH   3   4
ATOM      4  C   UNL A   1      31.247  28.586  24.132  1.00  0.00     0.188 C 
BRANCH   4   5
ATOM      5  O   UNL A   1      30.892  27.403  23.444  1.00  0.00    -0.376 OA
BRANCH   5   6
ATOM      6  C   UNL A   1      30.189  26.332  24.053  1.00  0.00     0.202 C 
BRANCH   6   7
ATOM      7  C   UNL A   1      30.749  25.303  25.056  1.00  0.00     0.261 C 
BRANCH   7   8
ATOM      8  O   UNL A   1      31.130  24.023  24.563  1.00  0.00    -0.460 OA
BRANCH   8   9
ATOM      9  C   UNL A   1      31.109  23.006  25.441  1.00  0.00     0.338 C 
ATOM     10  O   UNL A   1      30.213  22.726  26.217  1.00  0.00    -0.246 OA
BRANCH   9  11
ATOM     11  C   UNL A   1      32.296  22.165  25.180  1.00  0.00     0.087 C 
ATOM     12  C   UNL A   1      34.063  17.785  24.289  1.00  0.00    -0.047 A 
ATOM     13  C   UNL A   1      35.359  18.278  24.495  1.00  0.00     0.011 A 
ATOM     14  C   UNL A   1      32.986  18.677  24.328  1.00  0.00     0.015 A 
ATOM     15  C   UNL A   1      35.585  19.644  24.737  1.00  0.00    -0.008 A 
ATOM     16  C   UNL A   1      33.196  20.031  24.607  1.00  0.00     0.018 A 
ATOM     17  C   UNL A   1      36.978  20.140  25.008  1.00  0.00     0.048 C 
ATOM     18  C   UNL A   1      34.492  20.522  24.777  1.00  0.00     0.130 A 
ATOM     19  C   UNL A   1      32.055  20.897  24.828  1.00  0.00     0.027 C 
ATOM     20  O   UNL A   1      34.766  21.842  25.012  1.00  0.00    -0.475 OA
ATOM     21  C   UNL A   1      33.672  22.769  25.252  1.00  0.00     0.316 C 
BRANCH  12  22
ATOM     22  C   UNL A   1      33.812  16.309  24.109  1.00  0.00     0.032 C 
ATOM     23  C   UNL A   1      33.028  15.691  25.257  1.00  0.00     0.009 C 
ENDBRANCH  12  22
BRANCH  21  24
ATOM     24  C   UNL A   1      33.927  23.471  26.591  1.00  0.00     0.430 C 
ATOM     25  F   UNL A   1      35.190  23.251  27.033  1.00  0.00    -0.167 F 
ATOM     26  F   UNL A   1      33.781  24.813  26.496  1.00  0.00    -0.167 F 
ATOM     27  F   UNL A   1      33.081  23.040  27.554  1.00  0.00    -0.167 F 
ENDBRANCH  21  24
ENDBRANCH   9  11
ENDBRANCH   8   9
ENDBRANCH   7   8
ENDBRANCH   6   7
ENDBRANCH   5   6
ENDBRANCH   4   5
ENDBRANCH   3   4
ENDBRANCH   2   3
ENDBRANCH   1   2
BRANCH   1  28
ATOM     28  C   UNL A   1      33.081  30.545  26.669  1.00  0.00     0.188 C 
BRANCH  28  29
ATOM     29  O   UNL A   1      31.748  30.990  26.875  1.00  0.00    -0.376 OA
BRANCH  29  30
ATOM     30  C   UNL A   1      31.463  32.375  26.829  1.00  0.00     0.202 C 
BRANCH  30  31
ATOM     31  C   UNL A   1      32.621  33.337  27.118  1.00  0.00     0.261 C 
BRANCH  31  32
ATOM     32  O   UNL A   1      32.444  34.219  28.233  1.00  0.00    -0.460 OA
BRANCH  32  33
ATOM     33  C   UNL A   1      33.524  34.899  28.666  1.00  0.00     0.338 C 
ATOM     34  O   UNL A   1      33.604  36.093  28.908  1.00  0.00    -0.246 OA
BRANCH  33  35
ATOM     35  C   UNL A   1      34.573  33.907  28.956  1.00  0.00     0.060 A 
ATOM     36  C   UNL A   1      34.223  32.658  29.488  1.00  0.00     0.016 A 
ATOM     37  C   UNL A   1      35.908  34.224  28.694  1.00  0.00     0.016 A 
ATOM     38  C   UNL A   1      35.218  31.730  29.793  1.00  0.00     0.010 A 
ATOM     39  C   UNL A   1      36.902  33.309  29.030  1.00  0.00     0.010 A 
ATOM     40  C   UNL A   1      36.563  32.076  29.612  1.00  0.00    -0.014 A 
BRANCH  40  41
ATOM     41  C   UNL A   1      37.630  31.273  30.244  1.00  0.00     0.031 A 
ATOM     42  C   UNL A   1      37.950  31.544  31.687  1.00  0.00     0.074 A 
ATOM     43  C   UNL A   1      38.325  30.359  29.550  1.00  0.00     0.049 A 
ATOM     44  N   UNL A   1      38.915  31.073  32.431  1.00  0.00    -0.248 NA
ATOM     45  C   UNL A   1      37.056  32.487  32.378  1.00  0.00     0.031 C 
ATOM     46  C   UNL A   1      38.071  29.972  28.164  1.00  0.00     0.029 A 
ATOM     47  N   UNL A   1      39.410  29.606  29.921  1.00  0.00    -0.354 N 
ATOM     48  C   UNL A   1      38.746  31.662  33.678  1.00  0.00     0.074 A 
ATOM     49  C   UNL A   1      37.611  32.551  33.578  1.00  0.00     0.031 C 
ATOM     50  C   UNL A   1      38.990  29.063  27.793  1.00  0.00     0.029 A 
ATOM     51  C   UNL A   1      39.919  28.842  28.900  1.00  0.00     0.049 A 
ATOM     52  H   UNL A   1      39.787  29.614  30.829  1.00  0.00     0.167 HD
ATOM     53  C   UNL A   1      39.472  31.476  34.805  1.00  0.00     0.037 A 
ATOM     54  C   UNL A   1      41.029  28.080  28.866  1.00  0.00     0.037 A 
ATOM     55  C   UNL A   1      40.627  30.621  34.882  1.00  0.00     0.049 A 
ATOM     56  C   UNL A   1      41.904  28.001  30.089  1.00  0.00     0.074 A 
ATOM     57  C   UNL A   1      41.435  30.353  35.972  1.00  0.00     0.029 A 
ATOM     58  N   UNL A   1      41.153  29.916  33.809  1.00  0.00    -0.354 N 
ATOM     59  N   UNL A   1      41.727  28.532  31.276  1.00  0.00    -0.248 NA
ATOM     60  C   UNL A   1      43.146  27.225  29.961  1.00  0.00     0.031 C 
ATOM     61  C   UNL A   1      42.489  29.539  35.541  1.00  0.00     0.029 A 
ATOM     62  C   UNL A   1      42.304  29.250  34.198  1.00  0.00     0.049 A 
ATOM     63  H   UNL A   1      40.766  29.892  32.904  1.00  0.00     0.167 HD
ATOM     64  C   UNL A   1      42.819  28.138  32.039  1.00  0.00     0.074 A 
ATOM     65  C   UNL A   1      43.643  27.305  31.187  1.00  0.00     0.031 C 
ATOM     66  C   UNL A   1      43.120  28.439  33.329  1.00  0.00     0.037 A 
BRANCH  53  67
ATOM     67  C   UNL A   1      39.053  32.257  36.018  1.00  0.00     0.057 A 
ATOM     68  C   UNL A   1      39.496  33.573  36.206  1.00  0.00     0.134 A 
ATOM     69  C   UNL A   1      38.188  31.723  36.983  1.00  0.00     0.134 A 
ATOM     70  F   UNL A   1      40.327  34.147  35.324  1.00  0.00    -0.206 F 
ATOM     71  C   UNL A   1      39.083  34.332  37.302  1.00  0.00     0.040 A 
ATOM     72  C   UNL A   1      37.742  32.484  38.066  1.00  0.00     0.040 A 
ATOM     73  F   UNL A   1      37.712  30.475  36.855  1.00  0.00    -0.206 F 
ATOM     74  C   UNL A   1      38.192  33.792  38.229  1.00  0.00     0.006 A 
ENDBRANCH  53  67
BRANCH  54  75
ATOM     75  C   UNL A   1      41.393  27.344  27.629  1.00  0.00     0.057 A 
ATOM     76  C   UNL A   1      42.164  27.933  26.620  1.00  0.00     0.134 A 
ATOM     77  C   UNL A   1      40.993  26.016  27.443  1.00  0.00     0.134 A 
ATOM     78  F   UNL A   1      42.582  29.202  26.739  1.00  0.00    -0.206 F 
ATOM     79  C   UNL A   1      42.517  27.231  25.466  1.00  0.00     0.040 A 
ATOM     80  C   UNL A   1      41.361  25.294  26.307  1.00  0.00     0.040 A 
ATOM     81  F   UNL A   1      40.275  25.389  28.387  1.00  0.00    -0.206 F 
ATOM     82  C   UNL A   1      42.121  25.905  25.311  1.00  0.00     0.006 A 
ENDBRANCH  54  75
BRANCH  66  83
ATOM     83  C   UNL A   1      44.386  27.857  33.890  1.00  0.00     0.057 A 
ATOM     84  C   UNL A   1      45.595  28.561  33.817  1.00  0.00     0.134 A 
ATOM     85  C   UNL A   1      44.415  26.586  34.481  1.00  0.00     0.134 A 
ATOM     86  F   UNL A   1      45.642  29.779  33.255  1.00  0.00    -0.206 F 
ATOM     87  C   UNL A   1      46.786  28.023  34.308  1.00  0.00     0.040 A 
ATOM     88  C   UNL A   1      45.593  26.051  35.004  1.00  0.00     0.040 A 
ATOM     89  F   UNL A   1      43.289  25.864  34.595  1.00  0.00    -0.206 F 
ATOM     90  C   UNL A   1      46.785  26.767  34.912  1.00  0.00     0.006 A 
ENDBRANCH  66  83
ENDBRANCH  40  41
ENDBRANCH  33  35
ENDBRANCH  32  33
ENDBRANCH  31  32
ENDBRANCH  30  31
ENDBRANCH  29  30
ENDBRANCH  28  29
ENDBRANCH   1  28
TORSDOF 22
ENDMDL
MODEL 3
REMARK VINA RESULT:     -10.2      4.193      8.154
REMARK SMILES CCc1cc(C)c2c(c1)C=C(C(=O)OCCOCCOCCOCCOC(=O)c1ccc(-c3c4nc(c(-c5c(F)cccc5F)c5ccc([nH]5)c(-c5c(F)cccc5F)c5nc(c(-c6c(F)cccc6F)c6ccc3[nH]6)C=C5)C=C4)cc1)[C@@H](C(F)(F)F)O2
REMARK SMILES IDX 21 1 20 2 19 3 18 4 17 5 16 6 15 7 14 8 12 9 13 10 11 11
REMARK SMILES IDX 3 12 4 13 9 14 5 15 8 16 6 17 7 18 10 19 88 20 83 21 2 22
REMARK SMILES IDX 1 23 84 24 85 25 86 26 87 27 22 28 23 29 24 30 25 31 26 32
REMARK SMILES IDX 27 33 28 34 29 35 30 36 82 37 31 38 81 39 32 40 33 41 34 42
REMARK SMILES IDX 75 43 35 44 80 45 74 46 76 47 36 48 79 49 73 50 72 51 37 53
REMARK SMILES IDX 63 54 46 55 62 56 47 57 50 58 61 59 77 60 48 61 49 62 60 64
REMARK SMILES IDX 78 65 51 66 38 67 39 68 44 69 40 70 41 71 43 72 45 73 42 74
REMARK SMILES IDX 64 75 65 76 70 77 66 78 67 79 69 80 71 81 68 82 52 83 53 84
REMARK SMILES IDX 58 85 54 86 55 87 57 88 59 89 56 90
REMARK H PARENT 76 52 50 63
REMARK Flexibility Score: inf
ROOT
ATOM      1  C   UNL A   1      33.830  34.383  29.409  1.00  0.00     0.188 C 
ENDROOT
BRANCH   1   2
ATOM      2  O   UNL A   1      34.299  33.047  29.227  1.00  0.00    -0.377 OA
BRANCH   2   3
ATOM      3  C   UNL A   1      35.062  32.778  28.061  1.00  0.00     0.188 C 
BRANCH   3   4
ATOM      4  C   UNL A   1      35.110  31.279  27.706  1.00  0.00     0.188 C 
BRANCH   4   5
ATOM      5  O   UNL A   1      33.859  30.669  27.455  1.00  0.00    -0.376 OA
BRANCH   5   6
ATOM      6  C   UNL A   1      33.685  29.607  26.530  1.00  0.00     0.202 C 
BRANCH   6   7
ATOM      7  C   UNL A   1      32.450  29.335  25.648  1.00  0.00     0.261 C 
BRANCH   7   8
ATOM      8  O   UNL A   1      32.121  27.981  25.353  1.00  0.00    -0.460 OA
BRANCH   8   9
ATOM      9  C   UNL A   1      32.574  27.488  24.187  1.00  0.00     0.338 C 
ATOM     10  O   UNL A   1      32.910  28.124  23.204  1.00  0.00    -0.246 OA
BRANCH   9  11
ATOM     11  C   UNL A   1      32.768  26.034  24.362  1.00  0.00     0.087 C 
ATOM     12  C   UNL A   1      35.815  22.318  24.448  1.00  0.00    -0.047 A 
ATOM     13  C   UNL A   1      34.724  21.438  24.459  1.00  0.00     0.011 A 
ATOM     14  C   UNL A   1      35.574  23.694  24.509  1.00  0.00     0.015 A 
ATOM     15  C   UNL A   1      33.406  21.919  24.531  1.00  0.00    -0.008 A 
ATOM     16  C   UNL A   1      34.265  24.185  24.542  1.00  0.00     0.018 A 
ATOM     17  C   UNL A   1      32.250  20.958  24.489  1.00  0.00     0.048 C 
ATOM     18  C   UNL A   1      33.184  23.303  24.588  1.00  0.00     0.130 A 
ATOM     19  C   UNL A   1      34.036  25.611  24.416  1.00  0.00     0.027 C 
ATOM     20  O   UNL A   1      31.883  23.719  24.662  1.00  0.00    -0.475 OA
ATOM     21  C   UNL A   1      31.575  25.134  24.534  1.00  0.00     0.316 C 
BRANCH  12  22
ATOM     22  C   UNL A   1      37.225  21.807  24.289  1.00  0.00     0.032 C 
ATOM     23  C   UNL A   1      37.469  20.490  25.008  1.00  0.00     0.009 C 
ENDBRANCH  12  22
BRANCH  21  24
ATOM     24  C   UNL A   1      30.557  25.300  23.400  1.00  0.00     0.430 C 
ATOM     25  F   UNL A   1      29.623  26.234  23.706  1.00  0.00    -0.167 F 
ATOM     26  F   UNL A   1      31.142  25.705  22.248  1.00  0.00    -0.167 F 
ATOM     27  F   UNL A   1      29.903  24.146  23.136  1.00  0.00    -0.167 F 
ENDBRANCH  21  24
ENDBRANCH   9  11
ENDBRANCH   8   9
ENDBRANCH   7   8
ENDBRANCH   6   7
ENDBRANCH   5   6
ENDBRANCH   4   5
ENDBRANCH   3   4
ENDBRANCH   2   3
ENDBRANCH   1   2
BRANCH   1  28
ATOM     28  C   UNL A   1      34.029  35.119  30.756  1.00  0.00     0.188 C 
BRANCH  28  29
ATOM     29  O   UNL A   1      33.246  34.600  31.821  1.00  0.00    -0.376 OA
BRANCH  29  30
ATOM     30  C   UNL A   1      33.888  33.985  32.921  1.00  0.00     0.202 C 
BRANCH  30  31
ATOM     31  C   UNL A   1      34.703  32.718  32.634  1.00  0.00     0.261 C 
BRANCH  31  32
ATOM     32  O   UNL A   1      36.056  32.720  33.106  1.00  0.00    -0.460 OA
BRANCH  32  33
ATOM     33  C   UNL A   1      36.952  33.458  32.423  1.00  0.00     0.338 C 
ATOM     34  O   UNL A   1      37.069  34.674  32.420  1.00  0.00    -0.246 OA
BRANCH  33  35
ATOM     35  C   UNL A   1      37.891  32.520  31.786  1.00  0.00     0.060 A 
ATOM     36  C   UNL A   1      38.635  31.634  32.578  1.00  0.00     0.016 A 
ATOM     37  C   UNL A   1      38.028  32.522  30.397  1.00  0.00     0.016 A 
ATOM     38  C   UNL A   1      39.548  30.766  31.981  1.00  0.00     0.010 A 
ATOM     39  C   UNL A   1      38.964  31.678  29.804  1.00  0.00     0.010 A 
ATOM     40  C   UNL A   1      39.751  30.825  30.597  1.00  0.00    -0.014 A 
BRANCH  40  41
ATOM     41  C   UNL A   1      40.938  30.188  29.989  1.00  0.00     0.031 A 
ATOM     42  C   UNL A   1      42.159  31.038  29.778  1.00  0.00     0.074 A 
ATOM     43  C   UNL A   1      40.922  28.905  29.597  1.00  0.00     0.049 A 
ATOM     44  N   UNL A   1      43.273  30.758  29.157  1.00  0.00    -0.248 NA
ATOM     45  C   UNL A   1      42.103  32.396  30.342  1.00  0.00     0.031 C 
ATOM     46  C   UNL A   1      39.817  27.970  29.798  1.00  0.00     0.029 A 
ATOM     47  N   UNL A   1      41.867  28.176  28.922  1.00  0.00    -0.354 N 
ATOM     48  C   UNL A   1      44.052  31.905  29.253  1.00  0.00     0.074 A 
ATOM     49  C   UNL A   1      43.268  32.893  29.959  1.00  0.00     0.031 C 
ATOM     50  C   UNL A   1      40.142  26.790  29.239  1.00  0.00     0.029 A 
ATOM     51  C   UNL A   1      41.454  26.906  28.605  1.00  0.00     0.049 A 
ATOM     52  H   UNL A   1      42.755  28.530  28.687  1.00  0.00     0.167 HD
ATOM     53  C   UNL A   1      45.309  32.113  28.797  1.00  0.00     0.037 A 
ATOM     54  C   UNL A   1      42.062  25.965  27.859  1.00  0.00     0.037 A 
ATOM     55  C   UNL A   1      46.064  31.137  28.057  1.00  0.00     0.049 A 
ATOM     56  C   UNL A   1      43.400  26.269  27.237  1.00  0.00     0.074 A 
ATOM     57  C   UNL A   1      47.347  31.237  27.549  1.00  0.00     0.029 A 
ATOM     58  N   UNL A   1      45.587  29.885  27.696  1.00  0.00    -0.354 N 
ATOM     59  N   UNL A   1      44.149  27.340  27.355  1.00  0.00    -0.248 NA
ATOM     60  C   UNL A   1      43.970  25.234  26.363  1.00  0.00     0.031 C 
ATOM     61  C   UNL A   1      47.619  30.071  26.824  1.00  0.00     0.029 A 
ATOM     62  C   UNL A   1      46.530  29.220  26.930  1.00  0.00     0.049 A 
ATOM     63  H   UNL A   1      44.706  29.522  27.947  1.00  0.00     0.167 HD
ATOM     64  C   UNL A   1      45.284  27.100  26.591  1.00  0.00     0.074 A 
ATOM     65  C   UNL A   1      45.136  25.772  26.031  1.00  0.00     0.031 C 
ATOM     66  C   UNL A   1      46.355  27.904  26.366  1.00  0.00     0.037 A 
BRANCH  53  67
ATOM     67  C   UNL A   1      45.906  33.468  29.048  1.00  0.00     0.057 A 
ATOM     68  C   UNL A   1      46.674  33.708  30.195  1.00  0.00     0.134 A 
ATOM     69  C   UNL A   1      45.751  34.527  28.143  1.00  0.00     0.134 A 
ATOM     70  F   UNL A   1      46.862  32.741  31.106  1.00  0.00    -0.206 F 
ATOM     71  C   UNL A   1      47.275  34.946  30.425  1.00  0.00     0.040 A 
ATOM     72  C   UNL A   1      46.376  35.760  28.347  1.00  0.00     0.040 A 
ATOM     73  F   UNL A   1      45.043  34.361  27.015  1.00  0.00    -0.206 F 
ATOM     74  C   UNL A   1      47.139  35.972  29.492  1.00  0.00     0.006 A 
ENDBRANCH  53  67
BRANCH  54  75
ATOM     75  C   UNL A   1      41.409  24.649  27.638  1.00  0.00     0.057 A 
ATOM     76  C   UNL A   1      41.763  23.516  28.380  1.00  0.00     0.134 A 
ATOM     77  C   UNL A   1      40.390  24.507  26.689  1.00  0.00     0.134 A 
ATOM     78  F   UNL A   1      42.729  23.587  29.307  1.00  0.00    -0.206 F 
ATOM     79  C   UNL A   1      41.135  22.286  28.179  1.00  0.00     0.040 A 
ATOM     80  C   UNL A   1      39.735  23.290  26.496  1.00  0.00     0.040 A 
ATOM     81  F   UNL A   1      39.990  25.563  25.966  1.00  0.00    -0.206 F 
ATOM     82  C   UNL A   1      40.112  22.172  27.239  1.00  0.00     0.006 A 
ENDBRANCH  54  75
BRANCH  66  83
ATOM     83  C   UNL A   1      47.445  27.363  25.486  1.00  0.00     0.057 A 
ATOM     84  C   UNL A   1      48.519  26.646  26.029  1.00  0.00     0.134 A 
ATOM     85  C   UNL A   1      47.447  27.575  24.100  1.00  0.00     0.134 A 
ATOM     86  F   UNL A   1      48.585  26.415  27.350  1.00  0.00    -0.206 F 
ATOM     87  C   UNL A   1      49.554  26.160  25.229  1.00  0.00     0.040 A 
ATOM     88  C   UNL A   1      48.461  27.067  23.286  1.00  0.00     0.040 A 
ATOM     89  F   UNL A   1      46.442  28.243  23.513  1.00  0.00    -0.206 F 
ATOM     90  C   UNL A   1      49.522  26.364  23.851  1.00  0.00     0.006 A 
ENDBRANCH  66  83
ENDBRANCH  40  41
ENDBRANCH  33  35
ENDBRANCH  32  33
ENDBRANCH  31  32
ENDBRANCH  30  31
ENDBRANCH  29  30
ENDBRANCH  28  29
ENDBRANCH   1  28
TORSDOF 22
ENDMDL
