MODEL 1
REMARK VINA RESULT:     -11.9      0.000      0.000
REMARK SMILES Cc1ccc(NC(=O)c2cnn3c2NC2=C(C(=O)CCC2)[C@H]3c2ccc(C(=O)OCCOCCOCCOCCOC(=O)c3ccc(-c4c5nc(c(-c6c(F)cccc6F)c6ccc([nH]6)c(-c6c(F)cccc6F)c6nc(c(-c7c(F)cccc7F)c7ccc4[nH]7)C=C6)C=C5)cc3)cc2)cc1
REMARK SMILES IDX 34 1 33 2 32 3 31 4 30 5 29 6 27 7 28 8 26 9 23 10 24 11
REMARK SMILES IDX 99 12 25 13 98 14 22 15 9 16 10 17 13 18 11 19 12 20 14 21
REMARK SMILES IDX 15 22 16 24 21 25 17 26 20 27 18 28 19 29 7 30 6 31 8 33
REMARK SMILES IDX 5 34 1 35 2 36 3 37 101 38 4 39 100 40 35 41 36 42 37 43
REMARK SMILES IDX 38 44 39 45 40 46 41 47 42 48 43 49 44 50 45 51 97 52 46 53
REMARK SMILES IDX 96 54 47 55 48 56 49 57 90 58 50 59 95 60 89 61 91 62 51 63
REMARK SMILES IDX 94 64 88 65 87 66 52 68 78 69 61 70 77 71 62 72 65 73 76 74
REMARK SMILES IDX 92 75 63 76 64 77 75 79 93 80 66 81 53 82 54 83 59 84 55 85
REMARK SMILES IDX 56 86 58 87 60 88 57 89 79 90 80 91 85 92 81 93 82 94 84 95
REMARK SMILES IDX 86 96 83 97 67 98 68 99 73 100 69 101 70 102 72 103 74 104
REMARK SMILES IDX 71 105
REMARK H PARENT 14 23 6 32 91 67 65 78
REMARK Flexibility Score: inf
ROOT
ATOM      1  C   UNL A   1      34.079  22.412  24.379  1.00  0.00     0.188 C 
ENDROOT
BRANCH   1   2
ATOM      2  C   UNL A   1      33.815  23.796  23.234  1.00  0.00     0.188 C 
BRANCH   2   3
ATOM      3  O   UNL A   1      33.036  25.128  23.399  1.00  0.00    -0.376 OA
BRANCH   3   4
ATOM      4  C   UNL A   1      31.895  25.578  24.269  1.00  0.00     0.202 C 
BRANCH   4   5
ATOM      5  C   UNL A   1      31.933  26.773  25.320  1.00  0.00     0.261 C 
BRANCH   5   6
ATOM      6  O   UNL A   1      31.551  28.032  24.849  1.00  0.00    -0.460 OA
BRANCH   6   7
ATOM      7  C   UNL A   1      32.679  28.710  24.653  1.00  0.00     0.338 C 
ATOM      8  O   UNL A   1      33.169  28.926  23.559  1.00  0.00    -0.246 OA
BRANCH   7   9
ATOM      9  C   UNL A   1      33.198  29.239  25.926  1.00  0.00     0.060 A 
ATOM     10  C   UNL A   1      34.482  30.715  27.844  1.00  0.00    -0.019 A 
ATOM     11  C   UNL A   1      33.291  31.201  27.274  1.00  0.00     0.007 A 
ATOM     12  C   UNL A   1      34.747  29.330  27.744  1.00  0.00     0.007 A 
ATOM     13  C   UNL A   1      32.618  30.426  26.346  1.00  0.00     0.016 A 
ATOM     14  C   UNL A   1      34.217  28.641  26.668  1.00  0.00     0.016 A 
BRANCH  10  15
ATOM     15  C   UNL A   1      35.697  31.740  27.974  1.00  0.00     0.175 C 
ATOM     16  C   UNL A   1      34.033  34.650  29.140  1.00  0.00     0.102 A 
ATOM     17  C   UNL A   1      34.772  35.095  28.002  1.00  0.00     0.151 A 
ATOM     18  C   UNL A   1      34.619  33.428  29.441  1.00  0.00     0.142 A 
ATOM     19  N   UNL A   1      35.410  34.107  27.379  1.00  0.00    -0.178 NA
ATOM     20  N   UNL A   1      35.201  33.087  28.214  1.00  0.00    -0.237 N 
ATOM     21  N   UNL A   1      34.690  32.470  30.453  1.00  0.00    -0.343 N 
ATOM     22  C   UNL A   1      35.648  31.412  30.359  1.00  0.00     0.026 C 
ATOM     23  H   UNL A   1      34.085  32.522  31.227  1.00  0.00     0.168 HD
ATOM     24  C   UNL A   1      36.445  31.428  29.266  1.00  0.00     0.044 C 
ATOM     25  C   UNL A   1      36.238  30.639  31.502  1.00  0.00     0.055 C 
ATOM     26  C   UNL A   1      37.592  32.342  29.689  1.00  0.00     0.163 C 
ATOM     27  C   UNL A   1      37.459  31.387  32.032  1.00  0.00     0.014 C 
ATOM     28  O   UNL A   1      38.272  32.921  28.847  1.00  0.00    -0.294 OA
ATOM     29  C   UNL A   1      37.731  32.648  31.206  1.00  0.00     0.081 C 
BRANCH  16  30
ATOM     30  C   UNL A   1      32.982  35.394  29.796  1.00  0.00     0.261 C 
ATOM     31  N   UNL A   1      32.877  35.330  31.185  1.00  0.00    -0.322 N 
ATOM     32  H   UNL A   1      31.995  35.608  31.522  1.00  0.00     0.170 HD
ATOM     33  O   UNL A   1      32.152  36.040  29.159  1.00  0.00    -0.269 OA
BRANCH  31  34
ATOM     34  C   UNL A   1      33.781  34.944  32.213  1.00  0.00     0.041 A 
ATOM     35  C   UNL A   1      36.535  33.486  35.245  1.00  0.00     0.044 C 
ATOM     36  C   UNL A   1      35.556  33.986  34.222  1.00  0.00    -0.051 A 
ATOM     37  C   UNL A   1      35.798  35.194  33.569  1.00  0.00     0.005 A 
ATOM     38  C   UNL A   1      34.403  33.272  33.889  1.00  0.00     0.005 A 
ATOM     39  C   UNL A   1      34.894  35.685  32.616  1.00  0.00     0.026 A 
ATOM     40  C   UNL A   1      33.527  33.746  32.894  1.00  0.00     0.026 A 
ENDBRANCH  31  34
ENDBRANCH  16  30
ENDBRANCH  10  15
ENDBRANCH   7   9
ENDBRANCH   6   7
ENDBRANCH   5   6
ENDBRANCH   4   5
ENDBRANCH   3   4
ENDBRANCH   2   3
ENDBRANCH   1   2
BRANCH   1  41
ATOM     41  O   UNL A   1      35.598  21.773  25.126  1.00  0.00    -0.377 OA
BRANCH  41  42
ATOM     42  C   UNL A   1      37.480  22.537  25.452  1.00  0.00     0.188 C 
BRANCH  42  43
ATOM     43  C   UNL A   1      38.953  21.423  25.822  1.00  0.00     0.188 C 
BRANCH  43  44
ATOM     44  O   UNL A   1      40.260  21.693  26.448  1.00  0.00    -0.376 OA
BRANCH  44  45
ATOM     45  C   UNL A   1      40.683  22.414  27.623  1.00  0.00     0.202 C 
BRANCH  45  46
ATOM     46  C   UNL A   1      42.185  22.595  27.559  1.00  0.00     0.261 C 
BRANCH  46  47
ATOM     47  O   UNL A   1      42.640  23.975  27.625  1.00  0.00    -0.460 OA
BRANCH  47  48
ATOM     48  C   UNL A   1      43.474  24.365  28.642  1.00  0.00     0.338 C 
ATOM     49  O   UNL A   1      44.417  23.694  29.029  1.00  0.00    -0.246 OA
BRANCH  48  50
ATOM     50  C   UNL A   1      43.079  25.701  29.235  1.00  0.00     0.060 A 
ATOM     51  C   UNL A   1      42.311  26.623  28.504  1.00  0.00     0.016 A 
ATOM     52  C   UNL A   1      43.705  26.157  30.388  1.00  0.00     0.016 A 
ATOM     53  C   UNL A   1      42.373  28.025  28.793  1.00  0.00     0.010 A 
ATOM     54  C   UNL A   1      43.857  27.542  30.582  1.00  0.00     0.010 A 
ATOM     55  C   UNL A   1      43.291  28.531  29.727  1.00  0.00    -0.014 A 
BRANCH  55  56
ATOM     56  C   UNL A   1      43.774  29.994  29.957  1.00  0.00     0.031 A 
ATOM     57  C   UNL A   1      42.699  30.743  30.819  1.00  0.00     0.074 A 
ATOM     58  C   UNL A   1      44.836  30.753  29.372  1.00  0.00     0.049 A 
ATOM     59  N   UNL A   1      42.774  31.976  31.193  1.00  0.00    -0.248 NA
ATOM     60  C   UNL A   1      41.400  30.187  31.244  1.00  0.00     0.031 C 
ATOM     61  C   UNL A   1      46.363  31.154  29.809  1.00  0.00     0.029 A 
ATOM     62  N   UNL A   1      45.262  30.692  28.085  1.00  0.00    -0.354 N 
ATOM     63  C   UNL A   1      41.766  32.330  32.039  1.00  0.00     0.074 A 
ATOM     64  C   UNL A   1      40.895  31.173  32.006  1.00  0.00     0.031 C 
ATOM     65  C   UNL A   1      47.249  31.498  28.877  1.00  0.00     0.029 A 
ATOM     66  C   UNL A   1      46.455  31.355  27.723  1.00  0.00     0.049 A 
ATOM     67  H   UNL A   1      44.747  30.192  27.411  1.00  0.00     0.167 HD
ATOM     68  C   UNL A   1      41.859  33.551  32.659  1.00  0.00     0.037 A 
ATOM     69  C   UNL A   1      47.084  31.381  26.553  1.00  0.00     0.037 A 
ATOM     70  C   UNL A   1      42.888  34.485  32.004  1.00  0.00     0.049 A 
ATOM     71  C   UNL A   1      46.306  32.959  26.890  1.00  0.00     0.074 A 
ATOM     72  C   UNL A   1      43.911  35.293  32.481  1.00  0.00     0.029 A 
ATOM     73  N   UNL A   1      43.031  34.598  30.589  1.00  0.00    -0.354 N 
ATOM     74  N   UNL A   1      46.004  33.655  28.028  1.00  0.00    -0.248 NA
ATOM     75  C   UNL A   1      45.851  33.753  25.746  1.00  0.00     0.031 C 
ATOM     76  C   UNL A   1      44.607  35.918  31.378  1.00  0.00     0.029 A 
ATOM     77  C   UNL A   1      44.147  35.378  30.168  1.00  0.00     0.049 A 
ATOM     78  H   UNL A   1      42.409  34.172  29.956  1.00  0.00     0.167 HD
ATOM     79  C   UNL A   1      45.191  34.781  27.800  1.00  0.00     0.074 A 
ATOM     80  C   UNL A   1      45.215  34.796  26.322  1.00  0.00     0.031 C 
ATOM     81  C   UNL A   1      44.451  35.618  28.687  1.00  0.00     0.037 A 
BRANCH  68  82
ATOM     82  C   UNL A   1      41.134  33.866  34.007  1.00  0.00     0.057 A 
ATOM     83  C   UNL A   1      39.944  34.631  34.044  1.00  0.00     0.134 A 
ATOM     84  C   UNL A   1      41.594  33.554  35.311  1.00  0.00     0.134 A 
ATOM     85  F   UNL A   1      39.275  34.955  32.934  1.00  0.00    -0.206 F 
ATOM     86  C   UNL A   1      39.336  35.105  35.226  1.00  0.00     0.040 A 
ATOM     87  C   UNL A   1      40.969  33.981  36.505  1.00  0.00     0.040 A 
ATOM     88  F   UNL A   1      42.681  32.816  35.537  1.00  0.00    -0.206 F 
ATOM     89  C   UNL A   1      39.847  34.781  36.467  1.00  0.00     0.006 A 
ENDBRANCH  68  82
BRANCH  69  90
ATOM     90  C   UNL A   1      47.350  29.618  26.745  1.00  0.00     0.057 A 
ATOM     91  C   UNL A   1      46.309  28.586  25.765  1.00  0.00     0.134 A 
ATOM     92  C   UNL A   1      49.003  29.011  26.969  1.00  0.00     0.134 A 
ATOM     93  F   UNL A   1      44.997  28.873  25.718  1.00  0.00    -0.206 F 
ATOM     94  C   UNL A   1      46.848  27.176  24.812  1.00  0.00     0.040 A 
ATOM     95  C   UNL A   1      49.745  27.793  25.843  1.00  0.00     0.040 A 
ATOM     96  F   UNL A   1      49.756  29.629  27.889  1.00  0.00    -0.206 F 
ATOM     97  C   UNL A   1      48.592  26.711  24.827  1.00  0.00     0.006 A 
ENDBRANCH  69  90
BRANCH  81  98
ATOM     98  C   UNL A   1      43.738  36.883  28.180  1.00  0.00     0.057 A 
ATOM     99  C   UNL A   1      44.167  38.197  28.410  1.00  0.00     0.134 A 
ATOM    100  C   UNL A   1      42.515  36.794  27.468  1.00  0.00     0.134 A 
ATOM    101  F   UNL A   1      45.148  38.471  29.282  1.00  0.00    -0.206 F 
ATOM    102  C   UNL A   1      43.584  39.296  27.762  1.00  0.00     0.040 A 
ATOM    103  C   UNL A   1      41.889  37.884  26.870  1.00  0.00     0.040 A 
ATOM    104  F   UNL A   1      41.843  35.647  27.307  1.00  0.00    -0.206 F 
ATOM    105  C   UNL A   1      42.460  39.136  26.962  1.00  0.00     0.006 A 
ENDBRANCH  81  98
ENDBRANCH  55  56
ENDBRANCH  48  50
ENDBRANCH  47  48
ENDBRANCH  46  47
ENDBRANCH  45  46
ENDBRANCH  44  45
ENDBRANCH  43  44
ENDBRANCH  42  43
ENDBRANCH  41  42
ENDBRANCH   1  41
TORSDOF 23
ENDMDL
MODEL 2
REMARK VINA RESULT:     -11.5      4.610     10.179
REMARK SMILES Cc1ccc(NC(=O)c2cnn3c2NC2=C(C(=O)CCC2)[C@H]3c2ccc(C(=O)OCCOCCOCCOCCOC(=O)c3ccc(-c4c5nc(c(-c6c(F)cccc6F)c6ccc([nH]6)c(-c6c(F)cccc6F)c6nc(c(-c7c(F)cccc7F)c7ccc4[nH]7)C=C6)C=C5)cc3)cc2)cc1
REMARK SMILES IDX 34 1 33 2 32 3 31 4 30 5 29 6 27 7 28 8 26 9 23 10 24 11
REMARK SMILES IDX 99 12 25 13 98 14 22 15 9 16 10 17 13 18 11 19 12 20 14 21
REMARK SMILES IDX 15 22 16 24 21 25 17 26 20 27 18 28 19 29 7 30 6 31 8 33
REMARK SMILES IDX 5 34 1 35 2 36 3 37 101 38 4 39 100 40 35 41 36 42 37 43
REMARK SMILES IDX 38 44 39 45 40 46 41 47 42 48 43 49 44 50 45 51 97 52 46 53
REMARK SMILES IDX 96 54 47 55 48 56 49 57 90 58 50 59 95 60 89 61 91 62 51 63
REMARK SMILES IDX 94 64 88 65 87 66 52 68 78 69 61 70 77 71 62 72 65 73 76 74
REMARK SMILES IDX 92 75 63 76 64 77 75 79 93 80 66 81 53 82 54 83 59 84 55 85
REMARK SMILES IDX 56 86 58 87 60 88 57 89 79 90 80 91 85 92 81 93 82 94 84 95
REMARK SMILES IDX 86 96 83 97 67 98 68 99 73 100 69 101 70 102 72 103 74 104
REMARK SMILES IDX 71 105
REMARK H PARENT 14 23 6 32 91 67 65 78
REMARK Flexibility Score: inf
ROOT
ATOM      1  C   UNL A   1      33.927  26.358  24.765  1.00  0.00     0.188 C 
ENDROOT
BRANCH   1   2
ATOM      2  C   UNL A   1      32.992  27.503  25.819  1.00  0.00     0.188 C 
BRANCH   2   3
ATOM      3  O   UNL A   1      33.429  28.779  26.585  1.00  0.00    -0.376 OA
BRANCH   3   4
ATOM      4  C   UNL A   1      34.752  29.327  27.047  1.00  0.00     0.202 C 
BRANCH   4   5
ATOM      5  C   UNL A   1      35.040  30.828  27.490  1.00  0.00     0.261 C 
BRANCH   5   6
ATOM      6  O   UNL A   1      34.130  31.403  28.381  1.00  0.00    -0.460 OA
BRANCH   6   7
ATOM      7  C   UNL A   1      34.571  32.638  28.613  1.00  0.00     0.338 C 
ATOM      8  O   UNL A   1      33.974  33.651  28.295  1.00  0.00    -0.246 OA
BRANCH   7   9
ATOM      9  C   UNL A   1      35.825  32.607  29.385  1.00  0.00     0.060 A 
ATOM     10  C   UNL A   1      37.709  32.777  31.366  1.00  0.00    -0.019 A 
ATOM     11  C   UNL A   1      36.841  31.670  31.326  1.00  0.00     0.007 A 
ATOM     12  C   UNL A   1      37.882  33.527  30.181  1.00  0.00     0.007 A 
ATOM     13  C   UNL A   1      35.928  31.563  30.292  1.00  0.00     0.016 A 
ATOM     14  C   UNL A   1      36.841  33.555  29.270  1.00  0.00     0.016 A 
BRANCH  10  15
ATOM     15  C   UNL A   1      37.922  33.482  32.781  1.00  0.00     0.175 C 
ATOM     16  C   UNL A   1      39.277  30.816  34.694  1.00  0.00     0.102 A 
ATOM     17  C   UNL A   1      38.179  31.292  35.474  1.00  0.00     0.151 A 
ATOM     18  C   UNL A   1      39.495  31.849  33.792  1.00  0.00     0.142 A 
ATOM     19  N   UNL A   1      37.494  32.259  34.870  1.00  0.00    -0.178 NA
ATOM     20  N   UNL A   1      38.253  32.494  33.796  1.00  0.00    -0.237 N 
ATOM     21  N   UNL A   1      40.437  32.319  32.876  1.00  0.00    -0.343 N 
ATOM     22  C   UNL A   1      40.277  33.618  32.300  1.00  0.00     0.026 C 
ATOM     23  H   UNL A   1      41.208  31.759  32.628  1.00  0.00     0.168 HD
ATOM     24  C   UNL A   1      39.194  34.319  32.708  1.00  0.00     0.044 C 
ATOM     25  C   UNL A   1      41.367  34.491  31.751  1.00  0.00     0.055 C 
ATOM     26  C   UNL A   1      39.691  35.012  33.974  1.00  0.00     0.163 C 
ATOM     27  C   UNL A   1      41.959  35.321  32.888  1.00  0.00     0.014 C 
ATOM     28  O   UNL A   1      38.898  35.387  34.832  1.00  0.00    -0.294 OA
ATOM     29  C   UNL A   1      41.226  35.049  34.206  1.00  0.00     0.081 C 
BRANCH  16  30
ATOM     30  C   UNL A   1      39.975  29.570  34.907  1.00  0.00     0.261 C 
ATOM     31  N   UNL A   1      39.961  28.608  33.898  1.00  0.00    -0.322 N 
ATOM     32  H   UNL A   1      40.194  27.706  34.215  1.00  0.00     0.170 HD
ATOM     33  O   UNL A   1      40.537  29.317  35.971  1.00  0.00    -0.269 OA
BRANCH  31  34
ATOM     34  C   UNL A   1      39.680  28.663  32.505  1.00  0.00     0.041 A 
ATOM     35  C   UNL A   1      38.560  28.967  28.314  1.00  0.00     0.044 C 
ATOM     36  C   UNL A   1      38.934  28.827  29.761  1.00  0.00    -0.051 A 
ATOM     37  C   UNL A   1      40.232  29.130  30.171  1.00  0.00     0.005 A 
ATOM     38  C   UNL A   1      38.015  28.411  30.728  1.00  0.00     0.005 A 
ATOM     39  C   UNL A   1      40.607  28.999  31.515  1.00  0.00     0.026 A 
ATOM     40  C   UNL A   1      38.385  28.332  32.083  1.00  0.00     0.026 A 
ENDBRANCH  31  34
ENDBRANCH  16  30
ENDBRANCH  10  15
ENDBRANCH   7   9
ENDBRANCH   6   7
ENDBRANCH   5   6
ENDBRANCH   4   5
ENDBRANCH   3   4
ENDBRANCH   2   3
ENDBRANCH   1   2
BRANCH   1  41
ATOM     41  O   UNL A   1      33.475  24.742  24.087  1.00  0.00    -0.377 OA
BRANCH  41  42
ATOM     42  C   UNL A   1      34.503  23.006  23.683  1.00  0.00     0.188 C 
BRANCH  42  43
ATOM     43  C   UNL A   1      36.381  22.917  23.789  1.00  0.00     0.188 C 
BRANCH  43  44
ATOM     44  O   UNL A   1      37.350  23.581  24.680  1.00  0.00    -0.376 OA
BRANCH  44  45
ATOM     45  C   UNL A   1      37.679  23.459  26.079  1.00  0.00     0.202 C 
BRANCH  45  46
ATOM     46  C   UNL A   1      39.038  22.801  26.196  1.00  0.00     0.261 C 
BRANCH  46  47
ATOM     47  O   UNL A   1      39.956  23.450  27.119  1.00  0.00    -0.460 OA
BRANCH  47  48
ATOM     48  C   UNL A   1      41.215  22.936  27.295  1.00  0.00     0.338 C 
ATOM     49  O   UNL A   1      41.671  22.032  26.613  1.00  0.00    -0.246 OA
BRANCH  48  50
ATOM     50  C   UNL A   1      41.957  23.599  28.437  1.00  0.00     0.060 A 
ATOM     51  C   UNL A   1      42.045  24.998  28.533  1.00  0.00     0.016 A 
ATOM     52  C   UNL A   1      42.801  22.845  29.241  1.00  0.00     0.016 A 
ATOM     53  C   UNL A   1      43.125  25.620  29.239  1.00  0.00     0.010 A 
ATOM     54  C   UNL A   1      43.924  23.462  29.822  1.00  0.00     0.010 A 
ATOM     55  C   UNL A   1      44.190  24.860  29.748  1.00  0.00    -0.014 A 
BRANCH  55  56
ATOM     56  C   UNL A   1      45.598  25.316  30.232  1.00  0.00     0.031 A 
ATOM     57  C   UNL A   1      46.606  25.168  29.039  1.00  0.00     0.074 A 
ATOM     58  C   UNL A   1      46.114  25.608  31.533  1.00  0.00     0.049 A 
ATOM     59  N   UNL A   1      47.864  25.451  29.089  1.00  0.00    -0.248 NA
ATOM     60  C   UNL A   1      46.293  24.590  27.718  1.00  0.00     0.031 C 
ATOM     61  C   UNL A   1      46.386  26.969  32.403  1.00  0.00     0.029 A 
ATOM     62  N   UNL A   1      45.792  24.979  32.692  1.00  0.00    -0.354 N 
ATOM     63  C   UNL A   1      48.474  25.351  27.874  1.00  0.00     0.074 A 
ATOM     64  C   UNL A   1      47.445  24.758  27.045  1.00  0.00     0.031 C 
ATOM     65  C   UNL A   1      46.462  26.902  33.730  1.00  0.00     0.029 A 
ATOM     66  C   UNL A   1      46.234  25.526  33.917  1.00  0.00     0.049 A 
ATOM     67  H   UNL A   1      45.258  24.152  32.680  1.00  0.00     0.167 HD
ATOM     68  C   UNL A   1      49.758  25.824  27.769  1.00  0.00     0.037 A 
ATOM     69  C   UNL A   1      45.991  25.118  35.158  1.00  0.00     0.037 A 
ATOM     70  C   UNL A   1      50.437  26.038  29.130  1.00  0.00     0.049 A 
ATOM     71  C   UNL A   1      47.687  24.773  34.699  1.00  0.00     0.074 A 
ATOM     72  C   UNL A   1      51.177  27.065  29.697  1.00  0.00     0.029 A 
ATOM     73  N   UNL A   1      50.300  25.115  30.209  1.00  0.00    -0.354 N 
ATOM     74  N   UNL A   1      48.591  25.362  33.857  1.00  0.00    -0.248 NA
ATOM     75  C   UNL A   1      48.336  23.610  35.309  1.00  0.00     0.031 C 
ATOM     76  C   UNL A   1      51.524  26.736  31.062  1.00  0.00     0.029 A 
ATOM     77  C   UNL A   1      50.856  25.562  31.443  1.00  0.00     0.049 A 
ATOM     78  H   UNL A   1      49.859  24.241  30.110  1.00  0.00     0.167 HD
ATOM     79  C   UNL A   1      49.758  24.600  33.662  1.00  0.00     0.074 A 
ATOM     80  C   UNL A   1      49.530  23.552  34.679  1.00  0.00     0.031 C 
ATOM     81  C   UNL A   1      50.813  24.699  32.707  1.00  0.00     0.037 A 
BRANCH  68  82
ATOM     82  C   UNL A   1      50.375  26.282  26.408  1.00  0.00     0.057 A 
ATOM     83  C   UNL A   1      49.741  27.256  25.601  1.00  0.00     0.134 A 
ATOM     84  C   UNL A   1      51.520  25.740  25.771  1.00  0.00     0.134 A 
ATOM     85  F   UNL A   1      48.703  27.973  26.039  1.00  0.00    -0.206 F 
ATOM     86  C   UNL A   1      50.140  27.587  24.288  1.00  0.00     0.040 A 
ATOM     87  C   UNL A   1      51.959  26.095  24.475  1.00  0.00     0.040 A 
ATOM     88  F   UNL A   1      52.302  24.825  26.344  1.00  0.00    -0.206 F 
ATOM     89  C   UNL A   1      51.254  27.006  23.716  1.00  0.00     0.006 A 
ENDBRANCH  68  82
BRANCH  69  90
ATOM     90  C   UNL A   1      44.263  25.494  34.861  1.00  0.00     0.057 A 
ATOM     91  C   UNL A   1      43.200  24.096  34.712  1.00  0.00     0.134 A 
ATOM     92  C   UNL A   1      43.534  26.903  35.658  1.00  0.00     0.134 A 
ATOM     93  F   UNL A   1      43.608  23.070  33.947  1.00  0.00    -0.206 F 
ATOM     94  C   UNL A   1      41.609  23.914  35.501  1.00  0.00     0.040 A 
ATOM     95  C   UNL A   1      42.083  26.755  36.742  1.00  0.00     0.040 A 
ATOM     96  F   UNL A   1      44.210  28.058  35.585  1.00  0.00    -0.206 F 
ATOM     97  C   UNL A   1      40.977  25.250  36.538  1.00  0.00     0.006 A 
ENDBRANCH  69  90
BRANCH  81  98
ATOM     98  C   UNL A   1      52.059  23.801  32.800  1.00  0.00     0.057 A 
ATOM     99  C   UNL A   1      53.377  24.261  32.911  1.00  0.00     0.134 A 
ATOM    100  C   UNL A   1      51.947  22.390  32.714  1.00  0.00     0.134 A 
ATOM    101  F   UNL A   1      53.685  25.555  32.739  1.00  0.00    -0.206 F 
ATOM    102  C   UNL A   1      54.448  23.397  33.184  1.00  0.00     0.040 A 
ATOM    103  C   UNL A   1      53.012  21.518  32.921  1.00  0.00     0.040 A 
ATOM    104  F   UNL A   1      50.801  21.763  32.420  1.00  0.00    -0.206 F 
ATOM    105  C   UNL A   1      54.259  22.021  33.222  1.00  0.00     0.006 A 
ENDBRANCH  81  98
ENDBRANCH  55  56
ENDBRANCH  48  50
ENDBRANCH  47  48
ENDBRANCH  46  47
ENDBRANCH  45  46
ENDBRANCH  44  45
ENDBRANCH  43  44
ENDBRANCH  42  43
ENDBRANCH  41  42
ENDBRANCH   1  41
TORSDOF 23
ENDMDL
MODEL 3
REMARK VINA RESULT:     -10.8      2.776      4.434
REMARK SMILES Cc1ccc(NC(=O)c2cnn3c2NC2=C(C(=O)CCC2)[C@H]3c2ccc(C(=O)OCCOCCOCCOCCOC(=O)c3ccc(-c4c5nc(c(-c6c(F)cccc6F)c6ccc([nH]6)c(-c6c(F)cccc6F)c6nc(c(-c7c(F)cccc7F)c7ccc4[nH]7)C=C6)C=C5)cc3)cc2)cc1
REMARK SMILES IDX 34 1 33 2 32 3 31 4 30 5 29 6 27 7 28 8 26 9 23 10 24 11
REMARK SMILES IDX 99 12 25 13 98 14 22 15 9 16 10 17 13 18 11 19 12 20 14 21
REMARK SMILES IDX 15 22 16 24 21 25 17 26 20 27 18 28 19 29 7 30 6 31 8 33
REMARK SMILES IDX 5 34 1 35 2 36 3 37 101 38 4 39 100 40 35 41 36 42 37 43
REMARK SMILES IDX 38 44 39 45 40 46 41 47 42 48 43 49 44 50 45 51 97 52 46 53
REMARK SMILES IDX 96 54 47 55 48 56 49 57 90 58 50 59 95 60 89 61 91 62 51 63
REMARK SMILES IDX 94 64 88 65 87 66 52 68 78 69 61 70 77 71 62 72 65 73 76 74
REMARK SMILES IDX 92 75 63 76 64 77 75 79 93 80 66 81 53 82 54 83 59 84 55 85
REMARK SMILES IDX 56 86 58 87 60 88 57 89 79 90 80 91 85 92 81 93 82 94 84 95
REMARK SMILES IDX 86 96 83 97 67 98 68 99 73 100 69 101 70 102 72 103 74 104
REMARK SMILES IDX 71 105
REMARK H PARENT 14 23 6 32 91 67 65 78
REMARK Flexibility Score: inf
ROOT
ATOM      1  C   UNL A   1      35.491  23.731  24.597  1.00  0.00     0.188 C 
ENDROOT
BRANCH   1   2
ATOM      2  C   UNL A   1      34.284  25.082  24.722  1.00  0.00     0.188 C 
BRANCH   2   3
ATOM      3  O   UNL A   1      32.749  25.108  24.495  1.00  0.00    -0.376 OA
BRANCH   3   4
ATOM      4  C   UNL A   1      31.747  26.193  24.208  1.00  0.00     0.202 C 
BRANCH   4   5
ATOM      5  C   UNL A   1      31.292  27.337  25.215  1.00  0.00     0.261 C 
BRANCH   5   6
ATOM      6  O   UNL A   1      31.271  28.641  24.713  1.00  0.00    -0.460 OA
BRANCH   6   7
ATOM      7  C   UNL A   1      32.544  28.980  24.515  1.00  0.00     0.338 C 
ATOM      8  O   UNL A   1      33.049  29.137  23.418  1.00  0.00    -0.246 OA
BRANCH   7   9
ATOM      9  C   UNL A   1      33.222  29.229  25.798  1.00  0.00     0.060 A 
ATOM     10  C   UNL A   1      34.766  30.266  27.810  1.00  0.00    -0.019 A 
ATOM     11  C   UNL A   1      33.532  30.868  27.500  1.00  0.00     0.007 A 
ATOM     12  C   UNL A   1      34.974  28.931  27.397  1.00  0.00     0.007 A 
ATOM     13  C   UNL A   1      32.732  30.307  26.519  1.00  0.00     0.016 A 
ATOM     14  C   UNL A   1      34.302  28.484  26.273  1.00  0.00     0.016 A 
BRANCH  10  15
ATOM     15  C   UNL A   1      36.019  31.234  28.001  1.00  0.00     0.175 C 
ATOM     16  C   UNL A   1      34.536  33.963  29.719  1.00  0.00     0.102 A 
ATOM     17  C   UNL A   1      35.205  34.563  28.609  1.00  0.00     0.151 A 
ATOM     18  C   UNL A   1      35.104  32.698  29.785  1.00  0.00     0.142 A 
ATOM     19  N   UNL A   1      35.765  33.670  27.797  1.00  0.00    -0.178 NA
ATOM     20  N   UNL A   1      35.584  32.538  28.481  1.00  0.00    -0.237 N 
ATOM     21  N   UNL A   1      35.217  31.595  30.631  1.00  0.00    -0.343 N 
ATOM     22  C   UNL A   1      36.132  30.545  30.305  1.00  0.00     0.026 C 
ATOM     23  H   UNL A   1      34.671  31.539  31.449  1.00  0.00     0.168 HD
ATOM     24  C   UNL A   1      36.847  30.712  29.170  1.00  0.00     0.044 C 
ATOM     25  C   UNL A   1      36.777  29.593  31.270  1.00  0.00     0.055 C 
ATOM     26  C   UNL A   1      38.050  31.527  29.639  1.00  0.00     0.163 C 
ATOM     27  C   UNL A   1      38.056  30.225  31.813  1.00  0.00     0.014 C 
ATOM     28  O   UNL A   1      38.686  32.214  28.845  1.00  0.00    -0.294 OA
ATOM     29  C   UNL A   1      38.308  31.593  31.169  1.00  0.00     0.081 C 
BRANCH  16  30
ATOM     30  C   UNL A   1      33.559  34.618  30.558  1.00  0.00     0.261 C 
ATOM     31  N   UNL A   1      33.792  34.693  31.932  1.00  0.00    -0.322 N 
ATOM     32  H   UNL A   1      32.979  34.879  32.455  1.00  0.00     0.170 HD
ATOM     33  O   UNL A   1      32.510  35.067  30.101  1.00  0.00    -0.269 OA
BRANCH  31  34
ATOM     34  C   UNL A   1      34.960  34.554  32.730  1.00  0.00     0.041 A 
ATOM     35  C   UNL A   1      38.422  33.870  35.270  1.00  0.00     0.044 C 
ATOM     36  C   UNL A   1      37.213  34.128  34.419  1.00  0.00    -0.051 A 
ATOM     37  C   UNL A   1      37.373  34.586  33.113  1.00  0.00     0.005 A 
ATOM     38  C   UNL A   1      35.915  33.912  34.890  1.00  0.00     0.005 A 
ATOM     39  C   UNL A   1      36.259  34.842  32.302  1.00  0.00     0.026 A 
ATOM     40  C   UNL A   1      34.803  34.122  34.054  1.00  0.00     0.026 A 
ENDBRANCH  31  34
ENDBRANCH  16  30
ENDBRANCH  10  15
ENDBRANCH   7   9
ENDBRANCH   6   7
ENDBRANCH   5   6
ENDBRANCH   4   5
ENDBRANCH   3   4
ENDBRANCH   2   3
ENDBRANCH   1   2
BRANCH   1  41
ATOM     41  O   UNL A   1      36.940  23.346  25.609  1.00  0.00    -0.377 OA
BRANCH  41  42
ATOM     42  C   UNL A   1      38.206  24.450  26.798  1.00  0.00     0.188 C 
BRANCH  42  43
ATOM     43  C   UNL A   1      40.057  24.537  26.463  1.00  0.00     0.188 C 
BRANCH  43  44
ATOM     44  O   UNL A   1      40.953  25.672  26.173  1.00  0.00    -0.376 OA
BRANCH  44  45
ATOM     45  C   UNL A   1      42.250  25.797  25.554  1.00  0.00     0.202 C 
BRANCH  45  46
ATOM     46  C   UNL A   1      42.894  24.427  25.511  1.00  0.00     0.261 C 
BRANCH  46  47
ATOM     47  O   UNL A   1      44.098  24.341  24.699  1.00  0.00    -0.460 OA
BRANCH  47  48
ATOM     48  C   UNL A   1      45.122  23.517  25.092  1.00  0.00     0.338 C 
ATOM     49  O   UNL A   1      45.106  22.307  24.934  1.00  0.00    -0.246 OA
BRANCH  48  50
ATOM     50  C   UNL A   1      46.252  24.275  25.757  1.00  0.00     0.060 A 
ATOM     51  C   UNL A   1      46.449  24.215  27.147  1.00  0.00     0.016 A 
ATOM     52  C   UNL A   1      46.928  25.263  25.054  1.00  0.00     0.016 A 
ATOM     53  C   UNL A   1      47.117  25.276  27.841  1.00  0.00     0.010 A 
ATOM     54  C   UNL A   1      47.467  26.356  25.757  1.00  0.00     0.010 A 
ATOM     55  C   UNL A   1      47.482  26.458  27.178  1.00  0.00    -0.014 A 
BRANCH  55  56
ATOM     56  C   UNL A   1      47.890  27.843  27.761  1.00  0.00     0.031 A 
ATOM     57  C   UNL A   1      46.588  28.682  28.008  1.00  0.00     0.074 A 
ATOM     58  C   UNL A   1      49.159  28.492  27.884  1.00  0.00     0.049 A 
ATOM     59  N   UNL A   1      46.556  29.882  28.481  1.00  0.00    -0.248 NA
ATOM     60  C   UNL A   1      45.219  28.269  27.644  1.00  0.00     0.031 C 
ATOM     61  C   UNL A   1      50.257  28.692  29.084  1.00  0.00     0.029 A 
ATOM     62  N   UNL A   1      50.190  28.429  27.005  1.00  0.00    -0.354 N 
ATOM     63  C   UNL A   1      45.287  30.322  28.712  1.00  0.00     0.074 A 
ATOM     64  C   UNL A   1      44.472  29.279  28.124  1.00  0.00     0.031 C 
ATOM     65  C   UNL A   1      51.524  28.963  28.783  1.00  0.00     0.029 A 
ATOM     66  C   UNL A   1      51.446  28.958  27.377  1.00  0.00     0.049 A 
ATOM     67  H   UNL A   1      50.066  28.019  26.118  1.00  0.00     0.167 HD
ATOM     68  C   UNL A   1      45.140  31.500  29.402  1.00  0.00     0.037 A 
ATOM     69  C   UNL A   1      52.594  28.954  26.710  1.00  0.00     0.037 A 
ATOM     70  C   UNL A   1      46.432  32.328  29.466  1.00  0.00     0.049 A 
ATOM     71  C   UNL A   1      51.888  30.599  26.742  1.00  0.00     0.074 A 
ATOM     72  C   UNL A   1      47.115  32.991  30.476  1.00  0.00     0.029 A 
ATOM     73  N   UNL A   1      47.305  32.476  28.347  1.00  0.00    -0.354 N 
ATOM     74  N   UNL A   1      51.091  31.283  27.619  1.00  0.00    -0.248 NA
ATOM     75  C   UNL A   1      52.168  31.484  25.609  1.00  0.00     0.031 C 
ATOM     76  C   UNL A   1      48.334  33.569  29.958  1.00  0.00     0.029 A 
ATOM     77  C   UNL A   1      48.536  33.133  28.640  1.00  0.00     0.049 A 
ATOM     78  H   UNL A   1      47.076  32.152  27.446  1.00  0.00     0.167 HD
ATOM     79  C   UNL A   1      50.614  32.505  27.110  1.00  0.00     0.074 A 
ATOM     80  C   UNL A   1      51.411  32.572  25.867  1.00  0.00     0.031 C 
ATOM     81  C   UNL A   1      49.589  33.390  27.560  1.00  0.00     0.037 A 
BRANCH  68  82
ATOM     82  C   UNL A   1      43.844  31.848  30.203  1.00  0.00     0.057 A 
ATOM     83  C   UNL A   1      43.039  32.958  29.856  1.00  0.00     0.134 A 
ATOM     84  C   UNL A   1      43.382  31.216  31.385  1.00  0.00     0.134 A 
ATOM     85  F   UNL A   1      43.225  33.644  28.725  1.00  0.00    -0.206 F 
ATOM     86  C   UNL A   1      41.963  33.438  30.634  1.00  0.00     0.040 A 
ATOM     87  C   UNL A   1      42.277  31.656  32.149  1.00  0.00     0.040 A 
ATOM     88  F   UNL A   1      43.958  30.128  31.897  1.00  0.00    -0.206 F 
ATOM     89  C   UNL A   1      41.575  32.787  31.788  1.00  0.00     0.006 A 
ENDBRANCH  68  82
BRANCH  69  90
ATOM     90  C   UNL A   1      52.575  27.166  26.845  1.00  0.00     0.057 A 
ATOM     91  C   UNL A   1      52.224  26.299  25.350  1.00  0.00     0.134 A 
ATOM     92  C   UNL A   1      53.745  26.365  27.913  1.00  0.00     0.134 A 
ATOM     93  F   UNL A   1      51.207  26.736  24.589  1.00  0.00    -0.206 F 
ATOM     94  C   UNL A   1      53.115  24.875  24.743  1.00  0.00     0.040 A 
ATOM     95  C   UNL A   1      54.914  25.115  27.301  1.00  0.00     0.040 A 
ATOM     96  F   UNL A   1      53.867  26.856  29.154  1.00  0.00    -0.206 F 
ATOM     97  C   UNL A   1      54.490  24.214  25.708  1.00  0.00     0.006 A 
ENDBRANCH  69  90
BRANCH  81  98
ATOM     98  C   UNL A   1      49.355  34.750  26.879  1.00  0.00     0.057 A 
ATOM     99  C   UNL A   1      48.317  35.035  25.984  1.00  0.00     0.134 A 
ATOM    100  C   UNL A   1      50.254  35.828  27.079  1.00  0.00     0.134 A 
ATOM    101  F   UNL A   1      47.539  34.064  25.481  1.00  0.00    -0.206 F 
ATOM    102  C   UNL A   1      48.046  36.340  25.548  1.00  0.00     0.040 A 
ATOM    103  C   UNL A   1      50.033  37.117  26.601  1.00  0.00     0.040 A 
ATOM    104  F   UNL A   1      51.408  35.706  27.747  1.00  0.00    -0.206 F 
ATOM    105  C   UNL A   1      48.888  37.392  25.884  1.00  0.00     0.006 A 
ENDBRANCH  81  98
ENDBRANCH  55  56
ENDBRANCH  48  50
ENDBRANCH  47  48
ENDBRANCH  46  47
ENDBRANCH  45  46
ENDBRANCH  44  45
ENDBRANCH  43  44
ENDBRANCH  42  43
ENDBRANCH  41  42
ENDBRANCH   1  41
TORSDOF 23
ENDMDL
