MODEL 1
REMARK VINA RESULT:     -11.2      0.000      0.000
REMARK SMILES O=C(OCCOCCOCCOCCOC(=O)[C@@H]1[C@@H](C(=O)Nc2nc(-c3ccc(F)cc3)cs2)[C@H]2C=C[C@@H]1O2)c1ccc(-c2c3nc(c(-c4c(F)cccc4F)c4ccc([nH]4)c(-c4c(F)cccc4F)c4nc(c(-c5c(F)cccc5F)c5ccc2[nH]5)C=C4)C=C3)cc1
REMARK SMILES IDX 10 1 9 2 8 3 7 4 6 5 5 6 4 7 3 8 2 9 1 10 40 11 41 12 93 13
REMARK SMILES IDX 42 14 92 15 43 16 44 17 45 18 86 19 46 20 91 21 85 22 87 23
REMARK SMILES IDX 47 24 90 25 84 26 83 27 48 29 74 30 57 31 73 32 58 33 61 34
REMARK SMILES IDX 72 35 88 36 59 37 60 38 71 40 89 41 62 42 49 43 50 44 55 45
REMARK SMILES IDX 51 46 52 47 54 48 56 49 53 50 75 51 76 52 81 53 77 54 78 55
REMARK SMILES IDX 80 56 82 57 79 58 63 59 64 60 69 61 65 62 66 63 68 64 70 65
REMARK SMILES IDX 67 66 11 67 12 68 13 69 14 70 15 71 16 72 17 73 18 74 19 75
REMARK SMILES IDX 38 76 35 77 37 78 39 79 36 80 20 81 21 82 22 83 23 85 24 86
REMARK SMILES IDX 34 87 25 88 33 89 26 90 27 91 32 92 28 93 31 94 29 95 30 96
REMARK H PARENT 87 28 61 39 22 84
REMARK Flexibility Score: inf
ROOT
ATOM      1  C   UNL A   1      41.526  19.958  26.364  1.00  0.00     0.188 C 
ENDROOT
BRANCH   1   2
ATOM      2  O   UNL A   1      42.202  19.248  25.347  1.00  0.00    -0.377 OA
BRANCH   2   3
ATOM      3  C   UNL A   1      43.530  18.836  25.621  1.00  0.00     0.188 C 
BRANCH   3   4
ATOM      4  C   UNL A   1      44.605  19.242  24.619  1.00  0.00     0.188 C 
BRANCH   4   5
ATOM      5  O   UNL A   1      44.520  20.631  24.309  1.00  0.00    -0.376 OA
BRANCH   5   6
ATOM      6  C   UNL A   1      45.611  21.442  24.753  1.00  0.00     0.202 C 
BRANCH   6   7
ATOM      7  C   UNL A   1      45.352  22.196  26.058  1.00  0.00     0.261 C 
BRANCH   7   8
ATOM      8  O   UNL A   1      45.160  23.608  25.878  1.00  0.00    -0.460 OA
BRANCH   8   9
ATOM      9  C   UNL A   1      44.003  24.291  25.683  1.00  0.00     0.338 C 
ATOM     10  O   UNL A   1      43.400  24.111  24.625  1.00  0.00    -0.246 OA
BRANCH   9  11
ATOM     11  C   UNL A   1      43.423  25.279  26.647  1.00  0.00     0.060 A 
ATOM     12  C   UNL A   1      43.913  26.560  26.884  1.00  0.00     0.016 A 
ATOM     13  C   UNL A   1      42.251  24.900  27.329  1.00  0.00     0.016 A 
ATOM     14  C   UNL A   1      43.322  27.424  27.780  1.00  0.00     0.010 A 
ATOM     15  C   UNL A   1      41.638  25.762  28.245  1.00  0.00     0.010 A 
ATOM     16  C   UNL A   1      42.202  27.017  28.489  1.00  0.00    -0.014 A 
BRANCH  16  17
ATOM     17  C   UNL A   1      41.843  27.859  29.637  1.00  0.00     0.031 A 
ATOM     18  C   UNL A   1      40.609  28.698  29.502  1.00  0.00     0.074 A 
ATOM     19  C   UNL A   1      42.450  27.656  30.821  1.00  0.00     0.049 A 
ATOM     20  N   UNL A   1      40.067  29.513  30.361  1.00  0.00    -0.248 NA
ATOM     21  C   UNL A   1      39.861  28.577  28.234  1.00  0.00     0.031 C 
ATOM     22  C   UNL A   1      43.519  26.680  31.064  1.00  0.00     0.029 A 
ATOM     23  N   UNL A   1      42.217  28.206  32.049  1.00  0.00    -0.354 N 
ATOM     24  C   UNL A   1      38.940  30.021  29.728  1.00  0.00     0.074 A 
ATOM     25  C   UNL A   1      38.868  29.431  28.415  1.00  0.00     0.031 C 
ATOM     26  C   UNL A   1      43.827  26.686  32.371  1.00  0.00     0.029 A 
ATOM     27  C   UNL A   1      43.040  27.717  33.034  1.00  0.00     0.049 A 
ATOM     28  H   UNL A   1      41.525  28.888  32.213  1.00  0.00     0.167 HD
ATOM     29  C   UNL A   1      38.049  30.907  30.220  1.00  0.00     0.037 A 
ATOM     30  C   UNL A   1      43.156  28.101  34.319  1.00  0.00     0.037 A 
ATOM     31  C   UNL A   1      38.151  31.452  31.542  1.00  0.00     0.049 A 
ATOM     32  C   UNL A   1      42.249  29.206  34.789  1.00  0.00     0.074 A 
ATOM     33  C   UNL A   1      37.383  32.433  32.135  1.00  0.00     0.029 A 
ATOM     34  N   UNL A   1      39.089  31.043  32.482  1.00  0.00    -0.354 N 
ATOM     35  N   UNL A   1      41.258  29.787  34.152  1.00  0.00    -0.248 NA
ATOM     36  C   UNL A   1      42.482  29.726  36.141  1.00  0.00     0.031 C 
ATOM     37  C   UNL A   1      37.889  32.653  33.418  1.00  0.00     0.029 A 
ATOM     38  C   UNL A   1      38.933  31.765  33.647  1.00  0.00     0.049 A 
ATOM     39  H   UNL A   1      39.766  30.341  32.337  1.00  0.00     0.167 HD
ATOM     40  C   UNL A   1      40.736  30.726  35.028  1.00  0.00     0.074 A 
ATOM     41  C   UNL A   1      41.508  30.619  36.252  1.00  0.00     0.031 C 
ATOM     42  C   UNL A   1      39.719  31.604  34.844  1.00  0.00     0.037 A 
BRANCH  29  43
ATOM     43  C   UNL A   1      36.959  31.380  29.309  1.00  0.00     0.057 A 
ATOM     44  C   UNL A   1      37.013  32.665  28.756  1.00  0.00     0.134 A 
ATOM     45  C   UNL A   1      35.852  30.583  28.987  1.00  0.00     0.134 A 
ATOM     46  F   UNL A   1      38.056  33.471  29.009  1.00  0.00    -0.206 F 
ATOM     47  C   UNL A   1      35.995  33.152  27.935  1.00  0.00     0.040 A 
ATOM     48  C   UNL A   1      34.838  31.051  28.148  1.00  0.00     0.040 A 
ATOM     49  F   UNL A   1      35.760  29.328  29.451  1.00  0.00    -0.206 F 
ATOM     50  C   UNL A   1      34.903  32.344  27.629  1.00  0.00     0.006 A 
ENDBRANCH  29  43
BRANCH  30  51
ATOM     51  C   UNL A   1      44.189  27.502  35.206  1.00  0.00     0.057 A 
ATOM     52  C   UNL A   1      45.516  27.954  35.191  1.00  0.00     0.134 A 
ATOM     53  C   UNL A   1      43.874  26.482  36.112  1.00  0.00     0.134 A 
ATOM     54  F   UNL A   1      45.893  28.929  34.352  1.00  0.00    -0.206 F 
ATOM     55  C   UNL A   1      46.491  27.410  36.032  1.00  0.00     0.040 A 
ATOM     56  C   UNL A   1      44.831  25.952  36.981  1.00  0.00     0.040 A 
ATOM     57  F   UNL A   1      42.620  26.016  36.194  1.00  0.00    -0.206 F 
ATOM     58  C   UNL A   1      46.146  26.413  36.939  1.00  0.00     0.006 A 
ENDBRANCH  30  51
BRANCH  42  59
ATOM     59  C   UNL A   1      39.364  32.486  36.001  1.00  0.00     0.057 A 
ATOM     60  C   UNL A   1      38.371  32.095  36.908  1.00  0.00     0.134 A 
ATOM     61  C   UNL A   1      39.934  33.754  36.159  1.00  0.00     0.134 A 
ATOM     62  F   UNL A   1      37.778  30.897  36.796  1.00  0.00    -0.206 F 
ATOM     63  C   UNL A   1      37.942  32.947  37.922  1.00  0.00     0.040 A 
ATOM     64  C   UNL A   1      39.535  34.601  37.190  1.00  0.00     0.040 A 
ATOM     65  F   UNL A   1      40.896  34.178  35.324  1.00  0.00    -0.206 F 
ATOM     66  C   UNL A   1      38.527  34.204  38.067  1.00  0.00     0.006 A 
ENDBRANCH  42  59
ENDBRANCH  16  17
ENDBRANCH   9  11
ENDBRANCH   8   9
ENDBRANCH   7   8
ENDBRANCH   6   7
ENDBRANCH   5   6
ENDBRANCH   4   5
ENDBRANCH   3   4
ENDBRANCH   2   3
ENDBRANCH   1   2
BRANCH   1  67
ATOM     67  C   UNL A   1      41.298  21.482  26.268  1.00  0.00     0.188 C 
BRANCH  67  68
ATOM     68  O   UNL A   1      40.200  22.083  26.914  1.00  0.00    -0.376 OA
BRANCH  68  69
ATOM     69  C   UNL A   1      39.071  22.476  26.158  1.00  0.00     0.202 C 
BRANCH  69  70
ATOM     70  C   UNL A   1      38.188  21.484  25.372  1.00  0.00     0.261 C 
BRANCH  70  71
ATOM     71  O   UNL A   1      36.776  21.489  25.638  1.00  0.00    -0.463 OA
BRANCH  71  72
ATOM     72  C   UNL A   1      35.963  22.310  24.903  1.00  0.00     0.312 C 
ATOM     73  O   UNL A   1      36.157  23.514  24.767  1.00  0.00    -0.252 OA
BRANCH  72  74
ATOM     74  C   UNL A   1      34.831  21.499  24.272  1.00  0.00     0.147 C 
ATOM     75  C   UNL A   1      33.387  22.079  24.394  1.00  0.00     0.129 C 
ATOM     76  C   UNL A   1      34.689  20.167  25.003  1.00  0.00     0.157 C 
ATOM     77  C   UNL A   1      32.704  21.007  25.266  1.00  0.00     0.155 C 
ATOM     78  C   UNL A   1      33.738  19.262  24.264  1.00  0.00     0.004 C 
ATOM     79  O   UNL A   1      33.813  20.572  26.089  1.00  0.00    -0.365 OA
ATOM     80  C   UNL A   1      32.511  19.764  24.456  1.00  0.00     0.004 C 
BRANCH  75  81
ATOM     81  C   UNL A   1      32.394  22.453  23.263  1.00  0.00     0.233 C 
ATOM     82  O   UNL A   1      32.536  21.856  22.180  1.00  0.00    -0.274 OA
ATOM     83  N   UNL A   1      31.287  23.236  23.319  1.00  0.00    -0.302 N 
ATOM     84  H   UNL A   1      30.673  23.150  22.555  1.00  0.00     0.172 HD
BRANCH  83  85
ATOM     85  C   UNL A   1      30.904  24.118  24.275  1.00  0.00     0.189 A 
ATOM     86  N   UNL A   1      30.918  25.415  24.224  1.00  0.00    -0.220 NA
ATOM     87  S   UNL A   1      30.406  23.442  25.762  1.00  0.00    -0.105 S 
ATOM     88  C   UNL A   1      30.940  25.910  25.514  1.00  0.00     0.084 A 
ATOM     89  C   UNL A   1      30.684  24.982  26.504  1.00  0.00     0.097 A 
BRANCH  88  90
ATOM     90  C   UNL A   1      31.393  27.276  25.704  1.00  0.00     0.001 A 
ATOM     91  C   UNL A   1      31.604  27.742  27.010  1.00  0.00     0.013 A 
ATOM     92  C   UNL A   1      31.375  28.189  24.639  1.00  0.00     0.013 A 
ATOM     93  C   UNL A   1      31.795  29.103  27.251  1.00  0.00     0.040 A 
ATOM     94  C   UNL A   1      31.556  29.553  24.885  1.00  0.00     0.040 A 
ATOM     95  C   UNL A   1      31.762  29.996  26.187  1.00  0.00     0.123 A 
ATOM     96  F   UNL A   1      31.904  31.306  26.423  1.00  0.00    -0.207 F 
ENDBRANCH  88  90
ENDBRANCH  83  85
ENDBRANCH  75  81
ENDBRANCH  72  74
ENDBRANCH  71  72
ENDBRANCH  70  71
ENDBRANCH  69  70
ENDBRANCH  68  69
ENDBRANCH  67  68
ENDBRANCH   1  67
TORSDOF 23
ENDMDL
MODEL 2
REMARK VINA RESULT:     -11.2      0.860      5.872
REMARK SMILES O=C(OCCOCCOCCOCCOC(=O)[C@@H]1[C@@H](C(=O)Nc2nc(-c3ccc(F)cc3)cs2)[C@H]2C=C[C@@H]1O2)c1ccc(-c2c3nc(c(-c4c(F)cccc4F)c4ccc([nH]4)c(-c4c(F)cccc4F)c4nc(c(-c5c(F)cccc5F)c5ccc2[nH]5)C=C4)C=C3)cc1
REMARK SMILES IDX 10 1 9 2 8 3 7 4 6 5 5 6 4 7 3 8 2 9 1 10 40 11 41 12 93 13
REMARK SMILES IDX 42 14 92 15 43 16 44 17 45 18 86 19 46 20 91 21 85 22 87 23
REMARK SMILES IDX 47 24 90 25 84 26 83 27 48 29 74 30 57 31 73 32 58 33 61 34
REMARK SMILES IDX 72 35 88 36 59 37 60 38 71 40 89 41 62 42 49 43 50 44 55 45
REMARK SMILES IDX 51 46 52 47 54 48 56 49 53 50 75 51 76 52 81 53 77 54 78 55
REMARK SMILES IDX 80 56 82 57 79 58 63 59 64 60 69 61 65 62 66 63 68 64 70 65
REMARK SMILES IDX 67 66 11 67 12 68 13 69 14 70 15 71 16 72 17 73 18 74 19 75
REMARK SMILES IDX 38 76 35 77 37 78 39 79 36 80 20 81 21 82 22 83 23 85 24 86
REMARK SMILES IDX 34 87 25 88 33 89 26 90 27 91 32 92 28 93 31 94 29 95 30 96
REMARK H PARENT 87 28 61 39 22 84
REMARK Flexibility Score: inf
ROOT
ATOM      1  C   UNL A   1      41.614  19.901  26.488  1.00  0.00     0.188 C 
ENDROOT
BRANCH   1   2
ATOM      2  O   UNL A   1      42.269  19.567  25.281  1.00  0.00    -0.377 OA
BRANCH   2   3
ATOM      3  C   UNL A   1      43.392  18.706  25.373  1.00  0.00     0.188 C 
BRANCH   3   4
ATOM      4  C   UNL A   1      44.656  19.132  24.636  1.00  0.00     0.188 C 
BRANCH   4   5
ATOM      5  O   UNL A   1      44.537  20.463  24.138  1.00  0.00    -0.376 OA
BRANCH   5   6
ATOM      6  C   UNL A   1      45.551  21.383  24.551  1.00  0.00     0.202 C 
BRANCH   6   7
ATOM      7  C   UNL A   1      45.354  21.958  25.954  1.00  0.00     0.261 C 
BRANCH   7   8
ATOM      8  O   UNL A   1      45.450  23.390  26.008  1.00  0.00    -0.460 OA
BRANCH   8   9
ATOM      9  C   UNL A   1      44.534  24.319  25.631  1.00  0.00     0.338 C 
ATOM     10  O   UNL A   1      44.324  24.465  24.427  1.00  0.00    -0.246 OA
BRANCH   9  11
ATOM     11  C   UNL A   1      43.784  25.207  26.575  1.00  0.00     0.060 A 
ATOM     12  C   UNL A   1      44.037  26.560  26.784  1.00  0.00     0.016 A 
ATOM     13  C   UNL A   1      42.697  24.640  27.265  1.00  0.00     0.016 A 
ATOM     14  C   UNL A   1      43.298  27.324  27.661  1.00  0.00     0.010 A 
ATOM     15  C   UNL A   1      41.937  25.398  28.163  1.00  0.00     0.010 A 
ATOM     16  C   UNL A   1      42.267  26.739  28.379  1.00  0.00    -0.014 A 
BRANCH  16  17
ATOM     17  C   UNL A   1      41.759  27.527  29.509  1.00  0.00     0.031 A 
ATOM     18  C   UNL A   1      42.613  27.575  30.739  1.00  0.00     0.074 A 
ATOM     19  C   UNL A   1      40.724  28.365  29.319  1.00  0.00     0.049 A 
ATOM     20  N   UNL A   1      42.409  28.201  31.863  1.00  0.00    -0.248 NA
ATOM     21  C   UNL A   1      43.895  26.843  30.685  1.00  0.00     0.031 C 
ATOM     22  C   UNL A   1      39.989  28.524  28.058  1.00  0.00     0.029 A 
ATOM     23  N   UNL A   1      40.153  29.283  30.154  1.00  0.00    -0.354 N 
ATOM     24  C   UNL A   1      43.514  27.913  32.653  1.00  0.00     0.074 A 
ATOM     25  C   UNL A   1      44.389  27.057  31.893  1.00  0.00     0.031 C 
ATOM     26  C   UNL A   1      39.081  29.503  28.202  1.00  0.00     0.029 A 
ATOM     27  C   UNL A   1      39.117  29.978  29.578  1.00  0.00     0.049 A 
ATOM     28  H   UNL A   1      40.454  29.431  31.080  1.00  0.00     0.167 HD
ATOM     29  C   UNL A   1      43.759  28.338  33.910  1.00  0.00     0.037 A 
ATOM     30  C   UNL A   1      38.275  30.870  30.133  1.00  0.00     0.037 A 
ATOM     31  C   UNL A   1      42.866  29.207  34.621  1.00  0.00     0.049 A 
ATOM     32  C   UNL A   1      38.486  31.201  31.585  1.00  0.00     0.074 A 
ATOM     33  C   UNL A   1      42.936  29.633  35.931  1.00  0.00     0.029 A 
ATOM     34  N   UNL A   1      41.737  29.789  34.059  1.00  0.00    -0.354 N 
ATOM     35  N   UNL A   1      39.461  30.828  32.383  1.00  0.00    -0.248 NA
ATOM     36  C   UNL A   1      37.477  32.052  32.225  1.00  0.00     0.031 C 
ATOM     37  C   UNL A   1      41.818  30.435  36.176  1.00  0.00     0.029 A 
ATOM     38  C   UNL A   1      41.087  30.559  35.002  1.00  0.00     0.049 A 
ATOM     39  H   UNL A   1      41.444  29.670  33.125  1.00  0.00     0.167 HD
ATOM     40  C   UNL A   1      39.197  31.414  33.611  1.00  0.00     0.074 A 
ATOM     41  C   UNL A   1      37.980  32.186  33.445  1.00  0.00     0.031 C 
ATOM     42  C   UNL A   1      39.886  31.323  34.775  1.00  0.00     0.037 A 
BRANCH  29  43
ATOM     43  C   UNL A   1      44.983  27.815  34.597  1.00  0.00     0.057 A 
ATOM     44  C   UNL A   1      44.931  26.603  35.298  1.00  0.00     0.134 A 
ATOM     45  C   UNL A   1      46.202  28.503  34.585  1.00  0.00     0.134 A 
ATOM     46  F   UNL A   1      43.798  25.885  35.332  1.00  0.00    -0.206 F 
ATOM     47  C   UNL A   1      46.041  26.106  35.982  1.00  0.00     0.040 A 
ATOM     48  C   UNL A   1      47.326  28.005  35.247  1.00  0.00     0.040 A 
ATOM     49  F   UNL A   1      46.329  29.649  33.899  1.00  0.00    -0.206 F 
ATOM     50  C   UNL A   1      47.243  26.808  35.958  1.00  0.00     0.006 A 
ENDBRANCH  29  43
BRANCH  30  51
ATOM     51  C   UNL A   1      37.146  31.442  29.353  1.00  0.00     0.057 A 
ATOM     52  C   UNL A   1      37.205  32.740  28.825  1.00  0.00     0.134 A 
ATOM     53  C   UNL A   1      35.988  30.701  29.088  1.00  0.00     0.134 A 
ATOM     54  F   UNL A   1      38.282  33.510  29.035  1.00  0.00    -0.206 F 
ATOM     55  C   UNL A   1      36.157  33.282  28.076  1.00  0.00     0.040 A 
ATOM     56  C   UNL A   1      34.946  31.218  28.314  1.00  0.00     0.040 A 
ATOM     57  F   UNL A   1      35.872  29.446  29.544  1.00  0.00    -0.206 F 
ATOM     58  C   UNL A   1      35.027  32.515  27.809  1.00  0.00     0.006 A 
ENDBRANCH  30  51
BRANCH  42  59
ATOM     59  C   UNL A   1      39.361  32.102  35.941  1.00  0.00     0.057 A 
ATOM     60  C   UNL A   1      38.346  31.570  36.747  1.00  0.00     0.134 A 
ATOM     61  C   UNL A   1      39.789  33.408  36.204  1.00  0.00     0.134 A 
ATOM     62  F   UNL A   1      37.884  30.330  36.531  1.00  0.00    -0.206 F 
ATOM     63  C   UNL A   1      37.761  32.321  37.763  1.00  0.00     0.040 A 
ATOM     64  C   UNL A   1      39.234  34.156  37.239  1.00  0.00     0.040 A 
ATOM     65  F   UNL A   1      40.764  33.966  35.470  1.00  0.00    -0.206 F 
ATOM     66  C   UNL A   1      38.207  33.617  38.014  1.00  0.00     0.006 A 
ENDBRANCH  42  59
ENDBRANCH  16  17
ENDBRANCH   9  11
ENDBRANCH   8   9
ENDBRANCH   7   8
ENDBRANCH   6   7
ENDBRANCH   5   6
ENDBRANCH   4   5
ENDBRANCH   3   4
ENDBRANCH   2   3
ENDBRANCH   1   2
BRANCH   1  67
ATOM     67  C   UNL A   1      41.430  21.370  26.924  1.00  0.00     0.188 C 
BRANCH  67  68
ATOM     68  O   UNL A   1      40.169  21.841  27.337  1.00  0.00    -0.376 OA
BRANCH  68  69
ATOM     69  C   UNL A   1      39.342  22.530  26.419  1.00  0.00     0.202 C 
BRANCH  69  70
ATOM     70  C   UNL A   1      38.288  21.830  25.535  1.00  0.00     0.261 C 
BRANCH  70  71
ATOM     71  O   UNL A   1      36.916  21.882  25.962  1.00  0.00    -0.463 OA
BRANCH  71  72
ATOM     72  C   UNL A   1      36.107  22.877  25.480  1.00  0.00     0.312 C 
ATOM     73  O   UNL A   1      36.250  24.063  25.758  1.00  0.00    -0.252 OA
BRANCH  72  74
ATOM     74  C   UNL A   1      35.054  22.287  24.543  1.00  0.00     0.147 C 
ATOM     75  C   UNL A   1      33.927  23.246  24.046  1.00  0.00     0.129 C 
ATOM     76  C   UNL A   1      34.247  21.225  25.285  1.00  0.00     0.157 C 
ATOM     77  C   UNL A   1      32.680  22.603  24.685  1.00  0.00     0.155 C 
ATOM     78  C   UNL A   1      33.361  20.475  24.326  1.00  0.00     0.004 C 
ATOM     79  O   UNL A   1      33.242  22.067  25.908  1.00  0.00    -0.365 OA
ATOM     80  C   UNL A   1      32.375  21.317  23.984  1.00  0.00     0.004 C 
BRANCH  75  81
ATOM     81  C   UNL A   1      33.552  23.628  22.590  1.00  0.00     0.233 C 
ATOM     82  O   UNL A   1      34.193  23.063  21.685  1.00  0.00    -0.274 OA
ATOM     83  N   UNL A   1      32.518  24.386  22.142  1.00  0.00    -0.302 N 
ATOM     84  H   UNL A   1      32.326  24.307  21.181  1.00  0.00     0.172 HD
BRANCH  83  85
ATOM     85  C   UNL A   1      31.713  25.234  22.828  1.00  0.00     0.189 A 
ATOM     86  N   UNL A   1      31.904  26.491  23.088  1.00  0.00    -0.220 NA
ATOM     87  S   UNL A   1      30.299  24.548  23.498  1.00  0.00    -0.105 S 
ATOM     88  C   UNL A   1      31.145  26.838  24.189  1.00  0.00     0.084 A 
ATOM     89  C   UNL A   1      30.206  25.901  24.574  1.00  0.00     0.097 A 
BRANCH  88  90
ATOM     90  C   UNL A   1      31.520  28.037  24.916  1.00  0.00     0.001 A 
ATOM     91  C   UNL A   1      32.032  27.906  26.215  1.00  0.00     0.013 A 
ATOM     92  C   UNL A   1      31.145  29.305  24.445  1.00  0.00     0.013 A 
ATOM     93  C   UNL A   1      32.168  29.027  27.035  1.00  0.00     0.040 A 
ATOM     94  C   UNL A   1      31.274  30.423  25.272  1.00  0.00     0.040 A 
ATOM     95  C   UNL A   1      31.782  30.273  26.558  1.00  0.00     0.123 A 
ATOM     96  F   UNL A   1      31.875  31.342  27.359  1.00  0.00    -0.207 F 
ENDBRANCH  88  90
ENDBRANCH  83  85
ENDBRANCH  75  81
ENDBRANCH  72  74
ENDBRANCH  71  72
ENDBRANCH  70  71
ENDBRANCH  69  70
ENDBRANCH  68  69
ENDBRANCH  67  68
ENDBRANCH   1  67
TORSDOF 23
ENDMDL
MODEL 3
REMARK VINA RESULT:     -10.4      6.583     10.113
REMARK SMILES O=C(OCCOCCOCCOCCOC(=O)[C@@H]1[C@@H](C(=O)Nc2nc(-c3ccc(F)cc3)cs2)[C@H]2C=C[C@@H]1O2)c1ccc(-c2c3nc(c(-c4c(F)cccc4F)c4ccc([nH]4)c(-c4c(F)cccc4F)c4nc(c(-c5c(F)cccc5F)c5ccc2[nH]5)C=C4)C=C3)cc1
REMARK SMILES IDX 10 1 9 2 8 3 7 4 6 5 5 6 4 7 3 8 2 9 1 10 40 11 41 12 93 13
REMARK SMILES IDX 42 14 92 15 43 16 44 17 45 18 86 19 46 20 91 21 85 22 87 23
REMARK SMILES IDX 47 24 90 25 84 26 83 27 48 29 74 30 57 31 73 32 58 33 61 34
REMARK SMILES IDX 72 35 88 36 59 37 60 38 71 40 89 41 62 42 49 43 50 44 55 45
REMARK SMILES IDX 51 46 52 47 54 48 56 49 53 50 75 51 76 52 81 53 77 54 78 55
REMARK SMILES IDX 80 56 82 57 79 58 63 59 64 60 69 61 65 62 66 63 68 64 70 65
REMARK SMILES IDX 67 66 11 67 12 68 13 69 14 70 15 71 16 72 17 73 18 74 19 75
REMARK SMILES IDX 38 76 35 77 37 78 39 79 36 80 20 81 21 82 22 83 23 85 24 86
REMARK SMILES IDX 34 87 25 88 33 89 26 90 27 91 32 92 28 93 31 94 29 95 30 96
REMARK H PARENT 87 28 61 39 22 84
REMARK Flexibility Score: inf
ROOT
ATOM      1  C   UNL A   1      42.030  19.325  26.251  1.00  0.00     0.188 C 
ENDROOT
BRANCH   1   2
ATOM      2  O   UNL A   1      42.666  19.144  25.002  1.00  0.00    -0.377 OA
BRANCH   2   3
ATOM      3  C   UNL A   1      44.026  18.746  25.022  1.00  0.00     0.188 C 
BRANCH   3   4
ATOM      4  C   UNL A   1      45.071  19.824  24.763  1.00  0.00     0.188 C 
BRANCH   4   5
ATOM      5  O   UNL A   1      44.538  20.873  23.957  1.00  0.00    -0.376 OA
BRANCH   5   6
ATOM      6  C   UNL A   1      44.482  22.167  24.564  1.00  0.00     0.202 C 
BRANCH   6   7
ATOM      7  C   UNL A   1      44.332  22.148  26.086  1.00  0.00     0.261 C 
BRANCH   7   8
ATOM      8  O   UNL A   1      43.131  22.781  26.554  1.00  0.00    -0.460 OA
BRANCH   8   9
ATOM      9  C   UNL A   1      42.912  24.092  26.831  1.00  0.00     0.338 C 
ATOM     10  O   UNL A   1      41.763  24.438  27.106  1.00  0.00    -0.246 OA
BRANCH   9  11
ATOM     11  C   UNL A   1      43.963  25.157  26.792  1.00  0.00     0.060 A 
ATOM     12  C   UNL A   1      44.647  25.658  27.897  1.00  0.00     0.016 A 
ATOM     13  C   UNL A   1      44.330  25.653  25.527  1.00  0.00     0.016 A 
ATOM     14  C   UNL A   1      45.615  26.633  27.788  1.00  0.00     0.010 A 
ATOM     15  C   UNL A   1      45.307  26.646  25.397  1.00  0.00     0.010 A 
ATOM     16  C   UNL A   1      45.925  27.156  26.542  1.00  0.00    -0.014 A 
BRANCH  16  17
ATOM     17  C   UNL A   1      46.711  28.396  26.557  1.00  0.00     0.031 A 
ATOM     18  C   UNL A   1      48.163  28.281  26.209  1.00  0.00     0.074 A 
ATOM     19  C   UNL A   1      46.075  29.580  26.614  1.00  0.00     0.049 A 
ATOM     20  N   UNL A   1      49.071  29.212  26.136  1.00  0.00    -0.248 NA
ATOM     21  C   UNL A   1      48.656  26.933  25.861  1.00  0.00     0.031 C 
ATOM     22  C   UNL A   1      44.622  29.754  26.729  1.00  0.00     0.029 A 
ATOM     23  N   UNL A   1      46.555  30.856  26.518  1.00  0.00    -0.354 N 
ATOM     24  C   UNL A   1      50.240  28.561  25.766  1.00  0.00     0.074 A 
ATOM     25  C   UNL A   1      49.940  27.158  25.630  1.00  0.00     0.031 C 
ATOM     26  C   UNL A   1      44.331  31.063  26.670  1.00  0.00     0.029 A 
ATOM     27  C   UNL A   1      45.576  31.817  26.597  1.00  0.00     0.049 A 
ATOM     28  H   UNL A   1      47.510  31.067  26.404  1.00  0.00     0.167 HD
ATOM     29  C   UNL A   1      51.457  29.107  25.563  1.00  0.00     0.037 A 
ATOM     30  C   UNL A   1      45.696  33.157  26.641  1.00  0.00     0.037 A 
ATOM     31  C   UNL A   1      51.704  30.514  25.691  1.00  0.00     0.049 A 
ATOM     32  C   UNL A   1      47.088  33.723  26.569  1.00  0.00     0.074 A 
ATOM     33  C   UNL A   1      52.904  31.191  25.616  1.00  0.00     0.029 A 
ATOM     34  N   UNL A   1      50.712  31.460  25.915  1.00  0.00    -0.354 N 
ATOM     35  N   UNL A   1      48.223  33.098  26.348  1.00  0.00    -0.248 NA
ATOM     36  C   UNL A   1      47.228  35.169  26.772  1.00  0.00     0.031 C 
ATOM     37  C   UNL A   1      52.643  32.545  25.844  1.00  0.00     0.029 A 
ATOM     38  C   UNL A   1      51.274  32.718  26.000  1.00  0.00     0.049 A 
ATOM     39  H   UNL A   1      49.750  31.262  26.001  1.00  0.00     0.167 HD
ATOM     40  C   UNL A   1      49.207  34.073  26.365  1.00  0.00     0.074 A 
ATOM     41  C   UNL A   1      48.531  35.336  26.596  1.00  0.00     0.031 C 
ATOM     42  C   UNL A   1      50.549  33.946  26.213  1.00  0.00     0.037 A 
BRANCH  29  43
ATOM     43  C   UNL A   1      52.596  28.182  25.260  1.00  0.00     0.057 A 
ATOM     44  C   UNL A   1      52.968  27.938  23.933  1.00  0.00     0.134 A 
ATOM     45  C   UNL A   1      53.314  27.522  26.265  1.00  0.00     0.134 A 
ATOM     46  F   UNL A   1      52.333  28.554  22.923  1.00  0.00    -0.206 F 
ATOM     47  C   UNL A   1      53.998  27.053  23.612  1.00  0.00     0.040 A 
ATOM     48  C   UNL A   1      54.361  26.651  25.959  1.00  0.00     0.040 A 
ATOM     49  F   UNL A   1      53.034  27.744  27.558  1.00  0.00    -0.206 F 
ATOM     50  C   UNL A   1      54.698  26.406  24.628  1.00  0.00     0.006 A 
ENDBRANCH  29  43
BRANCH  30  51
ATOM     51  C   UNL A   1      44.504  34.026  26.827  1.00  0.00     0.057 A 
ATOM     52  C   UNL A   1      44.090  34.438  28.101  1.00  0.00     0.134 A 
ATOM     53  C   UNL A   1      43.760  34.492  25.736  1.00  0.00     0.134 A 
ATOM     54  F   UNL A   1      44.753  34.033  29.195  1.00  0.00    -0.206 F 
ATOM     55  C   UNL A   1      42.981  35.268  28.286  1.00  0.00     0.040 A 
ATOM     56  C   UNL A   1      42.669  35.349  25.903  1.00  0.00     0.040 A 
ATOM     57  F   UNL A   1      44.111  34.155  24.486  1.00  0.00    -0.206 F 
ATOM     58  C   UNL A   1      42.273  35.735  27.183  1.00  0.00     0.006 A 
ENDBRANCH  30  51
BRANCH  42  59
ATOM     59  C   UNL A   1      51.361  35.202  26.254  1.00  0.00     0.057 A 
ATOM     60  C   UNL A   1      51.810  35.714  27.478  1.00  0.00     0.134 A 
ATOM     61  C   UNL A   1      51.616  35.950  25.099  1.00  0.00     0.134 A 
ATOM     62  F   UNL A   1      51.581  35.049  28.621  1.00  0.00    -0.206 F 
ATOM     63  C   UNL A   1      52.466  36.940  27.554  1.00  0.00     0.040 A 
ATOM     64  C   UNL A   1      52.301  37.161  25.159  1.00  0.00     0.040 A 
ATOM     65  F   UNL A   1      51.217  35.505  23.897  1.00  0.00    -0.206 F 
ATOM     66  C   UNL A   1      52.716  37.666  26.391  1.00  0.00     0.006 A 
ENDBRANCH  42  59
ENDBRANCH  16  17
ENDBRANCH   9  11
ENDBRANCH   8   9
ENDBRANCH   7   8
ENDBRANCH   6   7
ENDBRANCH   5   6
ENDBRANCH   4   5
ENDBRANCH   3   4
ENDBRANCH   2   3
ENDBRANCH   1   2
BRANCH   1  67
ATOM     67  C   UNL A   1      40.569  19.813  26.348  1.00  0.00     0.188 C 
BRANCH  67  68
ATOM     68  O   UNL A   1      40.273  21.084  26.877  1.00  0.00    -0.376 OA
BRANCH  68  69
ATOM     69  C   UNL A   1      39.407  21.953  26.173  1.00  0.00     0.202 C 
BRANCH  69  70
ATOM     70  C   UNL A   1      38.188  21.463  25.362  1.00  0.00     0.261 C 
BRANCH  70  71
ATOM     71  O   UNL A   1      36.881  21.848  25.819  1.00  0.00    -0.463 OA
BRANCH  71  72
ATOM     72  C   UNL A   1      36.254  22.909  25.220  1.00  0.00     0.312 C 
ATOM     73  O   UNL A   1      36.628  24.071  25.332  1.00  0.00    -0.252 OA
BRANCH  72  74
ATOM     74  C   UNL A   1      35.068  22.414  24.390  1.00  0.00     0.147 C 
ATOM     75  C   UNL A   1      33.923  23.436  24.108  1.00  0.00     0.129 C 
ATOM     76  C   UNL A   1      34.325  21.325  25.159  1.00  0.00     0.157 C 
ATOM     77  C   UNL A   1      32.745  22.784  24.859  1.00  0.00     0.155 C 
ATOM     78  C   UNL A   1      33.297  20.669  24.276  1.00  0.00     0.004 C 
ATOM     79  O   UNL A   1      33.438  22.149  25.961  1.00  0.00    -0.365 OA
ATOM     80  C   UNL A   1      32.307  21.559  24.120  1.00  0.00     0.004 C 
BRANCH  75  81
ATOM     81  C   UNL A   1      33.380  23.930  22.741  1.00  0.00     0.233 C 
ATOM     82  O   UNL A   1      33.796  23.334  21.730  1.00  0.00    -0.274 OA
ATOM     83  N   UNL A   1      32.395  24.827  22.484  1.00  0.00    -0.302 N 
ATOM     84  H   UNL A   1      32.048  24.818  21.563  1.00  0.00     0.172 HD
BRANCH  83  85
ATOM     85  C   UNL A   1      31.819  25.733  23.312  1.00  0.00     0.189 A 
ATOM     86  N   UNL A   1      32.312  26.853  23.745  1.00  0.00    -0.220 NA
ATOM     87  S   UNL A   1      30.278  25.320  23.921  1.00  0.00    -0.105 S 
ATOM     88  C   UNL A   1      31.657  27.207  24.910  1.00  0.00     0.084 A 
ATOM     89  C   UNL A   1      30.516  26.479  25.185  1.00  0.00     0.097 A 
BRANCH  88  90
ATOM     90  C   UNL A   1      32.312  28.156  25.791  1.00  0.00     0.001 A 
ATOM     91  C   UNL A   1      31.780  29.448  25.908  1.00  0.00     0.013 A 
ATOM     92  C   UNL A   1      33.585  27.883  26.313  1.00  0.00     0.013 A 
ATOM     93  C   UNL A   1      32.509  30.456  26.538  1.00  0.00     0.040 A 
ATOM     94  C   UNL A   1      34.317  28.898  26.936  1.00  0.00     0.040 A 
ATOM     95  C   UNL A   1      33.773  30.173  27.041  1.00  0.00     0.123 A 
ATOM     96  F   UNL A   1      34.489  31.152  27.609  1.00  0.00    -0.207 F 
ENDBRANCH  88  90
ENDBRANCH  83  85
ENDBRANCH  75  81
ENDBRANCH  72  74
ENDBRANCH  71  72
ENDBRANCH  70  71
ENDBRANCH  69  70
ENDBRANCH  68  69
ENDBRANCH  67  68
ENDBRANCH   1  67
TORSDOF 23
ENDMDL
