MODEL 1
REMARK VINA RESULT:     -10.0      0.000      0.000
REMARK SMILES CCc1cc(OC(F)(F)F)cc2c1O[C@@H](C(F)(F)F)C(C(=O)OCCOCCOCCOCCOC(=O)c1ccc(-c3c4nc(c(-c5c(F)cccc5F)c5ccc([nH]5)c(-c5c(F)cccc5F)c5nc(c(-c6c(F)cccc6F)c6ccc3[nH]6)C=C5)C=C4)cc1)=C2
REMARK SMILES IDX 29 1 28 2 27 3 26 4 25 5 24 6 23 7 21 8 22 9 20 10 3 11 4 12
REMARK SMILES IDX 13 13 5 14 12 15 14 16 11 17 92 18 15 19 2 20 1 21 6 22 7 23
REMARK SMILES IDX 8 24 9 25 10 26 16 27 17 28 18 29 19 30 30 31 31 32 32 33
REMARK SMILES IDX 33 34 34 35 35 36 36 37 37 38 38 39 39 40 91 41 40 42 90 43
REMARK SMILES IDX 41 44 42 45 43 46 84 47 44 48 89 49 83 50 85 51 45 52 88 53
REMARK SMILES IDX 82 54 81 55 46 57 72 58 55 59 71 60 56 61 59 62 70 63 86 64
REMARK SMILES IDX 57 65 58 66 69 68 87 69 60 70 47 71 48 72 53 73 49 74 50 75
REMARK SMILES IDX 52 76 54 77 51 78 73 79 74 80 79 81 75 82 76 83 78 84 80 85
REMARK SMILES IDX 77 86 61 87 62 88 67 89 63 90 64 91 66 92 68 93 65 94
REMARK H PARENT 85 56 59 67
REMARK Flexibility Score: inf
ROOT
ATOM      1  O   UNL A   1      38.104  21.630  25.019  1.00  0.00    -0.377 OA
ENDROOT
BRANCH   1   2
ATOM      2  C   UNL A   1      36.707  21.725  25.224  1.00  0.00     0.188 C 
BRANCH   2   3
ATOM      3  C   UNL A   1      35.855  20.462  25.016  1.00  0.00     0.188 C 
BRANCH   3   4
ATOM      4  O   UNL A   1      34.588  20.487  25.665  1.00  0.00    -0.376 OA
BRANCH   4   5
ATOM      5  C   UNL A   1      34.472  21.391  26.757  1.00  0.00     0.202 C 
BRANCH   5   6
ATOM      6  C   UNL A   1      33.358  22.425  26.558  1.00  0.00     0.261 C 
BRANCH   6   7
ATOM      7  O   UNL A   1      33.849  23.755  26.324  1.00  0.00    -0.460 OA
BRANCH   7   8
ATOM      8  C   UNL A   1      33.802  24.198  25.049  1.00  0.00     0.338 C 
ATOM      9  O   UNL A   1      34.320  23.667  24.082  1.00  0.00    -0.246 OA
BRANCH   8  10
ATOM     10  C   UNL A   1      32.912  25.365  24.966  1.00  0.00     0.087 C 
ATOM     11  C   UNL A   1      30.556  28.682  24.007  1.00  0.00    -0.002 A 
ATOM     12  C   UNL A   1      30.867  29.920  24.609  1.00  0.00     0.054 A 
ATOM     13  C   UNL A   1      31.359  27.582  24.325  1.00  0.00     0.131 A 
ATOM     14  C   UNL A   1      31.935  30.053  25.502  1.00  0.00     0.130 A 
ATOM     15  C   UNL A   1      32.441  27.702  25.217  1.00  0.00     0.021 A 
ATOM     16  O   UNL A   1      31.129  26.395  23.680  1.00  0.00    -0.475 OA
ATOM     17  C   UNL A   1      32.707  28.933  25.819  1.00  0.00     0.058 A 
ATOM     18  C   UNL A   1      33.339  26.562  25.404  1.00  0.00     0.027 C 
ATOM     19  C   UNL A   1      31.508  25.216  24.434  1.00  0.00     0.316 C 
BRANCH  11  20
ATOM     20  C   UNL A   1      29.427  28.671  22.994  1.00  0.00     0.036 C 
ATOM     21  C   UNL A   1      28.662  29.963  22.729  1.00  0.00     0.009 C 
ENDBRANCH  11  20
BRANCH  14  22
ATOM     22  O   UNL A   1      32.330  31.209  26.114  1.00  0.00    -0.406 OA
BRANCH  22  23
ATOM     23  C   UNL A   1      31.318  32.146  26.448  1.00  0.00     0.573 C 
ATOM     24  F   UNL A   1      30.559  32.456  25.375  1.00  0.00    -0.132 F 
ATOM     25  F   UNL A   1      30.529  31.672  27.436  1.00  0.00    -0.132 F 
ATOM     26  F   UNL A   1      31.904  33.282  26.887  1.00  0.00    -0.132 F 
ENDBRANCH  22  23
ENDBRANCH  14  22
BRANCH  19  27
ATOM     27  C   UNL A   1      31.142  23.982  23.595  1.00  0.00     0.430 C 
ATOM     28  F   UNL A   1      29.915  24.098  23.037  1.00  0.00    -0.167 F 
ATOM     29  F   UNL A   1      32.007  23.862  22.550  1.00  0.00    -0.167 F 
ATOM     30  F   UNL A   1      31.197  22.829  24.288  1.00  0.00    -0.167 F 
ENDBRANCH  19  27
ENDBRANCH   8  10
ENDBRANCH   7   8
ENDBRANCH   6   7
ENDBRANCH   5   6
ENDBRANCH   4   5
ENDBRANCH   3   4
ENDBRANCH   2   3
ENDBRANCH   1   2
BRANCH   1  31
ATOM     31  C   UNL A   1      38.973  21.586  26.144  1.00  0.00     0.188 C 
BRANCH  31  32
ATOM     32  C   UNL A   1      40.404  21.016  26.040  1.00  0.00     0.188 C 
BRANCH  32  33
ATOM     33  O   UNL A   1      41.064  20.820  27.286  1.00  0.00    -0.376 OA
BRANCH  33  34
ATOM     34  C   UNL A   1      42.484  20.838  27.250  1.00  0.00     0.202 C 
BRANCH  34  35
ATOM     35  C   UNL A   1      43.042  21.659  26.084  1.00  0.00     0.261 C 
BRANCH  35  36
ATOM     36  O   UNL A   1      43.929  22.719  26.477  1.00  0.00    -0.460 OA
BRANCH  36  37
ATOM     37  C   UNL A   1      43.851  23.867  25.771  1.00  0.00     0.338 C 
ATOM     38  O   UNL A   1      44.129  24.038  24.597  1.00  0.00    -0.246 OA
BRANCH  37  39
ATOM     39  C   UNL A   1      43.185  24.872  26.619  1.00  0.00     0.060 A 
ATOM     40  C   UNL A   1      43.717  26.165  26.671  1.00  0.00     0.016 A 
ATOM     41  C   UNL A   1      42.041  24.538  27.348  1.00  0.00     0.016 A 
ATOM     42  C   UNL A   1      43.124  27.124  27.491  1.00  0.00     0.010 A 
ATOM     43  C   UNL A   1      41.459  25.492  28.182  1.00  0.00     0.010 A 
ATOM     44  C   UNL A   1      42.022  26.776  28.283  1.00  0.00    -0.014 A 
BRANCH  44  45
ATOM     45  C   UNL A   1      41.601  27.679  29.378  1.00  0.00     0.031 A 
ATOM     46  C   UNL A   1      42.350  27.606  30.680  1.00  0.00     0.074 A 
ATOM     47  C   UNL A   1      40.593  28.553  29.220  1.00  0.00     0.049 A 
ATOM     48  N   UNL A   1      42.172  28.289  31.780  1.00  0.00    -0.248 NA
ATOM     49  C   UNL A   1      43.449  26.628  30.746  1.00  0.00     0.031 C 
ATOM     50  C   UNL A   1      39.808  28.733  28.002  1.00  0.00     0.029 A 
ATOM     51  N   UNL A   1      40.058  29.454  30.106  1.00  0.00    -0.354 N 
ATOM     52  C   UNL A   1      43.139  27.830  32.665  1.00  0.00     0.074 A 
ATOM     53  C   UNL A   1      43.878  26.786  31.989  1.00  0.00     0.031 C 
ATOM     54  C   UNL A   1      38.881  29.684  28.219  1.00  0.00     0.029 A 
ATOM     55  C   UNL A   1      38.998  30.162  29.596  1.00  0.00     0.049 A 
ATOM     56  H   UNL A   1      40.401  29.582  31.020  1.00  0.00     0.167 HD
ATOM     57  C   UNL A   1      43.398  28.247  33.926  1.00  0.00     0.037 A 
ATOM     58  C   UNL A   1      38.207  31.081  30.185  1.00  0.00     0.037 A 
ATOM     59  C   UNL A   1      42.656  29.274  34.605  1.00  0.00     0.049 A 
ATOM     60  C   UNL A   1      38.469  31.477  31.615  1.00  0.00     0.074 A 
ATOM     61  C   UNL A   1      42.852  29.779  35.879  1.00  0.00     0.029 A 
ATOM     62  N   UNL A   1      41.569  29.943  34.068  1.00  0.00    -0.354 N 
ATOM     63  N   UNL A   1      39.413  31.068  32.429  1.00  0.00    -0.248 NA
ATOM     64  C   UNL A   1      37.555  32.466  32.207  1.00  0.00     0.031 C 
ATOM     65  C   UNL A   1      41.851  30.725  36.128  1.00  0.00     0.029 A 
ATOM     66  C   UNL A   1      41.063  30.840  34.994  1.00  0.00     0.049 A 
ATOM     67  H   UNL A   1      41.208  29.803  33.163  1.00  0.00     0.167 HD
ATOM     68  C   UNL A   1      39.222  31.767  33.615  1.00  0.00     0.074 A 
ATOM     69  C   UNL A   1      38.081  32.635  33.412  1.00  0.00     0.031 C 
ATOM     70  C   UNL A   1      39.929  31.698  34.771  1.00  0.00     0.037 A 
BRANCH  57  71
ATOM     71  C   UNL A   1      44.521  27.572  34.652  1.00  0.00     0.057 A 
ATOM     72  C   UNL A   1      44.330  26.373  35.351  1.00  0.00     0.134 A 
ATOM     73  C   UNL A   1      45.809  28.120  34.645  1.00  0.00     0.134 A 
ATOM     74  F   UNL A   1      43.115  25.808  35.412  1.00  0.00    -0.206 F 
ATOM     75  C   UNL A   1      45.377  25.753  36.035  1.00  0.00     0.040 A 
ATOM     76  C   UNL A   1      46.869  27.498  35.305  1.00  0.00     0.040 A 
ATOM     77  F   UNL A   1      46.056  29.268  33.996  1.00  0.00    -0.206 F 
ATOM     78  C   UNL A   1      46.652  26.314  36.008  1.00  0.00     0.006 A 
ENDBRANCH  57  71
BRANCH  58  79
ATOM     79  C   UNL A   1      37.083  31.691  29.431  1.00  0.00     0.057 A 
ATOM     80  C   UNL A   1      35.885  30.995  29.229  1.00  0.00     0.134 A 
ATOM     81  C   UNL A   1      37.193  32.967  28.868  1.00  0.00     0.134 A 
ATOM     82  F   UNL A   1      35.731  29.759  29.722  1.00  0.00    -0.206 F 
ATOM     83  C   UNL A   1      34.843  31.541  28.477  1.00  0.00     0.040 A 
ATOM     84  C   UNL A   1      36.150  33.533  28.132  1.00  0.00     0.040 A 
ATOM     85  F   UNL A   1      38.316  33.683  29.024  1.00  0.00    -0.206 F 
ATOM     86  C   UNL A   1      34.973  32.815  27.930  1.00  0.00     0.006 A 
ENDBRANCH  58  79
BRANCH  70  87
ATOM     87  C   UNL A   1      39.506  32.602  35.892  1.00  0.00     0.057 A 
ATOM     88  C   UNL A   1      40.075  33.870  36.072  1.00  0.00     0.134 A 
ATOM     89  C   UNL A   1      38.489  32.218  36.774  1.00  0.00     0.134 A 
ATOM     90  F   UNL A   1      41.062  34.293  35.267  1.00  0.00    -0.206 F 
ATOM     91  C   UNL A   1      39.659  34.715  37.102  1.00  0.00     0.040 A 
ATOM     92  C   UNL A   1      38.048  33.064  37.793  1.00  0.00     0.040 A 
ATOM     93  F   UNL A   1      37.896  31.021  36.650  1.00  0.00    -0.206 F 
ATOM     94  C   UNL A   1      38.638  34.315  37.961  1.00  0.00     0.006 A 
ENDBRANCH  70  87
ENDBRANCH  44  45
ENDBRANCH  37  39
ENDBRANCH  36  37
ENDBRANCH  35  36
ENDBRANCH  34  35
ENDBRANCH  33  34
ENDBRANCH  32  33
ENDBRANCH  31  32
ENDBRANCH   1  31
TORSDOF 24
ENDMDL
MODEL 2
REMARK VINA RESULT:      -8.8      4.340      6.655
REMARK SMILES CCc1cc(OC(F)(F)F)cc2c1O[C@@H](C(F)(F)F)C(C(=O)OCCOCCOCCOCCOC(=O)c1ccc(-c3c4nc(c(-c5c(F)cccc5F)c5ccc([nH]5)c(-c5c(F)cccc5F)c5nc(c(-c6c(F)cccc6F)c6ccc3[nH]6)C=C5)C=C4)cc1)=C2
REMARK SMILES IDX 29 1 28 2 27 3 26 4 25 5 24 6 23 7 21 8 22 9 20 10 3 11 4 12
REMARK SMILES IDX 13 13 5 14 12 15 14 16 11 17 92 18 15 19 2 20 1 21 6 22 7 23
REMARK SMILES IDX 8 24 9 25 10 26 16 27 17 28 18 29 19 30 30 31 31 32 32 33
REMARK SMILES IDX 33 34 34 35 35 36 36 37 37 38 38 39 39 40 91 41 40 42 90 43
REMARK SMILES IDX 41 44 42 45 43 46 84 47 44 48 89 49 83 50 85 51 45 52 88 53
REMARK SMILES IDX 82 54 81 55 46 57 72 58 55 59 71 60 56 61 59 62 70 63 86 64
REMARK SMILES IDX 57 65 58 66 69 68 87 69 60 70 47 71 48 72 53 73 49 74 50 75
REMARK SMILES IDX 52 76 54 77 51 78 73 79 74 80 79 81 75 82 76 83 78 84 80 85
REMARK SMILES IDX 77 86 61 87 62 88 67 89 63 90 64 91 66 92 68 93 65 94
REMARK H PARENT 85 56 59 67
REMARK Flexibility Score: inf
ROOT
ATOM      1  O   UNL A   1      37.550  21.688  24.591  1.00  0.00    -0.377 OA
ENDROOT
BRANCH   1   2
ATOM      2  C   UNL A   1      36.162  21.487  24.401  1.00  0.00     0.188 C 
BRANCH   2   3
ATOM      3  C   UNL A   1      35.553  20.151  24.856  1.00  0.00     0.188 C 
BRANCH   3   4
ATOM      4  O   UNL A   1      34.130  20.121  24.870  1.00  0.00    -0.376 OA
BRANCH   4   5
ATOM      5  C   UNL A   1      33.486  21.390  24.888  1.00  0.00     0.202 C 
BRANCH   5   6
ATOM      6  C   UNL A   1      32.446  21.546  23.775  1.00  0.00     0.261 C 
BRANCH   6   7
ATOM      7  O   UNL A   1      32.082  22.913  23.520  1.00  0.00    -0.460 OA
BRANCH   7   8
ATOM      8  C   UNL A   1      31.312  23.515  24.452  1.00  0.00     0.338 C 
ATOM      9  O   UNL A   1      30.700  22.960  25.348  1.00  0.00    -0.246 OA
BRANCH   8  10
ATOM     10  C   UNL A   1      31.419  24.974  24.312  1.00  0.00     0.087 C 
ATOM     11  C   UNL A   1      31.607  29.136  24.648  1.00  0.00    -0.002 A 
ATOM     12  C   UNL A   1      30.646  29.906  23.958  1.00  0.00     0.054 A 
ATOM     13  C   UNL A   1      31.526  27.744  24.539  1.00  0.00     0.131 A 
ATOM     14  C   UNL A   1      29.647  29.309  23.182  1.00  0.00     0.130 A 
ATOM     15  C   UNL A   1      30.523  27.129  23.767  1.00  0.00     0.021 A 
ATOM     16  O   UNL A   1      32.393  26.979  25.274  1.00  0.00    -0.475 OA
ATOM     17  C   UNL A   1      29.604  27.918  23.073  1.00  0.00     0.058 A 
ATOM     18  C   UNL A   1      30.390  25.672  23.802  1.00  0.00     0.027 C 
ATOM     19  C   UNL A   1      32.694  25.684  24.696  1.00  0.00     0.316 C 
BRANCH  11  20
ATOM     20  C   UNL A   1      32.593  29.885  25.523  1.00  0.00     0.036 C 
ATOM     21  C   UNL A   1      32.125  30.415  26.873  1.00  0.00     0.009 C 
ENDBRANCH  11  20
BRANCH  14  22
ATOM     22  O   UNL A   1      28.661  29.966  22.501  1.00  0.00    -0.406 OA
BRANCH  22  23
ATOM     23  C   UNL A   1      27.760  30.755  23.262  1.00  0.00     0.573 C 
ATOM     24  F   UNL A   1      28.413  31.513  24.169  1.00  0.00    -0.132 F 
ATOM     25  F   UNL A   1      27.020  31.550  22.459  1.00  0.00    -0.132 F 
ATOM     26  F   UNL A   1      26.919  29.935  23.930  1.00  0.00    -0.132 F 
ENDBRANCH  22  23
ENDBRANCH  14  22
BRANCH  19  27
ATOM     27  C   UNL A   1      33.707  24.982  25.613  1.00  0.00     0.430 C 
ATOM     28  F   UNL A   1      34.555  24.192  24.915  1.00  0.00    -0.167 F 
ATOM     29  F   UNL A   1      34.493  25.908  26.226  1.00  0.00    -0.167 F 
ATOM     30  F   UNL A   1      33.130  24.248  26.584  1.00  0.00    -0.167 F 
ENDBRANCH  19  27
ENDBRANCH   8  10
ENDBRANCH   7   8
ENDBRANCH   6   7
ENDBRANCH   5   6
ENDBRANCH   4   5
ENDBRANCH   3   4
ENDBRANCH   2   3
ENDBRANCH   1   2
BRANCH   1  31
ATOM     31  C   UNL A   1      38.042  21.972  25.896  1.00  0.00     0.188 C 
BRANCH  31  32
ATOM     32  C   UNL A   1      39.506  21.680  26.290  1.00  0.00     0.188 C 
BRANCH  32  33
ATOM     33  O   UNL A   1      40.099  22.646  27.151  1.00  0.00    -0.376 OA
BRANCH  33  34
ATOM     34  C   UNL A   1      41.518  22.721  27.121  1.00  0.00     0.202 C 
BRANCH  34  35
ATOM     35  C   UNL A   1      42.130  21.993  25.921  1.00  0.00     0.261 C 
BRANCH  35  36
ATOM     36  O   UNL A   1      43.565  22.020  25.882  1.00  0.00    -0.460 OA
BRANCH  36  37
ATOM     37  C   UNL A   1      44.131  22.770  24.912  1.00  0.00     0.338 C 
ATOM     38  O   UNL A   1      44.244  22.494  23.731  1.00  0.00    -0.246 OA
BRANCH  37  39
ATOM     39  C   UNL A   1      44.437  24.091  25.487  1.00  0.00     0.060 A 
ATOM     40  C   UNL A   1      45.133  24.150  26.701  1.00  0.00     0.016 A 
ATOM     41  C   UNL A   1      44.048  25.260  24.828  1.00  0.00     0.016 A 
ATOM     42  C   UNL A   1      45.407  25.387  27.281  1.00  0.00     0.010 A 
ATOM     43  C   UNL A   1      44.305  26.496  25.419  1.00  0.00     0.010 A 
ATOM     44  C   UNL A   1      44.952  26.561  26.665  1.00  0.00    -0.014 A 
BRANCH  44  45
ATOM     45  C   UNL A   1      44.954  27.829  27.428  1.00  0.00     0.031 A 
ATOM     46  C   UNL A   1      43.740  28.158  28.252  1.00  0.00     0.074 A 
ATOM     47  C   UNL A   1      46.009  28.661  27.407  1.00  0.00     0.049 A 
ATOM     48  N   UNL A   1      43.503  29.201  29.003  1.00  0.00    -0.248 NA
ATOM     49  C   UNL A   1      42.645  27.173  28.223  1.00  0.00     0.031 C 
ATOM     50  C   UNL A   1      47.248  28.442  26.667  1.00  0.00     0.029 A 
ATOM     51  N   UNL A   1      46.194  29.869  28.031  1.00  0.00    -0.354 N 
ATOM     52  C   UNL A   1      42.238  28.996  29.540  1.00  0.00     0.074 A 
ATOM     53  C   UNL A   1      41.742  27.748  29.002  1.00  0.00     0.031 C 
ATOM     54  C   UNL A   1      48.068  29.489  26.873  1.00  0.00     0.029 A 
ATOM     55  C   UNL A   1      47.400  30.458  27.743  1.00  0.00     0.049 A 
ATOM     56  H   UNL A   1      45.526  30.275  28.630  1.00  0.00     0.167 HD
ATOM     57  C   UNL A   1      41.554  29.770  30.412  1.00  0.00     0.037 A 
ATOM     58  C   UNL A   1      47.897  31.648  28.129  1.00  0.00     0.037 A 
ATOM     59  C   UNL A   1      42.038  31.018  30.937  1.00  0.00     0.049 A 
ATOM     60  C   UNL A   1      47.084  32.529  29.044  1.00  0.00     0.074 A 
ATOM     61  C   UNL A   1      41.426  31.870  31.839  1.00  0.00     0.029 A 
ATOM     62  N   UNL A   1      43.250  31.597  30.594  1.00  0.00    -0.354 N 
ATOM     63  N   UNL A   1      45.908  32.306  29.580  1.00  0.00    -0.248 NA
ATOM     64  C   UNL A   1      47.672  33.827  29.408  1.00  0.00     0.031 C 
ATOM     65  C   UNL A   1      42.250  32.988  32.008  1.00  0.00     0.029 A 
ATOM     66  C   UNL A   1      43.394  32.810  31.247  1.00  0.00     0.049 A 
ATOM     67  H   UNL A   1      43.910  31.205  29.978  1.00  0.00     0.167 HD
ATOM     68  C   UNL A   1      45.629  33.420  30.363  1.00  0.00     0.074 A 
ATOM     69  C   UNL A   1      46.763  34.312  30.242  1.00  0.00     0.031 C 
ATOM     70  C   UNL A   1      44.532  33.682  31.116  1.00  0.00     0.037 A 
BRANCH  57  71
ATOM     71  C   UNL A   1      40.198  29.292  30.833  1.00  0.00     0.057 A 
ATOM     72  C   UNL A   1      39.034  29.703  30.172  1.00  0.00     0.134 A 
ATOM     73  C   UNL A   1      40.056  28.404  31.905  1.00  0.00     0.134 A 
ATOM     74  F   UNL A   1      39.103  30.569  29.149  1.00  0.00    -0.206 F 
ATOM     75  C   UNL A   1      37.772  29.262  30.575  1.00  0.00     0.040 A 
ATOM     76  C   UNL A   1      38.802  27.938  32.304  1.00  0.00     0.040 A 
ATOM     77  F   UNL A   1      41.132  27.974  32.583  1.00  0.00    -0.206 F 
ATOM     78  C   UNL A   1      37.655  28.373  31.641  1.00  0.00     0.006 A 
ENDBRANCH  57  71
BRANCH  58  79
ATOM     79  C   UNL A   1      49.230  32.092  27.651  1.00  0.00     0.057 A 
ATOM     80  C   UNL A   1      50.404  31.683  28.295  1.00  0.00     0.134 A 
ATOM     81  C   UNL A   1      49.360  32.961  26.561  1.00  0.00     0.134 A 
ATOM     82  F   UNL A   1      50.341  30.872  29.361  1.00  0.00    -0.206 F 
ATOM     83  C   UNL A   1      51.658  32.138  27.884  1.00  0.00     0.040 A 
ATOM     84  C   UNL A   1      50.609  33.406  26.127  1.00  0.00     0.040 A 
ATOM     85  F   UNL A   1      48.273  33.390  25.904  1.00  0.00    -0.206 F 
ATOM     86  C   UNL A   1      51.763  32.999  26.794  1.00  0.00     0.006 A 
ENDBRANCH  58  79
BRANCH  70  87
ATOM     87  C   UNL A   1      44.517  34.969  31.888  1.00  0.00     0.057 A 
ATOM     88  C   UNL A   1      45.011  35.050  33.197  1.00  0.00     0.134 A 
ATOM     89  C   UNL A   1      44.045  36.148  31.299  1.00  0.00     0.134 A 
ATOM     90  F   UNL A   1      45.467  33.954  33.821  1.00  0.00    -0.206 F 
ATOM     91  C   UNL A   1      45.016  36.257  33.899  1.00  0.00     0.040 A 
ATOM     92  C   UNL A   1      44.068  37.365  31.983  1.00  0.00     0.040 A 
ATOM     93  F   UNL A   1      43.568  36.141  30.045  1.00  0.00    -0.206 F 
ATOM     94  C   UNL A   1      44.550  37.419  33.289  1.00  0.00     0.006 A 
ENDBRANCH  70  87
ENDBRANCH  44  45
ENDBRANCH  37  39
ENDBRANCH  36  37
ENDBRANCH  35  36
ENDBRANCH  34  35
ENDBRANCH  33  34
ENDBRANCH  32  33
ENDBRANCH  31  32
ENDBRANCH   1  31
TORSDOF 24
ENDMDL
MODEL 3
REMARK VINA RESULT:      -8.7      5.881     11.127
REMARK SMILES CCc1cc(OC(F)(F)F)cc2c1O[C@@H](C(F)(F)F)C(C(=O)OCCOCCOCCOCCOC(=O)c1ccc(-c3c4nc(c(-c5c(F)cccc5F)c5ccc([nH]5)c(-c5c(F)cccc5F)c5nc(c(-c6c(F)cccc6F)c6ccc3[nH]6)C=C5)C=C4)cc1)=C2
REMARK SMILES IDX 29 1 28 2 27 3 26 4 25 5 24 6 23 7 21 8 22 9 20 10 3 11 4 12
REMARK SMILES IDX 13 13 5 14 12 15 14 16 11 17 92 18 15 19 2 20 1 21 6 22 7 23
REMARK SMILES IDX 8 24 9 25 10 26 16 27 17 28 18 29 19 30 30 31 31 32 32 33
REMARK SMILES IDX 33 34 34 35 35 36 36 37 37 38 38 39 39 40 91 41 40 42 90 43
REMARK SMILES IDX 41 44 42 45 43 46 84 47 44 48 89 49 83 50 85 51 45 52 88 53
REMARK SMILES IDX 82 54 81 55 46 57 72 58 55 59 71 60 56 61 59 62 70 63 86 64
REMARK SMILES IDX 57 65 58 66 69 68 87 69 60 70 47 71 48 72 53 73 49 74 50 75
REMARK SMILES IDX 52 76 54 77 51 78 73 79 74 80 79 81 75 82 76 83 78 84 80 85
REMARK SMILES IDX 77 86 61 87 62 88 67 89 63 90 64 91 66 92 68 93 65 94
REMARK H PARENT 85 56 59 67
REMARK Flexibility Score: inf
ROOT
ATOM      1  O   UNL A   1      40.292  26.733  28.304  1.00  0.00    -0.377 OA
ENDROOT
BRANCH   1   2
ATOM      2  C   UNL A   1      39.318  25.837  27.802  1.00  0.00     0.188 C 
BRANCH   2   3
ATOM      3  C   UNL A   1      39.790  24.675  26.913  1.00  0.00     0.188 C 
BRANCH   3   4
ATOM      4  O   UNL A   1      40.129  23.486  27.620  1.00  0.00    -0.376 OA
BRANCH   4   5
ATOM      5  C   UNL A   1      39.933  22.269  26.911  1.00  0.00     0.202 C 
BRANCH   5   6
ATOM      6  C   UNL A   1      40.807  21.126  27.438  1.00  0.00     0.261 C 
BRANCH   6   7
ATOM      7  O   UNL A   1      42.212  21.333  27.219  1.00  0.00    -0.460 OA
BRANCH   7   8
ATOM      8  C   UNL A   1      42.658  21.154  25.957  1.00  0.00     0.338 C 
ATOM      9  O   UNL A   1      42.356  20.240  25.209  1.00  0.00    -0.246 OA
BRANCH   8  10
ATOM     10  C   UNL A   1      43.476  22.307  25.555  1.00  0.00     0.087 C 
ATOM     11  C   UNL A   1      46.209  25.423  25.012  1.00  0.00    -0.002 A 
ATOM     12  C   UNL A   1      45.729  26.749  25.062  1.00  0.00     0.054 A 
ATOM     13  C   UNL A   1      45.288  24.389  25.209  1.00  0.00     0.131 A 
ATOM     14  C   UNL A   1      44.379  27.032  25.290  1.00  0.00     0.130 A 
ATOM     15  C   UNL A   1      43.927  24.659  25.446  1.00  0.00     0.021 A 
ATOM     16  O   UNL A   1      45.750  23.100  25.255  1.00  0.00    -0.475 OA
ATOM     17  C   UNL A   1      43.477  25.980  25.461  1.00  0.00     0.058 A 
ATOM     18  C   UNL A   1      43.032  23.554  25.790  1.00  0.00     0.027 C 
ATOM     19  C   UNL A   1      44.788  22.098  24.841  1.00  0.00     0.316 C 
BRANCH  11  20
ATOM     20  C   UNL A   1      47.704  25.235  24.839  1.00  0.00     0.036 C 
ATOM     21  C   UNL A   1      48.425  26.026  23.754  1.00  0.00     0.009 C 
ENDBRANCH  11  20
BRANCH  14  22
ATOM     22  O   UNL A   1      43.825  28.278  25.381  1.00  0.00    -0.406 OA
BRANCH  22  23
ATOM     23  C   UNL A   1      43.820  28.896  26.659  1.00  0.00     0.573 C 
ATOM     24  F   UNL A   1      43.504  30.207  26.571  1.00  0.00    -0.132 F 
ATOM     25  F   UNL A   1      42.953  28.279  27.489  1.00  0.00    -0.132 F 
ATOM     26  F   UNL A   1      45.057  28.799  27.195  1.00  0.00    -0.132 F 
ENDBRANCH  22  23
ENDBRANCH  14  22
BRANCH  19  27
ATOM     27  C   UNL A   1      45.477  20.726  24.906  1.00  0.00     0.430 C 
ATOM     28  F   UNL A   1      45.353  20.158  26.128  1.00  0.00    -0.167 F 
ATOM     29  F   UNL A   1      44.874  19.866  24.041  1.00  0.00    -0.167 F 
ATOM     30  F   UNL A   1      46.783  20.768  24.578  1.00  0.00    -0.167 F 
ENDBRANCH  19  27
ENDBRANCH   8  10
ENDBRANCH   7   8
ENDBRANCH   6   7
ENDBRANCH   5   6
ENDBRANCH   4   5
ENDBRANCH   3   4
ENDBRANCH   2   3
ENDBRANCH   1   2
BRANCH   1  31
ATOM     31  C   UNL A   1      39.875  27.878  29.038  1.00  0.00     0.188 C 
BRANCH  31  32
ATOM     32  C   UNL A   1      38.416  28.380  28.995  1.00  0.00     0.188 C 
BRANCH  32  33
ATOM     33  O   UNL A   1      37.880  28.771  30.254  1.00  0.00    -0.376 OA
BRANCH  33  34
ATOM     34  C   UNL A   1      36.572  29.328  30.230  1.00  0.00     0.202 C 
BRANCH  34  35
ATOM     35  C   UNL A   1      36.490  30.689  30.926  1.00  0.00     0.261 C 
BRANCH  35  36
ATOM     36  O   UNL A   1      37.394  30.845  32.031  1.00  0.00    -0.460 OA
BRANCH  36  37
ATOM     37  C   UNL A   1      37.966  32.059  32.180  1.00  0.00     0.338 C 
ATOM     38  O   UNL A   1      37.513  33.028  32.762  1.00  0.00    -0.246 OA
BRANCH  37  39
ATOM     39  C   UNL A   1      39.346  31.970  31.669  1.00  0.00     0.060 A 
ATOM     40  C   UNL A   1      39.542  31.772  30.297  1.00  0.00     0.016 A 
ATOM     41  C   UNL A   1      40.433  32.089  32.538  1.00  0.00     0.016 A 
ATOM     42  C   UNL A   1      40.837  31.653  29.795  1.00  0.00     0.010 A 
ATOM     43  C   UNL A   1      41.727  31.951  32.037  1.00  0.00     0.010 A 
ATOM     44  C   UNL A   1      41.930  31.695  30.671  1.00  0.00    -0.014 A 
BRANCH  44  45
ATOM     45  C   UNL A   1      43.259  31.249  30.195  1.00  0.00     0.031 A 
ATOM     46  C   UNL A   1      43.617  29.799  30.359  1.00  0.00     0.074 A 
ATOM     47  C   UNL A   1      44.121  32.103  29.617  1.00  0.00     0.049 A 
ATOM     48  N   UNL A   1      44.713  29.170  30.024  1.00  0.00    -0.248 NA
ATOM     49  C   UNL A   1      42.597  28.942  30.988  1.00  0.00     0.031 C 
ATOM     50  C   UNL A   1      43.881  33.523  29.381  1.00  0.00     0.029 A 
ATOM     51  N   UNL A   1      45.384  31.885  29.126  1.00  0.00    -0.354 N 
ATOM     52  C   UNL A   1      44.512  27.846  30.394  1.00  0.00     0.074 A 
ATOM     53  C   UNL A   1      43.206  27.767  31.011  1.00  0.00     0.031 C 
ATOM     54  C   UNL A   1      44.969  34.057  28.796  1.00  0.00     0.029 A 
ATOM     55  C   UNL A   1      45.986  33.018  28.636  1.00  0.00     0.049 A 
ATOM     56  H   UNL A   1      45.818  31.001  29.124  1.00  0.00     0.167 HD
ATOM     57  C   UNL A   1      45.336  26.787  30.225  1.00  0.00     0.037 A 
ATOM     58  C   UNL A   1      47.222  33.192  28.130  1.00  0.00     0.037 A 
ATOM     59  C   UNL A   1      46.640  26.865  29.625  1.00  0.00     0.049 A 
ATOM     60  C   UNL A   1      48.151  32.010  28.019  1.00  0.00     0.074 A 
ATOM     61  C   UNL A   1      47.546  25.845  29.394  1.00  0.00     0.029 A 
ATOM     62  N   UNL A   1      47.227  28.035  29.172  1.00  0.00    -0.354 N 
ATOM     63  N   UNL A   1      47.935  30.754  28.331  1.00  0.00    -0.248 NA
ATOM     64  C   UNL A   1      49.494  32.271  27.481  1.00  0.00     0.031 C 
ATOM     65  C   UNL A   1      48.701  26.407  28.841  1.00  0.00     0.029 A 
ATOM     66  C   UNL A   1      48.497  27.768  28.687  1.00  0.00     0.049 A 
ATOM     67  H   UNL A   1      46.806  28.925  29.193  1.00  0.00     0.167 HD
ATOM     68  C   UNL A   1      49.103  30.075  28.005  1.00  0.00     0.074 A 
ATOM     69  C   UNL A   1      50.019  31.054  27.458  1.00  0.00     0.031 C 
ATOM     70  C   UNL A   1      49.392  28.757  28.143  1.00  0.00     0.037 A 
BRANCH  57  71
ATOM     71  C   UNL A   1      44.850  25.458  30.717  1.00  0.00     0.057 A 
ATOM     72  C   UNL A   1      44.999  25.070  32.055  1.00  0.00     0.134 A 
ATOM     73  C   UNL A   1      44.220  24.561  29.848  1.00  0.00     0.134 A 
ATOM     74  F   UNL A   1      45.613  25.876  32.933  1.00  0.00    -0.206 F 
ATOM     75  C   UNL A   1      44.554  23.825  32.506  1.00  0.00     0.040 A 
ATOM     76  C   UNL A   1      43.750  23.324  30.291  1.00  0.00     0.040 A 
ATOM     77  F   UNL A   1      44.050  24.872  28.553  1.00  0.00    -0.206 F 
ATOM     78  C   UNL A   1      43.923  22.952  31.624  1.00  0.00     0.006 A 
ENDBRANCH  57  71
BRANCH  58  79
ATOM     79  C   UNL A   1      47.667  34.538  27.693  1.00  0.00     0.057 A 
ATOM     80  C   UNL A   1      47.563  34.937  26.354  1.00  0.00     0.134 A 
ATOM     81  C   UNL A   1      48.238  35.444  28.594  1.00  0.00     0.134 A 
ATOM     82  F   UNL A   1      47.049  34.102  25.440  1.00  0.00    -0.206 F 
ATOM     83  C   UNL A   1      48.028  36.182  25.925  1.00  0.00     0.040 A 
ATOM     84  C   UNL A   1      48.686  36.700  28.182  1.00  0.00     0.040 A 
ATOM     85  F   UNL A   1      48.368  35.121  29.889  1.00  0.00    -0.206 F 
ATOM     86  C   UNL A   1      48.588  37.069  26.842  1.00  0.00     0.006 A 
ENDBRANCH  58  79
BRANCH  70  87
ATOM     87  C   UNL A   1      50.740  28.293  27.673  1.00  0.00     0.057 A 
ATOM     88  C   UNL A   1      50.992  28.005  26.326  1.00  0.00     0.134 A 
ATOM     89  C   UNL A   1      51.808  28.178  28.571  1.00  0.00     0.134 A 
ATOM     90  F   UNL A   1      50.008  28.085  25.417  1.00  0.00    -0.206 F 
ATOM     91  C   UNL A   1      52.255  27.598  25.892  1.00  0.00     0.040 A 
ATOM     92  C   UNL A   1      53.081  27.796  28.146  1.00  0.00     0.040 A 
ATOM     93  F   UNL A   1      51.635  28.450  29.874  1.00  0.00    -0.206 F 
ATOM     94  C   UNL A   1      53.305  27.500  26.803  1.00  0.00     0.006 A 
ENDBRANCH  70  87
ENDBRANCH  44  45
ENDBRANCH  37  39
ENDBRANCH  36  37
ENDBRANCH  35  36
ENDBRANCH  34  35
ENDBRANCH  33  34
ENDBRANCH  32  33
ENDBRANCH  31  32
ENDBRANCH   1  31
TORSDOF 24
ENDMDL
