MODEL 1
REMARK VINA RESULT:     -10.1      0.000      0.000
REMARK SMILES Cc1ccc([C@H](CC(=O)OCCOCCOCCOCCOC(=O)c2ccc(-c3c4nc(c(-c5c(F)cccc5F)c5ccc([nH]5)c(-c5c(F)cccc5F)c5nc(c(-c6c(F)cccc6F)c6ccc3[nH]6)C=C5)C=C4)cc2)NC(=O)C(F)(F)F)cc1
REMARK SMILES IDX 15 1 14 2 13 3 12 4 11 5 10 6 8 7 9 8 7 9 6 10 5 11 1 12
REMARK SMILES IDX 2 13 3 14 87 15 4 16 86 17 79 18 80 19 81 21 82 22 83 23
REMARK SMILES IDX 84 24 85 25 16 26 17 27 18 28 19 29 20 30 21 31 22 32 23 33
REMARK SMILES IDX 24 34 25 35 26 36 78 37 27 38 77 39 28 40 29 41 30 42 71 43
REMARK SMILES IDX 31 44 76 45 70 46 72 47 32 48 75 49 69 50 68 51 33 53 59 54
REMARK SMILES IDX 42 55 58 56 43 57 46 58 57 59 73 60 44 61 45 62 56 64 74 65
REMARK SMILES IDX 47 66 34 67 35 68 40 69 36 70 37 71 39 72 41 73 38 74 60 75
REMARK SMILES IDX 61 76 66 77 62 78 63 79 65 80 67 81 64 82 48 83 49 84 54 85
REMARK SMILES IDX 50 86 51 87 53 88 55 89 52 90
REMARK H PARENT 79 20 72 52 46 63
REMARK Flexibility Score: inf
ROOT
ATOM      1  C   UNL A   1      33.679  27.134  22.519  1.00  0.00     0.188 C 
ENDROOT
BRANCH   1   2
ATOM      2  C   UNL A   1      32.867  25.980  21.926  1.00  0.00     0.188 C 
BRANCH   2   3
ATOM      3  O   UNL A   1      32.418  25.029  22.889  1.00  0.00    -0.376 OA
BRANCH   3   4
ATOM      4  C   UNL A   1      31.016  25.034  23.104  1.00  0.00     0.202 C 
BRANCH   4   5
ATOM      5  C   UNL A   1      30.657  23.905  24.051  1.00  0.00     0.261 C 
BRANCH   5   6
ATOM      6  O   UNL A   1      30.860  24.250  25.431  1.00  0.00    -0.463 OA
BRANCH   6   7
ATOM      7  C   UNL A   1      31.514  23.334  26.173  1.00  0.00     0.308 C 
ATOM      8  O   UNL A   1      31.855  23.457  27.341  1.00  0.00    -0.252 OA
BRANCH   7   9
ATOM      9  C   UNL A   1      31.855  22.128  25.358  1.00  0.00     0.152 C 
BRANCH   9  10
ATOM     10  C   UNL A   1      33.350  21.845  25.113  1.00  0.00     0.123 C 
BRANCH  10  11
ATOM     11  C   UNL A   1      33.430  20.360  24.811  1.00  0.00    -0.025 A 
ATOM     12  C   UNL A   1      34.035  16.389  23.305  1.00  0.00     0.044 C 
ATOM     13  C   UNL A   1      33.800  17.741  23.902  1.00  0.00    -0.051 A 
ATOM     14  C   UNL A   1      32.542  18.354  23.805  1.00  0.00     0.004 A 
ATOM     15  C   UNL A   1      34.846  18.410  24.535  1.00  0.00     0.004 A 
ATOM     16  C   UNL A   1      32.358  19.664  24.245  1.00  0.00     0.006 A 
ATOM     17  C   UNL A   1      34.655  19.699  25.005  1.00  0.00     0.006 A 
ENDBRANCH  10  11
BRANCH  10  18
ATOM     18  N   UNL A   1      33.939  22.567  23.986  1.00  0.00    -0.341 N 
ATOM     19  C   UNL A   1      35.177  23.170  23.908  1.00  0.00     0.326 C 
ATOM     20  H   UNL A   1      33.380  22.634  23.180  1.00  0.00     0.164 HD
ATOM     21  O   UNL A   1      35.451  23.712  22.826  1.00  0.00    -0.265 OA
BRANCH  19  22
ATOM     22  C   UNL A   1      36.176  23.198  25.097  1.00  0.00     0.471 C 
ATOM     23  F   UNL A   1      37.236  24.022  24.875  1.00  0.00    -0.162 F 
ATOM     24  F   UNL A   1      36.687  21.987  25.447  1.00  0.00    -0.162 F 
ATOM     25  F   UNL A   1      35.582  23.670  26.235  1.00  0.00    -0.162 F 
ENDBRANCH  19  22
ENDBRANCH  10  18
ENDBRANCH   9  10
ENDBRANCH   7   9
ENDBRANCH   6   7
ENDBRANCH   5   6
ENDBRANCH   4   5
ENDBRANCH   3   4
ENDBRANCH   2   3
ENDBRANCH   1   2
BRANCH   1  26
ATOM     26  O   UNL A   1      33.542  27.200  23.932  1.00  0.00    -0.377 OA
BRANCH  26  27
ATOM     27  C   UNL A   1      33.507  28.524  24.458  1.00  0.00     0.188 C 
BRANCH  27  28
ATOM     28  C   UNL A   1      32.132  29.186  24.364  1.00  0.00     0.188 C 
BRANCH  28  29
ATOM     29  O   UNL A   1      31.442  29.017  25.596  1.00  0.00    -0.376 OA
BRANCH  29  30
ATOM     30  C   UNL A   1      32.149  29.415  26.756  1.00  0.00     0.202 C 
BRANCH  30  31
ATOM     31  C   UNL A   1      32.232  30.938  26.876  1.00  0.00     0.261 C 
BRANCH  31  32
ATOM     32  O   UNL A   1      33.545  31.294  27.358  1.00  0.00    -0.460 OA
BRANCH  32  33
ATOM     33  C   UNL A   1      33.623  32.498  27.993  1.00  0.00     0.338 C 
ATOM     34  O   UNL A   1      32.936  33.472  27.743  1.00  0.00    -0.246 OA
BRANCH  33  35
ATOM     35  C   UNL A   1      34.859  32.563  28.834  1.00  0.00     0.060 A 
ATOM     36  C   UNL A   1      36.083  32.946  28.250  1.00  0.00     0.016 A 
ATOM     37  C   UNL A   1      34.866  31.957  30.084  1.00  0.00     0.016 A 
ATOM     38  C   UNL A   1      37.311  32.590  28.845  1.00  0.00     0.010 A 
ATOM     39  C   UNL A   1      36.074  31.545  30.620  1.00  0.00     0.010 A 
ATOM     40  C   UNL A   1      37.312  31.815  30.004  1.00  0.00    -0.014 A 
BRANCH  40  41
ATOM     41  C   UNL A   1      38.467  31.079  30.583  1.00  0.00     0.031 A 
ATOM     42  C   UNL A   1      38.878  29.755  29.988  1.00  0.00     0.074 A 
ATOM     43  C   UNL A   1      39.401  31.777  31.278  1.00  0.00     0.049 A 
ATOM     44  N   UNL A   1      39.944  29.078  30.276  1.00  0.00    -0.248 NA
ATOM     45  C   UNL A   1      38.078  29.090  28.970  1.00  0.00     0.031 C 
ATOM     46  C   UNL A   1      40.838  31.528  31.234  1.00  0.00     0.029 A 
ATOM     47  N   UNL A   1      39.329  32.888  32.111  1.00  0.00    -0.354 N 
ATOM     48  C   UNL A   1      40.150  28.113  29.303  1.00  0.00     0.074 A 
ATOM     49  C   UNL A   1      38.912  28.133  28.556  1.00  0.00     0.031 C 
ATOM     50  C   UNL A   1      41.491  32.363  32.045  1.00  0.00     0.029 A 
ATOM     51  C   UNL A   1      40.493  32.939  32.896  1.00  0.00     0.049 A 
ATOM     52  H   UNL A   1      38.586  33.533  32.146  1.00  0.00     0.167 HD
ATOM     53  C   UNL A   1      41.382  27.510  29.173  1.00  0.00     0.037 A 
ATOM     54  C   UNL A   1      40.505  32.777  34.253  1.00  0.00     0.037 A 
ATOM     55  C   UNL A   1      42.328  27.904  30.268  1.00  0.00     0.049 A 
ATOM     56  C   UNL A   1      41.140  31.451  34.691  1.00  0.00     0.074 A 
ATOM     57  C   UNL A   1      43.645  28.352  30.355  1.00  0.00     0.029 A 
ATOM     58  N   UNL A   1      41.852  28.025  31.574  1.00  0.00    -0.354 N 
ATOM     59  N   UNL A   1      41.768  30.621  33.889  1.00  0.00    -0.248 NA
ATOM     60  C   UNL A   1      41.057  30.911  36.045  1.00  0.00     0.031 C 
ATOM     61  C   UNL A   1      43.942  28.705  31.706  1.00  0.00     0.029 A 
ATOM     62  C   UNL A   1      42.824  28.436  32.464  1.00  0.00     0.049 A 
ATOM     63  H   UNL A   1      40.919  27.838  31.833  1.00  0.00     0.167 HD
ATOM     64  C   UNL A   1      42.044  29.440  34.530  1.00  0.00     0.074 A 
ATOM     65  C   UNL A   1      41.599  29.687  35.891  1.00  0.00     0.031 C 
ATOM     66  C   UNL A   1      42.557  28.338  33.891  1.00  0.00     0.037 A 
BRANCH  53  67
ATOM     67  C   UNL A   1      41.839  26.709  27.918  1.00  0.00     0.057 A 
ATOM     68  C   UNL A   1      42.568  27.312  26.867  1.00  0.00     0.134 A 
ATOM     69  C   UNL A   1      41.558  25.354  27.641  1.00  0.00     0.134 A 
ATOM     70  F   UNL A   1      43.121  28.522  26.990  1.00  0.00    -0.206 F 
ATOM     71  C   UNL A   1      42.833  26.693  25.628  1.00  0.00     0.040 A 
ATOM     72  C   UNL A   1      41.800  24.721  26.406  1.00  0.00     0.040 A 
ATOM     73  F   UNL A   1      41.122  24.508  28.573  1.00  0.00    -0.206 F 
ATOM     74  C   UNL A   1      42.418  25.399  25.377  1.00  0.00     0.006 A 
ENDBRANCH  53  67
BRANCH  54  75
ATOM     75  C   UNL A   1      39.437  33.601  34.892  1.00  0.00     0.057 A 
ATOM     76  C   UNL A   1      38.355  32.839  35.386  1.00  0.00     0.134 A 
ATOM     77  C   UNL A   1      39.783  34.753  35.610  1.00  0.00     0.134 A 
ATOM     78  F   UNL A   1      37.933  31.759  34.710  1.00  0.00    -0.206 F 
ATOM     79  C   UNL A   1      37.860  33.033  36.678  1.00  0.00     0.040 A 
ATOM     80  C   UNL A   1      39.281  34.963  36.903  1.00  0.00     0.040 A 
ATOM     81  F   UNL A   1      40.788  35.534  35.189  1.00  0.00    -0.206 F 
ATOM     82  C   UNL A   1      38.373  34.061  37.463  1.00  0.00     0.006 A 
ENDBRANCH  54  75
BRANCH  66  83
ATOM     83  C   UNL A   1      42.803  26.982  34.526  1.00  0.00     0.057 A 
ATOM     84  C   UNL A   1      44.070  26.429  34.726  1.00  0.00     0.134 A 
ATOM     85  C   UNL A   1      41.726  26.134  34.896  1.00  0.00     0.134 A 
ATOM     86  F   UNL A   1      45.171  27.027  34.252  1.00  0.00    -0.206 F 
ATOM     87  C   UNL A   1      44.258  25.204  35.384  1.00  0.00     0.040 A 
ATOM     88  C   UNL A   1      41.899  24.891  35.507  1.00  0.00     0.040 A 
ATOM     89  F   UNL A   1      40.444  26.461  34.689  1.00  0.00    -0.206 F 
ATOM     90  C   UNL A   1      43.171  24.437  35.792  1.00  0.00     0.006 A 
ENDBRANCH  66  83
ENDBRANCH  40  41
ENDBRANCH  33  35
ENDBRANCH  32  33
ENDBRANCH  31  32
ENDBRANCH  30  31
ENDBRANCH  29  30
ENDBRANCH  28  29
ENDBRANCH  27  28
ENDBRANCH  26  27
ENDBRANCH   1  26
TORSDOF 24
ENDMDL
MODEL 2
REMARK VINA RESULT:     -10.0      2.524      3.661
REMARK SMILES Cc1ccc([C@H](CC(=O)OCCOCCOCCOCCOC(=O)c2ccc(-c3c4nc(c(-c5c(F)cccc5F)c5ccc([nH]5)c(-c5c(F)cccc5F)c5nc(c(-c6c(F)cccc6F)c6ccc3[nH]6)C=C5)C=C4)cc2)NC(=O)C(F)(F)F)cc1
REMARK SMILES IDX 15 1 14 2 13 3 12 4 11 5 10 6 8 7 9 8 7 9 6 10 5 11 1 12
REMARK SMILES IDX 2 13 3 14 87 15 4 16 86 17 79 18 80 19 81 21 82 22 83 23
REMARK SMILES IDX 84 24 85 25 16 26 17 27 18 28 19 29 20 30 21 31 22 32 23 33
REMARK SMILES IDX 24 34 25 35 26 36 78 37 27 38 77 39 28 40 29 41 30 42 71 43
REMARK SMILES IDX 31 44 76 45 70 46 72 47 32 48 75 49 69 50 68 51 33 53 59 54
REMARK SMILES IDX 42 55 58 56 43 57 46 58 57 59 73 60 44 61 45 62 56 64 74 65
REMARK SMILES IDX 47 66 34 67 35 68 40 69 36 70 37 71 39 72 41 73 38 74 60 75
REMARK SMILES IDX 61 76 66 77 62 78 63 79 65 80 67 81 64 82 48 83 49 84 54 85
REMARK SMILES IDX 50 86 51 87 53 88 55 89 52 90
REMARK H PARENT 79 20 72 52 46 63
REMARK Flexibility Score: inf
ROOT
ATOM      1  C   UNL A   1      30.701  27.253  23.314  1.00  0.00     0.188 C 
ENDROOT
BRANCH   1   2
ATOM      2  C   UNL A   1      29.339  26.790  23.837  1.00  0.00     0.188 C 
BRANCH   2   3
ATOM      3  O   UNL A   1      29.394  25.615  24.642  1.00  0.00    -0.376 OA
BRANCH   3   4
ATOM      4  C   UNL A   1      30.655  25.378  25.246  1.00  0.00     0.202 C 
BRANCH   4   5
ATOM      5  C   UNL A   1      30.567  24.132  26.105  1.00  0.00     0.261 C 
BRANCH   5   6
ATOM      6  O   UNL A   1      31.393  24.203  27.277  1.00  0.00    -0.463 OA
BRANCH   6   7
ATOM      7  C   UNL A   1      32.442  23.356  27.306  1.00  0.00     0.308 C 
ATOM      8  O   UNL A   1      32.538  22.343  27.986  1.00  0.00    -0.252 OA
BRANCH   7   9
ATOM      9  C   UNL A   1      33.551  23.847  26.432  1.00  0.00     0.152 C 
BRANCH   9  10
ATOM     10  C   UNL A   1      33.928  22.974  25.218  1.00  0.00     0.123 C 
BRANCH  10  11
ATOM     11  C   UNL A   1      35.436  22.818  25.293  1.00  0.00    -0.025 A 
ATOM     12  C   UNL A   1      39.557  22.074  26.221  1.00  0.00     0.044 C 
ATOM     13  C   UNL A   1      38.142  22.348  25.820  1.00  0.00    -0.051 A 
ATOM     14  C   UNL A   1      37.624  23.649  25.878  1.00  0.00     0.004 A 
ATOM     15  C   UNL A   1      37.322  21.297  25.411  1.00  0.00     0.004 A 
ATOM     16  C   UNL A   1      36.272  23.885  25.629  1.00  0.00     0.006 A 
ATOM     17  C   UNL A   1      35.987  21.535  25.128  1.00  0.00     0.006 A 
ENDBRANCH  10  11
BRANCH  10  18
ATOM     18  N   UNL A   1      33.334  21.638  25.210  1.00  0.00    -0.341 N 
ATOM     19  C   UNL A   1      32.568  21.047  24.227  1.00  0.00     0.326 C 
ATOM     20  H   UNL A   1      33.501  21.090  26.009  1.00  0.00     0.164 HD
ATOM     21  O   UNL A   1      32.191  19.888  24.455  1.00  0.00    -0.265 OA
BRANCH  19  22
ATOM     22  C   UNL A   1      32.172  21.778  22.915  1.00  0.00     0.471 C 
ATOM     23  F   UNL A   1      31.616  20.945  21.995  1.00  0.00    -0.162 F 
ATOM     24  F   UNL A   1      33.189  22.430  22.290  1.00  0.00    -0.162 F 
ATOM     25  F   UNL A   1      31.230  22.743  23.148  1.00  0.00    -0.162 F 
ENDBRANCH  19  22
ENDBRANCH  10  18
ENDBRANCH   9  10
ENDBRANCH   7   9
ENDBRANCH   6   7
ENDBRANCH   5   6
ENDBRANCH   4   5
ENDBRANCH   3   4
ENDBRANCH   2   3
ENDBRANCH   1   2
BRANCH   1  26
ATOM     26  O   UNL A   1      30.710  28.647  23.035  1.00  0.00    -0.377 OA
BRANCH  26  27
ATOM     27  C   UNL A   1      31.536  29.416  23.906  1.00  0.00     0.188 C 
BRANCH  27  28
ATOM     28  C   UNL A   1      32.307  28.574  24.922  1.00  0.00     0.188 C 
BRANCH  28  29
ATOM     29  O   UNL A   1      31.813  28.842  26.228  1.00  0.00    -0.376 OA
BRANCH  29  30
ATOM     30  C   UNL A   1      32.790  29.167  27.200  1.00  0.00     0.202 C 
BRANCH  30  31
ATOM     31  C   UNL A   1      33.488  30.491  26.884  1.00  0.00     0.261 C 
BRANCH  31  32
ATOM     32  O   UNL A   1      34.023  31.036  28.108  1.00  0.00    -0.460 OA
BRANCH  32  33
ATOM     33  C   UNL A   1      35.311  31.476  28.034  1.00  0.00     0.338 C 
ATOM     34  O   UNL A   1      35.664  32.546  27.573  1.00  0.00    -0.246 OA
BRANCH  33  35
ATOM     35  C   UNL A   1      36.260  30.355  28.321  1.00  0.00     0.060 A 
ATOM     36  C   UNL A   1      36.282  29.769  29.602  1.00  0.00     0.016 A 
ATOM     37  C   UNL A   1      37.310  30.109  27.445  1.00  0.00     0.016 A 
ATOM     38  C   UNL A   1      37.417  29.065  30.056  1.00  0.00     0.010 A 
ATOM     39  C   UNL A   1      38.449  29.485  27.926  1.00  0.00     0.010 A 
ATOM     40  C   UNL A   1      38.545  28.985  29.240  1.00  0.00    -0.014 A 
BRANCH  40  41
ATOM     41  C   UNL A   1      39.917  28.586  29.652  1.00  0.00     0.031 A 
ATOM     42  C   UNL A   1      40.461  27.246  29.225  1.00  0.00     0.074 A 
ATOM     43  C   UNL A   1      40.809  29.559  29.968  1.00  0.00     0.049 A 
ATOM     44  N   UNL A   1      41.677  26.825  29.369  1.00  0.00    -0.248 NA
ATOM     45  C   UNL A   1      39.626  26.254  28.562  1.00  0.00     0.031 C 
ATOM     46  C   UNL A   1      42.229  29.535  29.631  1.00  0.00     0.029 A 
ATOM     47  N   UNL A   1      40.682  30.801  30.581  1.00  0.00    -0.354 N 
ATOM     48  C   UNL A   1      41.876  25.714  28.565  1.00  0.00     0.074 A 
ATOM     49  C   UNL A   1      40.536  25.373  28.142  1.00  0.00     0.031 C 
ATOM     50  C   UNL A   1      42.848  30.621  30.100  1.00  0.00     0.029 A 
ATOM     51  C   UNL A   1      41.944  31.206  31.046  1.00  0.00     0.049 A 
ATOM     52  H   UNL A   1      39.845  31.311  30.675  1.00  0.00     0.167 HD
ATOM     53  C   UNL A   1      43.154  25.300  28.258  1.00  0.00     0.037 A 
ATOM     54  C   UNL A   1      42.259  31.351  32.368  1.00  0.00     0.037 A 
ATOM     55  C   UNL A   1      44.200  26.069  29.009  1.00  0.00     0.049 A 
ATOM     56  C   UNL A   1      43.224  30.271  32.874  1.00  0.00     0.074 A 
ATOM     57  C   UNL A   1      45.388  26.727  28.700  1.00  0.00     0.029 A 
ATOM     58  N   UNL A   1      43.979  26.399  30.347  1.00  0.00    -0.354 N 
ATOM     59  N   UNL A   1      43.834  29.395  32.109  1.00  0.00    -0.248 NA
ATOM     60  C   UNL A   1      43.524  30.037  34.284  1.00  0.00     0.031 C 
ATOM     61  C   UNL A   1      45.871  27.412  29.855  1.00  0.00     0.029 A 
ATOM     62  C   UNL A   1      45.005  27.144  30.892  1.00  0.00     0.049 A 
ATOM     63  H   UNL A   1      43.175  26.129  30.848  1.00  0.00     0.167 HD
ATOM     64  C   UNL A   1      44.466  28.443  32.868  1.00  0.00     0.074 A 
ATOM     65  C   UNL A   1      44.261  28.911  34.229  1.00  0.00     0.031 C 
ATOM     66  C   UNL A   1      45.054  27.322  32.336  1.00  0.00     0.037 A 
BRANCH  53  67
ATOM     67  C   UNL A   1      43.504  24.323  27.096  1.00  0.00     0.057 A 
ATOM     68  C   UNL A   1      42.937  24.457  25.807  1.00  0.00     0.134 A 
ATOM     69  C   UNL A   1      44.349  23.196  27.175  1.00  0.00     0.134 A 
ATOM     70  F   UNL A   1      42.269  25.553  25.435  1.00  0.00    -0.206 F 
ATOM     71  C   UNL A   1      43.060  23.496  24.782  1.00  0.00     0.040 A 
ATOM     72  C   UNL A   1      44.475  22.217  26.169  1.00  0.00     0.040 A 
ATOM     73  F   UNL A   1      45.197  23.005  28.184  1.00  0.00    -0.206 F 
ATOM     74  C   UNL A   1      43.806  22.348  24.971  1.00  0.00     0.006 A 
ENDBRANCH  53  67
BRANCH  54  75
ATOM     75  C   UNL A   1      41.195  32.116  33.082  1.00  0.00     0.057 A 
ATOM     76  C   UNL A   1      41.083  33.459  32.658  1.00  0.00     0.134 A 
ATOM     77  C   UNL A   1      40.013  31.470  33.466  1.00  0.00     0.134 A 
ATOM     78  F   UNL A   1      42.185  34.154  32.336  1.00  0.00    -0.206 F 
ATOM     79  C   UNL A   1      39.844  34.017  32.334  1.00  0.00     0.040 A 
ATOM     80  C   UNL A   1      38.764  32.030  33.156  1.00  0.00     0.040 A 
ATOM     81  F   UNL A   1      40.046  30.201  33.897  1.00  0.00    -0.206 F 
ATOM     82  C   UNL A   1      38.684  33.272  32.523  1.00  0.00     0.006 A 
ENDBRANCH  54  75
BRANCH  66  83
ATOM     83  C   UNL A   1      45.691  26.195  33.128  1.00  0.00     0.057 A 
ATOM     84  C   UNL A   1      47.064  25.933  33.151  1.00  0.00     0.134 A 
ATOM     85  C   UNL A   1      44.901  25.264  33.852  1.00  0.00     0.134 A 
ATOM     86  F   UNL A   1      47.912  26.607  32.364  1.00  0.00    -0.206 F 
ATOM     87  C   UNL A   1      47.620  24.927  33.955  1.00  0.00     0.040 A 
ATOM     88  C   UNL A   1      45.440  24.228  34.617  1.00  0.00     0.040 A 
ATOM     89  F   UNL A   1      43.564  25.305  33.863  1.00  0.00    -0.206 F 
ATOM     90  C   UNL A   1      46.810  24.081  34.705  1.00  0.00     0.006 A 
ENDBRANCH  66  83
ENDBRANCH  40  41
ENDBRANCH  33  35
ENDBRANCH  32  33
ENDBRANCH  31  32
ENDBRANCH  30  31
ENDBRANCH  29  30
ENDBRANCH  28  29
ENDBRANCH  27  28
ENDBRANCH  26  27
ENDBRANCH   1  26
TORSDOF 24
ENDMDL
MODEL 3
REMARK VINA RESULT:     -10.0      1.882      2.915
REMARK SMILES Cc1ccc([C@H](CC(=O)OCCOCCOCCOCCOC(=O)c2ccc(-c3c4nc(c(-c5c(F)cccc5F)c5ccc([nH]5)c(-c5c(F)cccc5F)c5nc(c(-c6c(F)cccc6F)c6ccc3[nH]6)C=C5)C=C4)cc2)NC(=O)C(F)(F)F)cc1
REMARK SMILES IDX 15 1 14 2 13 3 12 4 11 5 10 6 8 7 9 8 7 9 6 10 5 11 1 12
REMARK SMILES IDX 2 13 3 14 87 15 4 16 86 17 79 18 80 19 81 21 82 22 83 23
REMARK SMILES IDX 84 24 85 25 16 26 17 27 18 28 19 29 20 30 21 31 22 32 23 33
REMARK SMILES IDX 24 34 25 35 26 36 78 37 27 38 77 39 28 40 29 41 30 42 71 43
REMARK SMILES IDX 31 44 76 45 70 46 72 47 32 48 75 49 69 50 68 51 33 53 59 54
REMARK SMILES IDX 42 55 58 56 43 57 46 58 57 59 73 60 44 61 45 62 56 64 74 65
REMARK SMILES IDX 47 66 34 67 35 68 40 69 36 70 37 71 39 72 41 73 38 74 60 75
REMARK SMILES IDX 61 76 66 77 62 78 63 79 65 80 67 81 64 82 48 83 49 84 54 85
REMARK SMILES IDX 50 86 51 87 53 88 55 89 52 90
REMARK H PARENT 79 20 72 52 46 63
REMARK Flexibility Score: inf
ROOT
ATOM      1  C   UNL A   1      31.372  27.774  25.684  1.00  0.00     0.188 C 
ENDROOT
BRANCH   1   2
ATOM      2  C   UNL A   1      30.645  26.616  24.998  1.00  0.00     0.188 C 
BRANCH   2   3
ATOM      3  O   UNL A   1      31.099  25.325  25.399  1.00  0.00    -0.376 OA
BRANCH   3   4
ATOM      4  C   UNL A   1      30.136  24.559  26.104  1.00  0.00     0.202 C 
BRANCH   4   5
ATOM      5  C   UNL A   1      30.791  23.293  26.620  1.00  0.00     0.261 C 
BRANCH   5   6
ATOM      6  O   UNL A   1      31.824  23.552  27.583  1.00  0.00    -0.463 OA
BRANCH   6   7
ATOM      7  C   UNL A   1      32.986  22.897  27.387  1.00  0.00     0.308 C 
ATOM      8  O   UNL A   1      33.364  21.896  27.980  1.00  0.00    -0.252 OA
BRANCH   7   9
ATOM      9  C   UNL A   1      33.830  23.597  26.370  1.00  0.00     0.152 C 
BRANCH   9  10
ATOM     10  C   UNL A   1      34.239  22.790  25.121  1.00  0.00     0.123 C 
BRANCH  10  11
ATOM     11  C   UNL A   1      35.744  22.629  25.227  1.00  0.00    -0.025 A 
ATOM     12  C   UNL A   1      39.832  21.708  26.142  1.00  0.00     0.044 C 
ATOM     13  C   UNL A   1      38.431  22.062  25.751  1.00  0.00    -0.051 A 
ATOM     14  C   UNL A   1      37.890  23.309  26.094  1.00  0.00     0.004 A 
ATOM     15  C   UNL A   1      37.648  21.135  25.066  1.00  0.00     0.004 A 
ATOM     16  C   UNL A   1      36.547  23.589  25.846  1.00  0.00     0.006 A 
ATOM     17  C   UNL A   1      36.323  21.425  24.787  1.00  0.00     0.006 A 
ENDBRANCH  10  11
BRANCH  10  18
ATOM     18  N   UNL A   1      33.646  21.457  25.026  1.00  0.00    -0.341 N 
ATOM     19  C   UNL A   1      32.787  20.968  24.064  1.00  0.00     0.326 C 
ATOM     20  H   UNL A   1      33.890  20.827  25.741  1.00  0.00     0.164 HD
ATOM     21  O   UNL A   1      32.433  19.787  24.200  1.00  0.00    -0.265 OA
BRANCH  19  22
ATOM     22  C   UNL A   1      32.264  21.833  22.884  1.00  0.00     0.471 C 
ATOM     23  F   UNL A   1      31.614  21.099  21.941  1.00  0.00    -0.162 F 
ATOM     24  F   UNL A   1      33.217  22.552  22.233  1.00  0.00    -0.162 F 
ATOM     25  F   UNL A   1      31.356  22.762  23.312  1.00  0.00    -0.162 F 
ENDBRANCH  19  22
ENDBRANCH  10  18
ENDBRANCH   9  10
ENDBRANCH   7   9
ENDBRANCH   6   7
ENDBRANCH   5   6
ENDBRANCH   4   5
ENDBRANCH   3   4
ENDBRANCH   2   3
ENDBRANCH   1   2
BRANCH   1  26
ATOM     26  O   UNL A   1      31.383  28.942  24.872  1.00  0.00    -0.377 OA
BRANCH  26  27
ATOM     27  C   UNL A   1      32.021  30.068  25.469  1.00  0.00     0.188 C 
BRANCH  27  28
ATOM     28  C   UNL A   1      32.618  29.775  26.846  1.00  0.00     0.188 C 
BRANCH  28  29
ATOM     29  O   UNL A   1      34.022  29.994  26.807  1.00  0.00    -0.376 OA
BRANCH  29  30
ATOM     30  C   UNL A   1      34.544  30.818  27.833  1.00  0.00     0.202 C 
BRANCH  30  31
ATOM     31  C   UNL A   1      33.957  32.230  27.782  1.00  0.00     0.261 C 
BRANCH  31  32
ATOM     32  O   UNL A   1      33.652  32.654  29.128  1.00  0.00    -0.460 OA
BRANCH  32  33
ATOM     33  C   UNL A   1      34.192  33.850  29.496  1.00  0.00     0.338 C 
ATOM     34  O   UNL A   1      33.806  34.942  29.121  1.00  0.00    -0.246 OA
BRANCH  33  35
ATOM     35  C   UNL A   1      35.502  33.637  30.188  1.00  0.00     0.060 A 
ATOM     36  C   UNL A   1      36.705  33.907  29.505  1.00  0.00     0.016 A 
ATOM     37  C   UNL A   1      35.542  32.893  31.360  1.00  0.00     0.016 A 
ATOM     38  C   UNL A   1      37.917  33.312  29.912  1.00  0.00     0.010 A 
ATOM     39  C   UNL A   1      36.719  32.252  31.706  1.00  0.00     0.010 A 
ATOM     40  C   UNL A   1      37.915  32.413  30.978  1.00  0.00    -0.014 A 
BRANCH  40  41
ATOM     41  C   UNL A   1      38.994  31.456  31.339  1.00  0.00     0.031 A 
ATOM     42  C   UNL A   1      39.138  30.171  30.563  1.00  0.00     0.074 A 
ATOM     43  C   UNL A   1      40.087  31.926  31.993  1.00  0.00     0.049 A 
ATOM     44  N   UNL A   1      40.111  29.321  30.653  1.00  0.00    -0.248 NA
ATOM     45  C   UNL A   1      38.151  29.755  29.578  1.00  0.00     0.031 C 
ATOM     46  C   UNL A   1      41.458  31.484  31.758  1.00  0.00     0.029 A 
ATOM     47  N   UNL A   1      40.269  32.925  32.943  1.00  0.00    -0.354 N 
ATOM     48  C   UNL A   1      40.071  28.463  29.564  1.00  0.00     0.074 A 
ATOM     49  C   UNL A   1      38.783  28.749  28.971  1.00  0.00     0.031 C 
ATOM     50  C   UNL A   1      42.308  32.113  32.574  1.00  0.00     0.029 A 
ATOM     51  C   UNL A   1      41.497  32.714  33.591  1.00  0.00     0.049 A 
ATOM     52  H   UNL A   1      39.640  33.658  33.132  1.00  0.00     0.167 HD
ATOM     53  C   UNL A   1      41.178  27.713  29.230  1.00  0.00     0.037 A 
ATOM     54  C   UNL A   1      41.617  32.387  34.912  1.00  0.00     0.037 A 
ATOM     55  C   UNL A   1      42.275  27.832  30.246  1.00  0.00     0.049 A 
ATOM     56  C   UNL A   1      42.081  30.941  35.129  1.00  0.00     0.074 A 
ATOM     57  C   UNL A   1      43.647  28.077  30.229  1.00  0.00     0.029 A 
ATOM     58  N   UNL A   1      41.953  27.858  31.603  1.00  0.00    -0.354 N 
ATOM     59  N   UNL A   1      42.493  30.136  34.176  1.00  0.00    -0.248 NA
ATOM     60  C   UNL A   1      42.049  30.256  36.419  1.00  0.00     0.031 C 
ATOM     61  C   UNL A   1      44.125  28.216  31.567  1.00  0.00     0.029 A 
ATOM     62  C   UNL A   1      43.058  28.016  32.415  1.00  0.00     0.049 A 
ATOM     63  H   UNL A   1      41.032  27.774  31.946  1.00  0.00     0.167 HD
ATOM     64  C   UNL A   1      42.647  28.858  34.652  1.00  0.00     0.074 A 
ATOM     65  C   UNL A   1      42.379  28.997  36.074  1.00  0.00     0.031 C 
ATOM     66  C   UNL A   1      42.919  27.782  33.844  1.00  0.00     0.037 A 
BRANCH  53  67
ATOM     67  C   UNL A   1      41.382  27.016  27.853  1.00  0.00     0.057 A 
ATOM     68  C   UNL A   1      41.109  25.642  27.660  1.00  0.00     0.134 A 
ATOM     69  C   UNL A   1      41.893  27.612  26.680  1.00  0.00     0.134 A 
ATOM     70  F   UNL A   1      40.434  24.919  28.558  1.00  0.00    -0.206 F 
ATOM     71  C   UNL A   1      41.460  24.919  26.501  1.00  0.00     0.040 A 
ATOM     72  C   UNL A   1      42.264  26.905  25.519  1.00  0.00     0.040 A 
ATOM     73  F   UNL A   1      41.977  28.932  26.525  1.00  0.00    -0.206 F 
ATOM     74  C   UNL A   1      42.074  25.543  25.432  1.00  0.00     0.006 A 
ENDBRANCH  53  67
BRANCH  54  75
ATOM     75  C   UNL A   1      40.754  33.268  35.753  1.00  0.00     0.057 A 
ATOM     76  C   UNL A   1      39.597  32.625  36.244  1.00  0.00     0.134 A 
ATOM     77  C   UNL A   1      41.344  34.233  36.580  1.00  0.00     0.134 A 
ATOM     78  F   UNL A   1      38.948  31.736  35.476  1.00  0.00    -0.206 F 
ATOM     79  C   UNL A   1      39.238  32.704  37.592  1.00  0.00     0.040 A 
ATOM     80  C   UNL A   1      40.981  34.329  37.932  1.00  0.00     0.040 A 
ATOM     81  F   UNL A   1      42.435  34.897  36.172  1.00  0.00    -0.206 F 
ATOM     82  C   UNL A   1      39.975  33.511  38.453  1.00  0.00     0.006 A 
ENDBRANCH  54  75
BRANCH  66  83
ATOM     83  C   UNL A   1      43.016  26.337  34.298  1.00  0.00     0.057 A 
ATOM     84  C   UNL A   1      41.951  25.615  34.846  1.00  0.00     0.134 A 
ATOM     85  C   UNL A   1      44.249  25.634  34.267  1.00  0.00     0.134 A 
ATOM     86  F   UNL A   1      40.780  26.206  35.117  1.00  0.00    -0.206 F 
ATOM     87  C   UNL A   1      42.062  24.258  35.185  1.00  0.00     0.040 A 
ATOM     88  C   UNL A   1      44.383  24.297  34.647  1.00  0.00     0.040 A 
ATOM     89  F   UNL A   1      45.392  26.199  33.862  1.00  0.00    -0.206 F 
ATOM     90  C   UNL A   1      43.277  23.590  35.070  1.00  0.00     0.006 A 
ENDBRANCH  66  83
ENDBRANCH  40  41
ENDBRANCH  33  35
ENDBRANCH  32  33
ENDBRANCH  31  32
ENDBRANCH  30  31
ENDBRANCH  29  30
ENDBRANCH  28  29
ENDBRANCH  27  28
ENDBRANCH  26  27
ENDBRANCH   1  26
TORSDOF 24
ENDMDL
