MODEL 1
REMARK VINA RESULT:     -11.1      0.000      0.000
REMARK SMILES O=C(OCCOCCOCCOCCOC(=O)c1ccc(-c2c3nc(c(-c4c(F)cccc4F)c4ccc([nH]4)c(-c4c(F)cccc4F)c4nc(c(-c5c(F)cccc5F)c5ccc2[nH]5)C=C4)C=C3)cc1)C1=N[C@@H]2NC=NN2[C@@H]([C@H]2C=NN=C2c2ccc(F)cc2)C1
REMARK SMILES IDX 9 1 8 2 7 3 6 4 5 5 4 6 3 7 2 8 1 9 72 10 73 11 92 12 74 13
REMARK SMILES IDX 79 14 75 15 78 16 76 17 77 19 80 20 81 21 84 22 82 23 83 24
REMARK SMILES IDX 85 25 86 26 91 27 87 28 90 29 88 30 89 31 10 32 11 33 12 34
REMARK SMILES IDX 13 35 14 36 15 37 16 38 17 39 18 40 19 41 71 42 20 43 70 44
REMARK SMILES IDX 21 45 22 46 23 47 64 48 24 49 69 50 63 51 65 52 25 53 68 54
REMARK SMILES IDX 62 55 61 56 26 58 52 59 35 60 51 61 36 62 39 63 50 64 66 65
REMARK SMILES IDX 37 66 38 67 49 69 67 70 40 71 27 72 28 73 33 74 29 75 30 76
REMARK SMILES IDX 32 77 34 78 31 79 53 80 54 81 59 82 55 83 56 84 58 85 60 86
REMARK SMILES IDX 57 87 41 88 42 89 47 90 43 91 44 92 46 93 48 94 45 95
REMARK H PARENT 75 18 65 57 39 68
REMARK Flexibility Score: inf
ROOT
ATOM      1  O   UNL A   1      34.039  28.454  25.140  1.00  0.00    -0.377 OA
ENDROOT
BRANCH   1   2
ATOM      2  C   UNL A   1      34.038  28.146  23.764  1.00  0.00     0.188 C 
BRANCH   2   3
ATOM      3  C   UNL A   1      33.096  27.049  23.244  1.00  0.00     0.188 C 
BRANCH   3   4
ATOM      4  O   UNL A   1      31.819  27.364  22.710  1.00  0.00    -0.376 OA
BRANCH   4   5
ATOM      5  C   UNL A   1      30.742  26.447  22.733  1.00  0.00     0.202 C 
BRANCH   5   6
ATOM      6  C   UNL A   1      29.649  26.592  23.778  1.00  0.00     0.261 C 
BRANCH   6   7
ATOM      7  O   UNL A   1      29.970  26.416  25.162  1.00  0.00    -0.459 OA
BRANCH   7   8
ATOM      8  C   UNL A   1      29.982  25.358  25.960  1.00  0.00     0.352 C 
ATOM      9  O   UNL A   1      29.057  25.188  26.750  1.00  0.00    -0.245 OA
BRANCH   8  10
ATOM     10  C   UNL A   1      31.103  24.309  25.988  1.00  0.00     0.126 C 
ATOM     11  N   UNL A   1      31.521  23.951  27.160  1.00  0.00    -0.236 NA
ATOM     12  C   UNL A   1      31.486  23.601  24.723  1.00  0.00     0.092 C 
ATOM     13  C   UNL A   1      32.113  22.632  27.269  1.00  0.00     0.319 C 
ATOM     14  C   UNL A   1      32.831  22.909  24.988  1.00  0.00     0.127 C 
ATOM     15  N   UNL A   1      33.226  22.513  28.163  1.00  0.00    -0.335 N 
ATOM     16  N   UNL A   1      32.550  21.910  26.041  1.00  0.00    -0.249 NA
ATOM     17  C   UNL A   1      34.005  21.553  27.600  1.00  0.00     0.217 C 
ATOM     18  H   UNL A   1      33.389  23.013  28.995  1.00  0.00     0.165 HD
ATOM     19  N   UNL A   1      33.668  21.141  26.406  1.00  0.00    -0.164 NA
BRANCH  14  20
ATOM     20  C   UNL A   1      33.518  22.260  23.767  1.00  0.00     0.109 C 
ATOM     21  C   UNL A   1      32.852  22.610  22.485  1.00  0.00     0.120 C 
ATOM     22  C   UNL A   1      34.838  22.931  23.478  1.00  0.00     0.081 C 
ATOM     23  N   UNL A   1      33.531  23.437  21.760  1.00  0.00    -0.162 NA
ATOM     24  N   UNL A   1      34.793  23.649  22.393  1.00  0.00    -0.155 NA
BRANCH  22  25
ATOM     25  C   UNL A   1      36.043  22.792  24.333  1.00  0.00    -0.001 A 
ATOM     26  C   UNL A   1      36.519  23.854  25.115  1.00  0.00     0.013 A 
ATOM     27  C   UNL A   1      36.698  21.553  24.383  1.00  0.00     0.013 A 
ATOM     28  C   UNL A   1      37.650  23.679  25.920  1.00  0.00     0.040 A 
ATOM     29  C   UNL A   1      37.832  21.385  25.186  1.00  0.00     0.040 A 
ATOM     30  C   UNL A   1      38.299  22.451  25.943  1.00  0.00     0.123 A 
ATOM     31  F   UNL A   1      39.385  22.293  26.712  1.00  0.00    -0.207 F 
ENDBRANCH  22  25
ENDBRANCH  14  20
ENDBRANCH   8  10
ENDBRANCH   7   8
ENDBRANCH   6   7
ENDBRANCH   5   6
ENDBRANCH   4   5
ENDBRANCH   3   4
ENDBRANCH   2   3
ENDBRANCH   1   2
BRANCH   1  32
ATOM     32  C   UNL A   1      32.859  28.105  25.831  1.00  0.00     0.188 C 
BRANCH  32  33
ATOM     33  C   UNL A   1      31.798  29.224  25.855  1.00  0.00     0.188 C 
BRANCH  33  34
ATOM     34  O   UNL A   1      32.142  30.558  26.200  1.00  0.00    -0.376 OA
BRANCH  34  35
ATOM     35  C   UNL A   1      32.741  30.847  27.454  1.00  0.00     0.202 C 
BRANCH  35  36
ATOM     36  C   UNL A   1      33.910  31.845  27.547  1.00  0.00     0.261 C 
BRANCH  36  37
ATOM     37  O   UNL A   1      33.584  33.214  27.269  1.00  0.00    -0.460 OA
BRANCH  37  38
ATOM     38  C   UNL A   1      33.494  34.037  28.342  1.00  0.00     0.338 C 
ATOM     39  O   UNL A   1      32.549  34.737  28.665  1.00  0.00    -0.246 OA
BRANCH  38  40
ATOM     40  C   UNL A   1      34.648  33.770  29.230  1.00  0.00     0.060 A 
ATOM     41  C   UNL A   1      35.922  34.178  28.801  1.00  0.00     0.016 A 
ATOM     42  C   UNL A   1      34.476  33.208  30.497  1.00  0.00     0.016 A 
ATOM     43  C   UNL A   1      37.031  34.016  29.630  1.00  0.00     0.010 A 
ATOM     44  C   UNL A   1      35.591  33.007  31.311  1.00  0.00     0.010 A 
ATOM     45  C   UNL A   1      36.874  33.382  30.866  1.00  0.00    -0.014 A 
BRANCH  45  46
ATOM     46  C   UNL A   1      38.054  32.829  31.566  1.00  0.00     0.031 A 
ATOM     47  C   UNL A   1      38.692  31.613  30.961  1.00  0.00     0.074 A 
ATOM     48  C   UNL A   1      38.511  33.343  32.718  1.00  0.00     0.049 A 
ATOM     49  N   UNL A   1      39.611  30.823  31.447  1.00  0.00    -0.248 NA
ATOM     50  C   UNL A   1      38.204  31.226  29.626  1.00  0.00     0.031 C 
ATOM     51  C   UNL A   1      38.005  34.546  33.373  1.00  0.00     0.029 A 
ATOM     52  N   UNL A   1      39.493  32.885  33.559  1.00  0.00    -0.354 N 
ATOM     53  C   UNL A   1      39.790  29.832  30.491  1.00  0.00     0.074 A 
ATOM     54  C   UNL A   1      38.876  30.110  29.407  1.00  0.00     0.031 C 
ATOM     55  C   UNL A   1      38.653  34.708  34.539  1.00  0.00     0.029 A 
ATOM     56  C   UNL A   1      39.587  33.598  34.728  1.00  0.00     0.049 A 
ATOM     57  H   UNL A   1      40.074  32.118  33.346  1.00  0.00     0.167 HD
ATOM     58  C   UNL A   1      40.637  28.778  30.518  1.00  0.00     0.037 A 
ATOM     59  C   UNL A   1      40.313  33.351  35.837  1.00  0.00     0.037 A 
ATOM     60  C   UNL A   1      41.528  28.499  31.610  1.00  0.00     0.049 A 
ATOM     61  C   UNL A   1      41.203  32.135  35.883  1.00  0.00     0.074 A 
ATOM     62  C   UNL A   1      42.442  27.470  31.737  1.00  0.00     0.029 A 
ATOM     63  N   UNL A   1      41.599  29.251  32.774  1.00  0.00    -0.354 N 
ATOM     64  N   UNL A   1      41.387  31.211  34.969  1.00  0.00    -0.248 NA
ATOM     65  C   UNL A   1      41.985  31.928  37.110  1.00  0.00     0.031 C 
ATOM     66  C   UNL A   1      43.025  27.566  33.004  1.00  0.00     0.029 A 
ATOM     67  C   UNL A   1      42.522  28.692  33.639  1.00  0.00     0.049 A 
ATOM     68  H   UNL A   1      41.071  30.061  32.958  1.00  0.00     0.167 HD
ATOM     69  C   UNL A   1      42.326  30.330  35.496  1.00  0.00     0.074 A 
ATOM     70  C   UNL A   1      42.673  30.832  36.811  1.00  0.00     0.031 C 
ATOM     71  C   UNL A   1      42.860  29.215  34.941  1.00  0.00     0.037 A 
BRANCH  58  72
ATOM     72  C   UNL A   1      40.577  27.830  29.357  1.00  0.00     0.057 A 
ATOM     73  C   UNL A   1      41.422  27.955  28.245  1.00  0.00     0.134 A 
ATOM     74  C   UNL A   1      39.631  26.798  29.335  1.00  0.00     0.134 A 
ATOM     75  F   UNL A   1      42.334  28.939  28.191  1.00  0.00    -0.206 F 
ATOM     76  C   UNL A   1      41.299  27.117  27.136  1.00  0.00     0.040 A 
ATOM     77  C   UNL A   1      39.520  25.932  28.246  1.00  0.00     0.040 A 
ATOM     78  F   UNL A   1      38.789  26.622  30.364  1.00  0.00    -0.206 F 
ATOM     79  C   UNL A   1      40.348  26.098  27.137  1.00  0.00     0.006 A 
ENDBRANCH  58  72
BRANCH  59  80
ATOM     80  C   UNL A   1      40.199  34.260  37.005  1.00  0.00     0.057 A 
ATOM     81  C   UNL A   1      41.035  35.373  37.144  1.00  0.00     0.134 A 
ATOM     82  C   UNL A   1      39.236  34.050  38.000  1.00  0.00     0.134 A 
ATOM     83  F   UNL A   1      41.992  35.615  36.235  1.00  0.00    -0.206 F 
ATOM     84  C   UNL A   1      40.921  36.243  38.230  1.00  0.00     0.040 A 
ATOM     85  C   UNL A   1      39.095  34.923  39.080  1.00  0.00     0.040 A 
ATOM     86  F   UNL A   1      38.403  33.001  37.926  1.00  0.00    -0.206 F 
ATOM     87  C   UNL A   1      39.943  36.024  39.198  1.00  0.00     0.006 A 
ENDBRANCH  59  80
BRANCH  71  88
ATOM     88  C   UNL A   1      43.912  28.480  35.720  1.00  0.00     0.057 A 
ATOM     89  C   UNL A   1      43.593  27.473  36.638  1.00  0.00     0.134 A 
ATOM     90  C   UNL A   1      45.270  28.729  35.479  1.00  0.00     0.134 A 
ATOM     91  F   UNL A   1      42.311  27.191  36.920  1.00  0.00    -0.206 F 
ATOM     92  C   UNL A   1      44.587  26.747  37.296  1.00  0.00     0.040 A 
ATOM     93  C   UNL A   1      46.272  27.992  36.110  1.00  0.00     0.040 A 
ATOM     94  F   UNL A   1      45.644  29.673  34.601  1.00  0.00    -0.206 F 
ATOM     95  C   UNL A   1      45.931  26.998  37.024  1.00  0.00     0.006 A 
ENDBRANCH  71  88
ENDBRANCH  45  46
ENDBRANCH  38  40
ENDBRANCH  37  38
ENDBRANCH  36  37
ENDBRANCH  35  36
ENDBRANCH  34  35
ENDBRANCH  33  34
ENDBRANCH  32  33
ENDBRANCH   1  32
TORSDOF 22
ENDMDL
MODEL 2
REMARK VINA RESULT:      -9.9      1.526      2.509
REMARK SMILES O=C(OCCOCCOCCOCCOC(=O)c1ccc(-c2c3nc(c(-c4c(F)cccc4F)c4ccc([nH]4)c(-c4c(F)cccc4F)c4nc(c(-c5c(F)cccc5F)c5ccc2[nH]5)C=C4)C=C3)cc1)C1=N[C@@H]2NC=NN2[C@@H]([C@H]2C=NN=C2c2ccc(F)cc2)C1
REMARK SMILES IDX 9 1 8 2 7 3 6 4 5 5 4 6 3 7 2 8 1 9 72 10 73 11 92 12 74 13
REMARK SMILES IDX 79 14 75 15 78 16 76 17 77 19 80 20 81 21 84 22 82 23 83 24
REMARK SMILES IDX 85 25 86 26 91 27 87 28 90 29 88 30 89 31 10 32 11 33 12 34
REMARK SMILES IDX 13 35 14 36 15 37 16 38 17 39 18 40 19 41 71 42 20 43 70 44
REMARK SMILES IDX 21 45 22 46 23 47 64 48 24 49 69 50 63 51 65 52 25 53 68 54
REMARK SMILES IDX 62 55 61 56 26 58 52 59 35 60 51 61 36 62 39 63 50 64 66 65
REMARK SMILES IDX 37 66 38 67 49 69 67 70 40 71 27 72 28 73 33 74 29 75 30 76
REMARK SMILES IDX 32 77 34 78 31 79 53 80 54 81 59 82 55 83 56 84 58 85 60 86
REMARK SMILES IDX 57 87 41 88 42 89 47 90 43 91 44 92 46 93 48 94 45 95
REMARK H PARENT 75 18 65 57 39 68
REMARK Flexibility Score: inf
ROOT
ATOM      1  O   UNL A   1      33.905  28.910  25.047  1.00  0.00    -0.377 OA
ENDROOT
BRANCH   1   2
ATOM      2  C   UNL A   1      34.006  28.536  23.690  1.00  0.00     0.188 C 
BRANCH   2   3
ATOM      3  C   UNL A   1      32.984  27.546  23.110  1.00  0.00     0.188 C 
BRANCH   3   4
ATOM      4  O   UNL A   1      31.782  27.996  22.503  1.00  0.00    -0.376 OA
BRANCH   4   5
ATOM      5  C   UNL A   1      30.631  27.180  22.409  1.00  0.00     0.202 C 
BRANCH   5   6
ATOM      6  C   UNL A   1      29.556  27.264  23.478  1.00  0.00     0.261 C 
BRANCH   6   7
ATOM      7  O   UNL A   1      29.882  26.934  24.832  1.00  0.00    -0.459 OA
BRANCH   7   8
ATOM      8  C   UNL A   1      30.102  25.785  25.456  1.00  0.00     0.352 C 
ATOM      9  O   UNL A   1      29.574  25.580  26.546  1.00  0.00    -0.245 OA
BRANCH   8  10
ATOM     10  C   UNL A   1      31.007  24.668  24.916  1.00  0.00     0.126 C 
ATOM     11  N   UNL A   1      30.587  24.056  23.855  1.00  0.00    -0.236 NA
ATOM     12  C   UNL A   1      32.390  24.501  25.473  1.00  0.00     0.092 C 
ATOM     13  C   UNL A   1      31.594  23.445  23.009  1.00  0.00     0.319 C 
ATOM     14  C   UNL A   1      32.894  23.126  25.010  1.00  0.00     0.127 C 
ATOM     15  N   UNL A   1      31.237  22.197  22.406  1.00  0.00    -0.335 N 
ATOM     16  N   UNL A   1      32.969  23.218  23.537  1.00  0.00    -0.249 NA
ATOM     17  C   UNL A   1      32.411  21.518  22.323  1.00  0.00     0.217 C 
ATOM     18  H   UNL A   1      30.344  21.899  22.116  1.00  0.00     0.165 HD
ATOM     19  N   UNL A   1      33.445  22.050  22.919  1.00  0.00    -0.164 NA
BRANCH  14  20
ATOM     20  C   UNL A   1      34.233  22.651  25.613  1.00  0.00     0.109 C 
ATOM     21  C   UNL A   1      34.595  23.390  26.852  1.00  0.00     0.120 C 
ATOM     22  C   UNL A   1      34.082  21.291  26.248  1.00  0.00     0.081 C 
ATOM     23  N   UNL A   1      34.470  22.684  27.927  1.00  0.00    -0.162 NA
ATOM     24  N   UNL A   1      34.136  21.349  27.547  1.00  0.00    -0.155 NA
BRANCH  22  25
ATOM     25  C   UNL A   1      33.889  20.036  25.478  1.00  0.00    -0.001 A 
ATOM     26  C   UNL A   1      34.969  19.349  24.906  1.00  0.00     0.013 A 
ATOM     27  C   UNL A   1      32.595  19.511  25.353  1.00  0.00     0.013 A 
ATOM     28  C   UNL A   1      34.749  18.161  24.200  1.00  0.00     0.040 A 
ATOM     29  C   UNL A   1      32.379  18.326  24.641  1.00  0.00     0.040 A 
ATOM     30  C   UNL A   1      33.458  17.664  24.068  1.00  0.00     0.123 A 
ATOM     31  F   UNL A   1      33.254  16.530  23.386  1.00  0.00    -0.207 F 
ENDBRANCH  22  25
ENDBRANCH  14  20
ENDBRANCH   8  10
ENDBRANCH   7   8
ENDBRANCH   6   7
ENDBRANCH   5   6
ENDBRANCH   4   5
ENDBRANCH   3   4
ENDBRANCH   2   3
ENDBRANCH   1   2
BRANCH   1  32
ATOM     32  C   UNL A   1      32.631  28.727  25.623  1.00  0.00     0.188 C 
BRANCH  32  33
ATOM     33  C   UNL A   1      31.662  29.902  25.378  1.00  0.00     0.188 C 
BRANCH  33  34
ATOM     34  O   UNL A   1      31.759  31.104  26.128  1.00  0.00    -0.376 OA
BRANCH  34  35
ATOM     35  C   UNL A   1      32.408  31.117  27.390  1.00  0.00     0.202 C 
BRANCH  35  36
ATOM     36  C   UNL A   1      33.744  31.862  27.570  1.00  0.00     0.261 C 
BRANCH  36  37
ATOM     37  O   UNL A   1      33.703  33.279  27.344  1.00  0.00    -0.460 OA
BRANCH  37  38
ATOM     38  C   UNL A   1      33.574  34.055  28.447  1.00  0.00     0.338 C 
ATOM     39  O   UNL A   1      32.604  34.714  28.784  1.00  0.00    -0.246 OA
BRANCH  38  40
ATOM     40  C   UNL A   1      34.725  33.790  29.340  1.00  0.00     0.060 A 
ATOM     41  C   UNL A   1      36.000  34.202  28.917  1.00  0.00     0.016 A 
ATOM     42  C   UNL A   1      34.548  33.224  30.604  1.00  0.00     0.016 A 
ATOM     43  C   UNL A   1      37.105  34.041  29.751  1.00  0.00     0.010 A 
ATOM     44  C   UNL A   1      35.660  33.024  31.423  1.00  0.00     0.010 A 
ATOM     45  C   UNL A   1      36.943  33.403  30.985  1.00  0.00    -0.014 A 
BRANCH  45  46
ATOM     46  C   UNL A   1      38.121  32.852  31.689  1.00  0.00     0.031 A 
ATOM     47  C   UNL A   1      38.756  31.628  31.094  1.00  0.00     0.074 A 
ATOM     48  C   UNL A   1      38.580  33.373  32.838  1.00  0.00     0.049 A 
ATOM     49  N   UNL A   1      39.672  30.839  31.586  1.00  0.00    -0.248 NA
ATOM     50  C   UNL A   1      38.266  31.233  29.762  1.00  0.00     0.031 C 
ATOM     51  C   UNL A   1      38.079  34.582  33.483  1.00  0.00     0.029 A 
ATOM     52  N   UNL A   1      39.561  32.917  33.682  1.00  0.00    -0.354 N 
ATOM     53  C   UNL A   1      39.847  29.840  30.638  1.00  0.00     0.074 A 
ATOM     54  C   UNL A   1      38.934  30.112  29.552  1.00  0.00     0.031 C 
ATOM     55  C   UNL A   1      38.728  34.752  34.648  1.00  0.00     0.029 A 
ATOM     56  C   UNL A   1      39.658  33.640  34.845  1.00  0.00     0.049 A 
ATOM     57  H   UNL A   1      40.139  32.147  33.475  1.00  0.00     0.167 HD
ATOM     58  C   UNL A   1      40.690  28.782  30.673  1.00  0.00     0.037 A 
ATOM     59  C   UNL A   1      40.383  33.398  35.956  1.00  0.00     0.037 A 
ATOM     60  C   UNL A   1      41.580  28.510  31.767  1.00  0.00     0.049 A 
ATOM     61  C   UNL A   1      41.269  32.180  36.011  1.00  0.00     0.074 A 
ATOM     62  C   UNL A   1      42.490  27.478  31.902  1.00  0.00     0.029 A 
ATOM     63  N   UNL A   1      41.654  29.270  32.925  1.00  0.00    -0.354 N 
ATOM     64  N   UNL A   1      41.450  31.248  35.105  1.00  0.00    -0.248 NA
ATOM     65  C   UNL A   1      42.050  31.979  37.240  1.00  0.00     0.031 C 
ATOM     66  C   UNL A   1      43.074  27.581  33.168  1.00  0.00     0.029 A 
ATOM     67  C   UNL A   1      42.575  28.714  33.795  1.00  0.00     0.049 A 
ATOM     68  H   UNL A   1      41.129  30.084  33.103  1.00  0.00     0.167 HD
ATOM     69  C   UNL A   1      42.385  30.368  35.639  1.00  0.00     0.074 A 
ATOM     70  C   UNL A   1      42.734  30.879  36.950  1.00  0.00     0.031 C 
ATOM     71  C   UNL A   1      42.915  29.246  35.092  1.00  0.00     0.037 A 
BRANCH  58  72
ATOM     72  C   UNL A   1      40.627  27.826  29.519  1.00  0.00     0.057 A 
ATOM     73  C   UNL A   1      39.654  26.821  29.434  1.00  0.00     0.134 A 
ATOM     74  C   UNL A   1      41.582  27.888  28.497  1.00  0.00     0.134 A 
ATOM     75  F   UNL A   1      38.725  26.690  30.394  1.00  0.00    -0.206 F 
ATOM     76  C   UNL A   1      39.658  25.886  28.397  1.00  0.00     0.040 A 
ATOM     77  C   UNL A   1      41.577  26.980  27.438  1.00  0.00     0.040 A 
ATOM     78  F   UNL A   1      42.544  28.823  28.517  1.00  0.00    -0.206 F 
ATOM     79  C   UNL A   1      40.620  25.967  27.393  1.00  0.00     0.006 A 
ENDBRANCH  58  72
BRANCH  59  80
ATOM     80  C   UNL A   1      40.272  34.317  37.117  1.00  0.00     0.057 A 
ATOM     81  C   UNL A   1      41.125  35.418  37.256  1.00  0.00     0.134 A 
ATOM     82  C   UNL A   1      39.297  34.129  38.104  1.00  0.00     0.134 A 
ATOM     83  F   UNL A   1      42.094  35.638  36.355  1.00  0.00    -0.206 F 
ATOM     84  C   UNL A   1      41.014  36.296  38.335  1.00  0.00     0.040 A 
ATOM     85  C   UNL A   1      39.160  35.012  39.177  1.00  0.00     0.040 A 
ATOM     86  F   UNL A   1      38.449  33.093  38.030  1.00  0.00    -0.206 F 
ATOM     87  C   UNL A   1      40.024  36.100  39.296  1.00  0.00     0.006 A 
ENDBRANCH  59  80
BRANCH  71  88
ATOM     88  C   UNL A   1      43.964  28.514  35.877  1.00  0.00     0.057 A 
ATOM     89  C   UNL A   1      43.649  27.455  36.735  1.00  0.00     0.134 A 
ATOM     90  C   UNL A   1      45.320  28.822  35.700  1.00  0.00     0.134 A 
ATOM     91  F   UNL A   1      42.370  27.114  36.955  1.00  0.00    -0.206 F 
ATOM     92  C   UNL A   1      44.645  26.734  37.398  1.00  0.00     0.040 A 
ATOM     93  C   UNL A   1      46.325  28.093  36.335  1.00  0.00     0.040 A 
ATOM     94  F   UNL A   1      45.691  29.819  34.881  1.00  0.00    -0.206 F 
ATOM     95  C   UNL A   1      45.988  27.046  37.190  1.00  0.00     0.006 A 
ENDBRANCH  71  88
ENDBRANCH  45  46
ENDBRANCH  38  40
ENDBRANCH  37  38
ENDBRANCH  36  37
ENDBRANCH  35  36
ENDBRANCH  34  35
ENDBRANCH  33  34
ENDBRANCH  32  33
ENDBRANCH   1  32
TORSDOF 22
ENDMDL
MODEL 3
REMARK VINA RESULT:      -9.6      5.741     10.318
REMARK SMILES O=C(OCCOCCOCCOCCOC(=O)c1ccc(-c2c3nc(c(-c4c(F)cccc4F)c4ccc([nH]4)c(-c4c(F)cccc4F)c4nc(c(-c5c(F)cccc5F)c5ccc2[nH]5)C=C4)C=C3)cc1)C1=N[C@@H]2NC=NN2[C@@H]([C@H]2C=NN=C2c2ccc(F)cc2)C1
REMARK SMILES IDX 9 1 8 2 7 3 6 4 5 5 4 6 3 7 2 8 1 9 72 10 73 11 92 12 74 13
REMARK SMILES IDX 79 14 75 15 78 16 76 17 77 19 80 20 81 21 84 22 82 23 83 24
REMARK SMILES IDX 85 25 86 26 91 27 87 28 90 29 88 30 89 31 10 32 11 33 12 34
REMARK SMILES IDX 13 35 14 36 15 37 16 38 17 39 18 40 19 41 71 42 20 43 70 44
REMARK SMILES IDX 21 45 22 46 23 47 64 48 24 49 69 50 63 51 65 52 25 53 68 54
REMARK SMILES IDX 62 55 61 56 26 58 52 59 35 60 51 61 36 62 39 63 50 64 66 65
REMARK SMILES IDX 37 66 38 67 49 69 67 70 40 71 27 72 28 73 33 74 29 75 30 76
REMARK SMILES IDX 32 77 34 78 31 79 53 80 54 81 59 82 55 83 56 84 58 85 60 86
REMARK SMILES IDX 57 87 41 88 42 89 47 90 43 91 44 92 46 93 48 94 45 95
REMARK H PARENT 75 18 65 57 39 68
REMARK Flexibility Score: inf
ROOT
ATOM      1  O   UNL A   1      39.013  31.701  34.597  1.00  0.00    -0.377 OA
ENDROOT
BRANCH   1   2
ATOM      2  C   UNL A   1      39.234  30.510  33.874  1.00  0.00     0.188 C 
BRANCH   2   3
ATOM      3  C   UNL A   1      38.051  29.842  33.155  1.00  0.00     0.188 C 
BRANCH   3   4
ATOM      4  O   UNL A   1      38.004  28.437  32.961  1.00  0.00    -0.376 OA
BRANCH   4   5
ATOM      5  C   UNL A   1      38.154  27.844  31.685  1.00  0.00     0.202 C 
BRANCH   5   6
ATOM      6  C   UNL A   1      39.542  27.659  31.097  1.00  0.00     0.261 C 
BRANCH   6   7
ATOM      7  O   UNL A   1      39.874  28.298  29.860  1.00  0.00    -0.459 OA
BRANCH   7   8
ATOM      8  C   UNL A   1      39.223  29.147  29.077  1.00  0.00     0.352 C 
ATOM      9  O   UNL A   1      38.884  28.791  27.952  1.00  0.00    -0.245 OA
BRANCH   8  10
ATOM     10  C   UNL A   1      38.869  30.588  29.472  1.00  0.00     0.126 C 
ATOM     11  N   UNL A   1      39.681  31.171  30.295  1.00  0.00    -0.236 NA
ATOM     12  C   UNL A   1      37.778  31.310  28.737  1.00  0.00     0.092 C 
ATOM     13  C   UNL A   1      39.732  32.619  30.249  1.00  0.00     0.319 C 
ATOM     14  C   UNL A   1      37.423  32.550  29.571  1.00  0.00     0.127 C 
ATOM     15  N   UNL A   1      39.894  33.284  31.507  1.00  0.00    -0.335 N 
ATOM     16  N   UNL A   1      38.646  33.380  29.568  1.00  0.00    -0.249 NA
ATOM     17  C   UNL A   1      39.221  34.454  31.354  1.00  0.00     0.217 C 
ATOM     18  H   UNL A   1      40.383  32.966  32.300  1.00  0.00     0.165 HD
ATOM     19  N   UNL A   1      38.511  34.592  30.266  1.00  0.00    -0.164 NA
BRANCH  14  20
ATOM     20  C   UNL A   1      36.194  33.358  29.104  1.00  0.00     0.109 C 
ATOM     21  C   UNL A   1      35.556  32.777  27.893  1.00  0.00     0.120 C 
ATOM     22  C   UNL A   1      35.031  33.153  30.041  1.00  0.00     0.081 C 
ATOM     23  N   UNL A   1      34.423  32.204  28.133  1.00  0.00    -0.162 NA
ATOM     24  N   UNL A   1      34.089  32.434  29.502  1.00  0.00    -0.155 NA
BRANCH  22  25
ATOM     25  C   UNL A   1      34.971  33.703  31.419  1.00  0.00    -0.001 A 
ATOM     26  C   UNL A   1      35.661  33.104  32.483  1.00  0.00     0.013 A 
ATOM     27  C   UNL A   1      34.231  34.872  31.650  1.00  0.00     0.013 A 
ATOM     28  C   UNL A   1      35.593  33.660  33.765  1.00  0.00     0.040 A 
ATOM     29  C   UNL A   1      34.161  35.420  32.935  1.00  0.00     0.040 A 
ATOM     30  C   UNL A   1      34.840  34.807  33.981  1.00  0.00     0.123 A 
ATOM     31  F   UNL A   1      34.773  35.330  35.212  1.00  0.00    -0.207 F 
ENDBRANCH  22  25
ENDBRANCH  14  20
ENDBRANCH   8  10
ENDBRANCH   7   8
ENDBRANCH   6   7
ENDBRANCH   5   6
ENDBRANCH   4   5
ENDBRANCH   3   4
ENDBRANCH   2   3
ENDBRANCH   1   2
BRANCH   1  32
ATOM     32  C   UNL A   1      38.773  31.527  35.976  1.00  0.00     0.188 C 
BRANCH  32  33
ATOM     33  C   UNL A   1      37.769  32.539  36.566  1.00  0.00     0.188 C 
BRANCH  33  34
ATOM     34  O   UNL A   1      37.667  32.742  37.968  1.00  0.00    -0.376 OA
BRANCH  34  35
ATOM     35  C   UNL A   1      38.815  33.074  38.734  1.00  0.00     0.202 C 
BRANCH  35  36
ATOM     36  C   UNL A   1      38.903  34.433  39.454  1.00  0.00     0.261 C 
BRANCH  36  37
ATOM     37  O   UNL A   1      40.143  35.139  39.304  1.00  0.00    -0.460 OA
BRANCH  37  38
ATOM     38  C   UNL A   1      40.202  36.032  38.287  1.00  0.00     0.338 C 
ATOM     39  O   UNL A   1      39.957  37.226  38.331  1.00  0.00    -0.246 OA
BRANCH  38  40
ATOM     40  C   UNL A   1      40.862  35.381  37.133  1.00  0.00     0.060 A 
ATOM     41  C   UNL A   1      40.112  35.187  35.962  1.00  0.00     0.016 A 
ATOM     42  C   UNL A   1      42.217  35.042  37.168  1.00  0.00     0.016 A 
ATOM     43  C   UNL A   1      40.707  34.645  34.825  1.00  0.00     0.010 A 
ATOM     44  C   UNL A   1      42.803  34.460  36.044  1.00  0.00     0.010 A 
ATOM     45  C   UNL A   1      42.041  34.233  34.882  1.00  0.00    -0.014 A 
BRANCH  45  46
ATOM     46  C   UNL A   1      42.568  33.296  33.865  1.00  0.00     0.031 A 
ATOM     47  C   UNL A   1      42.846  33.861  32.502  1.00  0.00     0.074 A 
ATOM     48  C   UNL A   1      42.741  31.989  34.114  1.00  0.00     0.049 A 
ATOM     49  N   UNL A   1      43.135  33.246  31.386  1.00  0.00    -0.248 NA
ATOM     50  C   UNL A   1      42.763  35.327  32.384  1.00  0.00     0.031 C 
ATOM     51  C   UNL A   1      42.551  31.338  35.407  1.00  0.00     0.029 A 
ATOM     52  N   UNL A   1      43.086  30.968  33.265  1.00  0.00    -0.354 N 
ATOM     53  C   UNL A   1      43.240  34.248  30.430  1.00  0.00     0.074 A 
ATOM     54  C   UNL A   1      42.969  35.504  31.090  1.00  0.00     0.031 C 
ATOM     55  C   UNL A   1      42.742  30.015  35.257  1.00  0.00     0.029 A 
ATOM     56  C   UNL A   1      43.025  29.728  33.850  1.00  0.00     0.049 A 
ATOM     57  H   UNL A   1      43.351  31.110  32.328  1.00  0.00     0.167 HD
ATOM     58  C   UNL A   1      43.530  34.130  29.114  1.00  0.00     0.037 A 
ATOM     59  C   UNL A   1      43.140  28.503  33.298  1.00  0.00     0.037 A 
ATOM     60  C   UNL A   1      43.778  32.873  28.463  1.00  0.00     0.049 A 
ATOM     61  C   UNL A   1      43.396  28.381  31.818  1.00  0.00     0.074 A 
ATOM     62  C   UNL A   1      44.099  32.636  27.140  1.00  0.00     0.029 A 
ATOM     63  N   UNL A   1      43.715  31.638  29.092  1.00  0.00    -0.354 N 
ATOM     64  N   UNL A   1      43.517  29.329  30.919  1.00  0.00    -0.248 NA
ATOM     65  C   UNL A   1      43.532  27.021  31.275  1.00  0.00     0.031 C 
ATOM     66  C   UNL A   1      44.171  31.252  26.956  1.00  0.00     0.029 A 
ATOM     67  C   UNL A   1      43.961  30.631  28.178  1.00  0.00     0.049 A 
ATOM     68  H   UNL A   1      43.522  31.499  30.048  1.00  0.00     0.167 HD
ATOM     69  C   UNL A   1      43.772  28.686  29.712  1.00  0.00     0.074 A 
ATOM     70  C   UNL A   1      43.788  27.265  29.996  1.00  0.00     0.031 C 
ATOM     71  C   UNL A   1      43.984  29.221  28.484  1.00  0.00     0.037 A 
BRANCH  58  72
ATOM     72  C   UNL A   1      43.525  35.391  28.302  1.00  0.00     0.057 A 
ATOM     73  C   UNL A   1      44.702  36.085  27.993  1.00  0.00     0.134 A 
ATOM     74  C   UNL A   1      42.316  35.939  27.857  1.00  0.00     0.134 A 
ATOM     75  F   UNL A   1      45.892  35.627  28.412  1.00  0.00    -0.206 F 
ATOM     76  C   UNL A   1      44.675  37.301  27.308  1.00  0.00     0.040 A 
ATOM     77  C   UNL A   1      42.278  37.138  27.142  1.00  0.00     0.040 A 
ATOM     78  F   UNL A   1      41.151  35.329  28.120  1.00  0.00    -0.206 F 
ATOM     79  C   UNL A   1      43.459  37.828  26.877  1.00  0.00     0.006 A 
ENDBRANCH  58  72
BRANCH  59  80
ATOM     80  C   UNL A   1      42.980  27.297  34.150  1.00  0.00     0.057 A 
ATOM     81  C   UNL A   1      41.714  26.801  34.476  1.00  0.00     0.134 A 
ATOM     82  C   UNL A   1      44.091  26.601  34.640  1.00  0.00     0.134 A 
ATOM     83  F   UNL A   1      40.611  27.437  34.055  1.00  0.00    -0.206 F 
ATOM     84  C   UNL A   1      41.557  25.656  35.260  1.00  0.00     0.040 A 
ATOM     85  C   UNL A   1      43.950  25.442  35.407  1.00  0.00     0.040 A 
ATOM     86  F   UNL A   1      45.333  27.025  34.363  1.00  0.00    -0.206 F 
ATOM     87  C   UNL A   1      42.677  24.968  35.721  1.00  0.00     0.006 A 
ENDBRANCH  59  80
BRANCH  71  88
ATOM     88  C   UNL A   1      44.301  28.282  27.357  1.00  0.00     0.057 A 
ATOM     89  C   UNL A   1      45.606  27.852  27.090  1.00  0.00     0.134 A 
ATOM     90  C   UNL A   1      43.268  27.736  26.583  1.00  0.00     0.134 A 
ATOM     91  F   UNL A   1      46.641  28.343  27.789  1.00  0.00    -0.206 F 
ATOM     92  C   UNL A   1      45.873  26.918  26.086  1.00  0.00     0.040 A 
ATOM     93  C   UNL A   1      43.519  26.783  25.596  1.00  0.00     0.040 A 
ATOM     94  F   UNL A   1      41.993  28.098  26.796  1.00  0.00    -0.206 F 
ATOM     95  C   UNL A   1      44.826  26.373  25.344  1.00  0.00     0.006 A 
ENDBRANCH  71  88
ENDBRANCH  45  46
ENDBRANCH  38  40
ENDBRANCH  37  38
ENDBRANCH  36  37
ENDBRANCH  35  36
ENDBRANCH  34  35
ENDBRANCH  33  34
ENDBRANCH  32  33
ENDBRANCH   1  32
TORSDOF 22
ENDMDL
