MODEL 1
REMARK VINA RESULT:      -8.8      0.000      0.000
REMARK SMILES Cc1c(NC(=O)c2cccc(-c3cc4ccccc4oc3=O)c2)cccc1C(=O)OCCOCCOCCOCCOC(=O)c1ccc(-c2c3nc(c(-c4c(F)cccc4F)c4ccc([nH]4)c(-c4c(F)cccc4F)c4nc(c(-c5c(F)cccc5F)c5ccc2[nH]5)C=C4)C=C3)cc1
REMARK SMILES IDX 35 1 34 2 33 3 32 4 31 5 30 6 28 7 29 8 27 9 1 10 2 11 3 12
REMARK SMILES IDX 24 13 26 14 25 15 4 16 5 17 6 19 7 20 8 21 23 22 9 23 11 24
REMARK SMILES IDX 10 25 12 26 13 27 21 28 14 29 20 30 22 31 15 32 19 33 16 34
REMARK SMILES IDX 18 35 17 36 36 37 37 38 38 39 39 40 40 41 41 42 42 43 43 44
REMARK SMILES IDX 44 45 45 46 46 47 98 48 47 49 97 50 48 51 49 52 50 53 91 54
REMARK SMILES IDX 51 55 96 56 90 57 92 58 52 59 95 60 89 61 88 62 53 64 79 65
REMARK SMILES IDX 62 66 78 67 63 68 66 69 77 70 93 71 64 72 65 73 76 75 94 76
REMARK SMILES IDX 67 77 54 78 55 79 60 80 56 81 57 82 59 83 61 84 58 85 80 86
REMARK SMILES IDX 81 87 86 88 82 89 83 90 85 91 87 92 84 93 68 94 69 95 74 96
REMARK SMILES IDX 70 97 71 98 73 99 75 100 72 101
REMARK H PARENT 4 18 92 63 66 74
REMARK Flexibility Score: inf
ROOT
ATOM      1  C   UNL A   1      32.557  36.074  31.129  1.00  0.00     0.188 C 
ENDROOT
BRANCH   1   2
ATOM      2  C   UNL A   1      33.483  35.696  32.277  1.00  0.00     0.188 C 
BRANCH   2   3
ATOM      3  O   UNL A   1      33.441  34.289  32.518  1.00  0.00    -0.376 OA
BRANCH   3   4
ATOM      4  C   UNL A   1      34.713  33.751  32.867  1.00  0.00     0.202 C 
BRANCH   4   5
ATOM      5  C   UNL A   1      35.764  34.842  32.958  1.00  0.00     0.261 C 
BRANCH   5   6
ATOM      6  O   UNL A   1      36.921  34.559  32.154  1.00  0.00    -0.460 OA
BRANCH   6   7
ATOM      7  C   UNL A   1      38.077  34.600  32.864  1.00  0.00     0.338 C 
ATOM      8  O   UNL A   1      38.196  34.633  34.063  1.00  0.00    -0.246 OA
BRANCH   7   9
ATOM      9  C   UNL A   1      39.224  34.231  32.000  1.00  0.00     0.065 A 
ATOM     10  C   UNL A   1      40.437  32.774  33.690  1.00  0.00     0.047 C 
ATOM     11  C   UNL A   1      40.319  33.390  32.320  1.00  0.00    -0.013 A 
ATOM     12  C   UNL A   1      41.295  33.165  31.312  1.00  0.00     0.045 A 
ATOM     13  C   UNL A   1      41.096  33.706  30.033  1.00  0.00     0.026 A 
ATOM     14  C   UNL A   1      39.119  34.840  30.740  1.00  0.00     0.016 A 
ATOM     15  C   UNL A   1      40.046  34.570  29.755  1.00  0.00     0.003 A 
BRANCH  12  16
ATOM     16  N   UNL A   1      42.459  32.399  31.580  1.00  0.00    -0.322 N 
ATOM     17  C   UNL A   1      43.808  32.670  31.377  1.00  0.00     0.255 C 
ATOM     18  H   UNL A   1      42.279  31.519  31.982  1.00  0.00     0.170 HD
ATOM     19  O   UNL A   1      44.626  31.753  31.458  1.00  0.00    -0.269 OA
BRANCH  17  20
ATOM     20  C   UNL A   1      44.332  34.054  31.179  1.00  0.00     0.040 A 
ATOM     21  C   UNL A   1      44.200  35.034  32.154  1.00  0.00     0.014 A 
ATOM     22  C   UNL A   1      44.891  34.414  29.953  1.00  0.00     0.022 A 
ATOM     23  C   UNL A   1      44.708  36.319  31.915  1.00  0.00     0.001 A 
ATOM     24  C   UNL A   1      45.406  35.692  29.676  1.00  0.00    -0.010 A 
ATOM     25  C   UNL A   1      45.317  36.642  30.693  1.00  0.00     0.009 A 
BRANCH  24  26
ATOM     26  C   UNL A   1      45.974  36.102  28.350  1.00  0.00     0.068 A 
ATOM     27  C   UNL A   1      45.514  35.645  27.161  1.00  0.00     0.028 A 
ATOM     28  C   UNL A   1      46.206  37.580  28.168  1.00  0.00     0.344 A 
ATOM     29  C   UNL A   1      44.155  36.180  26.959  1.00  0.00     0.018 A 
ATOM     30  O   UNL A   1      45.061  38.283  27.745  1.00  0.00    -0.422 OA
ATOM     31  O   UNL A   1      47.286  38.114  28.376  1.00  0.00    -0.246 OA
ATOM     32  C   UNL A   1      43.077  35.345  26.739  1.00  0.00     0.012 A 
ATOM     33  C   UNL A   1      43.944  37.515  27.340  1.00  0.00     0.138 A 
ATOM     34  C   UNL A   1      41.790  35.854  26.918  1.00  0.00     0.001 A 
ATOM     35  C   UNL A   1      42.664  38.031  27.503  1.00  0.00     0.048 A 
ATOM     36  C   UNL A   1      41.578  37.181  27.301  1.00  0.00     0.004 A 
ENDBRANCH  24  26
ENDBRANCH  17  20
ENDBRANCH  12  16
ENDBRANCH   7   9
ENDBRANCH   6   7
ENDBRANCH   5   6
ENDBRANCH   4   5
ENDBRANCH   3   4
ENDBRANCH   2   3
ENDBRANCH   1   2
BRANCH   1  37
ATOM     37  O   UNL A   1      32.538  35.083  30.107  1.00  0.00    -0.377 OA
BRANCH  37  38
ATOM     38  C   UNL A   1      33.580  35.079  29.136  1.00  0.00     0.188 C 
BRANCH  38  39
ATOM     39  C   UNL A   1      33.786  33.817  28.315  1.00  0.00     0.188 C 
BRANCH  39  40
ATOM     40  O   UNL A   1      34.628  32.976  29.091  1.00  0.00    -0.376 OA
BRANCH  40  41
ATOM     41  C   UNL A   1      36.025  33.168  28.949  1.00  0.00     0.202 C 
BRANCH  41  42
ATOM     42  C   UNL A   1      36.761  32.131  29.782  1.00  0.00     0.261 C 
BRANCH  42  43
ATOM     43  O   UNL A   1      37.989  31.801  29.089  1.00  0.00    -0.460 OA
BRANCH  43  44
ATOM     44  C   UNL A   1      37.945  30.645  28.369  1.00  0.00     0.338 C 
ATOM     45  O   UNL A   1      36.995  30.283  27.691  1.00  0.00    -0.246 OA
BRANCH  44  46
ATOM     46  C   UNL A   1      39.078  29.734  28.728  1.00  0.00     0.060 A 
ATOM     47  C   UNL A   1      40.017  30.154  29.686  1.00  0.00     0.016 A 
ATOM     48  C   UNL A   1      39.402  28.681  27.878  1.00  0.00     0.016 A 
ATOM     49  C   UNL A   1      41.329  29.650  29.668  1.00  0.00     0.010 A 
ATOM     50  C   UNL A   1      40.728  28.291  27.778  1.00  0.00     0.010 A 
ATOM     51  C   UNL A   1      41.720  28.793  28.638  1.00  0.00    -0.014 A 
BRANCH  51  52
ATOM     52  C   UNL A   1      43.120  28.528  28.223  1.00  0.00     0.031 A 
ATOM     53  C   UNL A   1      44.017  29.687  27.876  1.00  0.00     0.074 A 
ATOM     54  C   UNL A   1      43.648  27.307  28.505  1.00  0.00     0.049 A 
ATOM     55  N   UNL A   1      45.289  29.612  27.670  1.00  0.00    -0.248 NA
ATOM     56  C   UNL A   1      43.545  31.069  27.760  1.00  0.00     0.031 C 
ATOM     57  C   UNL A   1      45.043  26.975  28.798  1.00  0.00     0.029 A 
ATOM     58  N   UNL A   1      43.036  26.073  28.663  1.00  0.00    -0.354 N 
ATOM     59  C   UNL A   1      45.833  30.887  27.689  1.00  0.00     0.074 A 
ATOM     60  C   UNL A   1      44.690  31.760  27.686  1.00  0.00     0.031 C 
ATOM     61  C   UNL A   1      45.191  25.662  29.023  1.00  0.00     0.029 A 
ATOM     62  C   UNL A   1      43.975  25.043  28.590  1.00  0.00     0.049 A 
ATOM     63  H   UNL A   1      42.071  25.942  28.806  1.00  0.00     0.167 HD
ATOM     64  C   UNL A   1      47.190  31.037  27.816  1.00  0.00     0.037 A 
ATOM     65  C   UNL A   1      43.988  24.181  27.530  1.00  0.00     0.037 A 
ATOM     66  C   UNL A   1      47.886  29.749  27.614  1.00  0.00     0.049 A 
ATOM     67  C   UNL A   1      45.152  24.492  26.585  1.00  0.00     0.074 A 
ATOM     68  C   UNL A   1      48.855  29.039  28.300  1.00  0.00     0.029 A 
ATOM     69  N   UNL A   1      47.453  28.890  26.600  1.00  0.00    -0.354 N 
ATOM     70  N   UNL A   1      45.657  25.703  26.438  1.00  0.00    -0.248 NA
ATOM     71  C   UNL A   1      45.997  23.476  25.953  1.00  0.00     0.031 C 
ATOM     72  C   UNL A   1      48.814  27.686  27.847  1.00  0.00     0.029 A 
ATOM     73  C   UNL A   1      47.951  27.617  26.762  1.00  0.00     0.049 A 
ATOM     74  H   UNL A   1      46.864  29.163  25.859  1.00  0.00     0.167 HD
ATOM     75  C   UNL A   1      46.884  25.624  25.828  1.00  0.00     0.074 A 
ATOM     76  C   UNL A   1      47.032  24.214  25.508  1.00  0.00     0.031 C 
ATOM     77  C   UNL A   1      47.796  26.636  25.701  1.00  0.00     0.037 A 
BRANCH  64  78
ATOM     78  C   UNL A   1      47.916  32.301  28.302  1.00  0.00     0.057 A 
ATOM     79  C   UNL A   1      48.031  32.584  29.684  1.00  0.00     0.134 A 
ATOM     80  C   UNL A   1      48.407  33.339  27.481  1.00  0.00     0.134 A 
ATOM     81  F   UNL A   1      47.640  31.701  30.612  1.00  0.00    -0.206 F 
ATOM     82  C   UNL A   1      48.554  33.787  30.195  1.00  0.00     0.040 A 
ATOM     83  C   UNL A   1      48.992  34.522  27.982  1.00  0.00     0.040 A 
ATOM     84  F   UNL A   1      48.308  33.300  26.148  1.00  0.00    -0.206 F 
ATOM     85  C   UNL A   1      49.051  34.759  29.344  1.00  0.00     0.006 A 
ENDBRANCH  64  78
BRANCH  65  86
ATOM     86  C   UNL A   1      42.644  23.526  27.399  1.00  0.00     0.057 A 
ATOM     87  C   UNL A   1      42.339  23.221  26.050  1.00  0.00     0.134 A 
ATOM     88  C   UNL A   1      42.242  22.573  28.348  1.00  0.00     0.134 A 
ATOM     89  F   UNL A   1      42.647  24.102  25.084  1.00  0.00    -0.206 F 
ATOM     90  C   UNL A   1      42.000  21.922  25.646  1.00  0.00     0.040 A 
ATOM     91  C   UNL A   1      41.855  21.278  27.951  1.00  0.00     0.040 A 
ATOM     92  F   UNL A   1      42.446  22.787  29.654  1.00  0.00    -0.206 F 
ATOM     93  C   UNL A   1      41.818  20.928  26.600  1.00  0.00     0.006 A 
ENDBRANCH  65  86
BRANCH  77  94
ATOM     94  C   UNL A   1      48.674  26.815  24.476  1.00  0.00     0.057 A 
ATOM     95  C   UNL A   1      48.225  27.451  23.312  1.00  0.00     0.134 A 
ATOM     96  C   UNL A   1      50.075  26.591  24.530  1.00  0.00     0.134 A 
ATOM     97  F   UNL A   1      46.945  27.813  23.156  1.00  0.00    -0.206 F 
ATOM     98  C   UNL A   1      49.089  27.808  22.272  1.00  0.00     0.040 A 
ATOM     99  C   UNL A   1      50.951  26.992  23.521  1.00  0.00     0.040 A 
ATOM    100  F   UNL A   1      50.675  26.018  25.582  1.00  0.00    -0.206 F 
ATOM    101  C   UNL A   1      50.457  27.596  22.380  1.00  0.00     0.006 A 
ENDBRANCH  77  94
ENDBRANCH  51  52
ENDBRANCH  44  46
ENDBRANCH  43  44
ENDBRANCH  42  43
ENDBRANCH  41  42
ENDBRANCH  40  41
ENDBRANCH  39  40
ENDBRANCH  38  39
ENDBRANCH  37  38
ENDBRANCH   1  37
TORSDOF 23
ENDMDL
MODEL 2
REMARK VINA RESULT:      -8.4      4.777     10.677
REMARK SMILES Cc1c(NC(=O)c2cccc(-c3cc4ccccc4oc3=O)c2)cccc1C(=O)OCCOCCOCCOCCOC(=O)c1ccc(-c2c3nc(c(-c4c(F)cccc4F)c4ccc([nH]4)c(-c4c(F)cccc4F)c4nc(c(-c5c(F)cccc5F)c5ccc2[nH]5)C=C4)C=C3)cc1
REMARK SMILES IDX 35 1 34 2 33 3 32 4 31 5 30 6 28 7 29 8 27 9 1 10 2 11 3 12
REMARK SMILES IDX 24 13 26 14 25 15 4 16 5 17 6 19 7 20 8 21 23 22 9 23 11 24
REMARK SMILES IDX 10 25 12 26 13 27 21 28 14 29 20 30 22 31 15 32 19 33 16 34
REMARK SMILES IDX 18 35 17 36 36 37 37 38 38 39 39 40 40 41 41 42 42 43 43 44
REMARK SMILES IDX 44 45 45 46 46 47 98 48 47 49 97 50 48 51 49 52 50 53 91 54
REMARK SMILES IDX 51 55 96 56 90 57 92 58 52 59 95 60 89 61 88 62 53 64 79 65
REMARK SMILES IDX 62 66 78 67 63 68 66 69 77 70 93 71 64 72 65 73 76 75 94 76
REMARK SMILES IDX 67 77 54 78 55 79 60 80 56 81 57 82 59 83 61 84 58 85 80 86
REMARK SMILES IDX 81 87 86 88 82 89 83 90 85 91 87 92 84 93 68 94 69 95 74 96
REMARK SMILES IDX 70 97 71 98 73 99 75 100 72 101
REMARK H PARENT 4 18 92 63 66 74
REMARK Flexibility Score: inf
ROOT
ATOM      1  C   UNL A   1      35.116  34.196  29.375  1.00  0.00     0.188 C 
ENDROOT
BRANCH   1   2
ATOM      2  C   UNL A   1      34.611  33.868  27.977  1.00  0.00     0.188 C 
BRANCH   2   3
ATOM      3  O   UNL A   1      34.933  32.521  27.627  1.00  0.00    -0.376 OA
BRANCH   3   4
ATOM      4  C   UNL A   1      33.858  31.617  27.867  1.00  0.00     0.202 C 
BRANCH   4   5
ATOM      5  C   UNL A   1      34.022  30.343  27.060  1.00  0.00     0.261 C 
BRANCH   5   6
ATOM      6  O   UNL A   1      32.988  30.177  26.077  1.00  0.00    -0.460 OA
BRANCH   6   7
ATOM      7  C   UNL A   1      31.957  29.414  26.521  1.00  0.00     0.338 C 
ATOM      8  O   UNL A   1      31.423  29.468  27.600  1.00  0.00    -0.246 OA
BRANCH   7   9
ATOM      9  C   UNL A   1      31.300  28.726  25.384  1.00  0.00     0.065 A 
ATOM     10  C   UNL A   1      31.219  26.408  26.421  1.00  0.00     0.047 C 
ATOM     11  C   UNL A   1      30.927  27.362  25.292  1.00  0.00    -0.013 A 
ATOM     12  C   UNL A   1      30.284  26.933  24.098  1.00  0.00     0.045 A 
ATOM     13  C   UNL A   1      29.973  27.879  23.111  1.00  0.00     0.026 A 
ATOM     14  C   UNL A   1      31.065  29.617  24.326  1.00  0.00     0.016 A 
ATOM     15  C   UNL A   1      30.393  29.199  23.197  1.00  0.00     0.003 A 
BRANCH  12  16
ATOM     16  N   UNL A   1      29.951  25.569  23.898  1.00  0.00    -0.322 N 
ATOM     17  C   UNL A   1      30.717  24.483  23.485  1.00  0.00     0.255 C 
ATOM     18  H   UNL A   1      29.009  25.352  24.084  1.00  0.00     0.170 HD
ATOM     19  O   UNL A   1      30.153  23.443  23.144  1.00  0.00    -0.269 OA
BRANCH  17  20
ATOM     20  C   UNL A   1      32.208  24.478  23.547  1.00  0.00     0.040 A 
ATOM     21  C   UNL A   1      32.989  24.741  22.430  1.00  0.00     0.014 A 
ATOM     22  C   UNL A   1      32.850  24.113  24.730  1.00  0.00     0.022 A 
ATOM     23  C   UNL A   1      34.386  24.721  22.543  1.00  0.00     0.001 A 
ATOM     24  C   UNL A   1      34.248  24.077  24.880  1.00  0.00    -0.010 A 
ATOM     25  C   UNL A   1      35.010  24.406  23.759  1.00  0.00     0.009 A 
BRANCH  24  26
ATOM     26  C   UNL A   1      34.950  23.649  26.133  1.00  0.00     0.068 A 
ATOM     27  C   UNL A   1      34.418  22.795  27.039  1.00  0.00     0.028 A 
ATOM     28  C   UNL A   1      36.390  23.237  25.967  1.00  0.00     0.344 A 
ATOM     29  C   UNL A   1      34.321  21.464  26.413  1.00  0.00     0.018 A 
ATOM     30  O   UNL A   1      36.551  21.894  25.577  1.00  0.00    -0.422 OA
ATOM     31  O   UNL A   1      37.326  24.004  26.148  1.00  0.00    -0.246 OA
ATOM     32  C   UNL A   1      33.116  20.793  26.329  1.00  0.00     0.012 A 
ATOM     33  C   UNL A   1      35.402  21.069  25.609  1.00  0.00     0.138 A 
ATOM     34  C   UNL A   1      33.002  19.735  25.426  1.00  0.00     0.001 A 
ATOM     35  C   UNL A   1      35.298  20.005  24.721  1.00  0.00     0.048 A 
ATOM     36  C   UNL A   1      34.077  19.343  24.624  1.00  0.00     0.004 A 
ENDBRANCH  24  26
ENDBRANCH  17  20
ENDBRANCH  12  16
ENDBRANCH   7   9
ENDBRANCH   6   7
ENDBRANCH   5   6
ENDBRANCH   4   5
ENDBRANCH   3   4
ENDBRANCH   2   3
ENDBRANCH   1   2
BRANCH   1  37
ATOM     37  O   UNL A   1      34.056  34.531  30.264  1.00  0.00    -0.377 OA
BRANCH  37  38
ATOM     38  C   UNL A   1      34.377  34.948  31.588  1.00  0.00     0.188 C 
BRANCH  38  39
ATOM     39  C   UNL A   1      34.369  33.900  32.688  1.00  0.00     0.188 C 
BRANCH  39  40
ATOM     40  O   UNL A   1      35.696  33.398  32.761  1.00  0.00    -0.376 OA
BRANCH  40  41
ATOM     41  C   UNL A   1      35.857  31.998  32.607  1.00  0.00     0.202 C 
BRANCH  41  42
ATOM     42  C   UNL A   1      35.878  31.656  31.126  1.00  0.00     0.261 C 
BRANCH  42  43
ATOM     43  O   UNL A   1      37.172  31.081  30.825  1.00  0.00    -0.460 OA
BRANCH  43  44
ATOM     44  C   UNL A   1      37.129  29.899  30.148  1.00  0.00     0.338 C 
ATOM     45  O   UNL A   1      36.112  29.391  29.700  1.00  0.00    -0.246 OA
BRANCH  44  46
ATOM     46  C   UNL A   1      38.424  29.156  30.263  1.00  0.00     0.060 A 
ATOM     47  C   UNL A   1      39.442  29.676  31.080  1.00  0.00     0.016 A 
ATOM     48  C   UNL A   1      38.745  28.195  29.308  1.00  0.00     0.016 A 
ATOM     49  C   UNL A   1      40.791  29.376  30.819  1.00  0.00     0.010 A 
ATOM     50  C   UNL A   1      40.077  28.013  28.971  1.00  0.00     0.010 A 
ATOM     51  C   UNL A   1      41.119  28.625  29.689  1.00  0.00    -0.014 A 
BRANCH  51  52
ATOM     52  C   UNL A   1      42.452  28.589  29.037  1.00  0.00     0.031 A 
ATOM     53  C   UNL A   1      43.055  27.261  28.667  1.00  0.00     0.074 A 
ATOM     54  C   UNL A   1      42.920  29.739  28.480  1.00  0.00     0.049 A 
ATOM     55  N   UNL A   1      44.114  27.094  27.948  1.00  0.00    -0.248 NA
ATOM     56  C   UNL A   1      42.480  25.972  29.064  1.00  0.00     0.031 C 
ATOM     57  C   UNL A   1      43.794  29.884  27.315  1.00  0.00     0.029 A 
ATOM     58  N   UNL A   1      42.661  31.064  28.793  1.00  0.00    -0.354 N 
ATOM     59  C   UNL A   1      44.197  25.769  27.553  1.00  0.00     0.074 A 
ATOM     60  C   UNL A   1      43.186  25.102  28.329  1.00  0.00     0.031 C 
ATOM     61  C   UNL A   1      44.050  31.174  27.060  1.00  0.00     0.029 A 
ATOM     62  C   UNL A   1      43.614  31.904  28.213  1.00  0.00     0.049 A 
ATOM     63  H   UNL A   1      41.910  31.371  29.350  1.00  0.00     0.167 HD
ATOM     64  C   UNL A   1      45.044  25.424  26.531  1.00  0.00     0.037 A 
ATOM     65  C   UNL A   1      44.524  32.569  28.984  1.00  0.00     0.037 A 
ATOM     66  C   UNL A   1      45.968  26.532  26.213  1.00  0.00     0.049 A 
ATOM     67  C   UNL A   1      45.909  31.924  28.875  1.00  0.00     0.074 A 
ATOM     68  C   UNL A   1      46.364  27.178  25.055  1.00  0.00     0.029 A 
ATOM     69  N   UNL A   1      46.530  27.274  27.255  1.00  0.00    -0.354 N 
ATOM     70  N   UNL A   1      46.089  30.640  28.627  1.00  0.00    -0.248 NA
ATOM     71  C   UNL A   1      47.162  32.675  28.766  1.00  0.00     0.031 C 
ATOM     72  C   UNL A   1      46.946  28.428  25.424  1.00  0.00     0.029 A 
ATOM     73  C   UNL A   1      47.068  28.459  26.807  1.00  0.00     0.049 A 
ATOM     74  H   UNL A   1      46.540  26.984  28.197  1.00  0.00     0.167 HD
ATOM     75  C   UNL A   1      47.385  30.420  28.234  1.00  0.00     0.074 A 
ATOM     76  C   UNL A   1      48.026  31.717  28.377  1.00  0.00     0.031 C 
ATOM     77  C   UNL A   1      47.887  29.267  27.694  1.00  0.00     0.037 A 
BRANCH  64  78
ATOM     78  C   UNL A   1      44.948  24.155  25.670  1.00  0.00     0.057 A 
ATOM     79  C   UNL A   1      46.103  23.392  25.374  1.00  0.00     0.134 A 
ATOM     80  C   UNL A   1      43.794  23.697  24.997  1.00  0.00     0.134 A 
ATOM     81  F   UNL A   1      47.284  23.665  25.942  1.00  0.00    -0.206 F 
ATOM     82  C   UNL A   1      46.113  22.304  24.479  1.00  0.00     0.040 A 
ATOM     83  C   UNL A   1      43.779  22.570  24.149  1.00  0.00     0.040 A 
ATOM     84  F   UNL A   1      42.623  24.337  25.077  1.00  0.00    -0.206 F 
ATOM     85  C   UNL A   1      44.945  21.878  23.871  1.00  0.00     0.006 A 
ENDBRANCH  64  78
BRANCH  65  86
ATOM     86  C   UNL A   1      43.805  33.402  30.004  1.00  0.00     0.057 A 
ATOM     87  C   UNL A   1      43.106  34.478  29.403  1.00  0.00     0.134 A 
ATOM     88  C   UNL A   1      43.154  32.773  31.078  1.00  0.00     0.134 A 
ATOM     89  F   UNL A   1      43.679  35.163  28.400  1.00  0.00    -0.206 F 
ATOM     90  C   UNL A   1      41.733  34.671  29.608  1.00  0.00     0.040 A 
ATOM     91  C   UNL A   1      41.785  32.995  31.322  1.00  0.00     0.040 A 
ATOM     92  F   UNL A   1      43.748  31.773  31.741  1.00  0.00    -0.206 F 
ATOM     93  C   UNL A   1      41.054  33.882  30.529  1.00  0.00     0.006 A 
ENDBRANCH  65  86
BRANCH  77  94
ATOM     94  C   UNL A   1      49.285  28.752  27.986  1.00  0.00     0.057 A 
ATOM     95  C   UNL A   1      50.421  29.237  27.327  1.00  0.00     0.134 A 
ATOM     96  C   UNL A   1      49.554  27.947  29.124  1.00  0.00     0.134 A 
ATOM     97  F   UNL A   1      50.329  30.084  26.293  1.00  0.00    -0.206 F 
ATOM     98  C   UNL A   1      51.720  28.924  27.742  1.00  0.00     0.040 A 
ATOM     99  C   UNL A   1      50.845  27.674  29.577  1.00  0.00     0.040 A 
ATOM    100  F   UNL A   1      48.584  27.424  29.885  1.00  0.00    -0.206 F 
ATOM    101  C   UNL A   1      51.937  28.157  28.878  1.00  0.00     0.006 A 
ENDBRANCH  77  94
ENDBRANCH  51  52
ENDBRANCH  44  46
ENDBRANCH  43  44
ENDBRANCH  42  43
ENDBRANCH  41  42
ENDBRANCH  40  41
ENDBRANCH  39  40
ENDBRANCH  38  39
ENDBRANCH  37  38
ENDBRANCH   1  37
TORSDOF 23
ENDMDL
MODEL 3
REMARK VINA RESULT:      -8.1      3.000      6.973
REMARK SMILES Cc1c(NC(=O)c2cccc(-c3cc4ccccc4oc3=O)c2)cccc1C(=O)OCCOCCOCCOCCOC(=O)c1ccc(-c2c3nc(c(-c4c(F)cccc4F)c4ccc([nH]4)c(-c4c(F)cccc4F)c4nc(c(-c5c(F)cccc5F)c5ccc2[nH]5)C=C4)C=C3)cc1
REMARK SMILES IDX 35 1 34 2 33 3 32 4 31 5 30 6 28 7 29 8 27 9 1 10 2 11 3 12
REMARK SMILES IDX 24 13 26 14 25 15 4 16 5 17 6 19 7 20 8 21 23 22 9 23 11 24
REMARK SMILES IDX 10 25 12 26 13 27 21 28 14 29 20 30 22 31 15 32 19 33 16 34
REMARK SMILES IDX 18 35 17 36 36 37 37 38 38 39 39 40 40 41 41 42 42 43 43 44
REMARK SMILES IDX 44 45 45 46 46 47 98 48 47 49 97 50 48 51 49 52 50 53 91 54
REMARK SMILES IDX 51 55 96 56 90 57 92 58 52 59 95 60 89 61 88 62 53 64 79 65
REMARK SMILES IDX 62 66 78 67 63 68 66 69 77 70 93 71 64 72 65 73 76 75 94 76
REMARK SMILES IDX 67 77 54 78 55 79 60 80 56 81 57 82 59 83 61 84 58 85 80 86
REMARK SMILES IDX 81 87 86 88 82 89 83 90 85 91 87 92 84 93 68 94 69 95 74 96
REMARK SMILES IDX 70 97 71 98 73 99 75 100 72 101
REMARK H PARENT 4 18 92 63 66 74
REMARK Flexibility Score: inf
ROOT
ATOM      1  C   UNL A   1      33.096  36.715  32.288  1.00  0.00     0.188 C 
ENDROOT
BRANCH   1   2
ATOM      2  C   UNL A   1      33.112  36.710  30.765  1.00  0.00     0.188 C 
BRANCH   2   3
ATOM      3  O   UNL A   1      32.909  35.388  30.264  1.00  0.00    -0.376 OA
BRANCH   3   4
ATOM      4  C   UNL A   1      33.871  35.019  29.279  1.00  0.00     0.202 C 
BRANCH   4   5
ATOM      5  C   UNL A   1      34.050  33.513  29.226  1.00  0.00     0.261 C 
BRANCH   5   6
ATOM      6  O   UNL A   1      35.322  33.092  29.743  1.00  0.00    -0.460 OA
BRANCH   6   7
ATOM      7  C   UNL A   1      36.260  32.939  28.774  1.00  0.00     0.338 C 
ATOM      8  O   UNL A   1      36.749  33.803  28.090  1.00  0.00    -0.246 OA
BRANCH   7   9
ATOM      9  C   UNL A   1      36.904  31.608  28.887  1.00  0.00     0.065 A 
ATOM     10  C   UNL A   1      38.736  32.280  30.514  1.00  0.00     0.047 C 
ATOM     11  C   UNL A   1      38.024  31.248  29.676  1.00  0.00    -0.013 A 
ATOM     12  C   UNL A   1      38.452  29.893  29.636  1.00  0.00     0.045 A 
ATOM     13  C   UNL A   1      37.709  28.962  28.895  1.00  0.00     0.026 A 
ATOM     14  C   UNL A   1      36.254  30.666  28.074  1.00  0.00     0.016 A 
ATOM     15  C   UNL A   1      36.647  29.344  28.087  1.00  0.00     0.003 A 
BRANCH  12  16
ATOM     16  N   UNL A   1      39.612  29.472  30.337  1.00  0.00    -0.322 N 
ATOM     17  C   UNL A   1      40.665  28.644  29.963  1.00  0.00     0.255 C 
ATOM     18  H   UNL A   1      39.683  29.830  31.251  1.00  0.00     0.170 HD
ATOM     19  O   UNL A   1      41.435  28.222  30.826  1.00  0.00    -0.269 OA
BRANCH  17  20
ATOM     20  C   UNL A   1      40.979  28.332  28.537  1.00  0.00     0.040 A 
ATOM     21  C   UNL A   1      41.372  29.318  27.641  1.00  0.00     0.014 A 
ATOM     22  C   UNL A   1      40.792  27.038  28.054  1.00  0.00     0.022 A 
ATOM     23  C   UNL A   1      41.653  28.971  26.312  1.00  0.00     0.001 A 
ATOM     24  C   UNL A   1      41.059  26.654  26.728  1.00  0.00    -0.010 A 
ATOM     25  C   UNL A   1      41.511  27.650  25.863  1.00  0.00     0.009 A 
BRANCH  24  26
ATOM     26  C   UNL A   1      40.825  25.275  26.186  1.00  0.00     0.068 A 
ATOM     27  C   UNL A   1      41.808  24.484  25.694  1.00  0.00     0.028 A 
ATOM     28  C   UNL A   1      39.953  24.382  27.030  1.00  0.00     0.344 A 
ATOM     29  C   UNL A   1      42.692  24.102  26.810  1.00  0.00     0.018 A 
ATOM     30  O   UNL A   1      40.653  23.717  28.055  1.00  0.00    -0.422 OA
ATOM     31  O   UNL A   1      38.752  24.256  26.843  1.00  0.00    -0.246 OA
ATOM     32  C   UNL A   1      44.047  24.365  26.778  1.00  0.00     0.012 A 
ATOM     33  C   UNL A   1      42.066  23.788  28.026  1.00  0.00     0.138 A 
ATOM     34  C   UNL A   1      44.764  24.325  27.975  1.00  0.00     0.001 A 
ATOM     35  C   UNL A   1      42.779  23.730  29.218  1.00  0.00     0.048 A 
ATOM     36  C   UNL A   1      44.141  24.016  29.187  1.00  0.00     0.004 A 
ENDBRANCH  24  26
ENDBRANCH  17  20
ENDBRANCH  12  16
ENDBRANCH   7   9
ENDBRANCH   6   7
ENDBRANCH   5   6
ENDBRANCH   4   5
ENDBRANCH   3   4
ENDBRANCH   2   3
ENDBRANCH   1   2
BRANCH   1  37
ATOM     37  O   UNL A   1      34.400  36.568  32.838  1.00  0.00    -0.377 OA
BRANCH  37  38
ATOM     38  C   UNL A   1      34.923  35.256  33.021  1.00  0.00     0.188 C 
BRANCH  38  39
ATOM     39  C   UNL A   1      33.938  34.116  33.222  1.00  0.00     0.188 C 
BRANCH  39  40
ATOM     40  O   UNL A   1      34.707  33.007  33.666  1.00  0.00    -0.376 OA
BRANCH  40  41
ATOM     41  C   UNL A   1      35.897  33.300  34.377  1.00  0.00     0.202 C 
BRANCH  41  42
ATOM     42  C   UNL A   1      36.981  32.317  33.967  1.00  0.00     0.261 C 
BRANCH  42  43
ATOM     43  O   UNL A   1      37.802  32.056  35.131  1.00  0.00    -0.460 OA
BRANCH  43  44
ATOM     44  C   UNL A   1      38.954  32.782  35.191  1.00  0.00     0.338 C 
ATOM     45  O   UNL A   1      39.011  34.001  35.158  1.00  0.00    -0.246 OA
BRANCH  44  46
ATOM     46  C   UNL A   1      40.159  31.909  35.014  1.00  0.00     0.060 A 
ATOM     47  C   UNL A   1      41.431  32.431  35.303  1.00  0.00     0.016 A 
ATOM     48  C   UNL A   1      40.059  30.759  34.237  1.00  0.00     0.016 A 
ATOM     49  C   UNL A   1      42.576  31.916  34.669  1.00  0.00     0.010 A 
ATOM     50  C   UNL A   1      41.167  30.347  33.513  1.00  0.00     0.010 A 
ATOM     51  C   UNL A   1      42.431  30.938  33.683  1.00  0.00    -0.014 A 
BRANCH  51  52
ATOM     52  C   UNL A   1      43.435  30.613  32.640  1.00  0.00     0.031 A 
ATOM     53  C   UNL A   1      43.420  31.373  31.341  1.00  0.00     0.074 A 
ATOM     54  C   UNL A   1      44.536  29.906  33.014  1.00  0.00     0.049 A 
ATOM     55  N   UNL A   1      44.332  31.313  30.429  1.00  0.00    -0.248 NA
ATOM     56  C   UNL A   1      42.361  32.313  30.966  1.00  0.00     0.031 C 
ATOM     57  C   UNL A   1      45.885  29.976  32.451  1.00  0.00     0.029 A 
ATOM     58  N   UNL A   1      44.718  28.997  34.044  1.00  0.00    -0.354 N 
ATOM     59  C   UNL A   1      44.157  32.358  29.536  1.00  0.00     0.074 A 
ATOM     60  C   UNL A   1      42.876  32.913  29.884  1.00  0.00     0.031 C 
ATOM     61  C   UNL A   1      46.713  29.125  33.071  1.00  0.00     0.029 A 
ATOM     62  C   UNL A   1      45.883  28.254  33.847  1.00  0.00     0.049 A 
ATOM     63  H   UNL A   1      44.109  28.890  34.810  1.00  0.00     0.167 HD
ATOM     64  C   UNL A   1      45.177  32.690  28.681  1.00  0.00     0.037 A 
ATOM     65  C   UNL A   1      45.822  26.923  33.546  1.00  0.00     0.037 A 
ATOM     66  C   UNL A   1      46.220  31.643  28.671  1.00  0.00     0.049 A 
ATOM     67  C   UNL A   1      46.139  26.681  32.067  1.00  0.00     0.074 A 
ATOM     68  C   UNL A   1      47.598  31.629  28.794  1.00  0.00     0.029 A 
ATOM     69  N   UNL A   1      45.838  30.299  28.683  1.00  0.00    -0.354 N 
ATOM     70  N   UNL A   1      45.891  27.568  31.122  1.00  0.00    -0.248 NA
ATOM     71  C   UNL A   1      46.976  25.585  31.571  1.00  0.00     0.031 C 
ATOM     72  C   UNL A   1      47.998  30.300  29.124  1.00  0.00     0.029 A 
ATOM     73  C   UNL A   1      46.886  29.473  29.022  1.00  0.00     0.049 A 
ATOM     74  H   UNL A   1      44.930  29.980  28.473  1.00  0.00     0.167 HD
ATOM     75  C   UNL A   1      46.589  27.245  29.986  1.00  0.00     0.074 A 
ATOM     76  C   UNL A   1      47.219  25.974  30.305  1.00  0.00     0.031 C 
ATOM     77  C   UNL A   1      46.753  28.033  28.879  1.00  0.00     0.037 A 
BRANCH  64  78
ATOM     78  C   UNL A   1      45.355  34.041  27.972  1.00  0.00     0.057 A 
ATOM     79  C   UNL A   1      46.200  35.039  28.514  1.00  0.00     0.134 A 
ATOM     80  C   UNL A   1      44.640  34.479  26.836  1.00  0.00     0.134 A 
ATOM     81  F   UNL A   1      46.975  34.793  29.578  1.00  0.00    -0.206 F 
ATOM     82  C   UNL A   1      46.301  36.344  27.997  1.00  0.00     0.040 A 
ATOM     83  C   UNL A   1      44.780  35.764  26.271  1.00  0.00     0.040 A 
ATOM     84  F   UNL A   1      43.726  33.713  26.231  1.00  0.00    -0.206 F 
ATOM     85  C   UNL A   1      45.599  36.711  26.861  1.00  0.00     0.006 A 
ENDBRANCH  64  78
BRANCH  65  86
ATOM     86  C   UNL A   1      45.046  26.202  34.609  1.00  0.00     0.057 A 
ATOM     87  C   UNL A   1      44.097  25.311  34.053  1.00  0.00     0.134 A 
ATOM     88  C   UNL A   1      45.707  25.750  35.763  1.00  0.00     0.134 A 
ATOM     89  F   UNL A   1      43.386  25.686  32.976  1.00  0.00    -0.206 F 
ATOM     90  C   UNL A   1      44.074  23.952  34.392  1.00  0.00     0.040 A 
ATOM     91  C   UNL A   1      45.654  24.394  36.140  1.00  0.00     0.040 A 
ATOM     92  F   UNL A   1      46.593  26.535  36.390  1.00  0.00    -0.206 F 
ATOM     93  C   UNL A   1      44.904  23.477  35.402  1.00  0.00     0.006 A 
ENDBRANCH  65  86
BRANCH  77  94
ATOM     94  C   UNL A   1      46.789  27.484  27.465  1.00  0.00     0.057 A 
ATOM     95  C   UNL A   1      45.678  27.518  26.613  1.00  0.00     0.134 A 
ATOM     96  C   UNL A   1      48.014  27.149  26.832  1.00  0.00     0.134 A 
ATOM     97  F   UNL A   1      44.470  27.907  27.045  1.00  0.00    -0.206 F 
ATOM     98  C   UNL A   1      45.767  27.214  25.251  1.00  0.00     0.040 A 
ATOM     99  C   UNL A   1      48.123  26.897  25.464  1.00  0.00     0.040 A 
ATOM    100  F   UNL A   1      49.178  27.096  27.493  1.00  0.00    -0.206 F 
ATOM    101  C   UNL A   1      46.993  26.919  24.668  1.00  0.00     0.006 A 
ENDBRANCH  77  94
ENDBRANCH  51  52
ENDBRANCH  44  46
ENDBRANCH  43  44
ENDBRANCH  42  43
ENDBRANCH  41  42
ENDBRANCH  40  41
ENDBRANCH  39  40
ENDBRANCH  38  39
ENDBRANCH  37  38
ENDBRANCH   1  37
TORSDOF 23
ENDMDL
