MODEL 1
REMARK VINA RESULT:      -9.8      0.000      0.000
REMARK SMILES O=C1C[C@@H](C(=O)OCCOCCOCCOCCOC(=O)c2ccc(-c3c4nc(c(-c5c(F)cccc5F)c5ccc([nH]5)c(-c5c(F)cccc5F)c5nc(c(-c6c(F)cccc6F)c6ccc3[nH]6)C=C5)C=C4)cc2)C2(CC[NH+](Cc3c[nH]nc3-c3ccc(Cl)cc3)CC2)N1
REMARK SMILES IDX 12 1 11 2 10 3 9 4 8 5 7 6 5 7 6 8 4 9 1 10 2 11 3 12 95 13
REMARK SMILES IDX 76 14 77 16 94 17 78 18 93 19 79 20 80 22 81 23 82 24 85 25
REMARK SMILES IDX 83 26 84 27 86 29 87 30 92 31 88 32 91 33 89 34 90 35 13 36
REMARK SMILES IDX 14 37 15 38 16 39 17 40 18 41 19 42 20 43 21 44 22 45 23 46
REMARK SMILES IDX 75 47 24 48 74 49 25 50 26 51 27 52 68 53 28 54 73 55 67 56
REMARK SMILES IDX 69 57 29 58 72 59 66 60 65 61 30 63 56 64 39 65 55 66 40 67
REMARK SMILES IDX 43 68 54 69 70 70 41 71 42 72 53 74 71 75 44 76 31 77 32 78
REMARK SMILES IDX 37 79 33 80 34 81 36 82 38 83 35 84 57 85 58 86 63 87 59 88
REMARK SMILES IDX 60 89 62 90 64 91 61 92 45 93 46 94 51 95 47 96 48 97 50 98
REMARK SMILES IDX 52 99 49 100
REMARK H PARENT 95 15 79 21 83 28 69 62 43 73
REMARK Flexibility Score: inf
ROOT
ATOM      1  C   UNL A   1      32.511  29.179  26.833  1.00  0.00     0.188 C 
ENDROOT
BRANCH   1   2
ATOM      2  C   UNL A   1      32.935  27.937  26.056  1.00  0.00     0.188 C 
BRANCH   2   3
ATOM      3  O   UNL A   1      32.302  26.710  26.352  1.00  0.00    -0.376 OA
BRANCH   3   4
ATOM      4  C   UNL A   1      32.495  25.594  25.486  1.00  0.00     0.202 C 
BRANCH   4   5
ATOM      5  C   UNL A   1      32.820  25.768  23.986  1.00  0.00     0.261 C 
BRANCH   5   6
ATOM      6  O   UNL A   1      34.064  25.193  23.489  1.00  0.00    -0.463 OA
BRANCH   6   7
ATOM      7  C   UNL A   1      33.943  24.004  22.863  1.00  0.00     0.311 C 
ATOM      8  O   UNL A   1      33.347  23.868  21.793  1.00  0.00    -0.252 OA
BRANCH   7   9
ATOM      9  C   UNL A   1      34.476  22.756  23.554  1.00  0.00     0.134 C 
ATOM     10  O   UNL A   1      31.849  21.601  25.673  1.00  0.00    -0.275 OA
ATOM     11  C   UNL A   1      32.888  21.926  25.144  1.00  0.00     0.221 C 
ATOM     12  C   UNL A   1      33.221  21.847  23.679  1.00  0.00     0.117 C 
ATOM     13  N   UNL A   1      34.002  22.381  25.800  1.00  0.00    -0.349 N 
ATOM     14  C   UNL A   1      35.160  22.587  24.939  1.00  0.00     0.064 C 
ATOM     15  H   UNL A   1      34.019  22.554  26.769  1.00  0.00     0.164 HD
ATOM     16  C   UNL A   1      36.000  23.699  25.566  1.00  0.00     0.091 C 
ATOM     17  C   UNL A   1      35.982  21.252  24.918  1.00  0.00     0.091 C 
ATOM     18  C   UNL A   1      37.473  23.725  25.177  1.00  0.00     0.264 C 
ATOM     19  C   UNL A   1      37.479  21.383  24.611  1.00  0.00     0.264 C 
ATOM     20  N   UNL A   1      38.169  22.460  25.296  1.00  0.00    -0.331 N 
ATOM     21  H   UNL A   1      39.026  22.577  24.756  1.00  0.00     0.348 HD
BRANCH  20  22
ATOM     22  C   UNL A   1      38.875  22.173  26.552  1.00  0.00     0.303 C 
BRANCH  22  23
ATOM     23  C   UNL A   1      40.351  22.379  26.482  1.00  0.00     0.052 A 
ATOM     24  C   UNL A   1      41.260  21.447  26.014  1.00  0.00     0.115 A 
ATOM     25  C   UNL A   1      41.160  23.550  26.716  1.00  0.00     0.101 A 
ATOM     26  N   UNL A   1      42.493  21.964  26.224  1.00  0.00    -0.285 N 
ATOM     27  N   UNL A   1      42.466  23.231  26.632  1.00  0.00    -0.175 NA
ATOM     28  H   UNL A   1      43.325  21.456  26.088  1.00  0.00     0.189 HD
BRANCH  25  29
ATOM     29  C   UNL A   1      40.810  24.960  26.954  1.00  0.00     0.003 A 
ATOM     30  C   UNL A   1      40.063  25.278  28.107  1.00  0.00     0.012 A 
ATOM     31  C   UNL A   1      41.174  26.008  26.107  1.00  0.00     0.012 A 
ATOM     32  C   UNL A   1      39.682  26.591  28.401  1.00  0.00     0.021 A 
ATOM     33  C   UNL A   1      40.816  27.329  26.415  1.00  0.00     0.021 A 
ATOM     34  C   UNL A   1      40.059  27.614  27.547  1.00  0.00     0.041 A 
ATOM     35  Cl  UNL A   1      39.561  29.229  27.856  1.00  0.00    -0.084 Cl
ENDBRANCH  25  29
ENDBRANCH  22  23
ENDBRANCH  20  22
ENDBRANCH   7   9
ENDBRANCH   6   7
ENDBRANCH   5   6
ENDBRANCH   4   5
ENDBRANCH   3   4
ENDBRANCH   2   3
ENDBRANCH   1   2
BRANCH   1  36
ATOM     36  O   UNL A   1      33.356  30.303  26.696  1.00  0.00    -0.377 OA
BRANCH  36  37
ATOM     37  C   UNL A   1      33.351  31.353  27.654  1.00  0.00     0.188 C 
BRANCH  37  38
ATOM     38  C   UNL A   1      34.515  32.346  27.672  1.00  0.00     0.188 C 
BRANCH  38  39
ATOM     39  O   UNL A   1      34.216  33.686  28.064  1.00  0.00    -0.376 OA
BRANCH  39  40
ATOM     40  C   UNL A   1      34.955  34.245  29.146  1.00  0.00     0.202 C 
BRANCH  40  41
ATOM     41  C   UNL A   1      34.244  34.215  30.494  1.00  0.00     0.261 C 
BRANCH  41  42
ATOM     42  O   UNL A   1      34.203  32.876  31.028  1.00  0.00    -0.460 OA
BRANCH  42  43
ATOM     43  C   UNL A   1      34.901  32.686  32.170  1.00  0.00     0.338 C 
ATOM     44  O   UNL A   1      34.497  32.846  33.310  1.00  0.00    -0.246 OA
BRANCH  43  45
ATOM     45  C   UNL A   1      36.225  32.103  31.884  1.00  0.00     0.060 A 
ATOM     46  C   UNL A   1      37.246  32.356  32.808  1.00  0.00     0.016 A 
ATOM     47  C   UNL A   1      36.508  31.458  30.678  1.00  0.00     0.016 A 
ATOM     48  C   UNL A   1      38.565  32.055  32.485  1.00  0.00     0.010 A 
ATOM     49  C   UNL A   1      37.834  31.153  30.353  1.00  0.00     0.010 A 
ATOM     50  C   UNL A   1      38.869  31.510  31.230  1.00  0.00    -0.014 A 
BRANCH  50  51
ATOM     51  C   UNL A   1      40.281  31.474  30.787  1.00  0.00     0.031 A 
ATOM     52  C   UNL A   1      40.915  32.732  30.258  1.00  0.00     0.074 A 
ATOM     53  C   UNL A   1      40.994  30.341  30.896  1.00  0.00     0.049 A 
ATOM     54  N   UNL A   1      42.148  32.945  29.877  1.00  0.00    -0.248 NA
ATOM     55  C   UNL A   1      40.038  33.911  30.138  1.00  0.00     0.031 C 
ATOM     56  C   UNL A   1      40.475  29.068  31.390  1.00  0.00     0.029 A 
ATOM     57  N   UNL A   1      42.304  30.082  30.593  1.00  0.00    -0.354 N 
ATOM     58  C   UNL A   1      42.196  34.275  29.475  1.00  0.00     0.074 A 
ATOM     59  C   UNL A   1      40.861  34.810  29.618  1.00  0.00     0.031 C 
ATOM     60  C   UNL A   1      41.459  28.153  31.349  1.00  0.00     0.029 A 
ATOM     61  C   UNL A   1      42.666  28.775  30.810  1.00  0.00     0.049 A 
ATOM     62  H   UNL A   1      42.926  30.764  30.254  1.00  0.00     0.167 HD
ATOM     63  C   UNL A   1      43.263  34.985  29.034  1.00  0.00     0.037 A 
ATOM     64  C   UNL A   1      43.839  28.153  30.586  1.00  0.00     0.037 A 
ATOM     65  C   UNL A   1      44.585  34.434  28.887  1.00  0.00     0.049 A 
ATOM     66  C   UNL A   1      45.001  28.953  30.068  1.00  0.00     0.074 A 
ATOM     67  C   UNL A   1      45.749  35.071  28.497  1.00  0.00     0.029 A 
ATOM     68  N   UNL A   1      44.912  33.102  29.107  1.00  0.00    -0.354 N 
ATOM     69  N   UNL A   1      45.058  30.228  29.763  1.00  0.00    -0.248 NA
ATOM     70  C   UNL A   1      46.268  28.234  29.877  1.00  0.00     0.031 C 
ATOM     71  C   UNL A   1      46.766  34.114  28.418  1.00  0.00     0.029 A 
ATOM     72  C   UNL A   1      46.252  32.892  28.825  1.00  0.00     0.049 A 
ATOM     73  H   UNL A   1      44.286  32.411  29.418  1.00  0.00     0.167 HD
ATOM     74  C   UNL A   1      46.368  30.470  29.368  1.00  0.00     0.074 A 
ATOM     75  C   UNL A   1      47.076  29.212  29.489  1.00  0.00     0.031 C 
ATOM     76  C   UNL A   1      46.935  31.627  28.945  1.00  0.00     0.037 A 
BRANCH  63  77
ATOM     77  C   UNL A   1      43.036  36.422  28.657  1.00  0.00     0.057 A 
ATOM     78  C   UNL A   1      42.503  36.793  27.415  1.00  0.00     0.134 A 
ATOM     79  C   UNL A   1      43.330  37.451  29.562  1.00  0.00     0.134 A 
ATOM     80  F   UNL A   1      42.208  35.861  26.496  1.00  0.00    -0.206 F 
ATOM     81  C   UNL A   1      42.298  38.133  27.076  1.00  0.00     0.040 A 
ATOM     82  C   UNL A   1      43.102  38.792  29.246  1.00  0.00     0.040 A 
ATOM     83  F   UNL A   1      43.836  37.170  30.773  1.00  0.00    -0.206 F 
ATOM     84  C   UNL A   1      42.592  39.137  27.997  1.00  0.00     0.006 A 
ENDBRANCH  63  77
BRANCH  64  85
ATOM     85  C   UNL A   1      43.960  26.699  30.858  1.00  0.00     0.057 A 
ATOM     86  C   UNL A   1      43.750  25.746  29.856  1.00  0.00     0.134 A 
ATOM     87  C   UNL A   1      44.311  26.228  32.131  1.00  0.00     0.134 A 
ATOM     88  F   UNL A   1      43.396  26.133  28.621  1.00  0.00    -0.206 F 
ATOM     89  C   UNL A   1      43.873  24.379  30.109  1.00  0.00     0.040 A 
ATOM     90  C   UNL A   1      44.466  24.866  32.391  1.00  0.00     0.040 A 
ATOM     91  F   UNL A   1      44.533  27.091  33.134  1.00  0.00    -0.206 F 
ATOM     92  C   UNL A   1      44.241  23.937  31.379  1.00  0.00     0.006 A 
ENDBRANCH  64  85
BRANCH  76  93
ATOM     93  C   UNL A   1      48.398  31.589  28.606  1.00  0.00     0.057 A 
ATOM     94  C   UNL A   1      49.390  31.762  29.579  1.00  0.00     0.134 A 
ATOM     95  C   UNL A   1      48.817  31.336  27.292  1.00  0.00     0.134 A 
ATOM     96  F   UNL A   1      49.056  32.019  30.853  1.00  0.00    -0.206 F 
ATOM     97  C   UNL A   1      50.746  31.713  29.253  1.00  0.00     0.040 A 
ATOM     98  C   UNL A   1      50.170  31.253  26.961  1.00  0.00     0.040 A 
ATOM     99  F   UNL A   1      47.918  31.148  26.314  1.00  0.00    -0.206 F 
ATOM    100  C   UNL A   1      51.139  31.451  27.942  1.00  0.00     0.006 A 
ENDBRANCH  76  93
ENDBRANCH  50  51
ENDBRANCH  43  45
ENDBRANCH  42  43
ENDBRANCH  41  42
ENDBRANCH  40  41
ENDBRANCH  39  40
ENDBRANCH  38  39
ENDBRANCH  37  38
ENDBRANCH  36  37
ENDBRANCH   1  36
TORSDOF 23
ENDMDL
MODEL 2
REMARK VINA RESULT:      -8.9      4.390      6.284
REMARK SMILES O=C1C[C@@H](C(=O)OCCOCCOCCOCCOC(=O)c2ccc(-c3c4nc(c(-c5c(F)cccc5F)c5ccc([nH]5)c(-c5c(F)cccc5F)c5nc(c(-c6c(F)cccc6F)c6ccc3[nH]6)C=C5)C=C4)cc2)C2(CC[NH+](Cc3c[nH]nc3-c3ccc(Cl)cc3)CC2)N1
REMARK SMILES IDX 12 1 11 2 10 3 9 4 8 5 7 6 5 7 6 8 4 9 1 10 2 11 3 12 95 13
REMARK SMILES IDX 76 14 77 16 94 17 78 18 93 19 79 20 80 22 81 23 82 24 85 25
REMARK SMILES IDX 83 26 84 27 86 29 87 30 92 31 88 32 91 33 89 34 90 35 13 36
REMARK SMILES IDX 14 37 15 38 16 39 17 40 18 41 19 42 20 43 21 44 22 45 23 46
REMARK SMILES IDX 75 47 24 48 74 49 25 50 26 51 27 52 68 53 28 54 73 55 67 56
REMARK SMILES IDX 69 57 29 58 72 59 66 60 65 61 30 63 56 64 39 65 55 66 40 67
REMARK SMILES IDX 43 68 54 69 70 70 41 71 42 72 53 74 71 75 44 76 31 77 32 78
REMARK SMILES IDX 37 79 33 80 34 81 36 82 38 83 35 84 57 85 58 86 63 87 59 88
REMARK SMILES IDX 60 89 62 90 64 91 61 92 45 93 46 94 51 95 47 96 48 97 50 98
REMARK SMILES IDX 52 99 49 100
REMARK H PARENT 95 15 79 21 83 28 69 62 43 73
REMARK Flexibility Score: inf
ROOT
ATOM      1  C   UNL A   1      31.941  28.286  27.159  1.00  0.00     0.188 C 
ENDROOT
BRANCH   1   2
ATOM      2  C   UNL A   1      32.189  27.067  26.276  1.00  0.00     0.188 C 
BRANCH   2   3
ATOM      3  O   UNL A   1      31.472  26.958  25.064  1.00  0.00    -0.376 OA
BRANCH   3   4
ATOM      4  C   UNL A   1      32.179  26.999  23.827  1.00  0.00     0.202 C 
BRANCH   4   5
ATOM      5  C   UNL A   1      33.245  25.944  23.455  1.00  0.00     0.261 C 
BRANCH   5   6
ATOM      6  O   UNL A   1      32.887  24.538  23.595  1.00  0.00    -0.463 OA
BRANCH   6   7
ATOM      7  C   UNL A   1      33.596  23.681  22.833  1.00  0.00     0.311 C 
ATOM      8  O   UNL A   1      33.654  23.767  21.604  1.00  0.00    -0.252 OA
BRANCH   7   9
ATOM      9  C   UNL A   1      34.275  22.495  23.504  1.00  0.00     0.134 C 
ATOM     10  O   UNL A   1      31.787  20.960  25.549  1.00  0.00    -0.275 OA
ATOM     11  C   UNL A   1      32.783  21.429  25.046  1.00  0.00     0.221 C 
ATOM     12  C   UNL A   1      33.145  21.430  23.586  1.00  0.00     0.117 C 
ATOM     13  N   UNL A   1      33.820  22.006  25.732  1.00  0.00    -0.349 N 
ATOM     14  C   UNL A   1      34.954  22.380  24.897  1.00  0.00     0.064 C 
ATOM     15  H   UNL A   1      33.801  22.156  26.705  1.00  0.00     0.164 HD
ATOM     16  C   UNL A   1      35.635  23.575  25.564  1.00  0.00     0.091 C 
ATOM     17  C   UNL A   1      35.941  21.162  24.860  1.00  0.00     0.091 C 
ATOM     18  C   UNL A   1      37.099  23.799  25.202  1.00  0.00     0.264 C 
ATOM     19  C   UNL A   1      37.413  21.491  24.582  1.00  0.00     0.264 C 
ATOM     20  N   UNL A   1      37.949  22.630  25.304  1.00  0.00    -0.331 N 
ATOM     21  H   UNL A   1      38.792  22.869  24.782  1.00  0.00     0.348 HD
BRANCH  20  22
ATOM     22  C   UNL A   1      38.668  22.404  26.565  1.00  0.00     0.303 C 
BRANCH  22  23
ATOM     23  C   UNL A   1      40.145  22.597  26.468  1.00  0.00     0.052 A 
ATOM     24  C   UNL A   1      41.031  21.674  25.942  1.00  0.00     0.115 A 
ATOM     25  C   UNL A   1      40.973  23.748  26.728  1.00  0.00     0.101 A 
ATOM     26  N   UNL A   1      42.275  22.168  26.143  1.00  0.00    -0.285 N 
ATOM     27  N   UNL A   1      42.273  23.418  26.600  1.00  0.00    -0.175 NA
ATOM     28  H   UNL A   1      43.097  21.655  25.968  1.00  0.00     0.189 HD
BRANCH  25  29
ATOM     29  C   UNL A   1      40.646  25.152  27.028  1.00  0.00     0.003 A 
ATOM     30  C   UNL A   1      39.900  25.430  28.192  1.00  0.00     0.012 A 
ATOM     31  C   UNL A   1      41.031  26.230  26.231  1.00  0.00     0.012 A 
ATOM     32  C   UNL A   1      39.540  26.735  28.544  1.00  0.00     0.021 A 
ATOM     33  C   UNL A   1      40.695  27.542  26.597  1.00  0.00     0.021 A 
ATOM     34  C   UNL A   1      39.938  27.789  27.738  1.00  0.00     0.041 A 
ATOM     35  Cl  UNL A   1      39.466  29.397  28.118  1.00  0.00    -0.084 Cl
ENDBRANCH  25  29
ENDBRANCH  22  23
ENDBRANCH  20  22
ENDBRANCH   7   9
ENDBRANCH   6   7
ENDBRANCH   5   6
ENDBRANCH   4   5
ENDBRANCH   3   4
ENDBRANCH   2   3
ENDBRANCH   1   2
BRANCH   1  36
ATOM     36  O   UNL A   1      31.653  29.488  26.474  1.00  0.00    -0.377 OA
BRANCH  36  37
ATOM     37  C   UNL A   1      32.406  30.671  26.706  1.00  0.00     0.188 C 
BRANCH  37  38
ATOM     38  C   UNL A   1      33.808  30.553  27.307  1.00  0.00     0.188 C 
BRANCH  38  39
ATOM     39  O   UNL A   1      34.147  31.473  28.344  1.00  0.00    -0.376 OA
BRANCH  39  40
ATOM     40  C   UNL A   1      34.739  32.713  27.968  1.00  0.00     0.202 C 
BRANCH  40  41
ATOM     41  C   UNL A   1      34.916  33.713  29.105  1.00  0.00     0.261 C 
BRANCH  41  42
ATOM     42  O   UNL A   1      34.097  33.358  30.238  1.00  0.00    -0.460 OA
BRANCH  42  43
ATOM     43  C   UNL A   1      34.078  34.259  31.245  1.00  0.00     0.338 C 
ATOM     44  O   UNL A   1      33.267  35.156  31.410  1.00  0.00    -0.246 OA
BRANCH  43  45
ATOM     45  C   UNL A   1      35.111  33.946  32.249  1.00  0.00     0.060 A 
ATOM     46  C   UNL A   1      36.149  34.873  32.407  1.00  0.00     0.016 A 
ATOM     47  C   UNL A   1      35.156  32.717  32.911  1.00  0.00     0.016 A 
ATOM     48  C   UNL A   1      37.278  34.531  33.145  1.00  0.00     0.010 A 
ATOM     49  C   UNL A   1      36.289  32.374  33.655  1.00  0.00     0.010 A 
ATOM     50  C   UNL A   1      37.378  33.257  33.719  1.00  0.00    -0.014 A 
BRANCH  50  51
ATOM     51  C   UNL A   1      38.688  32.805  34.239  1.00  0.00     0.031 A 
ATOM     52  C   UNL A   1      39.065  33.132  35.658  1.00  0.00     0.074 A 
ATOM     53  C   UNL A   1      39.507  32.079  33.462  1.00  0.00     0.049 A 
ATOM     54  N   UNL A   1      40.128  32.784  36.337  1.00  0.00    -0.248 NA
ATOM     55  C   UNL A   1      38.117  33.969  36.415  1.00  0.00     0.031 C 
ATOM     56  C   UNL A   1      39.240  31.712  32.073  1.00  0.00     0.029 A 
ATOM     57  N   UNL A   1      40.731  31.526  33.732  1.00  0.00    -0.354 N 
ATOM     58  C   UNL A   1      39.977  33.355  37.595  1.00  0.00     0.074 A 
ATOM     59  C   UNL A   1      38.742  34.107  37.575  1.00  0.00     0.031 C 
ATOM     60  C   UNL A   1      40.278  30.998  31.606  1.00  0.00     0.029 A 
ATOM     61  C   UNL A   1      41.285  30.876  32.657  1.00  0.00     0.049 A 
ATOM     62  H   UNL A   1      41.171  31.588  34.610  1.00  0.00     0.167 HD
ATOM     63  C   UNL A   1      40.794  33.253  38.672  1.00  0.00     0.037 A 
ATOM     64  C   UNL A   1      42.478  30.262  32.537  1.00  0.00     0.037 A 
ATOM     65  C   UNL A   1      42.026  32.508  38.673  1.00  0.00     0.049 A 
ATOM     66  C   UNL A   1      43.382  30.185  33.736  1.00  0.00     0.074 A 
ATOM     67  C   UNL A   1      42.907  32.295  39.718  1.00  0.00     0.029 A 
ATOM     68  N   UNL A   1      42.561  31.869  37.562  1.00  0.00    -0.354 N 
ATOM     69  N   UNL A   1      43.197  30.662  34.944  1.00  0.00    -0.248 NA
ATOM     70  C   UNL A   1      44.654  29.471  33.561  1.00  0.00     0.031 C 
ATOM     71  C   UNL A   1      44.006  31.583  39.225  1.00  0.00     0.029 A 
ATOM     72  C   UNL A   1      43.778  31.294  37.887  1.00  0.00     0.049 A 
ATOM     73  H   UNL A   1      42.138  31.830  36.675  1.00  0.00     0.167 HD
ATOM     74  C   UNL A   1      44.315  30.289  35.680  1.00  0.00     0.074 A 
ATOM     75  C   UNL A   1      45.164  29.529  34.784  1.00  0.00     0.031 C 
ATOM     76  C   UNL A   1      44.612  30.547  36.977  1.00  0.00     0.037 A 
BRANCH  63  77
ATOM     77  C   UNL A   1      40.393  33.982  39.924  1.00  0.00     0.057 A 
ATOM     78  C   UNL A   1      40.801  35.298  40.185  1.00  0.00     0.134 A 
ATOM     79  C   UNL A   1      39.563  33.368  40.871  1.00  0.00     0.134 A 
ATOM     80  F   UNL A   1      41.605  35.943  39.325  1.00  0.00    -0.206 F 
ATOM     81  C   UNL A   1      40.422  35.965  41.352  1.00  0.00     0.040 A 
ATOM     82  C   UNL A   1      39.153  34.034  42.028  1.00  0.00     0.040 A 
ATOM     83  F   UNL A   1      39.128  32.112  40.685  1.00  0.00    -0.206 F 
ATOM     84  C   UNL A   1      39.590  35.334  42.275  1.00  0.00     0.006 A 
ENDBRANCH  63  77
BRANCH  64  85
ATOM     85  C   UNL A   1      42.870  29.672  31.233  1.00  0.00     0.057 A 
ATOM     86  C   UNL A   1      42.618  28.329  30.932  1.00  0.00     0.134 A 
ATOM     87  C   UNL A   1      43.489  30.448  30.244  1.00  0.00     0.134 A 
ATOM     88  F   UNL A   1      42.043  27.530  31.843  1.00  0.00    -0.206 F 
ATOM     89  C   UNL A   1      42.978  27.775  29.702  1.00  0.00     0.040 A 
ATOM     90  C   UNL A   1      43.828  29.916  29.000  1.00  0.00     0.040 A 
ATOM     91  F   UNL A   1      43.751  31.745  30.467  1.00  0.00    -0.206 F 
ATOM     92  C   UNL A   1      43.577  28.573  28.729  1.00  0.00     0.006 A 
ENDBRANCH  64  85
BRANCH  76  93
ATOM     93  C   UNL A   1      45.898  29.983  37.511  1.00  0.00     0.057 A 
ATOM     94  C   UNL A   1      47.091  30.717  37.497  1.00  0.00     0.134 A 
ATOM     95  C   UNL A   1      45.931  28.704  38.081  1.00  0.00     0.134 A 
ATOM     96  F   UNL A   1      47.129  31.943  36.956  1.00  0.00    -0.206 F 
ATOM     97  C   UNL A   1      48.278  30.187  38.006  1.00  0.00     0.040 A 
ATOM     98  C   UNL A   1      47.105  28.176  38.621  1.00  0.00     0.040 A 
ATOM     99  F   UNL A   1      44.821  27.952  38.138  1.00  0.00    -0.206 F 
ATOM    100  C   UNL A   1      48.284  28.915  38.577  1.00  0.00     0.006 A 
ENDBRANCH  76  93
ENDBRANCH  50  51
ENDBRANCH  43  45
ENDBRANCH  42  43
ENDBRANCH  41  42
ENDBRANCH  40  41
ENDBRANCH  39  40
ENDBRANCH  38  39
ENDBRANCH  37  38
ENDBRANCH  36  37
ENDBRANCH   1  36
TORSDOF 23
ENDMDL
MODEL 3
REMARK VINA RESULT:      -8.9      3.806      6.547
REMARK SMILES O=C1C[C@@H](C(=O)OCCOCCOCCOCCOC(=O)c2ccc(-c3c4nc(c(-c5c(F)cccc5F)c5ccc([nH]5)c(-c5c(F)cccc5F)c5nc(c(-c6c(F)cccc6F)c6ccc3[nH]6)C=C5)C=C4)cc2)C2(CC[NH+](Cc3c[nH]nc3-c3ccc(Cl)cc3)CC2)N1
REMARK SMILES IDX 12 1 11 2 10 3 9 4 8 5 7 6 5 7 6 8 4 9 1 10 2 11 3 12 95 13
REMARK SMILES IDX 76 14 77 16 94 17 78 18 93 19 79 20 80 22 81 23 82 24 85 25
REMARK SMILES IDX 83 26 84 27 86 29 87 30 92 31 88 32 91 33 89 34 90 35 13 36
REMARK SMILES IDX 14 37 15 38 16 39 17 40 18 41 19 42 20 43 21 44 22 45 23 46
REMARK SMILES IDX 75 47 24 48 74 49 25 50 26 51 27 52 68 53 28 54 73 55 67 56
REMARK SMILES IDX 69 57 29 58 72 59 66 60 65 61 30 63 56 64 39 65 55 66 40 67
REMARK SMILES IDX 43 68 54 69 70 70 41 71 42 72 53 74 71 75 44 76 31 77 32 78
REMARK SMILES IDX 37 79 33 80 34 81 36 82 38 83 35 84 57 85 58 86 63 87 59 88
REMARK SMILES IDX 60 89 62 90 64 91 61 92 45 93 46 94 51 95 47 96 48 97 50 98
REMARK SMILES IDX 52 99 49 100
REMARK H PARENT 95 15 79 21 83 28 69 62 43 73
REMARK Flexibility Score: inf
ROOT
ATOM      1  C   UNL A   1      32.090  28.242  27.406  1.00  0.00     0.188 C 
ENDROOT
BRANCH   1   2
ATOM      2  C   UNL A   1      31.529  27.421  26.248  1.00  0.00     0.188 C 
BRANCH   2   3
ATOM      3  O   UNL A   1      31.685  27.917  24.935  1.00  0.00    -0.376 OA
BRANCH   3   4
ATOM      4  C   UNL A   1      32.495  27.199  24.007  1.00  0.00     0.202 C 
BRANCH   4   5
ATOM      5  C   UNL A   1      32.691  25.669  24.102  1.00  0.00     0.261 C 
BRANCH   5   6
ATOM      6  O   UNL A   1      34.043  25.147  23.949  1.00  0.00    -0.463 OA
BRANCH   6   7
ATOM      7  C   UNL A   1      34.154  24.040  23.188  1.00  0.00     0.311 C 
ATOM      8  O   UNL A   1      33.786  23.995  22.012  1.00  0.00    -0.252 OA
BRANCH   7   9
ATOM      9  C   UNL A   1      34.661  22.756  23.833  1.00  0.00     0.134 C 
ATOM     10  O   UNL A   1      32.085  21.681  26.055  1.00  0.00    -0.275 OA
ATOM     11  C   UNL A   1      33.112  21.969  25.482  1.00  0.00     0.221 C 
ATOM     12  C   UNL A   1      33.373  21.903  24.003  1.00  0.00     0.117 C 
ATOM     13  N   UNL A   1      34.275  22.362  26.092  1.00  0.00    -0.349 N 
ATOM     14  C   UNL A   1      35.400  22.531  25.181  1.00  0.00     0.064 C 
ATOM     15  H   UNL A   1      34.345  22.516  27.062  1.00  0.00     0.164 HD
ATOM     16  C   UNL A   1      36.318  23.593  25.785  1.00  0.00     0.091 C 
ATOM     17  C   UNL A   1      36.158  21.162  25.100  1.00  0.00     0.091 C 
ATOM     18  C   UNL A   1      37.771  23.560  25.327  1.00  0.00     0.264 C 
ATOM     19  C   UNL A   1      37.643  21.231  24.724  1.00  0.00     0.264 C 
ATOM     20  N   UNL A   1      38.413  22.263  25.393  1.00  0.00    -0.331 N 
ATOM     21  H   UNL A   1      39.249  22.352  24.815  1.00  0.00     0.348 HD
BRANCH  20  22
ATOM     22  C   UNL A   1      39.163  21.922  26.609  1.00  0.00     0.303 C 
BRANCH  22  23
ATOM     23  C   UNL A   1      40.622  22.226  26.532  1.00  0.00     0.052 A 
ATOM     24  C   UNL A   1      41.593  21.344  26.093  1.00  0.00     0.115 A 
ATOM     25  C   UNL A   1      41.349  23.456  26.727  1.00  0.00     0.101 A 
ATOM     26  N   UNL A   1      42.788  21.950  26.285  1.00  0.00    -0.285 N 
ATOM     27  N   UNL A   1      42.674  23.225  26.651  1.00  0.00    -0.175 NA
ATOM     28  H   UNL A   1      43.653  21.495  26.165  1.00  0.00     0.189 HD
BRANCH  25  29
ATOM     29  C   UNL A   1      40.903  24.846  26.919  1.00  0.00     0.003 A 
ATOM     30  C   UNL A   1      41.348  25.824  26.004  1.00  0.00     0.012 A 
ATOM     31  C   UNL A   1      40.063  25.261  27.953  1.00  0.00     0.012 A 
ATOM     32  C   UNL A   1      40.978  27.167  26.121  1.00  0.00     0.021 A 
ATOM     33  C   UNL A   1      39.669  26.603  28.055  1.00  0.00     0.021 A 
ATOM     34  C   UNL A   1      40.140  27.553  27.153  1.00  0.00     0.041 A 
ATOM     35  Cl  UNL A   1      39.712  29.205  27.352  1.00  0.00    -0.084 Cl
ENDBRANCH  25  29
ENDBRANCH  22  23
ENDBRANCH  20  22
ENDBRANCH   7   9
ENDBRANCH   6   7
ENDBRANCH   5   6
ENDBRANCH   4   5
ENDBRANCH   3   4
ENDBRANCH   2   3
ENDBRANCH   1   2
BRANCH   1  36
ATOM     36  O   UNL A   1      32.182  29.634  27.180  1.00  0.00    -0.377 OA
BRANCH  36  37
ATOM     37  C   UNL A   1      33.440  30.287  27.087  1.00  0.00     0.188 C 
BRANCH  37  38
ATOM     38  C   UNL A   1      34.719  29.456  27.208  1.00  0.00     0.188 C 
BRANCH  38  39
ATOM     39  O   UNL A   1      35.723  29.940  28.101  1.00  0.00    -0.376 OA
BRANCH  39  40
ATOM     40  C   UNL A   1      35.655  31.305  28.504  1.00  0.00     0.202 C 
BRANCH  40  41
ATOM     41  C   UNL A   1      36.661  31.710  29.575  1.00  0.00     0.261 C 
BRANCH  41  42
ATOM     42  O   UNL A   1      37.610  30.652  29.820  1.00  0.00    -0.460 OA
BRANCH  42  43
ATOM     43  C   UNL A   1      38.434  30.844  30.875  1.00  0.00     0.338 C 
ATOM     44  O   UNL A   1      38.151  31.372  31.937  1.00  0.00    -0.246 OA
BRANCH  43  45
ATOM     45  C   UNL A   1      39.738  30.195  30.647  1.00  0.00     0.060 A 
ATOM     46  C   UNL A   1      39.842  28.839  30.980  1.00  0.00     0.016 A 
ATOM     47  C   UNL A   1      40.871  30.916  30.264  1.00  0.00     0.016 A 
ATOM     48  C   UNL A   1      41.092  28.230  31.028  1.00  0.00     0.010 A 
ATOM     49  C   UNL A   1      42.127  30.305  30.311  1.00  0.00     0.010 A 
ATOM     50  C   UNL A   1      42.245  28.979  30.754  1.00  0.00    -0.014 A 
BRANCH  50  51
ATOM     51  C   UNL A   1      43.568  28.409  31.096  1.00  0.00     0.031 A 
ATOM     52  C   UNL A   1      44.316  27.621  30.055  1.00  0.00     0.074 A 
ATOM     53  C   UNL A   1      44.105  28.632  32.306  1.00  0.00     0.049 A 
ATOM     54  N   UNL A   1      45.510  27.089  30.115  1.00  0.00    -0.248 NA
ATOM     55  C   UNL A   1      43.623  27.397  28.774  1.00  0.00     0.031 C 
ATOM     56  C   UNL A   1      43.463  29.377  33.385  1.00  0.00     0.029 A 
ATOM     57  N   UNL A   1      45.312  28.247  32.827  1.00  0.00    -0.354 N 
ATOM     58  C   UNL A   1      45.711  26.472  28.886  1.00  0.00     0.074 A 
ATOM     59  C   UNL A   1      44.502  26.657  28.115  1.00  0.00     0.031 C 
ATOM     60  C   UNL A   1      44.281  29.389  34.451  1.00  0.00     0.029 A 
ATOM     61  C   UNL A   1      45.493  28.638  34.130  1.00  0.00     0.049 A 
ATOM     62  H   UNL A   1      45.984  27.740  32.318  1.00  0.00     0.167 HD
ATOM     63  C   UNL A   1      46.810  25.816  28.441  1.00  0.00     0.037 A 
ATOM     64  C   UNL A   1      46.519  28.404  34.971  1.00  0.00     0.037 A 
ATOM     65  C   UNL A   1      48.003  25.631  29.226  1.00  0.00     0.049 A 
ATOM     66  C   UNL A   1      47.717  27.648  34.466  1.00  0.00     0.074 A 
ATOM     67  C   UNL A   1      49.193  25.028  28.861  1.00  0.00     0.029 A 
ATOM     68  N   UNL A   1      48.147  26.033  30.547  1.00  0.00    -0.354 N 
ATOM     69  N   UNL A   1      47.931  27.134  33.278  1.00  0.00    -0.248 NA
ATOM     70  C   UNL A   1      48.824  27.453  35.411  1.00  0.00     0.031 C 
ATOM     71  C   UNL A   1      50.033  25.007  29.979  1.00  0.00     0.029 A 
ATOM     72  C   UNL A   1      49.392  25.657  31.023  1.00  0.00     0.049 A 
ATOM     73  H   UNL A   1      47.465  26.514  31.068  1.00  0.00     0.167 HD
ATOM     74  C   UNL A   1      49.202  26.577  33.323  1.00  0.00     0.074 A 
ATOM     75  C   UNL A   1      49.717  26.831  34.653  1.00  0.00     0.031 C 
ATOM     76  C   UNL A   1      49.883  25.915  32.355  1.00  0.00     0.037 A 
BRANCH  63  77
ATOM     77  C   UNL A   1      46.762  25.232  27.056  1.00  0.00     0.057 A 
ATOM     78  C   UNL A   1      47.247  25.922  25.937  1.00  0.00     0.134 A 
ATOM     79  C   UNL A   1      46.247  23.947  26.844  1.00  0.00     0.134 A 
ATOM     80  F   UNL A   1      47.745  27.162  26.066  1.00  0.00    -0.206 F 
ATOM     81  C   UNL A   1      47.196  25.368  24.656  1.00  0.00     0.040 A 
ATOM     82  C   UNL A   1      46.218  23.370  25.573  1.00  0.00     0.040 A 
ATOM     83  F   UNL A   1      45.772  23.223  27.870  1.00  0.00    -0.206 F 
ATOM     84  C   UNL A   1      46.686  24.084  24.472  1.00  0.00     0.006 A 
ENDBRANCH  63  77
BRANCH  64  85
ATOM     85  C   UNL A   1      46.448  28.898  36.368  1.00  0.00     0.057 A 
ATOM     86  C   UNL A   1      45.858  28.139  37.385  1.00  0.00     0.134 A 
ATOM     87  C   UNL A   1      46.992  30.139  36.725  1.00  0.00     0.134 A 
ATOM     88  F   UNL A   1      45.306  26.949  37.103  1.00  0.00    -0.206 F 
ATOM     89  C   UNL A   1      45.800  28.599  38.701  1.00  0.00     0.040 A 
ATOM     90  C   UNL A   1      46.966  30.600  38.042  1.00  0.00     0.040 A 
ATOM     91  F   UNL A   1      47.578  30.913  35.799  1.00  0.00    -0.206 F 
ATOM     92  C   UNL A   1      46.363  29.830  39.033  1.00  0.00     0.006 A 
ENDBRANCH  64  85
BRANCH  76  93
ATOM     93  C   UNL A   1      51.268  25.443  32.692  1.00  0.00     0.057 A 
ATOM     94  C   UNL A   1      52.389  26.270  32.547  1.00  0.00     0.134 A 
ATOM     95  C   UNL A   1      51.475  24.156  33.206  1.00  0.00     0.134 A 
ATOM     96  F   UNL A   1      52.261  27.509  32.050  1.00  0.00    -0.206 F 
ATOM     97  C   UNL A   1      53.671  25.823  32.875  1.00  0.00     0.040 A 
ATOM     98  C   UNL A   1      52.747  23.710  33.567  1.00  0.00     0.040 A 
ATOM     99  F   UNL A   1      50.443  23.317  33.382  1.00  0.00    -0.206 F 
ATOM    100  C   UNL A   1      53.851  24.542  33.394  1.00  0.00     0.006 A 
ENDBRANCH  76  93
ENDBRANCH  50  51
ENDBRANCH  43  45
ENDBRANCH  42  43
ENDBRANCH  41  42
ENDBRANCH  40  41
ENDBRANCH  39  40
ENDBRANCH  38  39
ENDBRANCH  37  38
ENDBRANCH  36  37
ENDBRANCH   1  36
TORSDOF 23
ENDMDL
