MODEL 1
REMARK VINA RESULT:      -8.3      0.000      0.000
REMARK SMILES CCCCCCNC(=O)Nc1cccc(-c2ccc([C@@H](C)C(=O)OCCOCCOCCOCCOC(=O)c3ccc(-c4c5nc(c(-c6c(F)cccc6F)c6ccc([nH]6)c(-c6c(F)cccc6F)c6nc(c(-c7c(F)cccc7F)c7ccc4[nH]7)C=C6)C=C5)cc3)cc2F)c1
REMARK SMILES IDX 27 1 26 2 25 3 24 4 22 5 23 6 20 7 21 8 19 9 16 10 17 11
REMARK SMILES IDX 94 12 18 13 93 14 95 15 15 16 11 17 12 18 96 19 13 20 14 21
REMARK SMILES IDX 10 22 7 23 8 24 9 26 6 28 5 29 4 30 3 31 2 32 1 33 28 34
REMARK SMILES IDX 29 35 30 36 31 37 32 38 33 39 34 40 35 41 36 42 37 43 38 44
REMARK SMILES IDX 39 45 40 46 92 47 41 48 91 49 42 50 43 51 44 52 85 53 45 54
REMARK SMILES IDX 90 55 84 56 86 57 46 58 89 59 83 60 82 61 47 63 73 64 56 65
REMARK SMILES IDX 72 66 57 67 60 68 71 69 87 70 58 71 59 72 70 74 88 75 61 76
REMARK SMILES IDX 48 77 49 78 54 79 50 80 51 81 53 82 55 83 52 84 74 85 75 86
REMARK SMILES IDX 80 87 76 88 77 89 79 90 81 91 78 92 62 93 63 94 68 95 64 96
REMARK SMILES IDX 65 97 67 98 69 99 66 100
REMARK H PARENT 7 25 10 27 86 62 60 73
REMARK Flexibility Score: inf
ROOT
ATOM      1  O   UNL A   1      32.545  24.993  26.545  1.00  0.00    -0.376 OA
ENDROOT
BRANCH   1   2
ATOM      2  C   UNL A   1      33.266  23.902  25.976  1.00  0.00     0.202 C 
BRANCH   2   3
ATOM      3  C   UNL A   1      34.294  23.175  26.874  1.00  0.00     0.261 C 
BRANCH   3   4
ATOM      4  O   UNL A   1      34.625  21.820  26.507  1.00  0.00    -0.463 OA
BRANCH   4   5
ATOM      5  C   UNL A   1      35.353  21.667  25.382  1.00  0.00     0.313 C 
ATOM      6  O   UNL A   1      35.186  20.730  24.604  1.00  0.00    -0.252 OA
BRANCH   5   7
ATOM      7  C   UNL A   1      36.426  22.723  25.142  1.00  0.00     0.126 C 
ATOM      8  C   UNL A   1      36.652  22.838  23.635  1.00  0.00     0.025 C 
BRANCH   7   9
ATOM      9  C   UNL A   1      37.772  22.696  25.867  1.00  0.00    -0.031 A 
ATOM     10  C   UNL A   1      40.428  22.933  26.970  1.00  0.00     0.018 A 
ATOM     11  C   UNL A   1      39.986  21.756  26.332  1.00  0.00     0.012 A 
ATOM     12  C   UNL A   1      39.485  23.960  27.087  1.00  0.00     0.131 A 
ATOM     13  C   UNL A   1      38.686  21.638  25.791  1.00  0.00     0.005 A 
ATOM     14  C   UNL A   1      38.198  23.855  26.544  1.00  0.00     0.044 A 
ATOM     15  F   UNL A   1      39.814  25.117  27.682  1.00  0.00    -0.206 F 
BRANCH  10  16
ATOM     16  C   UNL A   1      41.833  23.118  27.416  1.00  0.00    -0.013 A 
ATOM     17  C   UNL A   1      44.159  23.792  27.007  1.00  0.00     0.043 A 
ATOM     18  C   UNL A   1      44.550  23.273  28.239  1.00  0.00     0.026 A 
ATOM     19  C   UNL A   1      42.821  23.679  26.582  1.00  0.00     0.035 A 
ATOM     20  C   UNL A   1      43.580  22.771  29.102  1.00  0.00     0.003 A 
ATOM     21  C   UNL A   1      42.240  22.703  28.698  1.00  0.00     0.009 A 
BRANCH  17  22
ATOM     22  N   UNL A   1      45.108  24.521  26.270  1.00  0.00    -0.308 N 
ATOM     23  N   UNL A   1      44.784  26.691  27.140  1.00  0.00    -0.338 N 
ATOM     24  C   UNL A   1      45.203  25.877  26.130  1.00  0.00     0.319 C 
ATOM     25  H   UNL A   1      44.718  27.652  26.938  1.00  0.00     0.165 HD
ATOM     26  O   UNL A   1      45.790  26.369  25.167  1.00  0.00    -0.249 OA
ATOM     27  H   UNL A   1      45.786  23.990  25.796  1.00  0.00     0.171 HD
BRANCH  23  28
ATOM     28  C   UNL A   1      44.426  26.278  28.480  1.00  0.00     0.117 C 
BRANCH  28  29
ATOM     29  C   UNL A   1      43.041  26.649  28.964  1.00  0.00     0.021 C 
BRANCH  29  30
ATOM     30  C   UNL A   1      42.213  27.499  28.015  1.00  0.00     0.002 C 
BRANCH  30  31
ATOM     31  C   UNL A   1      40.765  27.792  28.412  1.00  0.00    -0.000 C 
BRANCH  31  32
ATOM     32  C   UNL A   1      40.221  29.210  28.258  1.00  0.00    -0.003 C 
ATOM     33  C   UNL A   1      39.220  29.401  27.136  1.00  0.00     0.004 C 
ENDBRANCH  31  32
ENDBRANCH  30  31
ENDBRANCH  29  30
ENDBRANCH  28  29
ENDBRANCH  23  28
ENDBRANCH  17  22
ENDBRANCH  10  16
ENDBRANCH   7   9
ENDBRANCH   5   7
ENDBRANCH   4   5
ENDBRANCH   3   4
ENDBRANCH   2   3
ENDBRANCH   1   2
BRANCH   1  34
ATOM     34  C   UNL A   1      32.655  26.225  25.844  1.00  0.00     0.188 C 
BRANCH  34  35
ATOM     35  C   UNL A   1      31.311  26.840  25.412  1.00  0.00     0.188 C 
BRANCH  35  36
ATOM     36  O   UNL A   1      31.283  27.652  24.239  1.00  0.00    -0.377 OA
BRANCH  36  37
ATOM     37  C   UNL A   1      32.073  28.836  24.245  1.00  0.00     0.188 C 
BRANCH  37  38
ATOM     38  C   UNL A   1      31.887  29.791  25.417  1.00  0.00     0.188 C 
BRANCH  38  39
ATOM     39  O   UNL A   1      33.071  30.102  26.131  1.00  0.00    -0.376 OA
BRANCH  39  40
ATOM     40  C   UNL A   1      32.925  30.926  27.287  1.00  0.00     0.202 C 
BRANCH  40  41
ATOM     41  C   UNL A   1      34.185  31.686  27.724  1.00  0.00     0.261 C 
BRANCH  41  42
ATOM     42  O   UNL A   1      34.949  31.179  28.852  1.00  0.00    -0.460 OA
BRANCH  42  43
ATOM     43  C   UNL A   1      35.833  30.149  28.766  1.00  0.00     0.338 C 
ATOM     44  O   UNL A   1      35.971  29.377  27.853  1.00  0.00    -0.246 OA
BRANCH  43  45
ATOM     45  C   UNL A   1      36.807  30.302  29.900  1.00  0.00     0.060 A 
ATOM     46  C   UNL A   1      37.809  31.282  29.841  1.00  0.00     0.016 A 
ATOM     47  C   UNL A   1      36.666  29.567  31.072  1.00  0.00     0.016 A 
ATOM     48  C   UNL A   1      38.674  31.500  30.936  1.00  0.00     0.010 A 
ATOM     49  C   UNL A   1      37.470  29.846  32.185  1.00  0.00     0.010 A 
ATOM     50  C   UNL A   1      38.528  30.770  32.126  1.00  0.00    -0.014 A 
BRANCH  50  51
ATOM     51  C   UNL A   1      39.528  30.811  33.252  1.00  0.00     0.031 A 
ATOM     52  C   UNL A   1      40.618  29.750  33.293  1.00  0.00     0.074 A 
ATOM     53  C   UNL A   1      39.484  31.700  34.270  1.00  0.00     0.049 A 
ATOM     54  N   UNL A   1      41.503  29.492  34.225  1.00  0.00    -0.248 NA
ATOM     55  C   UNL A   1      40.668  28.809  32.162  1.00  0.00     0.031 C 
ATOM     56  C   UNL A   1      38.479  32.744  34.469  1.00  0.00     0.029 A 
ATOM     57  N   UNL A   1      40.322  31.848  35.359  1.00  0.00    -0.354 N 
ATOM     58  C   UNL A   1      42.150  28.329  33.818  1.00  0.00     0.074 A 
ATOM     59  C   UNL A   1      41.494  27.882  32.614  1.00  0.00     0.031 C 
ATOM     60  C   UNL A   1      38.772  33.434  35.589  1.00  0.00     0.029 A 
ATOM     61  C   UNL A   1      39.977  32.878  36.206  1.00  0.00     0.049 A 
ATOM     62  H   UNL A   1      41.101  31.266  35.516  1.00  0.00     0.167 HD
ATOM     63  C   UNL A   1      43.236  27.711  34.341  1.00  0.00     0.037 A 
ATOM     64  C   UNL A   1      40.564  33.327  37.339  1.00  0.00     0.037 A 
ATOM     65  C   UNL A   1      44.002  28.205  35.448  1.00  0.00     0.049 A 
ATOM     66  C   UNL A   1      41.829  32.681  37.859  1.00  0.00     0.074 A 
ATOM     67  C   UNL A   1      45.194  27.715  35.952  1.00  0.00     0.029 A 
ATOM     68  N   UNL A   1      43.672  29.317  36.199  1.00  0.00    -0.354 N 
ATOM     69  N   UNL A   1      42.491  31.654  37.389  1.00  0.00    -0.248 NA
ATOM     70  C   UNL A   1      42.442  33.274  39.064  1.00  0.00     0.031 C 
ATOM     71  C   UNL A   1      45.577  28.520  37.028  1.00  0.00     0.029 A 
ATOM     72  C   UNL A   1      44.639  29.529  37.165  1.00  0.00     0.049 A 
ATOM     73  H   UNL A   1      42.870  29.874  36.067  1.00  0.00     0.167 HD
ATOM     74  C   UNL A   1      43.618  31.520  38.197  1.00  0.00     0.074 A 
ATOM     75  C   UNL A   1      43.552  32.561  39.195  1.00  0.00     0.031 C 
ATOM     76  C   UNL A   1      44.618  30.610  38.112  1.00  0.00     0.037 A 
BRANCH  63  77
ATOM     77  C   UNL A   1      43.707  26.453  33.673  1.00  0.00     0.057 A 
ATOM     78  C   UNL A   1      44.448  26.482  32.484  1.00  0.00     0.134 A 
ATOM     79  C   UNL A   1      43.450  25.202  34.246  1.00  0.00     0.134 A 
ATOM     80  F   UNL A   1      44.720  27.650  31.881  1.00  0.00    -0.206 F 
ATOM     81  C   UNL A   1      44.882  25.311  31.867  1.00  0.00     0.040 A 
ATOM     82  C   UNL A   1      43.911  24.024  33.656  1.00  0.00     0.040 A 
ATOM     83  F   UNL A   1      42.759  25.104  35.392  1.00  0.00    -0.206 F 
ATOM     84  C   UNL A   1      44.620  24.076  32.458  1.00  0.00     0.006 A 
ENDBRANCH  63  77
BRANCH  64  85
ATOM     85  C   UNL A   1      40.007  34.496  38.074  1.00  0.00     0.057 A 
ATOM     86  C   UNL A   1      40.338  35.806  37.696  1.00  0.00     0.134 A 
ATOM     87  C   UNL A   1      39.225  34.339  39.224  1.00  0.00     0.134 A 
ATOM     88  F   UNL A   1      41.114  36.023  36.624  1.00  0.00    -0.206 F 
ATOM     89  C   UNL A   1      39.947  36.911  38.456  1.00  0.00     0.040 A 
ATOM     90  C   UNL A   1      38.806  35.437  39.979  1.00  0.00     0.040 A 
ATOM     91  F   UNL A   1      38.877  33.114  39.642  1.00  0.00    -0.206 F 
ATOM     92  C   UNL A   1      39.179  36.727  39.603  1.00  0.00     0.006 A 
ENDBRANCH  64  85
BRANCH  76  93
ATOM     93  C   UNL A   1      45.787  30.731  39.044  1.00  0.00     0.057 A 
ATOM     94  C   UNL A   1      45.971  29.866  40.128  1.00  0.00     0.134 A 
ATOM     95  C   UNL A   1      46.807  31.656  38.775  1.00  0.00     0.134 A 
ATOM     96  F   UNL A   1      45.032  28.960  40.442  1.00  0.00    -0.206 F 
ATOM     97  C   UNL A   1      47.125  29.917  40.913  1.00  0.00     0.040 A 
ATOM     98  C   UNL A   1      47.974  31.702  39.538  1.00  0.00     0.040 A 
ATOM     99  F   UNL A   1      46.699  32.506  37.742  1.00  0.00    -0.206 F 
ATOM    100  C   UNL A   1      48.136  30.828  40.611  1.00  0.00     0.006 A 
ENDBRANCH  76  93
ENDBRANCH  50  51
ENDBRANCH  43  45
ENDBRANCH  42  43
ENDBRANCH  41  42
ENDBRANCH  40  41
ENDBRANCH  39  40
ENDBRANCH  38  39
ENDBRANCH  37  38
ENDBRANCH  36  37
ENDBRANCH  35  36
ENDBRANCH  34  35
ENDBRANCH   1  34
TORSDOF 28
ENDMDL
MODEL 2
REMARK VINA RESULT:      -8.2      5.008     10.847
REMARK SMILES CCCCCCNC(=O)Nc1cccc(-c2ccc([C@@H](C)C(=O)OCCOCCOCCOCCOC(=O)c3ccc(-c4c5nc(c(-c6c(F)cccc6F)c6ccc([nH]6)c(-c6c(F)cccc6F)c6nc(c(-c7c(F)cccc7F)c7ccc4[nH]7)C=C6)C=C5)cc3)cc2F)c1
REMARK SMILES IDX 27 1 26 2 25 3 24 4 22 5 23 6 20 7 21 8 19 9 16 10 17 11
REMARK SMILES IDX 94 12 18 13 93 14 95 15 15 16 11 17 12 18 96 19 13 20 14 21
REMARK SMILES IDX 10 22 7 23 8 24 9 26 6 28 5 29 4 30 3 31 2 32 1 33 28 34
REMARK SMILES IDX 29 35 30 36 31 37 32 38 33 39 34 40 35 41 36 42 37 43 38 44
REMARK SMILES IDX 39 45 40 46 92 47 41 48 91 49 42 50 43 51 44 52 85 53 45 54
REMARK SMILES IDX 90 55 84 56 86 57 46 58 89 59 83 60 82 61 47 63 73 64 56 65
REMARK SMILES IDX 72 66 57 67 60 68 71 69 87 70 58 71 59 72 70 74 88 75 61 76
REMARK SMILES IDX 48 77 49 78 54 79 50 80 51 81 53 82 55 83 52 84 74 85 75 86
REMARK SMILES IDX 80 87 76 88 77 89 79 90 81 91 78 92 62 93 63 94 68 95 64 96
REMARK SMILES IDX 65 97 67 98 69 99 66 100
REMARK H PARENT 7 25 10 27 86 62 60 73
REMARK Flexibility Score: inf
ROOT
ATOM      1  O   UNL A   1      32.535  37.105  31.330  1.00  0.00    -0.376 OA
ENDROOT
BRANCH   1   2
ATOM      2  C   UNL A   1      32.757  36.278  32.471  1.00  0.00     0.202 C 
BRANCH   2   3
ATOM      3  C   UNL A   1      34.002  36.573  33.339  1.00  0.00     0.261 C 
BRANCH   3   4
ATOM      4  O   UNL A   1      35.236  35.952  32.925  1.00  0.00    -0.463 OA
BRANCH   4   5
ATOM      5  C   UNL A   1      35.493  34.732  33.438  1.00  0.00     0.313 C 
ATOM      6  O   UNL A   1      35.409  34.485  34.640  1.00  0.00    -0.252 OA
BRANCH   5   7
ATOM      7  C   UNL A   1      35.922  33.670  32.433  1.00  0.00     0.126 C 
ATOM      8  C   UNL A   1      35.533  32.301  32.991  1.00  0.00     0.025 C 
BRANCH   7   9
ATOM      9  C   UNL A   1      37.340  33.613  31.863  1.00  0.00    -0.031 A 
ATOM     10  C   UNL A   1      40.131  33.684  31.135  1.00  0.00     0.018 A 
ATOM     11  C   UNL A   1      39.159  34.434  30.443  1.00  0.00     0.012 A 
ATOM     12  C   UNL A   1      39.655  32.859  32.161  1.00  0.00     0.131 A 
ATOM     13  C   UNL A   1      37.791  34.401  30.797  1.00  0.00     0.005 A 
ATOM     14  C   UNL A   1      38.303  32.829  32.526  1.00  0.00     0.044 A 
ATOM     15  F   UNL A   1      40.507  32.106  32.874  1.00  0.00    -0.206 F 
BRANCH  10  16
ATOM     16  C   UNL A   1      41.585  33.819  30.863  1.00  0.00    -0.013 A 
ATOM     17  C   UNL A   1      43.572  33.404  29.480  1.00  0.00     0.043 A 
ATOM     18  C   UNL A   1      44.399  33.925  30.472  1.00  0.00     0.026 A 
ATOM     19  C   UNL A   1      42.183  33.315  29.690  1.00  0.00     0.035 A 
ATOM     20  C   UNL A   1      43.825  34.483  31.611  1.00  0.00     0.003 A 
ATOM     21  C   UNL A   1      42.436  34.437  31.797  1.00  0.00     0.009 A 
BRANCH  17  22
ATOM     22  N   UNL A   1      44.153  33.087  28.241  1.00  0.00    -0.308 N 
ATOM     23  N   UNL A   1      43.440  34.912  26.926  1.00  0.00    -0.338 N 
ATOM     24  C   UNL A   1      43.868  33.621  27.016  1.00  0.00     0.319 C 
ATOM     25  H   UNL A   1      43.093  35.206  26.053  1.00  0.00     0.165 HD
ATOM     26  O   UNL A   1      44.127  33.002  25.984  1.00  0.00    -0.249 OA
ATOM     27  H   UNL A   1      44.850  32.393  28.257  1.00  0.00     0.171 HD
BRANCH  23  28
ATOM     28  C   UNL A   1      43.446  35.893  27.991  1.00  0.00     0.117 C 
BRANCH  28  29
ATOM     29  C   UNL A   1      44.532  36.946  27.947  1.00  0.00     0.021 C 
BRANCH  29  30
ATOM     30  C   UNL A   1      44.065  38.386  28.077  1.00  0.00     0.002 C 
BRANCH  30  31
ATOM     31  C   UNL A   1      43.489  39.056  26.828  1.00  0.00    -0.000 C 
BRANCH  31  32
ATOM     32  C   UNL A   1      42.219  39.894  26.950  1.00  0.00    -0.003 C 
ATOM     33  C   UNL A   1      41.659  40.019  28.352  1.00  0.00     0.004 C 
ENDBRANCH  31  32
ENDBRANCH  30  31
ENDBRANCH  29  30
ENDBRANCH  28  29
ENDBRANCH  23  28
ENDBRANCH  17  22
ENDBRANCH  10  16
ENDBRANCH   7   9
ENDBRANCH   5   7
ENDBRANCH   4   5
ENDBRANCH   3   4
ENDBRANCH   2   3
ENDBRANCH   1   2
BRANCH   1  34
ATOM     34  C   UNL A   1      33.249  36.729  30.160  1.00  0.00     0.188 C 
BRANCH  34  35
ATOM     35  C   UNL A   1      33.368  35.209  29.941  1.00  0.00     0.188 C 
BRANCH  35  36
ATOM     36  O   UNL A   1      32.658  34.623  28.851  1.00  0.00    -0.377 OA
BRANCH  36  37
ATOM     37  C   UNL A   1      33.412  33.864  27.912  1.00  0.00     0.188 C 
BRANCH  37  38
ATOM     38  C   UNL A   1      32.857  32.503  27.512  1.00  0.00     0.188 C 
BRANCH  38  39
ATOM     39  O   UNL A   1      33.748  31.416  27.696  1.00  0.00    -0.376 OA
BRANCH  39  40
ATOM     40  C   UNL A   1      35.131  31.738  27.840  1.00  0.00     0.202 C 
BRANCH  40  41
ATOM     41  C   UNL A   1      35.686  31.658  29.269  1.00  0.00     0.261 C 
BRANCH  41  42
ATOM     42  O   UNL A   1      36.960  30.990  29.485  1.00  0.00    -0.460 OA
BRANCH  42  43
ATOM     43  C   UNL A   1      37.147  29.989  30.387  1.00  0.00     0.338 C 
ATOM     44  O   UNL A   1      36.302  29.384  30.995  1.00  0.00    -0.246 OA
BRANCH  43  45
ATOM     45  C   UNL A   1      38.587  29.570  30.296  1.00  0.00     0.060 A 
ATOM     46  C   UNL A   1      39.006  28.358  30.864  1.00  0.00     0.016 A 
ATOM     47  C   UNL A   1      39.503  30.307  29.552  1.00  0.00     0.016 A 
ATOM     48  C   UNL A   1      40.336  27.908  30.708  1.00  0.00     0.010 A 
ATOM     49  C   UNL A   1      40.795  29.813  29.328  1.00  0.00     0.010 A 
ATOM     50  C   UNL A   1      41.260  28.639  29.948  1.00  0.00    -0.014 A 
BRANCH  50  51
ATOM     51  C   UNL A   1      42.733  28.323  29.901  1.00  0.00     0.031 A 
ATOM     52  C   UNL A   1      43.672  29.112  30.801  1.00  0.00     0.074 A 
ATOM     53  C   UNL A   1      43.285  27.418  29.062  1.00  0.00     0.049 A 
ATOM     54  N   UNL A   1      44.983  29.121  30.843  1.00  0.00    -0.248 NA
ATOM     55  C   UNL A   1      43.051  30.072  31.728  1.00  0.00     0.031 C 
ATOM     56  C   UNL A   1      42.580  26.615  28.065  1.00  0.00     0.029 A 
ATOM     57  N   UNL A   1      44.605  27.034  28.911  1.00  0.00    -0.354 N 
ATOM     58  C   UNL A   1      45.324  30.130  31.739  1.00  0.00     0.074 A 
ATOM     59  C   UNL A   1      44.095  30.770  32.140  1.00  0.00     0.031 C 
ATOM     60  C   UNL A   1      43.465  25.823  27.426  1.00  0.00     0.029 A 
ATOM     61  C   UNL A   1      44.808  26.067  27.952  1.00  0.00     0.049 A 
ATOM     62  H   UNL A   1      45.337  27.420  29.444  1.00  0.00     0.167 HD
ATOM     63  C   UNL A   1      46.531  30.465  32.251  1.00  0.00     0.037 A 
ATOM     64  C   UNL A   1      45.939  25.444  27.550  1.00  0.00     0.037 A 
ATOM     65  C   UNL A   1      47.753  29.759  31.990  1.00  0.00     0.049 A 
ATOM     66  C   UNL A   1      47.268  25.766  28.196  1.00  0.00     0.074 A 
ATOM     67  C   UNL A   1      48.993  29.947  32.574  1.00  0.00     0.029 A 
ATOM     68  N   UNL A   1      47.881  28.714  31.096  1.00  0.00    -0.354 N 
ATOM     69  N   UNL A   1      47.547  26.642  29.129  1.00  0.00    -0.248 NA
ATOM     70  C   UNL A   1      48.442  24.994  27.745  1.00  0.00     0.031 C 
ATOM     71  C   UNL A   1      49.883  29.026  32.016  1.00  0.00     0.029 A 
ATOM     72  C   UNL A   1      49.183  28.245  31.113  1.00  0.00     0.049 A 
ATOM     73  H   UNL A   1      47.157  28.356  30.532  1.00  0.00     0.167 HD
ATOM     74  C   UNL A   1      48.902  26.483  29.413  1.00  0.00     0.074 A 
ATOM     75  C   UNL A   1      49.397  25.435  28.553  1.00  0.00     0.031 C 
ATOM     76  C   UNL A   1      49.662  27.151  30.314  1.00  0.00     0.037 A 
BRANCH  63  77
ATOM     77  C   UNL A   1      46.584  31.618  33.209  1.00  0.00     0.057 A 
ATOM     78  C   UNL A   1      46.235  31.471  34.559  1.00  0.00     0.134 A 
ATOM     79  C   UNL A   1      47.025  32.878  32.787  1.00  0.00     0.134 A 
ATOM     80  F   UNL A   1      45.797  30.291  35.024  1.00  0.00    -0.206 F 
ATOM     81  C   UNL A   1      46.284  32.546  35.445  1.00  0.00     0.040 A 
ATOM     82  C   UNL A   1      47.112  33.952  33.674  1.00  0.00     0.040 A 
ATOM     83  F   UNL A   1      47.388  33.082  31.511  1.00  0.00    -0.206 F 
ATOM     84  C   UNL A   1      46.731  33.790  35.004  1.00  0.00     0.006 A 
ENDBRANCH  63  77
BRANCH  64  85
ATOM     85  C   UNL A   1      45.897  24.393  26.495  1.00  0.00     0.057 A 
ATOM     86  C   UNL A   1      45.470  23.091  26.795  1.00  0.00     0.134 A 
ATOM     87  C   UNL A   1      46.377  24.628  25.202  1.00  0.00     0.134 A 
ATOM     88  F   UNL A   1      45.032  22.793  28.027  1.00  0.00    -0.206 F 
ATOM     89  C   UNL A   1      45.559  22.055  25.862  1.00  0.00     0.040 A 
ATOM     90  C   UNL A   1      46.447  23.606  24.251  1.00  0.00     0.040 A 
ATOM     91  F   UNL A   1      46.805  25.849  24.851  1.00  0.00    -0.206 F 
ATOM     92  C   UNL A   1      46.050  22.312  24.585  1.00  0.00     0.006 A 
ENDBRANCH  64  85
BRANCH  76  93
ATOM     93  C   UNL A   1      51.088  26.728  30.512  1.00  0.00     0.057 A 
ATOM     94  C   UNL A   1      52.136  27.252  29.746  1.00  0.00     0.134 A 
ATOM     95  C   UNL A   1      51.426  25.871  31.569  1.00  0.00     0.134 A 
ATOM     96  F   UNL A   1      51.881  28.074  28.717  1.00  0.00    -0.206 F 
ATOM     97  C   UNL A   1      53.468  26.937  30.023  1.00  0.00     0.040 A 
ATOM     98  C   UNL A   1      52.754  25.567  31.870  1.00  0.00     0.040 A 
ATOM     99  F   UNL A   1      50.469  25.345  32.351  1.00  0.00    -0.206 F 
ATOM    100  C   UNL A   1      53.780  26.102  31.095  1.00  0.00     0.006 A 
ENDBRANCH  76  93
ENDBRANCH  50  51
ENDBRANCH  43  45
ENDBRANCH  42  43
ENDBRANCH  41  42
ENDBRANCH  40  41
ENDBRANCH  39  40
ENDBRANCH  38  39
ENDBRANCH  37  38
ENDBRANCH  36  37
ENDBRANCH  35  36
ENDBRANCH  34  35
ENDBRANCH   1  34
TORSDOF 28
ENDMDL
MODEL 3
REMARK VINA RESULT:      -8.0      6.351     11.969
REMARK SMILES CCCCCCNC(=O)Nc1cccc(-c2ccc([C@@H](C)C(=O)OCCOCCOCCOCCOC(=O)c3ccc(-c4c5nc(c(-c6c(F)cccc6F)c6ccc([nH]6)c(-c6c(F)cccc6F)c6nc(c(-c7c(F)cccc7F)c7ccc4[nH]7)C=C6)C=C5)cc3)cc2F)c1
REMARK SMILES IDX 27 1 26 2 25 3 24 4 22 5 23 6 20 7 21 8 19 9 16 10 17 11
REMARK SMILES IDX 94 12 18 13 93 14 95 15 15 16 11 17 12 18 96 19 13 20 14 21
REMARK SMILES IDX 10 22 7 23 8 24 9 26 6 28 5 29 4 30 3 31 2 32 1 33 28 34
REMARK SMILES IDX 29 35 30 36 31 37 32 38 33 39 34 40 35 41 36 42 37 43 38 44
REMARK SMILES IDX 39 45 40 46 92 47 41 48 91 49 42 50 43 51 44 52 85 53 45 54
REMARK SMILES IDX 90 55 84 56 86 57 46 58 89 59 83 60 82 61 47 63 73 64 56 65
REMARK SMILES IDX 72 66 57 67 60 68 71 69 87 70 58 71 59 72 70 74 88 75 61 76
REMARK SMILES IDX 48 77 49 78 54 79 50 80 51 81 53 82 55 83 52 84 74 85 75 86
REMARK SMILES IDX 80 87 76 88 77 89 79 90 81 91 78 92 62 93 63 94 68 95 64 96
REMARK SMILES IDX 65 97 67 98 69 99 66 100
REMARK H PARENT 7 25 10 27 86 62 60 73
REMARK Flexibility Score: inf
ROOT
ATOM      1  O   UNL A   1      38.362  29.401  31.519  1.00  0.00    -0.376 OA
ENDROOT
BRANCH   1   2
ATOM      2  C   UNL A   1      37.767  30.353  30.638  1.00  0.00     0.202 C 
BRANCH   2   3
ATOM      3  C   UNL A   1      37.602  31.801  31.154  1.00  0.00     0.261 C 
BRANCH   3   4
ATOM      4  O   UNL A   1      36.623  32.616  30.478  1.00  0.00    -0.463 OA
BRANCH   4   5
ATOM      5  C   UNL A   1      37.018  33.192  29.324  1.00  0.00     0.313 C 
ATOM      6  O   UNL A   1      38.149  33.649  29.162  1.00  0.00    -0.252 OA
BRANCH   5   7
ATOM      7  C   UNL A   1      35.962  33.266  28.228  1.00  0.00     0.126 C 
ATOM      8  C   UNL A   1      35.183  34.570  28.405  1.00  0.00     0.025 C 
BRANCH   7   9
ATOM      9  C   UNL A   1      34.992  32.117  27.952  1.00  0.00    -0.031 A 
ATOM     10  C   UNL A   1      33.322  29.941  27.057  1.00  0.00     0.018 A 
ATOM     11  C   UNL A   1      32.789  31.203  27.390  1.00  0.00     0.012 A 
ATOM     12  C   UNL A   1      34.701  29.788  27.239  1.00  0.00     0.131 A 
ATOM     13  C   UNL A   1      33.605  32.270  27.829  1.00  0.00     0.005 A 
ATOM     14  C   UNL A   1      35.518  30.844  27.662  1.00  0.00     0.044 A 
ATOM     15  F   UNL A   1      35.297  28.620  26.950  1.00  0.00    -0.206 F 
BRANCH  10  16
ATOM     16  C   UNL A   1      32.495  28.859  26.463  1.00  0.00    -0.013 A 
ATOM     17  C   UNL A   1      30.799  28.058  24.877  1.00  0.00     0.043 A 
ATOM     18  C   UNL A   1      30.788  26.806  25.485  1.00  0.00     0.026 A 
ATOM     19  C   UNL A   1      31.615  29.087  25.386  1.00  0.00     0.035 A 
ATOM     20  C   UNL A   1      31.693  26.541  26.510  1.00  0.00     0.003 A 
ATOM     21  C   UNL A   1      32.540  27.553  26.984  1.00  0.00     0.009 A 
BRANCH  17  22
ATOM     22  N   UNL A   1      30.067  28.217  23.688  1.00  0.00    -0.308 N 
ATOM     23  N   UNL A   1      31.802  28.234  22.088  1.00  0.00    -0.338 N 
ATOM     24  C   UNL A   1      30.533  28.573  22.454  1.00  0.00     0.319 C 
ATOM     25  H   UNL A   1      32.153  28.646  21.266  1.00  0.00     0.165 HD
ATOM     26  O   UNL A   1      29.780  29.069  21.617  1.00  0.00    -0.249 OA
ATOM     27  H   UNL A   1      29.100  28.052  23.752  1.00  0.00     0.171 HD
BRANCH  23  28
ATOM     28  C   UNL A   1      32.684  27.329  22.793  1.00  0.00     0.117 C 
BRANCH  28  29
ATOM     29  C   UNL A   1      33.250  26.170  22.003  1.00  0.00     0.021 C 
BRANCH  29  30
ATOM     30  C   UNL A   1      33.997  25.119  22.809  1.00  0.00     0.002 C 
BRANCH  30  31
ATOM     31  C   UNL A   1      33.690  25.029  24.304  1.00  0.00    -0.000 C 
BRANCH  31  32
ATOM     32  C   UNL A   1      34.044  23.752  25.062  1.00  0.00    -0.003 C 
ATOM     33  C   UNL A   1      34.405  22.563  24.194  1.00  0.00     0.004 C 
ENDBRANCH  31  32
ENDBRANCH  30  31
ENDBRANCH  29  30
ENDBRANCH  28  29
ENDBRANCH  23  28
ENDBRANCH  17  22
ENDBRANCH  10  16
ENDBRANCH   7   9
ENDBRANCH   5   7
ENDBRANCH   4   5
ENDBRANCH   3   4
ENDBRANCH   2   3
ENDBRANCH   1   2
BRANCH   1  34
ATOM     34  C   UNL A   1      38.810  28.201  30.902  1.00  0.00     0.188 C 
BRANCH  34  35
ATOM     35  C   UNL A   1      39.681  28.409  29.649  1.00  0.00     0.188 C 
BRANCH  35  36
ATOM     36  O   UNL A   1      39.138  28.054  28.379  1.00  0.00    -0.377 OA
BRANCH  36  37
ATOM     37  C   UNL A   1      39.768  26.989  27.674  1.00  0.00     0.188 C 
BRANCH  37  38
ATOM     38  C   UNL A   1      40.454  25.914  28.506  1.00  0.00     0.188 C 
BRANCH  38  39
ATOM     39  O   UNL A   1      39.978  24.597  28.292  1.00  0.00    -0.376 OA
BRANCH  39  40
ATOM     40  C   UNL A   1      40.946  23.618  27.914  1.00  0.00     0.202 C 
BRANCH  40  41
ATOM     41  C   UNL A   1      40.807  23.060  26.491  1.00  0.00     0.261 C 
BRANCH  41  42
ATOM     42  O   UNL A   1      42.009  22.878  25.693  1.00  0.00    -0.460 OA
BRANCH  42  43
ATOM     43  C   UNL A   1      43.227  22.580  26.218  1.00  0.00     0.338 C 
ATOM     44  O   UNL A   1      43.680  21.488  26.443  1.00  0.00    -0.246 OA
BRANCH  43  45
ATOM     45  C   UNL A   1      44.035  23.848  26.218  1.00  0.00     0.060 A 
ATOM     46  C   UNL A   1      44.065  24.664  25.077  1.00  0.00     0.016 A 
ATOM     47  C   UNL A   1      44.665  24.298  27.373  1.00  0.00     0.016 A 
ATOM     48  C   UNL A   1      44.744  25.902  25.091  1.00  0.00     0.010 A 
ATOM     49  C   UNL A   1      45.262  25.565  27.407  1.00  0.00     0.010 A 
ATOM     50  C   UNL A   1      45.370  26.368  26.257  1.00  0.00    -0.014 A 
BRANCH  50  51
ATOM     51  C   UNL A   1      46.270  27.575  26.291  1.00  0.00     0.031 A 
ATOM     52  C   UNL A   1      47.770  27.366  26.143  1.00  0.00     0.074 A 
ATOM     53  C   UNL A   1      45.834  28.837  26.505  1.00  0.00     0.049 A 
ATOM     54  N   UNL A   1      48.754  28.223  26.276  1.00  0.00    -0.248 NA
ATOM     55  C   UNL A   1      48.224  25.990  25.881  1.00  0.00     0.031 C 
ATOM     56  C   UNL A   1      44.453  29.248  26.752  1.00  0.00     0.029 A 
ATOM     57  N   UNL A   1      46.540  30.024  26.565  1.00  0.00    -0.354 N 
ATOM     58  C   UNL A   1      49.922  27.471  26.185  1.00  0.00     0.074 A 
ATOM     59  C   UNL A   1      49.526  26.087  26.085  1.00  0.00     0.031 C 
ATOM     60  C   UNL A   1      44.410  30.586  26.912  1.00  0.00     0.029 A 
ATOM     61  C   UNL A   1      45.762  31.137  26.797  1.00  0.00     0.049 A 
ATOM     62  H   UNL A   1      47.517  30.070  26.451  1.00  0.00     0.167 HD
ATOM     63  C   UNL A   1      51.212  27.876  26.118  1.00  0.00     0.037 A 
ATOM     64  C   UNL A   1      46.094  32.444  26.896  1.00  0.00     0.037 A 
ATOM     65  C   UNL A   1      51.636  29.246  26.066  1.00  0.00     0.049 A 
ATOM     66  C   UNL A   1      47.530  32.889  26.728  1.00  0.00     0.074 A 
ATOM     67  C   UNL A   1      52.911  29.741  25.859  1.00  0.00     0.029 A 
ATOM     68  N   UNL A   1      50.794  30.334  26.191  1.00  0.00    -0.354 N 
ATOM     69  N   UNL A   1      48.604  32.169  26.523  1.00  0.00    -0.248 NA
ATOM     70  C   UNL A   1      47.796  34.340  26.784  1.00  0.00     0.031 C 
ATOM     71  C   UNL A   1      52.846  31.137  25.879  1.00  0.00     0.029 A 
ATOM     72  C   UNL A   1      51.524  31.503  26.064  1.00  0.00     0.049 A 
ATOM     73  H   UNL A   1      49.822  30.287  26.346  1.00  0.00     0.167 HD
ATOM     74  C   UNL A   1      49.651  33.075  26.368  1.00  0.00     0.074 A 
ATOM     75  C   UNL A   1      49.093  34.399  26.509  1.00  0.00     0.031 C 
ATOM     76  C   UNL A   1      50.960  32.823  26.128  1.00  0.00     0.037 A 
BRANCH  63  77
ATOM     77  C   UNL A   1      52.269  26.816  26.026  1.00  0.00     0.057 A 
ATOM     78  C   UNL A   1      52.915  26.318  27.166  1.00  0.00     0.134 A 
ATOM     79  C   UNL A   1      52.616  26.259  24.789  1.00  0.00     0.134 A 
ATOM     80  F   UNL A   1      52.633  26.816  28.379  1.00  0.00    -0.206 F 
ATOM     81  C   UNL A   1      53.897  25.334  27.075  1.00  0.00     0.040 A 
ATOM     82  C   UNL A   1      53.572  25.247  24.690  1.00  0.00     0.040 A 
ATOM     83  F   UNL A   1      52.024  26.679  23.660  1.00  0.00    -0.206 F 
ATOM     84  C   UNL A   1      54.223  24.789  25.834  1.00  0.00     0.006 A 
ENDBRANCH  63  77
BRANCH  64  85
ATOM     85  C   UNL A   1      45.049  33.481  27.125  1.00  0.00     0.057 A 
ATOM     86  C   UNL A   1      44.617  33.791  28.424  1.00  0.00     0.134 A 
ATOM     87  C   UNL A   1      44.387  34.106  26.063  1.00  0.00     0.134 A 
ATOM     88  F   UNL A   1      45.188  33.198  29.483  1.00  0.00    -0.206 F 
ATOM     89  C   UNL A   1      43.541  34.650  28.654  1.00  0.00     0.040 A 
ATOM     90  C   UNL A   1      43.326  34.988  26.281  1.00  0.00     0.040 A 
ATOM     91  F   UNL A   1      44.748  33.851  24.797  1.00  0.00    -0.206 F 
ATOM     92  C   UNL A   1      42.891  35.251  27.580  1.00  0.00     0.006 A 
ENDBRANCH  64  85
BRANCH  76  93
ATOM     93  C   UNL A   1      51.889  33.979  25.897  1.00  0.00     0.057 A 
ATOM     94  C   UNL A   1      52.192  34.449  24.615  1.00  0.00     0.134 A 
ATOM     95  C   UNL A   1      52.391  34.704  26.987  1.00  0.00     0.134 A 
ATOM     96  F   UNL A   1      51.746  33.799  23.529  1.00  0.00    -0.206 F 
ATOM     97  C   UNL A   1      52.962  35.599  24.424  1.00  0.00     0.040 A 
ATOM     98  C   UNL A   1      53.143  35.866  26.810  1.00  0.00     0.040 A 
ATOM     99  F   UNL A   1      52.127  34.314  28.244  1.00  0.00    -0.206 F 
ATOM    100  C   UNL A   1      53.430  36.317  25.524  1.00  0.00     0.006 A 
ENDBRANCH  76  93
ENDBRANCH  50  51
ENDBRANCH  43  45
ENDBRANCH  42  43
ENDBRANCH  41  42
ENDBRANCH  40  41
ENDBRANCH  39  40
ENDBRANCH  38  39
ENDBRANCH  37  38
ENDBRANCH  36  37
ENDBRANCH  35  36
ENDBRANCH  34  35
ENDBRANCH   1  34
TORSDOF 28
ENDMDL
