MODEL 1
REMARK VINA RESULT:     -11.2      0.000      0.000
REMARK SMILES O=C(COc1ccccc1/C=N/N1[C@@H](S)N=N[C@H]1[C@@H]1C=C(c2ccccc2)N=N1)OCCOCCOCCOCCOC(=O)c1ccc(-c2c3nc(c(-c4c(F)cccc4F)c4ccc([nH]4)c(-c4c(F)cccc4F)c4nc(c(-c5c(F)cccc5F)c5ccc2[nH]5)C=C4)C=C3)cc1
REMARK SMILES IDX 34 1 33 2 32 3 31 4 30 5 2 6 1 7 3 8 4 9 5 10 6 11 10 12
REMARK SMILES IDX 7 13 9 14 8 15 11 16 12 17 13 18 14 19 18 20 16 21 17 22
REMARK SMILES IDX 15 23 19 25 20 26 29 27 21 28 28 29 22 30 23 31 27 32 24 33
REMARK SMILES IDX 26 34 25 35 35 36 36 37 37 38 38 39 39 40 40 41 41 42 42 43
REMARK SMILES IDX 43 44 44 45 45 46 46 47 98 48 47 49 97 50 48 51 49 52 50 53
REMARK SMILES IDX 91 54 51 55 96 56 90 57 92 58 52 59 95 60 89 61 88 62 53 64
REMARK SMILES IDX 79 65 62 66 78 67 63 68 66 69 77 70 93 71 64 72 65 73 76 75
REMARK SMILES IDX 94 76 67 77 54 78 55 79 60 80 56 81 57 82 59 83 61 84 58 85
REMARK SMILES IDX 80 86 81 87 86 88 82 89 83 90 85 91 87 92 84 93 68 94 69 95
REMARK SMILES IDX 74 96 70 97 71 98 73 99 75 100 72 101
REMARK H PARENT 15 24 92 63 66 74
REMARK Flexibility Score: inf
ROOT
ATOM      1  C   UNL A   1      39.622  22.653  26.514  1.00  0.00     0.188 C 
ENDROOT
BRANCH   1   2
ATOM      2  O   UNL A   1      39.338  21.249  26.663  1.00  0.00    -0.376 OA
BRANCH   2   3
ATOM      3  C   UNL A   1      39.212  20.243  25.647  1.00  0.00     0.202 C 
BRANCH   3   4
ATOM      4  C   UNL A   1      37.651  19.852  24.856  1.00  0.00     0.261 C 
BRANCH   4   5
ATOM      5  O   UNL A   1      36.349  21.387  24.213  1.00  0.00    -0.461 OA
BRANCH   5   6
ATOM      6  C   UNL A   1      36.469  22.881  23.853  1.00  0.00     0.344 C 
ATOM      7  O   UNL A   1      36.874  23.306  22.766  1.00  0.00    -0.248 OA
BRANCH   6   8
ATOM      8  C   UNL A   1      36.286  23.800  25.032  1.00  0.00     0.352 C 
BRANCH   8   9
ATOM      9  O   UNL A   1      35.006  24.359  25.124  1.00  0.00    -0.481 OA
BRANCH   9  10
ATOM     10  C   UNL A   1      34.272  23.857  26.153  1.00  0.00     0.129 A 
ATOM     11  C   UNL A   1      34.933  22.796  26.786  1.00  0.00     0.047 A 
ATOM     12  C   UNL A   1      32.917  24.126  26.410  1.00  0.00     0.037 A 
ATOM     13  C   UNL A   1      34.254  21.987  27.680  1.00  0.00     0.004 A 
ATOM     14  C   UNL A   1      32.248  23.309  27.323  1.00  0.00     0.013 A 
ATOM     15  C   UNL A   1      32.913  22.247  27.949  1.00  0.00     0.001 A 
BRANCH  12  16
ATOM     16  C   UNL A   1      32.057  25.102  25.680  1.00  0.00     0.145 C 
ATOM     17  N   UNL A   1      32.453  26.309  25.423  1.00  0.00    -0.180 NA
BRANCH  17  18
ATOM     18  N   UNL A   1      31.584  27.130  24.732  1.00  0.00    -0.233 NA
ATOM     19  C   UNL A   1      31.903  28.605  24.756  1.00  0.00     0.298 C 
ATOM     20  C   UNL A   1      31.347  27.027  23.249  1.00  0.00     0.274 C 
ATOM     21  N   UNL A   1      32.136  29.107  23.380  1.00  0.00    -0.153 NA
ATOM     22  N   UNL A   1      31.872  28.218  22.544  1.00  0.00    -0.161 NA
BRANCH  19  23
ATOM     23  S   UNL A   1      33.207  29.117  25.929  1.00  0.00    -0.128 SA
ATOM     24  H   UNL A   1      32.775  30.188  26.647  1.00  0.00     0.106 HD
ENDBRANCH  19  23
BRANCH  20  25
ATOM     25  C   UNL A   1      31.459  25.804  22.264  1.00  0.00     0.202 C 
ATOM     26  C   UNL A   1      31.133  24.032  23.057  1.00  0.00     0.037 C 
ATOM     27  N   UNL A   1      33.262  25.471  21.392  1.00  0.00    -0.177 NA
ATOM     28  C   UNL A   1      32.358  23.082  22.789  1.00  0.00     0.091 C 
ATOM     29  N   UNL A   1      33.703  23.861  21.860  1.00  0.00    -0.155 NA
BRANCH  28  30
ATOM     30  C   UNL A   1      32.345  21.636  23.027  1.00  0.00     0.002 A 
ATOM     31  C   UNL A   1      32.635  21.133  24.293  1.00  0.00     0.010 A 
ATOM     32  C   UNL A   1      32.007  20.734  22.012  1.00  0.00     0.010 A 
ATOM     33  C   UNL A   1      32.742  19.762  24.520  1.00  0.00     0.001 A 
ATOM     34  C   UNL A   1      32.075  19.356  22.243  1.00  0.00     0.001 A 
ATOM     35  C   UNL A   1      32.479  18.872  23.486  1.00  0.00     0.000 A 
ENDBRANCH  28  30
ENDBRANCH  20  25
ENDBRANCH  17  18
ENDBRANCH  12  16
ENDBRANCH   9  10
ENDBRANCH   8   9
ENDBRANCH   6   8
ENDBRANCH   5   6
ENDBRANCH   4   5
ENDBRANCH   3   4
ENDBRANCH   2   3
ENDBRANCH   1   2
BRANCH   1  36
ATOM     36  C   UNL A   1      40.992  23.160  27.107  1.00  0.00     0.188 C 
BRANCH  36  37
ATOM     37  O   UNL A   1      42.140  22.337  26.930  1.00  0.00    -0.377 OA
BRANCH  37  38
ATOM     38  C   UNL A   1      42.585  22.202  25.601  1.00  0.00     0.188 C 
BRANCH  38  39
ATOM     39  C   UNL A   1      43.789  21.244  25.428  1.00  0.00     0.188 C 
BRANCH  39  40
ATOM     40  O   UNL A   1      45.160  21.612  25.636  1.00  0.00    -0.376 OA
BRANCH  40  41
ATOM     41  C   UNL A   1      45.992  22.252  24.678  1.00  0.00     0.202 C 
BRANCH  41  42
ATOM     42  C   UNL A   1      45.812  23.744  24.409  1.00  0.00     0.261 C 
BRANCH  42  43
ATOM     43  O   UNL A   1      45.583  24.471  25.593  1.00  0.00    -0.460 OA
BRANCH  43  44
ATOM     44  C   UNL A   1      45.003  25.664  25.370  1.00  0.00     0.338 C 
ATOM     45  O   UNL A   1      45.454  26.613  24.753  1.00  0.00    -0.246 OA
BRANCH  44  46
ATOM     46  C   UNL A   1      43.716  25.683  26.072  1.00  0.00     0.060 A 
ATOM     47  C   UNL A   1      42.714  26.373  25.400  1.00  0.00     0.016 A 
ATOM     48  C   UNL A   1      43.711  25.469  27.459  1.00  0.00     0.016 A 
ATOM     49  C   UNL A   1      42.014  27.267  26.151  1.00  0.00     0.010 A 
ATOM     50  C   UNL A   1      43.026  26.371  28.210  1.00  0.00     0.010 A 
ATOM     51  C   UNL A   1      42.319  27.343  27.515  1.00  0.00    -0.014 A 
BRANCH  51  52
ATOM     52  C   UNL A   1      41.920  28.543  28.186  1.00  0.00     0.031 A 
ATOM     53  C   UNL A   1      42.933  29.590  28.092  1.00  0.00     0.074 A 
ATOM     54  C   UNL A   1      40.738  28.645  28.813  1.00  0.00     0.049 A 
ATOM     55  N   UNL A   1      43.738  29.981  29.017  1.00  0.00    -0.248 NA
ATOM     56  C   UNL A   1      43.227  30.106  26.749  1.00  0.00     0.031 C 
ATOM     57  C   UNL A   1      39.561  27.779  28.706  1.00  0.00     0.029 A 
ATOM     58  N   UNL A   1      40.321  29.642  29.627  1.00  0.00    -0.354 N 
ATOM     59  C   UNL A   1      44.506  30.965  28.419  1.00  0.00     0.074 A 
ATOM     60  C   UNL A   1      44.306  30.844  26.999  1.00  0.00     0.031 C 
ATOM     61  C   UNL A   1      38.499  28.422  29.248  1.00  0.00     0.029 A 
ATOM     62  C   UNL A   1      38.955  29.671  29.839  1.00  0.00     0.049 A 
ATOM     63  H   UNL A   1      40.938  30.292  30.034  1.00  0.00     0.167 HD
ATOM     64  C   UNL A   1      45.012  31.985  29.154  1.00  0.00     0.037 A 
ATOM     65  C   UNL A   1      38.275  30.716  30.366  1.00  0.00     0.037 A 
ATOM     66  C   UNL A   1      45.027  31.673  30.561  1.00  0.00     0.049 A 
ATOM     67  C   UNL A   1      39.260  31.589  31.064  1.00  0.00     0.074 A 
ATOM     68  C   UNL A   1      45.610  30.680  31.325  1.00  0.00     0.029 A 
ATOM     69  N   UNL A   1      44.056  32.238  31.352  1.00  0.00    -0.354 N 
ATOM     70  N   UNL A   1      39.868  31.272  32.174  1.00  0.00    -0.248 NA
ATOM     71  C   UNL A   1      39.900  32.648  30.294  1.00  0.00     0.031 C 
ATOM     72  C   UNL A   1      44.675  30.407  32.366  1.00  0.00     0.029 A 
ATOM     73  C   UNL A   1      43.587  31.264  32.197  1.00  0.00     0.049 A 
ATOM     74  H   UNL A   1      43.751  33.173  31.319  1.00  0.00     0.167 HD
ATOM     75  C   UNL A   1      41.155  31.776  32.036  1.00  0.00     0.074 A 
ATOM     76  C   UNL A   1      41.083  32.704  30.912  1.00  0.00     0.031 C 
ATOM     77  C   UNL A   1      42.218  31.181  32.655  1.00  0.00     0.037 A 
BRANCH  64  78
ATOM     78  C   UNL A   1      45.109  33.385  28.623  1.00  0.00     0.057 A 
ATOM     79  C   UNL A   1      46.373  33.980  28.508  1.00  0.00     0.134 A 
ATOM     80  C   UNL A   1      44.011  34.263  28.481  1.00  0.00     0.134 A 
ATOM     81  F   UNL A   1      47.489  33.252  28.654  1.00  0.00    -0.206 F 
ATOM     82  C   UNL A   1      46.532  35.356  28.321  1.00  0.00     0.040 A 
ATOM     83  C   UNL A   1      44.158  35.626  28.232  1.00  0.00     0.040 A 
ATOM     84  F   UNL A   1      42.744  33.875  28.678  1.00  0.00    -0.206 F 
ATOM     85  C   UNL A   1      45.424  36.183  28.183  1.00  0.00     0.006 A 
ENDBRANCH  64  78
BRANCH  65  86
ATOM     86  C   UNL A   1      36.904  31.167  30.045  1.00  0.00     0.057 A 
ATOM     87  C   UNL A   1      36.098  31.763  31.023  1.00  0.00     0.134 A 
ATOM     88  C   UNL A   1      36.439  31.261  28.720  1.00  0.00     0.134 A 
ATOM     89  F   UNL A   1      36.478  31.765  32.309  1.00  0.00    -0.206 F 
ATOM     90  C   UNL A   1      34.911  32.434  30.703  1.00  0.00     0.040 A 
ATOM     91  C   UNL A   1      35.248  31.915  28.389  1.00  0.00     0.040 A 
ATOM     92  F   UNL A   1      37.164  30.802  27.691  1.00  0.00    -0.206 F 
ATOM     93  C   UNL A   1      34.487  32.518  29.380  1.00  0.00     0.006 A 
ENDBRANCH  65  86
BRANCH  77  94
ATOM     94  C   UNL A   1      41.921  30.160  33.718  1.00  0.00     0.057 A 
ATOM     95  C   UNL A   1      41.700  28.800  33.455  1.00  0.00     0.134 A 
ATOM     96  C   UNL A   1      41.998  30.542  35.062  1.00  0.00     0.134 A 
ATOM     97  F   UNL A   1      41.717  28.324  32.203  1.00  0.00    -0.206 F 
ATOM     98  C   UNL A   1      41.511  27.872  34.486  1.00  0.00     0.040 A 
ATOM     99  C   UNL A   1      41.847  29.619  36.100  1.00  0.00     0.040 A 
ATOM    100  F   UNL A   1      42.269  31.816  35.390  1.00  0.00    -0.206 F 
ATOM    101  C   UNL A   1      41.590  28.282  35.813  1.00  0.00     0.006 A 
ENDBRANCH  77  94
ENDBRANCH  51  52
ENDBRANCH  44  46
ENDBRANCH  43  44
ENDBRANCH  42  43
ENDBRANCH  41  42
ENDBRANCH  40  41
ENDBRANCH  39  40
ENDBRANCH  38  39
ENDBRANCH  37  38
ENDBRANCH  36  37
ENDBRANCH   1  36
TORSDOF 27
ENDMDL
MODEL 2
REMARK VINA RESULT:     -10.6      2.125      5.565
REMARK SMILES O=C(COc1ccccc1/C=N/N1[C@@H](S)N=N[C@H]1[C@@H]1C=C(c2ccccc2)N=N1)OCCOCCOCCOCCOC(=O)c1ccc(-c2c3nc(c(-c4c(F)cccc4F)c4ccc([nH]4)c(-c4c(F)cccc4F)c4nc(c(-c5c(F)cccc5F)c5ccc2[nH]5)C=C4)C=C3)cc1
REMARK SMILES IDX 34 1 33 2 32 3 31 4 30 5 2 6 1 7 3 8 4 9 5 10 6 11 10 12
REMARK SMILES IDX 7 13 9 14 8 15 11 16 12 17 13 18 14 19 18 20 16 21 17 22
REMARK SMILES IDX 15 23 19 25 20 26 29 27 21 28 28 29 22 30 23 31 27 32 24 33
REMARK SMILES IDX 26 34 25 35 35 36 36 37 37 38 38 39 39 40 40 41 41 42 42 43
REMARK SMILES IDX 43 44 44 45 45 46 46 47 98 48 47 49 97 50 48 51 49 52 50 53
REMARK SMILES IDX 91 54 51 55 96 56 90 57 92 58 52 59 95 60 89 61 88 62 53 64
REMARK SMILES IDX 79 65 62 66 78 67 63 68 66 69 77 70 93 71 64 72 65 73 76 75
REMARK SMILES IDX 94 76 67 77 54 78 55 79 60 80 56 81 57 82 59 83 61 84 58 85
REMARK SMILES IDX 80 86 81 87 86 88 82 89 83 90 85 91 87 92 84 93 68 94 69 95
REMARK SMILES IDX 74 96 70 97 71 98 73 99 75 100 72 101
REMARK H PARENT 15 24 92 63 66 74
REMARK Flexibility Score: inf
ROOT
ATOM      1  C   UNL A   1      39.286  22.540  26.473  1.00  0.00     0.188 C 
ENDROOT
BRANCH   1   2
ATOM      2  O   UNL A   1      39.432  21.111  26.576  1.00  0.00    -0.376 OA
BRANCH   2   3
ATOM      3  C   UNL A   1      39.246  20.112  25.562  1.00  0.00     0.202 C 
BRANCH   3   4
ATOM      4  C   UNL A   1      37.652  19.768  24.819  1.00  0.00     0.261 C 
BRANCH   4   5
ATOM      5  O   UNL A   1      36.315  21.335  24.351  1.00  0.00    -0.461 OA
BRANCH   5   6
ATOM      6  C   UNL A   1      36.424  22.795  23.866  1.00  0.00     0.344 C 
ATOM      7  O   UNL A   1      36.781  23.129  22.732  1.00  0.00    -0.248 OA
BRANCH   6   8
ATOM      8  C   UNL A   1      36.298  23.807  24.974  1.00  0.00     0.352 C 
BRANCH   8   9
ATOM      9  O   UNL A   1      35.022  24.374  25.085  1.00  0.00    -0.481 OA
BRANCH   9  10
ATOM     10  C   UNL A   1      34.302  23.881  26.127  1.00  0.00     0.129 A 
ATOM     11  C   UNL A   1      34.971  22.824  26.760  1.00  0.00     0.047 A 
ATOM     12  C   UNL A   1      32.950  24.152  26.399  1.00  0.00     0.037 A 
ATOM     13  C   UNL A   1      34.303  22.021  27.668  1.00  0.00     0.004 A 
ATOM     14  C   UNL A   1      32.293  23.342  27.327  1.00  0.00     0.013 A 
ATOM     15  C   UNL A   1      32.966  22.284  27.953  1.00  0.00     0.001 A 
BRANCH  12  16
ATOM     16  C   UNL A   1      32.082  25.123  25.674  1.00  0.00     0.145 C 
ATOM     17  N   UNL A   1      32.480  26.323  25.390  1.00  0.00    -0.180 NA
BRANCH  17  18
ATOM     18  N   UNL A   1      31.602  27.140  24.705  1.00  0.00    -0.233 NA
ATOM     19  C   UNL A   1      31.924  28.614  24.710  1.00  0.00     0.298 C 
ATOM     20  C   UNL A   1      31.340  27.023  23.227  1.00  0.00     0.274 C 
ATOM     21  N   UNL A   1      32.136  29.102  23.326  1.00  0.00    -0.153 NA
ATOM     22  N   UNL A   1      31.856  28.206  22.503  1.00  0.00    -0.161 NA
BRANCH  19  23
ATOM     23  S   UNL A   1      33.249  29.134  25.857  1.00  0.00    -0.128 SA
ATOM     24  H   UNL A   1      32.699  29.768  26.927  1.00  0.00     0.106 HD
ENDBRANCH  19  23
BRANCH  20  25
ATOM     25  C   UNL A   1      31.433  25.791  22.252  1.00  0.00     0.202 C 
ATOM     26  C   UNL A   1      31.179  24.023  23.078  1.00  0.00     0.037 C 
ATOM     27  N   UNL A   1      33.202  25.483  21.304  1.00  0.00    -0.177 NA
ATOM     28  C   UNL A   1      32.410  23.094  22.767  1.00  0.00     0.091 C 
ATOM     29  N   UNL A   1      33.697  23.888  21.770  1.00  0.00    -0.155 NA
BRANCH  28  30
ATOM     30  C   UNL A   1      32.437  21.650  23.022  1.00  0.00     0.002 A 
ATOM     31  C   UNL A   1      32.085  20.756  22.015  1.00  0.00     0.010 A 
ATOM     32  C   UNL A   1      32.852  21.137  24.256  1.00  0.00     0.010 A 
ATOM     33  C   UNL A   1      31.992  19.388  22.263  1.00  0.00     0.001 A 
ATOM     34  C   UNL A   1      32.798  19.761  24.500  1.00  0.00     0.001 A 
ATOM     35  C   UNL A   1      32.332  18.892  23.515  1.00  0.00     0.000 A 
ENDBRANCH  28  30
ENDBRANCH  20  25
ENDBRANCH  17  18
ENDBRANCH  12  16
ENDBRANCH   9  10
ENDBRANCH   8   9
ENDBRANCH   6   8
ENDBRANCH   5   6
ENDBRANCH   4   5
ENDBRANCH   3   4
ENDBRANCH   2   3
ENDBRANCH   1   2
BRANCH   1  36
ATOM     36  C   UNL A   1      40.531  23.407  26.902  1.00  0.00     0.188 C 
BRANCH  36  37
ATOM     37  O   UNL A   1      41.771  22.737  27.102  1.00  0.00    -0.377 OA
BRANCH  37  38
ATOM     38  C   UNL A   1      42.466  22.392  25.926  1.00  0.00     0.188 C 
BRANCH  38  39
ATOM     39  C   UNL A   1      43.050  20.959  25.930  1.00  0.00     0.188 C 
BRANCH  39  40
ATOM     40  O   UNL A   1      44.377  20.618  25.503  1.00  0.00    -0.376 OA
BRANCH  40  41
ATOM     41  C   UNL A   1      44.928  20.911  24.226  1.00  0.00     0.202 C 
BRANCH  41  42
ATOM     42  C   UNL A   1      45.335  22.345  23.897  1.00  0.00     0.261 C 
BRANCH  42  43
ATOM     43  O   UNL A   1      46.313  22.833  24.786  1.00  0.00    -0.460 OA
BRANCH  43  44
ATOM     44  C   UNL A   1      46.006  24.042  25.288  1.00  0.00     0.338 C 
ATOM     45  O   UNL A   1      45.495  24.986  24.711  1.00  0.00    -0.246 OA
BRANCH  44  46
ATOM     46  C   UNL A   1      46.461  24.085  26.682  1.00  0.00     0.060 A 
ATOM     47  C   UNL A   1      45.687  23.330  27.554  1.00  0.00     0.016 A 
ATOM     48  C   UNL A   1      47.251  25.171  27.090  1.00  0.00     0.016 A 
ATOM     49  C   UNL A   1      45.305  23.965  28.697  1.00  0.00     0.010 A 
ATOM     50  C   UNL A   1      46.859  25.815  28.221  1.00  0.00     0.010 A 
ATOM     51  C   UNL A   1      45.785  25.263  28.905  1.00  0.00    -0.014 A 
BRANCH  51  52
ATOM     52  C   UNL A   1      45.056  26.063  29.842  1.00  0.00     0.031 A 
ATOM     53  C   UNL A   1      43.810  26.575  29.277  1.00  0.00     0.074 A 
ATOM     54  C   UNL A   1      45.507  26.286  31.087  1.00  0.00     0.049 A 
ATOM     55  N   UNL A   1      43.569  27.777  28.884  1.00  0.00    -0.248 NA
ATOM     56  C   UNL A   1      42.794  25.581  28.909  1.00  0.00     0.031 C 
ATOM     57  C   UNL A   1      46.563  25.586  31.822  1.00  0.00     0.029 A 
ATOM     58  N   UNL A   1      45.014  27.158  31.996  1.00  0.00    -0.354 N 
ATOM     59  C   UNL A   1      42.270  27.735  28.412  1.00  0.00     0.074 A 
ATOM     60  C   UNL A   1      41.930  26.346  28.247  1.00  0.00     0.031 C 
ATOM     61  C   UNL A   1      46.466  25.912  33.134  1.00  0.00     0.029 A 
ATOM     62  C   UNL A   1      45.433  26.924  33.293  1.00  0.00     0.049 A 
ATOM     63  H   UNL A   1      44.409  27.896  31.756  1.00  0.00     0.167 HD
ATOM     64  C   UNL A   1      41.478  28.833  28.474  1.00  0.00     0.037 A 
ATOM     65  C   UNL A   1      44.868  27.464  34.399  1.00  0.00     0.037 A 
ATOM     66  C   UNL A   1      42.251  30.037  28.648  1.00  0.00     0.049 A 
ATOM     67  C   UNL A   1      44.066  28.643  33.965  1.00  0.00     0.074 A 
ATOM     68  C   UNL A   1      43.252  30.657  27.924  1.00  0.00     0.029 A 
ATOM     69  N   UNL A   1      42.288  30.599  29.902  1.00  0.00    -0.354 N 
ATOM     70  N   UNL A   1      44.578  29.763  33.536  1.00  0.00    -0.248 NA
ATOM     71  C   UNL A   1      42.672  28.423  33.600  1.00  0.00     0.031 C 
ATOM     72  C   UNL A   1      44.118  31.236  28.898  1.00  0.00     0.029 A 
ATOM     73  C   UNL A   1      43.585  30.963  30.158  1.00  0.00     0.049 A 
ATOM     74  H   UNL A   1      41.521  30.718  30.507  1.00  0.00     0.167 HD
ATOM     75  C   UNL A   1      43.729  30.179  32.517  1.00  0.00     0.074 A 
ATOM     76  C   UNL A   1      42.521  29.377  32.677  1.00  0.00     0.031 C 
ATOM     77  C   UNL A   1      44.193  30.924  31.470  1.00  0.00     0.037 A 
BRANCH  64  78
ATOM     78  C   UNL A   1      40.011  28.749  28.776  1.00  0.00     0.057 A 
ATOM     79  C   UNL A   1      39.096  29.232  27.829  1.00  0.00     0.134 A 
ATOM     80  C   UNL A   1      39.473  28.471  30.052  1.00  0.00     0.134 A 
ATOM     81  F   UNL A   1      39.498  29.559  26.592  1.00  0.00    -0.206 F 
ATOM     82  C   UNL A   1      37.757  29.474  28.147  1.00  0.00     0.040 A 
ATOM     83  C   UNL A   1      38.126  28.650  30.361  1.00  0.00     0.040 A 
ATOM     84  F   UNL A   1      40.232  28.115  31.096  1.00  0.00    -0.206 F 
ATOM     85  C   UNL A   1      37.268  29.184  29.416  1.00  0.00     0.006 A 
ENDBRANCH  64  78
BRANCH  65  86
ATOM     86  C   UNL A   1      44.722  26.854  35.738  1.00  0.00     0.057 A 
ATOM     87  C   UNL A   1      45.307  27.449  36.864  1.00  0.00     0.134 A 
ATOM     88  C   UNL A   1      43.800  25.823  35.994  1.00  0.00     0.134 A 
ATOM     89  F   UNL A   1      46.165  28.470  36.725  1.00  0.00    -0.206 F 
ATOM     90  C   UNL A   1      44.979  27.059  38.168  1.00  0.00     0.040 A 
ATOM     91  C   UNL A   1      43.475  25.413  37.291  1.00  0.00     0.040 A 
ATOM     92  F   UNL A   1      43.116  25.236  35.003  1.00  0.00    -0.206 F 
ATOM     93  C   UNL A   1      44.053  26.042  38.384  1.00  0.00     0.006 A 
ENDBRANCH  65  86
BRANCH  77  94
ATOM     94  C   UNL A   1      45.563  31.528  31.600  1.00  0.00     0.057 A 
ATOM     95  C   UNL A   1      45.814  32.776  32.191  1.00  0.00     0.134 A 
ATOM     96  C   UNL A   1      46.677  30.762  31.239  1.00  0.00     0.134 A 
ATOM     97  F   UNL A   1      44.815  33.531  32.666  1.00  0.00    -0.206 F 
ATOM     98  C   UNL A   1      47.115  33.259  32.366  1.00  0.00     0.040 A 
ATOM     99  C   UNL A   1      47.981  31.218  31.440  1.00  0.00     0.040 A 
ATOM    100  F   UNL A   1      46.514  29.533  30.724  1.00  0.00    -0.206 F 
ATOM    101  C   UNL A   1      48.204  32.475  31.994  1.00  0.00     0.006 A 
ENDBRANCH  77  94
ENDBRANCH  51  52
ENDBRANCH  44  46
ENDBRANCH  43  44
ENDBRANCH  42  43
ENDBRANCH  41  42
ENDBRANCH  40  41
ENDBRANCH  39  40
ENDBRANCH  38  39
ENDBRANCH  37  38
ENDBRANCH  36  37
ENDBRANCH   1  36
TORSDOF 27
ENDMDL
MODEL 3
REMARK VINA RESULT:      -9.8      5.205      8.620
REMARK SMILES O=C(COc1ccccc1/C=N/N1[C@@H](S)N=N[C@H]1[C@@H]1C=C(c2ccccc2)N=N1)OCCOCCOCCOCCOC(=O)c1ccc(-c2c3nc(c(-c4c(F)cccc4F)c4ccc([nH]4)c(-c4c(F)cccc4F)c4nc(c(-c5c(F)cccc5F)c5ccc2[nH]5)C=C4)C=C3)cc1
REMARK SMILES IDX 34 1 33 2 32 3 31 4 30 5 2 6 1 7 3 8 4 9 5 10 6 11 10 12
REMARK SMILES IDX 7 13 9 14 8 15 11 16 12 17 13 18 14 19 18 20 16 21 17 22
REMARK SMILES IDX 15 23 19 25 20 26 29 27 21 28 28 29 22 30 23 31 27 32 24 33
REMARK SMILES IDX 26 34 25 35 35 36 36 37 37 38 38 39 39 40 40 41 41 42 42 43
REMARK SMILES IDX 43 44 44 45 45 46 46 47 98 48 47 49 97 50 48 51 49 52 50 53
REMARK SMILES IDX 91 54 51 55 96 56 90 57 92 58 52 59 95 60 89 61 88 62 53 64
REMARK SMILES IDX 79 65 62 66 78 67 63 68 66 69 77 70 93 71 64 72 65 73 76 75
REMARK SMILES IDX 94 76 67 77 54 78 55 79 60 80 56 81 57 82 59 83 61 84 58 85
REMARK SMILES IDX 80 86 81 87 86 88 82 89 83 90 85 91 87 92 84 93 68 94 69 95
REMARK SMILES IDX 74 96 70 97 71 98 73 99 75 100 72 101
REMARK H PARENT 15 24 92 63 66 74
REMARK Flexibility Score: inf
ROOT
ATOM      1  C   UNL A   1      39.660  22.922  26.962  1.00  0.00     0.188 C 
ENDROOT
BRANCH   1   2
ATOM      2  O   UNL A   1      39.681  21.482  26.990  1.00  0.00    -0.376 OA
BRANCH   2   3
ATOM      3  C   UNL A   1      39.778  20.562  25.892  1.00  0.00     0.202 C 
BRANCH   3   4
ATOM      4  C   UNL A   1      38.351  20.017  24.954  1.00  0.00     0.261 C 
BRANCH   4   5
ATOM      5  O   UNL A   1      36.744  21.332  24.566  1.00  0.00    -0.461 OA
BRANCH   5   6
ATOM      6  C   UNL A   1      36.569  22.746  23.976  1.00  0.00     0.344 C 
ATOM      7  O   UNL A   1      36.798  23.044  22.800  1.00  0.00    -0.248 OA
BRANCH   6   8
ATOM      8  C   UNL A   1      36.330  23.806  25.018  1.00  0.00     0.352 C 
BRANCH   8   9
ATOM      9  O   UNL A   1      35.014  24.283  25.054  1.00  0.00    -0.481 OA
BRANCH   9  10
ATOM     10  C   UNL A   1      34.301  23.817  26.114  1.00  0.00     0.129 A 
ATOM     11  C   UNL A   1      34.974  22.777  26.769  1.00  0.00     0.047 A 
ATOM     12  C   UNL A   1      32.951  24.096  26.388  1.00  0.00     0.037 A 
ATOM     13  C   UNL A   1      34.312  21.999  27.702  1.00  0.00     0.004 A 
ATOM     14  C   UNL A   1      32.300  23.311  27.341  1.00  0.00     0.013 A 
ATOM     15  C   UNL A   1      32.977  22.269  27.989  1.00  0.00     0.001 A 
BRANCH  12  16
ATOM     16  C   UNL A   1      32.077  25.048  25.643  1.00  0.00     0.145 C 
ATOM     17  N   UNL A   1      32.451  26.260  25.379  1.00  0.00    -0.180 NA
BRANCH  17  18
ATOM     18  N   UNL A   1      31.571  27.058  24.674  1.00  0.00    -0.233 NA
ATOM     19  C   UNL A   1      31.859  28.539  24.688  1.00  0.00     0.298 C 
ATOM     20  C   UNL A   1      31.348  26.937  23.190  1.00  0.00     0.274 C 
ATOM     21  N   UNL A   1      32.093  29.034  23.309  1.00  0.00    -0.153 NA
ATOM     22  N   UNL A   1      31.854  28.133  22.479  1.00  0.00    -0.161 NA
BRANCH  19  23
ATOM     23  S   UNL A   1      33.144  29.088  25.867  1.00  0.00    -0.128 SA
ATOM     24  H   UNL A   1      34.231  29.528  25.179  1.00  0.00     0.106 HD
ENDBRANCH  19  23
BRANCH  20  25
ATOM     25  C   UNL A   1      31.492  25.709  22.217  1.00  0.00     0.202 C 
ATOM     26  C   UNL A   1      31.233  23.936  23.030  1.00  0.00     0.037 C 
ATOM     27  N   UNL A   1      33.298  25.428  21.332  1.00  0.00    -0.177 NA
ATOM     28  C   UNL A   1      32.487  23.024  22.761  1.00  0.00     0.091 C 
ATOM     29  N   UNL A   1      33.797  23.838  21.812  1.00  0.00    -0.155 NA
BRANCH  28  30
ATOM     30  C   UNL A   1      32.525  21.581  23.014  1.00  0.00     0.002 A 
ATOM     31  C   UNL A   1      32.055  20.690  22.052  1.00  0.00     0.010 A 
ATOM     32  C   UNL A   1      33.064  21.063  24.197  1.00  0.00     0.010 A 
ATOM     33  C   UNL A   1      31.973  19.323  22.311  1.00  0.00     0.001 A 
ATOM     34  C   UNL A   1      33.021  19.688  24.448  1.00  0.00     0.001 A 
ATOM     35  C   UNL A   1      32.441  18.824  23.520  1.00  0.00     0.000 A 
ENDBRANCH  28  30
ENDBRANCH  20  25
ENDBRANCH  17  18
ENDBRANCH  12  16
ENDBRANCH   9  10
ENDBRANCH   8   9
ENDBRANCH   6   8
ENDBRANCH   5   6
ENDBRANCH   4   5
ENDBRANCH   3   4
ENDBRANCH   2   3
ENDBRANCH   1   2
BRANCH   1  36
ATOM     36  C   UNL A   1      40.944  23.654  27.512  1.00  0.00     0.188 C 
BRANCH  36  37
ATOM     37  O   UNL A   1      41.955  22.858  28.120  1.00  0.00    -0.377 OA
BRANCH  37  38
ATOM     38  C   UNL A   1      43.257  23.391  28.063  1.00  0.00     0.188 C 
BRANCH  38  39
ATOM     39  C   UNL A   1      44.107  22.866  26.880  1.00  0.00     0.188 C 
BRANCH  39  40
ATOM     40  O   UNL A   1      44.208  23.508  25.601  1.00  0.00    -0.376 OA
BRANCH  40  41
ATOM     41  C   UNL A   1      43.416  24.606  25.169  1.00  0.00     0.202 C 
BRANCH  41  42
ATOM     42  C   UNL A   1      43.779  26.017  25.625  1.00  0.00     0.261 C 
BRANCH  42  43
ATOM     43  O   UNL A   1      45.142  26.128  25.963  1.00  0.00    -0.460 OA
BRANCH  43  44
ATOM     44  C   UNL A   1      45.438  27.295  26.562  1.00  0.00     0.338 C 
ATOM     45  O   UNL A   1      44.777  28.319  26.577  1.00  0.00    -0.246 OA
BRANCH  44  46
ATOM     46  C   UNL A   1      46.768  27.172  27.166  1.00  0.00     0.060 A 
ATOM     47  C   UNL A   1      47.225  25.865  27.270  1.00  0.00     0.016 A 
ATOM     48  C   UNL A   1      47.229  28.220  27.979  1.00  0.00     0.016 A 
ATOM     49  C   UNL A   1      47.728  25.515  28.486  1.00  0.00     0.010 A 
ATOM     50  C   UNL A   1      47.715  27.872  29.200  1.00  0.00     0.010 A 
ATOM     51  C   UNL A   1      47.800  26.512  29.466  1.00  0.00    -0.014 A 
BRANCH  51  52
ATOM     52  C   UNL A   1      47.901  26.060  30.820  1.00  0.00     0.031 A 
ATOM     53  C   UNL A   1      46.635  26.182  31.537  1.00  0.00     0.074 A 
ATOM     54  C   UNL A   1      49.051  25.586  31.326  1.00  0.00     0.049 A 
ATOM     55  N   UNL A   1      46.322  27.063  32.422  1.00  0.00    -0.248 NA
ATOM     56  C   UNL A   1      45.520  25.359  31.052  1.00  0.00     0.031 C 
ATOM     57  C   UNL A   1      50.259  25.154  30.618  1.00  0.00     0.029 A 
ATOM     58  N   UNL A   1      49.325  25.302  32.620  1.00  0.00    -0.354 N 
ATOM     59  C   UNL A   1      45.016  26.761  32.767  1.00  0.00     0.074 A 
ATOM     60  C   UNL A   1      44.512  25.869  31.757  1.00  0.00     0.031 C 
ATOM     61  C   UNL A   1      51.036  24.453  31.478  1.00  0.00     0.029 A 
ATOM     62  C   UNL A   1      50.437  24.502  32.803  1.00  0.00     0.049 A 
ATOM     63  H   UNL A   1      48.780  25.637  33.367  1.00  0.00     0.167 HD
ATOM     64  C   UNL A   1      44.552  27.034  34.011  1.00  0.00     0.037 A 
ATOM     65  C   UNL A   1      50.745  23.855  33.951  1.00  0.00     0.037 A 
ATOM     66  C   UNL A   1      45.379  28.002  34.688  1.00  0.00     0.049 A 
ATOM     67  C   UNL A   1      49.971  24.495  35.051  1.00  0.00     0.074 A 
ATOM     68  C   UNL A   1      45.763  29.303  34.419  1.00  0.00     0.029 A 
ATOM     69  N   UNL A   1      46.247  27.542  35.648  1.00  0.00    -0.354 N 
ATOM     70  N   UNL A   1      50.209  25.689  35.521  1.00  0.00    -0.248 NA
ATOM     71  C   UNL A   1      48.642  23.974  35.345  1.00  0.00     0.031 C 
ATOM     72  C   UNL A   1      47.099  29.409  34.904  1.00  0.00     0.029 A 
ATOM     73  C   UNL A   1      47.448  28.180  35.465  1.00  0.00     0.049 A 
ATOM     74  H   UNL A   1      46.045  26.875  36.342  1.00  0.00     0.167 HD
ATOM     75  C   UNL A   1      48.957  26.226  35.792  1.00  0.00     0.074 A 
ATOM     76  C   UNL A   1      48.042  25.090  35.768  1.00  0.00     0.031 C 
ATOM     77  C   UNL A   1      48.735  27.573  35.723  1.00  0.00     0.037 A 
BRANCH  64  78
ATOM     78  C   UNL A   1      43.597  26.127  34.729  1.00  0.00     0.057 A 
ATOM     79  C   UNL A   1      43.953  24.785  34.923  1.00  0.00     0.134 A 
ATOM     80  C   UNL A   1      42.244  26.439  34.992  1.00  0.00     0.134 A 
ATOM     81  F   UNL A   1      45.203  24.365  34.676  1.00  0.00    -0.206 F 
ATOM     82  C   UNL A   1      43.019  23.815  35.296  1.00  0.00     0.040 A 
ATOM     83  C   UNL A   1      41.319  25.491  35.425  1.00  0.00     0.040 A 
ATOM     84  F   UNL A   1      41.719  27.646  34.746  1.00  0.00    -0.206 F 
ATOM     85  C   UNL A   1      41.698  24.166  35.548  1.00  0.00     0.006 A 
ENDBRANCH  64  78
BRANCH  65  86
ATOM     86  C   UNL A   1      51.410  22.543  34.109  1.00  0.00     0.057 A 
ATOM     87  C   UNL A   1      50.741  21.356  33.782  1.00  0.00     0.134 A 
ATOM     88  C   UNL A   1      52.794  22.429  34.339  1.00  0.00     0.134 A 
ATOM     89  F   UNL A   1      49.430  21.370  33.503  1.00  0.00    -0.206 F 
ATOM     90  C   UNL A   1      51.411  20.131  33.667  1.00  0.00     0.040 A 
ATOM     91  C   UNL A   1      53.471  21.210  34.241  1.00  0.00     0.040 A 
ATOM     92  F   UNL A   1      53.553  23.506  34.578  1.00  0.00    -0.206 F 
ATOM     93  C   UNL A   1      52.782  20.057  33.889  1.00  0.00     0.006 A 
ENDBRANCH  65  86
BRANCH  77  94
ATOM     94  C   UNL A   1      49.936  28.472  35.643  1.00  0.00     0.057 A 
ATOM     95  C   UNL A   1      50.623  28.961  36.764  1.00  0.00     0.134 A 
ATOM     96  C   UNL A   1      50.498  28.739  34.389  1.00  0.00     0.134 A 
ATOM     97  F   UNL A   1      50.221  28.665  38.007  1.00  0.00    -0.206 F 
ATOM     98  C   UNL A   1      51.788  29.726  36.638  1.00  0.00     0.040 A 
ATOM     99  C   UNL A   1      51.679  29.472  34.252  1.00  0.00     0.040 A 
ATOM    100  F   UNL A   1      49.929  28.251  33.275  1.00  0.00    -0.206 F 
ATOM    101  C   UNL A   1      52.321  29.979  35.378  1.00  0.00     0.006 A 
ENDBRANCH  77  94
ENDBRANCH  51  52
ENDBRANCH  44  46
ENDBRANCH  43  44
ENDBRANCH  42  43
ENDBRANCH  41  42
ENDBRANCH  40  41
ENDBRANCH  39  40
ENDBRANCH  38  39
ENDBRANCH  37  38
ENDBRANCH  36  37
ENDBRANCH   1  36
TORSDOF 27
ENDMDL
