MODEL 1
REMARK VINA RESULT:      -9.2      0.000      0.000
REMARK SMILES O=C(OCCOCCOCCOCCOC(=O)C1(Cc2cccc(Cl)c2)CCCC1)c1ccc(-c2c3nc(c(-c4c(F)cccc4F)c4ccc([nH]4)c(-c4c(F)cccc4F)c4nc(c(-c5c(F)cccc5F)c5ccc2[nH]5)C=C4)C=C3)cc1
REMARK SMILES IDX 9 1 8 2 7 3 6 4 5 5 4 6 3 7 2 8 1 9 31 10 32 11 84 12 33 13
REMARK SMILES IDX 83 14 34 15 35 16 36 17 77 18 37 19 82 20 76 21 78 22 38 23
REMARK SMILES IDX 81 24 75 25 74 26 39 28 65 29 48 30 64 31 49 32 52 33 63 34
REMARK SMILES IDX 79 35 50 36 51 37 62 39 80 40 53 41 40 42 41 43 46 44 42 45
REMARK SMILES IDX 43 46 45 47 47 48 44 49 66 50 67 51 72 52 68 53 69 54 71 55
REMARK SMILES IDX 73 56 70 57 54 58 55 59 60 60 56 61 57 62 59 63 61 64 58 65
REMARK SMILES IDX 10 66 11 67 12 68 13 69 14 70 15 71 16 72 17 73 18 74 27 75
REMARK SMILES IDX 30 76 28 77 29 78 19 79 20 80 21 81 26 82 22 83 24 84 23 85
REMARK SMILES IDX 25 86
REMARK H PARENT 78 27 52 38
REMARK Flexibility Score: inf
ROOT
ATOM      1  O   UNL A   1      32.235  27.701  22.850  1.00  0.00    -0.377 OA
ENDROOT
BRANCH   1   2
ATOM      2  C   UNL A   1      31.206  28.624  22.573  1.00  0.00     0.188 C 
BRANCH   2   3
ATOM      3  C   UNL A   1      30.500  29.185  23.797  1.00  0.00     0.188 C 
BRANCH   3   4
ATOM      4  O   UNL A   1      31.397  29.895  24.654  1.00  0.00    -0.376 OA
BRANCH   4   5
ATOM      5  C   UNL A   1      31.685  29.290  25.913  1.00  0.00     0.202 C 
BRANCH   5   6
ATOM      6  C   UNL A   1      32.222  30.193  27.028  1.00  0.00     0.261 C 
BRANCH   6   7
ATOM      7  O   UNL A   1      33.517  29.877  27.569  1.00  0.00    -0.460 OA
BRANCH   7   8
ATOM      8  C   UNL A   1      34.530  30.659  28.012  1.00  0.00     0.338 C 
ATOM      9  O   UNL A   1      34.351  31.877  28.032  1.00  0.00    -0.246 OA
BRANCH   8  10
ATOM     10  C   UNL A   1      35.906  30.157  28.323  1.00  0.00     0.060 A 
ATOM     11  C   UNL A   1      36.315  29.696  29.570  1.00  0.00     0.016 A 
ATOM     12  C   UNL A   1      36.829  30.078  27.258  1.00  0.00     0.016 A 
ATOM     13  C   UNL A   1      37.525  29.051  29.746  1.00  0.00     0.010 A 
ATOM     14  C   UNL A   1      38.112  29.555  27.454  1.00  0.00     0.010 A 
ATOM     15  C   UNL A   1      38.451  29.044  28.708  1.00  0.00    -0.014 A 
BRANCH  15  16
ATOM     16  C   UNL A   1      39.841  28.838  29.135  1.00  0.00     0.031 A 
ATOM     17  C   UNL A   1      40.478  27.552  28.693  1.00  0.00     0.074 A 
ATOM     18  C   UNL A   1      40.552  29.857  29.639  1.00  0.00     0.049 A 
ATOM     19  N   UNL A   1      41.699  27.128  28.853  1.00  0.00    -0.248 NA
ATOM     20  C   UNL A   1      39.625  26.637  27.906  1.00  0.00     0.031 C 
ATOM     21  C   UNL A   1      40.040  31.209  29.876  1.00  0.00     0.029 A 
ATOM     22  N   UNL A   1      41.869  29.928  29.997  1.00  0.00    -0.354 N 
ATOM     23  C   UNL A   1      41.754  25.905  28.196  1.00  0.00     0.074 A 
ATOM     24  C   UNL A   1      40.458  25.654  27.621  1.00  0.00     0.031 C 
ATOM     25  C   UNL A   1      41.039  31.975  30.348  1.00  0.00     0.029 A 
ATOM     26  C   UNL A   1      42.234  31.152  30.498  1.00  0.00     0.049 A 
ATOM     27  H   UNL A   1      42.494  29.173  29.904  1.00  0.00     0.167 HD
ATOM     28  C   UNL A   1      42.803  25.058  28.106  1.00  0.00     0.037 A 
ATOM     29  C   UNL A   1      43.402  31.525  31.052  1.00  0.00     0.037 A 
ATOM     30  C   UNL A   1      44.062  25.329  28.735  1.00  0.00     0.049 A 
ATOM     31  C   UNL A   1      44.499  30.494  31.111  1.00  0.00     0.074 A 
ATOM     32  C   UNL A   1      45.170  24.515  28.852  1.00  0.00     0.029 A 
ATOM     33  N   UNL A   1      44.364  26.527  29.374  1.00  0.00    -0.354 N 
ATOM     34  N   UNL A   1      44.525  29.285  30.595  1.00  0.00    -0.248 NA
ATOM     35  C   UNL A   1      45.717  30.861  31.841  1.00  0.00     0.031 C 
ATOM     36  C   UNL A   1      46.122  25.202  29.613  1.00  0.00     0.029 A 
ATOM     37  C   UNL A   1      45.633  26.467  29.912  1.00  0.00     0.049 A 
ATOM     38  H   UNL A   1      43.761  27.302  29.434  1.00  0.00     0.167 HD
ATOM     39  C   UNL A   1      45.766  28.755  30.917  1.00  0.00     0.074 A 
ATOM     40  C   UNL A   1      46.469  29.785  31.659  1.00  0.00     0.031 C 
ATOM     41  C   UNL A   1      46.285  27.533  30.633  1.00  0.00     0.037 A 
BRANCH  28  42
ATOM     42  C   UNL A   1      42.557  23.747  27.419  1.00  0.00     0.057 A 
ATOM     43  C   UNL A   1      42.209  22.584  28.119  1.00  0.00     0.134 A 
ATOM     44  C   UNL A   1      42.757  23.632  26.038  1.00  0.00     0.134 A 
ATOM     45  F   UNL A   1      42.048  22.614  29.451  1.00  0.00    -0.206 F 
ATOM     46  C   UNL A   1      42.097  21.349  27.473  1.00  0.00     0.040 A 
ATOM     47  C   UNL A   1      42.624  22.409  25.377  1.00  0.00     0.040 A 
ATOM     48  F   UNL A   1      43.113  24.702  25.310  1.00  0.00    -0.206 F 
ATOM     49  C   UNL A   1      42.303  21.261  26.097  1.00  0.00     0.006 A 
ENDBRANCH  28  42
BRANCH  29  50
ATOM     50  C   UNL A   1      43.564  32.875  31.657  1.00  0.00     0.057 A 
ATOM     51  C   UNL A   1      44.069  33.956  30.927  1.00  0.00     0.134 A 
ATOM     52  C   UNL A   1      43.254  33.106  33.006  1.00  0.00     0.134 A 
ATOM     53  F   UNL A   1      44.407  33.803  29.638  1.00  0.00    -0.206 F 
ATOM     54  C   UNL A   1      44.278  35.207  31.516  1.00  0.00     0.040 A 
ATOM     55  C   UNL A   1      43.430  34.358  33.600  1.00  0.00     0.040 A 
ATOM     56  F   UNL A   1      42.772  32.116  33.771  1.00  0.00    -0.206 F 
ATOM     57  C   UNL A   1      43.954  35.412  32.856  1.00  0.00     0.006 A 
ENDBRANCH  29  50
BRANCH  41  58
ATOM     58  C   UNL A   1      47.688  27.274  31.089  1.00  0.00     0.057 A 
ATOM     59  C   UNL A   1      47.966  26.654  32.311  1.00  0.00     0.134 A 
ATOM     60  C   UNL A   1      48.767  27.591  30.254  1.00  0.00     0.134 A 
ATOM     61  F   UNL A   1      46.972  26.338  33.156  1.00  0.00    -0.206 F 
ATOM     62  C   UNL A   1      49.275  26.374  32.699  1.00  0.00     0.040 A 
ATOM     63  C   UNL A   1      50.077  27.286  30.616  1.00  0.00     0.040 A 
ATOM     64  F   UNL A   1      48.561  28.174  29.063  1.00  0.00    -0.206 F 
ATOM     65  C   UNL A   1      50.333  26.681  31.844  1.00  0.00     0.006 A 
ENDBRANCH  41  58
ENDBRANCH  15  16
ENDBRANCH   8  10
ENDBRANCH   7   8
ENDBRANCH   6   7
ENDBRANCH   5   6
ENDBRANCH   4   5
ENDBRANCH   3   4
ENDBRANCH   2   3
ENDBRANCH   1   2
BRANCH   1  66
ATOM     66  C   UNL A   1      32.128  26.438  22.230  1.00  0.00     0.188 C 
BRANCH  66  67
ATOM     67  C   UNL A   1      31.646  25.245  23.063  1.00  0.00     0.188 C 
BRANCH  67  68
ATOM     68  O   UNL A   1      30.258  25.058  23.178  1.00  0.00    -0.376 OA
BRANCH  68  69
ATOM     69  C   UNL A   1      29.535  25.668  24.231  1.00  0.00     0.202 C 
BRANCH  69  70
ATOM     70  C   UNL A   1      30.042  25.953  25.669  1.00  0.00     0.261 C 
BRANCH  70  71
ATOM     71  O   UNL A   1      31.296  25.421  26.126  1.00  0.00    -0.463 OA
BRANCH  71  72
ATOM     72  C   UNL A   1      31.306  24.176  26.656  1.00  0.00     0.312 C 
ATOM     73  O   UNL A   1      30.333  23.714  27.251  1.00  0.00    -0.252 OA
BRANCH  72  74
ATOM     74  C   UNL A   1      32.610  23.365  26.360  1.00  0.00     0.072 C 
ATOM     75  C   UNL A   1      32.893  22.578  27.673  1.00  0.00     0.019 C 
ATOM     76  C   UNL A   1      32.400  22.172  25.390  1.00  0.00     0.019 C 
ATOM     77  C   UNL A   1      33.691  21.345  27.284  1.00  0.00     0.001 C 
ATOM     78  C   UNL A   1      33.256  21.006  25.872  1.00  0.00     0.001 C 
BRANCH  74  79
ATOM     79  C   UNL A   1      33.854  24.252  26.002  1.00  0.00     0.054 C 
BRANCH  79  80
ATOM     80  C   UNL A   1      35.062  23.671  25.271  1.00  0.00    -0.045 A 
ATOM     81  C   UNL A   1      35.044  23.497  23.877  1.00  0.00     0.004 A 
ATOM     82  C   UNL A   1      36.244  23.331  25.953  1.00  0.00     0.024 A 
ATOM     83  C   UNL A   1      36.140  22.953  23.193  1.00  0.00     0.002 A 
ATOM     84  C   UNL A   1      37.340  22.792  25.263  1.00  0.00     0.041 A 
ATOM     85  C   UNL A   1      37.290  22.591  23.888  1.00  0.00     0.020 A 
ATOM     86  Cl  UNL A   1      38.768  22.365  26.126  1.00  0.00    -0.084 Cl
ENDBRANCH  79  80
ENDBRANCH  74  79
ENDBRANCH  72  74
ENDBRANCH  71  72
ENDBRANCH  70  71
ENDBRANCH  69  70
ENDBRANCH  68  69
ENDBRANCH  67  68
ENDBRANCH  66  67
ENDBRANCH   1  66
TORSDOF 22
ENDMDL
MODEL 2
REMARK VINA RESULT:      -9.1      3.283      4.591
REMARK SMILES O=C(OCCOCCOCCOCCOC(=O)C1(Cc2cccc(Cl)c2)CCCC1)c1ccc(-c2c3nc(c(-c4c(F)cccc4F)c4ccc([nH]4)c(-c4c(F)cccc4F)c4nc(c(-c5c(F)cccc5F)c5ccc2[nH]5)C=C4)C=C3)cc1
REMARK SMILES IDX 9 1 8 2 7 3 6 4 5 5 4 6 3 7 2 8 1 9 31 10 32 11 84 12 33 13
REMARK SMILES IDX 83 14 34 15 35 16 36 17 77 18 37 19 82 20 76 21 78 22 38 23
REMARK SMILES IDX 81 24 75 25 74 26 39 28 65 29 48 30 64 31 49 32 52 33 63 34
REMARK SMILES IDX 79 35 50 36 51 37 62 39 80 40 53 41 40 42 41 43 46 44 42 45
REMARK SMILES IDX 43 46 45 47 47 48 44 49 66 50 67 51 72 52 68 53 69 54 71 55
REMARK SMILES IDX 73 56 70 57 54 58 55 59 60 60 56 61 57 62 59 63 61 64 58 65
REMARK SMILES IDX 10 66 11 67 12 68 13 69 14 70 15 71 16 72 17 73 18 74 27 75
REMARK SMILES IDX 30 76 28 77 29 78 19 79 20 80 21 81 26 82 22 83 24 84 23 85
REMARK SMILES IDX 25 86
REMARK H PARENT 78 27 52 38
REMARK Flexibility Score: inf
ROOT
ATOM      1  O   UNL A   1      33.559  26.664  23.625  1.00  0.00    -0.377 OA
ENDROOT
BRANCH   1   2
ATOM      2  C   UNL A   1      33.616  27.712  22.682  1.00  0.00     0.188 C 
BRANCH   2   3
ATOM      3  C   UNL A   1      32.714  28.897  22.984  1.00  0.00     0.188 C 
BRANCH   3   4
ATOM      4  O   UNL A   1      31.939  28.693  24.167  1.00  0.00    -0.376 OA
BRANCH   4   5
ATOM      5  C   UNL A   1      30.988  29.705  24.488  1.00  0.00     0.202 C 
BRANCH   5   6
ATOM      6  C   UNL A   1      31.322  30.652  25.644  1.00  0.00     0.261 C 
BRANCH   6   7
ATOM      7  O   UNL A   1      32.666  30.624  26.155  1.00  0.00    -0.460 OA
BRANCH   7   8
ATOM      8  C   UNL A   1      33.302  31.385  27.078  1.00  0.00     0.338 C 
ATOM      9  O   UNL A   1      32.894  32.533  27.257  1.00  0.00    -0.246 OA
BRANCH   8  10
ATOM     10  C   UNL A   1      34.565  30.983  27.775  1.00  0.00     0.060 A 
ATOM     11  C   UNL A   1      34.896  29.676  28.116  1.00  0.00     0.016 A 
ATOM     12  C   UNL A   1      35.516  31.992  28.037  1.00  0.00     0.016 A 
ATOM     13  C   UNL A   1      36.160  29.339  28.564  1.00  0.00     0.010 A 
ATOM     14  C   UNL A   1      36.749  31.685  28.622  1.00  0.00     0.010 A 
ATOM     15  C   UNL A   1      37.060  30.349  28.885  1.00  0.00    -0.014 A 
BRANCH  15  16
ATOM     16  C   UNL A   1      38.116  29.948  29.823  1.00  0.00     0.031 A 
ATOM     17  C   UNL A   1      39.197  29.071  29.258  1.00  0.00     0.074 A 
ATOM     18  C   UNL A   1      38.233  30.557  31.012  1.00  0.00     0.049 A 
ATOM     19  N   UNL A   1      40.283  28.621  29.817  1.00  0.00    -0.248 NA
ATOM     20  C   UNL A   1      39.056  28.697  27.835  1.00  0.00     0.031 C 
ATOM     21  C   UNL A   1      37.334  31.596  31.521  1.00  0.00     0.029 A 
ATOM     22  N   UNL A   1      39.184  30.429  31.984  1.00  0.00    -0.354 N 
ATOM     23  C   UNL A   1      40.945  27.912  28.821  1.00  0.00     0.074 A 
ATOM     24  C   UNL A   1      40.156  27.999  27.620  1.00  0.00     0.031 C 
ATOM     25  C   UNL A   1      37.778  32.004  32.722  1.00  0.00     0.029 A 
ATOM     26  C   UNL A   1      38.952  31.217  33.083  1.00  0.00     0.049 A 
ATOM     27  H   UNL A   1      39.960  29.828  31.904  1.00  0.00     0.167 HD
ATOM     28  C   UNL A   1      42.106  27.229  28.921  1.00  0.00     0.037 A 
ATOM     29  C   UNL A   1      39.608  31.247  34.258  1.00  0.00     0.037 A 
ATOM     30  C   UNL A   1      42.834  27.132  30.152  1.00  0.00     0.049 A 
ATOM     31  C   UNL A   1      40.794  30.329  34.409  1.00  0.00     0.074 A 
ATOM     32  C   UNL A   1      43.946  26.371  30.448  1.00  0.00     0.029 A 
ATOM     33  N   UNL A   1      42.494  27.828  31.307  1.00  0.00    -0.354 N 
ATOM     34  N   UNL A   1      41.363  29.560  33.508  1.00  0.00    -0.248 NA
ATOM     35  C   UNL A   1      41.416  30.263  35.736  1.00  0.00     0.031 C 
ATOM     36  C   UNL A   1      44.243  26.563  31.802  1.00  0.00     0.029 A 
ATOM     37  C   UNL A   1      43.358  27.495  32.329  1.00  0.00     0.049 A 
ATOM     38  H   UNL A   1      41.746  28.464  31.383  1.00  0.00     0.167 HD
ATOM     39  C   UNL A   1      42.423  28.936  34.149  1.00  0.00     0.074 A 
ATOM     40  C   UNL A   1      42.425  29.432  35.513  1.00  0.00     0.031 C 
ATOM     41  C   UNL A   1      43.316  28.034  33.667  1.00  0.00     0.037 A 
BRANCH  28  42
ATOM     42  C   UNL A   1      42.545  26.462  27.709  1.00  0.00     0.057 A 
ATOM     43  C   UNL A   1      43.376  27.018  26.726  1.00  0.00     0.134 A 
ATOM     44  C   UNL A   1      42.054  25.171  27.481  1.00  0.00     0.134 A 
ATOM     45  F   UNL A   1      43.844  28.269  26.858  1.00  0.00    -0.206 F 
ATOM     46  C   UNL A   1      43.678  26.326  25.549  1.00  0.00     0.040 A 
ATOM     47  C   UNL A   1      42.368  24.460  26.322  1.00  0.00     0.040 A 
ATOM     48  F   UNL A   1      41.235  24.588  28.371  1.00  0.00    -0.206 F 
ATOM     49  C   UNL A   1      43.175  25.042  25.347  1.00  0.00     0.006 A 
ENDBRANCH  28  42
BRANCH  29  50
ATOM     50  C   UNL A   1      39.122  32.091  35.383  1.00  0.00     0.057 A 
ATOM     51  C   UNL A   1      39.541  33.416  35.547  1.00  0.00     0.134 A 
ATOM     52  C   UNL A   1      38.254  31.572  36.354  1.00  0.00     0.134 A 
ATOM     53  F   UNL A   1      40.389  33.971  34.669  1.00  0.00    -0.206 F 
ATOM     54  C   UNL A   1      39.132  34.185  36.640  1.00  0.00     0.040 A 
ATOM     55  C   UNL A   1      37.813  32.338  37.435  1.00  0.00     0.040 A 
ATOM     56  F   UNL A   1      37.815  30.308  36.267  1.00  0.00    -0.206 F 
ATOM     57  C   UNL A   1      38.261  33.648  37.587  1.00  0.00     0.006 A 
ENDBRANCH  29  50
BRANCH  41  58
ATOM     58  C   UNL A   1      44.383  27.571  34.610  1.00  0.00     0.057 A 
ATOM     59  C   UNL A   1      45.626  28.208  34.691  1.00  0.00     0.134 A 
ATOM     60  C   UNL A   1      44.128  26.517  35.496  1.00  0.00     0.134 A 
ATOM     61  F   UNL A   1      45.929  29.216  33.860  1.00  0.00    -0.206 F 
ATOM     62  C   UNL A   1      46.591  27.797  35.609  1.00  0.00     0.040 A 
ATOM     63  C   UNL A   1      45.072  26.119  36.441  1.00  0.00     0.040 A 
ATOM     64  F   UNL A   1      42.948  25.878  35.475  1.00  0.00    -0.206 F 
ATOM     65  C   UNL A   1      46.309  26.756  36.494  1.00  0.00     0.006 A 
ENDBRANCH  41  58
ENDBRANCH  15  16
ENDBRANCH   8  10
ENDBRANCH   7   8
ENDBRANCH   6   7
ENDBRANCH   5   6
ENDBRANCH   4   5
ENDBRANCH   3   4
ENDBRANCH   2   3
ENDBRANCH   1   2
BRANCH   1  66
ATOM     66  C   UNL A   1      33.682  25.355  23.115  1.00  0.00     0.188 C 
BRANCH  66  67
ATOM     67  C   UNL A   1      34.777  24.442  23.679  1.00  0.00     0.188 C 
BRANCH  67  68
ATOM     68  O   UNL A   1      35.139  24.628  25.025  1.00  0.00    -0.376 OA
BRANCH  68  69
ATOM     69  C   UNL A   1      35.951  23.677  25.688  1.00  0.00     0.202 C 
BRANCH  69  70
ATOM     70  C   UNL A   1      36.361  22.274  25.168  1.00  0.00     0.261 C 
BRANCH  70  71
ATOM     71  O   UNL A   1      35.366  21.316  24.773  1.00  0.00    -0.463 OA
BRANCH  71  72
ATOM     72  C   UNL A   1      34.330  21.089  25.615  1.00  0.00     0.312 C 
ATOM     73  O   UNL A   1      34.457  21.158  26.837  1.00  0.00    -0.252 OA
BRANCH  72  74
ATOM     74  C   UNL A   1      32.966  20.832  24.895  1.00  0.00     0.072 C 
ATOM     75  C   UNL A   1      33.133  21.479  23.489  1.00  0.00     0.019 C 
ATOM     76  C   UNL A   1      32.750  19.356  24.470  1.00  0.00     0.019 C 
ATOM     77  C   UNL A   1      32.185  20.749  22.553  1.00  0.00     0.001 C 
ATOM     78  C   UNL A   1      32.063  19.344  23.109  1.00  0.00     0.001 C 
BRANCH  74  79
ATOM     79  C   UNL A   1      31.725  21.465  25.618  1.00  0.00     0.054 C 
BRANCH  79  80
ATOM     80  C   UNL A   1      31.547  22.977  25.718  1.00  0.00    -0.045 A 
ATOM     81  C   UNL A   1      32.233  23.720  26.695  1.00  0.00     0.004 A 
ATOM     82  C   UNL A   1      30.732  23.686  24.818  1.00  0.00     0.024 A 
ATOM     83  C   UNL A   1      32.071  25.108  26.807  1.00  0.00     0.002 A 
ATOM     84  C   UNL A   1      30.577  25.075  24.930  1.00  0.00     0.041 A 
ATOM     85  C   UNL A   1      31.234  25.789  25.928  1.00  0.00     0.020 A 
ATOM     86  Cl  UNL A   1      29.555  25.915  23.827  1.00  0.00    -0.084 Cl
ENDBRANCH  79  80
ENDBRANCH  74  79
ENDBRANCH  72  74
ENDBRANCH  71  72
ENDBRANCH  70  71
ENDBRANCH  69  70
ENDBRANCH  68  69
ENDBRANCH  67  68
ENDBRANCH  66  67
ENDBRANCH   1  66
TORSDOF 22
ENDMDL
MODEL 3
REMARK VINA RESULT:      -9.0      3.096      4.303
REMARK SMILES O=C(OCCOCCOCCOCCOC(=O)C1(Cc2cccc(Cl)c2)CCCC1)c1ccc(-c2c3nc(c(-c4c(F)cccc4F)c4ccc([nH]4)c(-c4c(F)cccc4F)c4nc(c(-c5c(F)cccc5F)c5ccc2[nH]5)C=C4)C=C3)cc1
REMARK SMILES IDX 9 1 8 2 7 3 6 4 5 5 4 6 3 7 2 8 1 9 31 10 32 11 84 12 33 13
REMARK SMILES IDX 83 14 34 15 35 16 36 17 77 18 37 19 82 20 76 21 78 22 38 23
REMARK SMILES IDX 81 24 75 25 74 26 39 28 65 29 48 30 64 31 49 32 52 33 63 34
REMARK SMILES IDX 79 35 50 36 51 37 62 39 80 40 53 41 40 42 41 43 46 44 42 45
REMARK SMILES IDX 43 46 45 47 47 48 44 49 66 50 67 51 72 52 68 53 69 54 71 55
REMARK SMILES IDX 73 56 70 57 54 58 55 59 60 60 56 61 57 62 59 63 61 64 58 65
REMARK SMILES IDX 10 66 11 67 12 68 13 69 14 70 15 71 16 72 17 73 18 74 27 75
REMARK SMILES IDX 30 76 28 77 29 78 19 79 20 80 21 81 26 82 22 83 24 84 23 85
REMARK SMILES IDX 25 86
REMARK H PARENT 78 27 52 38
REMARK Flexibility Score: inf
ROOT
ATOM      1  O   UNL A   1      31.511  24.545  25.793  1.00  0.00    -0.377 OA
ENDROOT
BRANCH   1   2
ATOM      2  C   UNL A   1      30.685  25.662  26.036  1.00  0.00     0.188 C 
BRANCH   2   3
ATOM      3  C   UNL A   1      31.415  26.910  26.506  1.00  0.00     0.188 C 
BRANCH   3   4
ATOM      4  O   UNL A   1      31.993  27.634  25.418  1.00  0.00    -0.376 OA
BRANCH   4   5
ATOM      5  C   UNL A   1      33.057  28.526  25.741  1.00  0.00     0.202 C 
BRANCH   5   6
ATOM      6  C   UNL A   1      32.794  30.027  25.595  1.00  0.00     0.261 C 
BRANCH   6   7
ATOM      7  O   UNL A   1      32.730  30.808  26.802  1.00  0.00    -0.460 OA
BRANCH   7   8
ATOM      8  C   UNL A   1      33.627  31.627  27.401  1.00  0.00     0.338 C 
ATOM      9  O   UNL A   1      33.483  32.841  27.258  1.00  0.00    -0.246 OA
BRANCH   8  10
ATOM     10  C   UNL A   1      34.872  31.154  28.086  1.00  0.00     0.060 A 
ATOM     11  C   UNL A   1      35.055  29.872  28.594  1.00  0.00     0.016 A 
ATOM     12  C   UNL A   1      35.960  32.050  28.156  1.00  0.00     0.016 A 
ATOM     13  C   UNL A   1      36.293  29.430  29.024  1.00  0.00     0.010 A 
ATOM     14  C   UNL A   1      37.180  31.659  28.718  1.00  0.00     0.010 A 
ATOM     15  C   UNL A   1      37.334  30.342  29.153  1.00  0.00    -0.014 A 
BRANCH  15  16
ATOM     16  C   UNL A   1      38.390  29.930  30.087  1.00  0.00     0.031 A 
ATOM     17  C   UNL A   1      39.497  29.100  29.501  1.00  0.00     0.074 A 
ATOM     18  C   UNL A   1      38.481  30.498  31.298  1.00  0.00     0.049 A 
ATOM     19  N   UNL A   1      40.588  28.655  30.054  1.00  0.00    -0.248 NA
ATOM     20  C   UNL A   1      39.378  28.776  28.064  1.00  0.00     0.031 C 
ATOM     21  C   UNL A   1      37.553  31.495  31.836  1.00  0.00     0.029 A 
ATOM     22  N   UNL A   1      39.426  30.355  32.275  1.00  0.00    -0.354 N 
ATOM     23  C   UNL A   1      41.275  27.999  29.040  1.00  0.00     0.074 A 
ATOM     24  C   UNL A   1      40.496  28.112  27.834  1.00  0.00     0.031 C 
ATOM     25  C   UNL A   1      37.976  31.869  33.056  1.00  0.00     0.029 A 
ATOM     26  C   UNL A   1      39.164  31.097  33.400  1.00  0.00     0.049 A 
ATOM     27  H   UNL A   1      40.216  29.775  32.181  1.00  0.00     0.167 HD
ATOM     28  C   UNL A   1      42.452  27.340  29.126  1.00  0.00     0.037 A 
ATOM     29  C   UNL A   1      39.808  31.098  34.582  1.00  0.00     0.037 A 
ATOM     30  C   UNL A   1      43.170  27.214  30.360  1.00  0.00     0.049 A 
ATOM     31  C   UNL A   1      41.014  30.203  34.711  1.00  0.00     0.074 A 
ATOM     32  C   UNL A   1      44.296  26.468  30.640  1.00  0.00     0.029 A 
ATOM     33  N   UNL A   1      42.802  27.859  31.537  1.00  0.00    -0.354 N 
ATOM     34  N   UNL A   1      41.610  29.481  33.789  1.00  0.00    -0.248 NA
ATOM     35  C   UNL A   1      41.625  30.102  36.041  1.00  0.00     0.031 C 
ATOM     36  C   UNL A   1      44.576  26.617  32.003  1.00  0.00     0.029 A 
ATOM     37  C   UNL A   1      43.664  27.507  32.555  1.00  0.00     0.049 A 
ATOM     38  H   UNL A   1      42.039  28.473  31.629  1.00  0.00     0.167 HD
ATOM     39  C   UNL A   1      42.678  28.858  34.417  1.00  0.00     0.074 A 
ATOM     40  C   UNL A   1      42.656  29.303  35.798  1.00  0.00     0.031 C 
ATOM     41  C   UNL A   1      43.596  27.995  33.911  1.00  0.00     0.037 A 
BRANCH  28  42
ATOM     42  C   UNL A   1      42.920  26.629  27.892  1.00  0.00     0.057 A 
ATOM     43  C   UNL A   1      43.536  27.299  26.825  1.00  0.00     0.134 A 
ATOM     44  C   UNL A   1      42.669  25.260  27.734  1.00  0.00     0.134 A 
ATOM     45  F   UNL A   1      43.762  28.619  26.890  1.00  0.00    -0.206 F 
ATOM     46  C   UNL A   1      43.860  26.636  25.637  1.00  0.00     0.040 A 
ATOM     47  C   UNL A   1      43.010  24.583  26.562  1.00  0.00     0.040 A 
ATOM     48  F   UNL A   1      42.063  24.563  28.707  1.00  0.00    -0.206 F 
ATOM     49  C   UNL A   1      43.598  25.273  25.505  1.00  0.00     0.006 A 
ENDBRANCH  28  42
BRANCH  29  50
ATOM     50  C   UNL A   1      39.293  31.888  35.732  1.00  0.00     0.057 A 
ATOM     51  C   UNL A   1      38.302  31.390  36.586  1.00  0.00     0.134 A 
ATOM     52  C   UNL A   1      39.753  33.189  35.981  1.00  0.00     0.134 A 
ATOM     53  F   UNL A   1      37.799  30.161  36.394  1.00  0.00    -0.206 F 
ATOM     54  C   UNL A   1      37.776  32.159  37.628  1.00  0.00     0.040 A 
ATOM     55  C   UNL A   1      39.258  33.958  37.036  1.00  0.00     0.040 A 
ATOM     56  F   UNL A   1      40.696  33.737  35.201  1.00  0.00    -0.206 F 
ATOM     57  C   UNL A   1      38.257  33.446  37.859  1.00  0.00     0.006 A 
ENDBRANCH  29  50
BRANCH  41  58
ATOM     58  C   UNL A   1      44.665  27.523  34.848  1.00  0.00     0.057 A 
ATOM     59  C   UNL A   1      45.849  28.242  35.042  1.00  0.00     0.134 A 
ATOM     60  C   UNL A   1      44.466  26.368  35.614  1.00  0.00     0.134 A 
ATOM     61  F   UNL A   1      46.098  29.350  34.328  1.00  0.00    -0.206 F 
ATOM     62  C   UNL A   1      46.813  27.815  35.955  1.00  0.00     0.040 A 
ATOM     63  C   UNL A   1      45.407  25.950  36.554  1.00  0.00     0.040 A 
ATOM     64  F   UNL A   1      43.343  25.645  35.482  1.00  0.00    -0.206 F 
ATOM     65  C   UNL A   1      46.586  26.672  36.721  1.00  0.00     0.006 A 
ENDBRANCH  41  58
ENDBRANCH  15  16
ENDBRANCH   8  10
ENDBRANCH   7   8
ENDBRANCH   6   7
ENDBRANCH   5   6
ENDBRANCH   4   5
ENDBRANCH   3   4
ENDBRANCH   2   3
ENDBRANCH   1   2
BRANCH   1  66
ATOM     66  C   UNL A   1      30.966  23.528  24.980  1.00  0.00     0.188 C 
BRANCH  66  67
ATOM     67  C   UNL A   1      30.663  23.841  23.511  1.00  0.00     0.188 C 
BRANCH  67  68
ATOM     68  O   UNL A   1      31.126  25.068  23.004  1.00  0.00    -0.376 OA
BRANCH  68  69
ATOM     69  C   UNL A   1      32.329  25.129  22.260  1.00  0.00     0.202 C 
BRANCH  69  70
ATOM     70  C   UNL A   1      33.276  23.949  21.916  1.00  0.00     0.261 C 
BRANCH  70  71
ATOM     71  O   UNL A   1      33.596  22.952  22.899  1.00  0.00    -0.463 OA
BRANCH  71  72
ATOM     72  C   UNL A   1      34.884  22.843  23.302  1.00  0.00     0.312 C 
ATOM     73  O   UNL A   1      35.793  23.459  22.747  1.00  0.00    -0.252 OA
BRANCH  72  74
ATOM     74  C   UNL A   1      35.084  21.954  24.572  1.00  0.00     0.072 C 
ATOM     75  C   UNL A   1      34.678  22.869  25.764  1.00  0.00     0.019 C 
ATOM     76  C   UNL A   1      34.016  20.841  24.733  1.00  0.00     0.019 C 
ATOM     77  C   UNL A   1      34.229  21.954  26.889  1.00  0.00     0.001 C 
ATOM     78  C   UNL A   1      33.669  20.719  26.213  1.00  0.00     0.001 C 
BRANCH  74  79
ATOM     79  C   UNL A   1      36.555  21.445  24.779  1.00  0.00     0.054 C 
BRANCH  79  80
ATOM     80  C   UNL A   1      37.577  22.264  25.563  1.00  0.00    -0.045 A 
ATOM     81  C   UNL A   1      37.373  23.635  25.798  1.00  0.00     0.004 A 
ATOM     82  C   UNL A   1      38.730  21.676  26.112  1.00  0.00     0.024 A 
ATOM     83  C   UNL A   1      38.309  24.403  26.505  1.00  0.00     0.002 A 
ATOM     84  C   UNL A   1      39.661  22.447  26.823  1.00  0.00     0.041 A 
ATOM     85  C   UNL A   1      39.461  23.811  27.013  1.00  0.00     0.020 A 
ATOM     86  Cl  UNL A   1      41.075  21.705  27.466  1.00  0.00    -0.084 Cl
ENDBRANCH  79  80
ENDBRANCH  74  79
ENDBRANCH  72  74
ENDBRANCH  71  72
ENDBRANCH  70  71
ENDBRANCH  69  70
ENDBRANCH  68  69
ENDBRANCH  67  68
ENDBRANCH  66  67
ENDBRANCH   1  66
TORSDOF 22
ENDMDL
