MODEL 1
REMARK VINA RESULT:     -11.7      0.000      0.000
REMARK SMILES CC1=Nc2c(c(C)nn2-c2ccc(F)cc2)[C@H](c2ccc(C(=O)OCCOCCOCCOCCOC(=O)c3ccc(-c4c5nc(c(-c6c(F)cccc6F)c6ccc([nH]6)c(-c6c(F)cccc6F)c6nc(c(-c7c(F)cccc7F)c7ccc4[nH]7)C=C6)C=C5)cc3)cc2)S1
REMARK SMILES IDX 30 1 29 2 28 3 27 4 26 5 25 6 24 7 22 8 23 9 21 10 18 11
REMARK SMILES IDX 19 12 94 13 20 14 93 15 17 16 1 17 2 18 3 19 95 20 4 21 5 22
REMARK SMILES IDX 9 23 6 24 8 25 7 26 10 27 11 28 16 29 12 30 15 31 13 32
REMARK SMILES IDX 14 33 31 34 32 35 33 36 34 37 35 38 36 39 37 40 38 41 39 42
REMARK SMILES IDX 40 43 92 44 41 45 91 46 42 47 43 48 44 49 85 50 45 51 90 52
REMARK SMILES IDX 84 53 86 54 46 55 89 56 83 57 82 58 47 60 73 61 56 62 72 63
REMARK SMILES IDX 57 64 60 65 71 66 87 67 58 68 59 69 70 71 88 72 61 73 48 74
REMARK SMILES IDX 49 75 54 76 50 77 51 78 53 79 55 80 52 81 74 82 75 83 80 84
REMARK SMILES IDX 76 85 77 86 79 87 81 88 78 89 62 90 63 91 68 92 64 93 65 94
REMARK SMILES IDX 67 95 69 96 66 97
REMARK H PARENT 86 59 60 70
REMARK Flexibility Score: inf
ROOT
ATOM      1  O   UNL A   1      34.523  31.555  27.677  1.00  0.00    -0.377 OA
ENDROOT
BRANCH   1   2
ATOM      2  C   UNL A   1      33.158  31.198  27.507  1.00  0.00     0.188 C 
BRANCH   2   3
ATOM      3  C   UNL A   1      32.766  29.885  26.797  1.00  0.00     0.188 C 
BRANCH   3   4
ATOM      4  O   UNL A   1      32.322  30.059  25.461  1.00  0.00    -0.376 OA
BRANCH   4   5
ATOM      5  C   UNL A   1      31.020  30.574  25.268  1.00  0.00     0.202 C 
BRANCH   5   6
ATOM      6  C   UNL A   1      30.373  30.226  23.921  1.00  0.00     0.261 C 
BRANCH   6   7
ATOM      7  O   UNL A   1      31.189  29.428  23.047  1.00  0.00    -0.460 OA
BRANCH   7   8
ATOM      8  C   UNL A   1      30.787  28.157  22.844  1.00  0.00     0.338 C 
ATOM      9  O   UNL A   1      30.043  27.769  21.948  1.00  0.00    -0.246 OA
BRANCH   8  10
ATOM     10  C   UNL A   1      31.526  27.246  23.751  1.00  0.00     0.060 A 
ATOM     11  C   UNL A   1      32.949  25.384  25.347  1.00  0.00    -0.030 A 
ATOM     12  C   UNL A   1      33.430  25.785  24.086  1.00  0.00     0.006 A 
ATOM     13  C   UNL A   1      31.787  26.020  25.830  1.00  0.00     0.006 A 
ATOM     14  C   UNL A   1      32.731  26.704  23.298  1.00  0.00     0.016 A 
ATOM     15  C   UNL A   1      31.073  26.931  25.035  1.00  0.00     0.016 A 
BRANCH  11  16
ATOM     16  C   UNL A   1      33.629  24.212  26.049  1.00  0.00     0.119 C 
ATOM     17  C   UNL A   1      36.905  23.314  23.721  1.00  0.00     0.075 C 
ATOM     18  C   UNL A   1      35.660  23.088  24.538  1.00  0.00     0.074 C 
ATOM     19  N   UNL A   1      34.861  22.133  24.179  1.00  0.00    -0.227 NA
ATOM     20  S   UNL A   1      35.447  24.198  25.884  1.00  0.00    -0.098 SA
ATOM     21  C   UNL A   1      33.680  22.013  24.831  1.00  0.00     0.161 A 
ATOM     22  C   UNL A   1      33.019  22.935  25.615  1.00  0.00     0.038 A 
ATOM     23  N   UNL A   1      32.859  20.896  24.756  1.00  0.00    -0.215 N 
ATOM     24  C   UNL A   1      31.786  22.310  25.939  1.00  0.00     0.067 A 
ATOM     25  N   UNL A   1      31.644  21.134  25.313  1.00  0.00    -0.171 NA
ATOM     26  C   UNL A   1      30.706  22.784  26.841  1.00  0.00     0.069 C 
BRANCH  23  27
ATOM     27  C   UNL A   1      33.179  19.614  24.240  1.00  0.00     0.067 A 
ATOM     28  C   UNL A   1      34.264  18.892  24.762  1.00  0.00     0.031 A 
ATOM     29  C   UNL A   1      32.394  19.067  23.216  1.00  0.00     0.031 A 
ATOM     30  C   UNL A   1      34.570  17.632  24.248  1.00  0.00     0.041 A 
ATOM     31  C   UNL A   1      32.741  17.828  22.672  1.00  0.00     0.041 A 
ATOM     32  C   UNL A   1      33.819  17.121  23.194  1.00  0.00     0.123 A 
ATOM     33  F   UNL A   1      34.142  15.930  22.675  1.00  0.00    -0.207 F 
ENDBRANCH  23  27
ENDBRANCH  11  16
ENDBRANCH   8  10
ENDBRANCH   7   8
ENDBRANCH   6   7
ENDBRANCH   5   6
ENDBRANCH   4   5
ENDBRANCH   3   4
ENDBRANCH   2   3
ENDBRANCH   1   2
BRANCH   1  34
ATOM     34  C   UNL A   1      34.879  32.860  28.123  1.00  0.00     0.188 C 
BRANCH  34  35
ATOM     35  C   UNL A   1      33.880  34.044  28.086  1.00  0.00     0.188 C 
BRANCH  35  36
ATOM     36  O   UNL A   1      34.463  35.338  28.116  1.00  0.00    -0.376 OA
BRANCH  36  37
ATOM     37  C   UNL A   1      34.038  36.273  29.087  1.00  0.00     0.202 C 
BRANCH  37  38
ATOM     38  C   UNL A   1      32.728  35.938  29.787  1.00  0.00     0.261 C 
BRANCH  38  39
ATOM     39  O   UNL A   1      32.845  34.909  30.755  1.00  0.00    -0.460 OA
BRANCH  39  40
ATOM     40  C   UNL A   1      33.062  35.327  32.006  1.00  0.00     0.338 C 
ATOM     41  O   UNL A   1      32.489  36.236  32.614  1.00  0.00    -0.246 OA
BRANCH  40  42
ATOM     42  C   UNL A   1      34.226  34.635  32.524  1.00  0.00     0.060 A 
ATOM     43  C   UNL A   1      35.322  35.413  32.895  1.00  0.00     0.016 A 
ATOM     44  C   UNL A   1      34.312  33.250  32.310  1.00  0.00     0.016 A 
ATOM     45  C   UNL A   1      36.563  34.829  32.858  1.00  0.00     0.010 A 
ATOM     46  C   UNL A   1      35.553  32.676  32.246  1.00  0.00     0.010 A 
ATOM     47  C   UNL A   1      36.661  33.493  32.449  1.00  0.00    -0.014 A 
BRANCH  47  48
ATOM     48  C   UNL A   1      37.981  32.929  32.321  1.00  0.00     0.031 A 
ATOM     49  C   UNL A   1      38.779  33.067  33.553  1.00  0.00     0.074 A 
ATOM     50  C   UNL A   1      38.367  32.262  31.219  1.00  0.00     0.049 A 
ATOM     51  N   UNL A   1      39.858  33.752  33.716  1.00  0.00    -0.248 NA
ATOM     52  C   UNL A   1      38.221  32.507  34.795  1.00  0.00     0.031 C 
ATOM     53  C   UNL A   1      37.519  31.826  30.105  1.00  0.00     0.029 A 
ATOM     54  N   UNL A   1      39.583  31.733  30.917  1.00  0.00    -0.354 N 
ATOM     55  C   UNL A   1      40.234  33.526  35.034  1.00  0.00     0.074 A 
ATOM     56  C   UNL A   1      39.107  32.928  35.694  1.00  0.00     0.031 C 
ATOM     57  C   UNL A   1      38.198  30.922  29.365  1.00  0.00     0.029 A 
ATOM     58  C   UNL A   1      39.554  30.816  29.877  1.00  0.00     0.049 A 
ATOM     59  H   UNL A   1      40.410  31.979  31.393  1.00  0.00     0.167 HD
ATOM     60  C   UNL A   1      41.544  33.572  35.388  1.00  0.00     0.037 A 
ATOM     61  C   UNL A   1      40.559  29.985  29.515  1.00  0.00     0.037 A 
ATOM     62  C   UNL A   1      42.325  34.255  34.391  1.00  0.00     0.049 A 
ATOM     63  C   UNL A   1      41.822  30.539  30.059  1.00  0.00     0.074 A 
ATOM     64  C   UNL A   1      42.487  35.560  33.982  1.00  0.00     0.029 A 
ATOM     65  N   UNL A   1      42.814  33.447  33.399  1.00  0.00    -0.354 N 
ATOM     66  N   UNL A   1      42.378  31.641  29.637  1.00  0.00    -0.248 NA
ATOM     67  C   UNL A   1      42.342  30.026  31.324  1.00  0.00     0.031 C 
ATOM     68  C   UNL A   1      42.914  35.497  32.625  1.00  0.00     0.029 A 
ATOM     69  C   UNL A   1      43.016  34.159  32.247  1.00  0.00     0.049 A 
ATOM     70  H   UNL A   1      42.997  32.485  33.502  1.00  0.00     0.167 HD
ATOM     71  C   UNL A   1      42.989  32.169  30.758  1.00  0.00     0.074 A 
ATOM     72  C   UNL A   1      43.099  31.062  31.696  1.00  0.00     0.031 C 
ATOM     73  C   UNL A   1      43.047  33.517  30.950  1.00  0.00     0.037 A 
BRANCH  60  74
ATOM     74  C   UNL A   1      42.182  32.612  36.363  1.00  0.00     0.057 A 
ATOM     75  C   UNL A   1      42.447  31.253  36.090  1.00  0.00     0.134 A 
ATOM     76  C   UNL A   1      42.837  33.131  37.493  1.00  0.00     0.134 A 
ATOM     77  F   UNL A   1      41.991  30.631  34.997  1.00  0.00    -0.206 F 
ATOM     78  C   UNL A   1      43.298  30.472  36.878  1.00  0.00     0.040 A 
ATOM     79  C   UNL A   1      43.732  32.373  38.257  1.00  0.00     0.040 A 
ATOM     80  F   UNL A   1      42.689  34.417  37.844  1.00  0.00    -0.206 F 
ATOM     81  C   UNL A   1      43.967  31.038  37.948  1.00  0.00     0.006 A 
ENDBRANCH  60  74
BRANCH  61  82
ATOM     82  C   UNL A   1      40.490  28.630  28.925  1.00  0.00     0.057 A 
ATOM     83  C   UNL A   1      40.790  28.389  27.573  1.00  0.00     0.134 A 
ATOM     84  C   UNL A   1      39.856  27.584  29.610  1.00  0.00     0.134 A 
ATOM     85  F   UNL A   1      41.340  29.336  26.801  1.00  0.00    -0.206 F 
ATOM     86  C   UNL A   1      40.448  27.193  26.932  1.00  0.00     0.040 A 
ATOM     87  C   UNL A   1      39.497  26.387  28.978  1.00  0.00     0.040 A 
ATOM     88  F   UNL A   1      39.505  27.724  30.897  1.00  0.00    -0.206 F 
ATOM     89  C   UNL A   1      39.781  26.194  27.631  1.00  0.00     0.006 A 
ENDBRANCH  61  82
BRANCH  73  90
ATOM     90  C   UNL A   1      42.935  34.395  29.740  1.00  0.00     0.057 A 
ATOM     91  C   UNL A   1      41.671  34.897  29.404  1.00  0.00     0.134 A 
ATOM     92  C   UNL A   1      43.987  34.667  28.855  1.00  0.00     0.134 A 
ATOM     93  F   UNL A   1      40.612  34.639  30.189  1.00  0.00    -0.206 F 
ATOM     94  C   UNL A   1      41.456  35.629  28.237  1.00  0.00     0.040 A 
ATOM     95  C   UNL A   1      43.790  35.432  27.701  1.00  0.00     0.040 A 
ATOM     96  F   UNL A   1      45.212  34.164  29.057  1.00  0.00    -0.206 F 
ATOM     97  C   UNL A   1      42.520  35.906  27.385  1.00  0.00     0.006 A 
ENDBRANCH  73  90
ENDBRANCH  47  48
ENDBRANCH  40  42
ENDBRANCH  39  40
ENDBRANCH  38  39
ENDBRANCH  37  38
ENDBRANCH  36  37
ENDBRANCH  35  36
ENDBRANCH  34  35
ENDBRANCH   1  34
TORSDOF 22
ENDMDL
MODEL 2
REMARK VINA RESULT:     -11.3      3.219      4.654
REMARK SMILES CC1=Nc2c(c(C)nn2-c2ccc(F)cc2)[C@H](c2ccc(C(=O)OCCOCCOCCOCCOC(=O)c3ccc(-c4c5nc(c(-c6c(F)cccc6F)c6ccc([nH]6)c(-c6c(F)cccc6F)c6nc(c(-c7c(F)cccc7F)c7ccc4[nH]7)C=C6)C=C5)cc3)cc2)S1
REMARK SMILES IDX 30 1 29 2 28 3 27 4 26 5 25 6 24 7 22 8 23 9 21 10 18 11
REMARK SMILES IDX 19 12 94 13 20 14 93 15 17 16 1 17 2 18 3 19 95 20 4 21 5 22
REMARK SMILES IDX 9 23 6 24 8 25 7 26 10 27 11 28 16 29 12 30 15 31 13 32
REMARK SMILES IDX 14 33 31 34 32 35 33 36 34 37 35 38 36 39 37 40 38 41 39 42
REMARK SMILES IDX 40 43 92 44 41 45 91 46 42 47 43 48 44 49 85 50 45 51 90 52
REMARK SMILES IDX 84 53 86 54 46 55 89 56 83 57 82 58 47 60 73 61 56 62 72 63
REMARK SMILES IDX 57 64 60 65 71 66 87 67 58 68 59 69 70 71 88 72 61 73 48 74
REMARK SMILES IDX 49 75 54 76 50 77 51 78 53 79 55 80 52 81 74 82 75 83 80 84
REMARK SMILES IDX 76 85 77 86 79 87 81 88 78 89 62 90 63 91 68 92 64 93 65 94
REMARK SMILES IDX 67 95 69 96 66 97
REMARK H PARENT 86 59 60 70
REMARK Flexibility Score: inf
ROOT
ATOM      1  O   UNL A   1      33.629  30.071  27.254  1.00  0.00    -0.377 OA
ENDROOT
BRANCH   1   2
ATOM      2  C   UNL A   1      32.495  30.579  26.566  1.00  0.00     0.188 C 
BRANCH   2   3
ATOM      3  C   UNL A   1      31.466  29.625  25.923  1.00  0.00     0.188 C 
BRANCH   3   4
ATOM      4  O   UNL A   1      30.886  30.119  24.727  1.00  0.00    -0.376 OA
BRANCH   4   5
ATOM      5  C   UNL A   1      30.539  29.176  23.732  1.00  0.00     0.202 C 
BRANCH   5   6
ATOM      6  C   UNL A   1      31.481  29.128  22.522  1.00  0.00     0.261 C 
BRANCH   6   7
ATOM      7  O   UNL A   1      32.881  29.192  22.843  1.00  0.00    -0.460 OA
BRANCH   7   8
ATOM      8  C   UNL A   1      33.657  28.209  22.341  1.00  0.00     0.338 C 
ATOM      9  O   UNL A   1      34.400  28.301  21.369  1.00  0.00    -0.246 OA
BRANCH   8  10
ATOM     10  C   UNL A   1      33.635  27.038  23.251  1.00  0.00     0.060 A 
ATOM     11  C   UNL A   1      33.743  24.864  25.068  1.00  0.00    -0.030 A 
ATOM     12  C   UNL A   1      33.781  26.198  25.519  1.00  0.00     0.006 A 
ATOM     13  C   UNL A   1      33.545  24.652  23.689  1.00  0.00     0.006 A 
ATOM     14  C   UNL A   1      33.727  27.271  24.624  1.00  0.00     0.016 A 
ATOM     15  C   UNL A   1      33.507  25.726  22.785  1.00  0.00     0.016 A 
BRANCH  11  16
ATOM     16  C   UNL A   1      34.040  23.748  26.065  1.00  0.00     0.119 C 
ATOM     17  C   UNL A   1      37.318  21.780  24.534  1.00  0.00     0.075 C 
ATOM     18  C   UNL A   1      35.954  21.969  25.144  1.00  0.00     0.074 C 
ATOM     19  N   UNL A   1      35.017  21.136  24.815  1.00  0.00    -0.227 NA
ATOM     20  S   UNL A   1      35.814  23.347  26.227  1.00  0.00    -0.098 SA
ATOM     21  C   UNL A   1      33.762  21.383  25.259  1.00  0.00     0.161 A 
ATOM     22  C   UNL A   1      33.224  22.554  25.749  1.00  0.00     0.038 A 
ATOM     23  N   UNL A   1      32.729  20.455  25.229  1.00  0.00    -0.215 N 
ATOM     24  C   UNL A   1      31.850  22.260  25.951  1.00  0.00     0.067 A 
ATOM     25  N   UNL A   1      31.534  21.033  25.516  1.00  0.00    -0.171 NA
ATOM     26  C   UNL A   1      30.792  23.107  26.557  1.00  0.00     0.069 C 
BRANCH  23  27
ATOM     27  C   UNL A   1      32.821  19.058  24.999  1.00  0.00     0.067 A 
ATOM     28  C   UNL A   1      32.775  18.160  26.076  1.00  0.00     0.031 A 
ATOM     29  C   UNL A   1      32.940  18.581  23.686  1.00  0.00     0.031 A 
ATOM     30  C   UNL A   1      32.865  16.788  25.840  1.00  0.00     0.041 A 
ATOM     31  C   UNL A   1      33.083  17.210  23.464  1.00  0.00     0.041 A 
ATOM     32  C   UNL A   1      33.040  16.327  24.538  1.00  0.00     0.123 A 
ATOM     33  F   UNL A   1      33.168  15.013  24.319  1.00  0.00    -0.207 F 
ENDBRANCH  23  27
ENDBRANCH  11  16
ENDBRANCH   8  10
ENDBRANCH   7   8
ENDBRANCH   6   7
ENDBRANCH   5   6
ENDBRANCH   4   5
ENDBRANCH   3   4
ENDBRANCH   2   3
ENDBRANCH   1   2
BRANCH   1  34
ATOM     34  C   UNL A   1      34.556  30.957  27.873  1.00  0.00     0.188 C 
BRANCH  34  35
ATOM     35  C   UNL A   1      34.226  32.449  28.126  1.00  0.00     0.188 C 
BRANCH  35  36
ATOM     36  O   UNL A   1      35.183  33.379  27.641  1.00  0.00    -0.376 OA
BRANCH  36  37
ATOM     37  C   UNL A   1      35.851  34.231  28.549  1.00  0.00     0.202 C 
BRANCH  37  38
ATOM     38  C   UNL A   1      35.567  33.967  30.022  1.00  0.00     0.261 C 
BRANCH  38  39
ATOM     39  O   UNL A   1      36.488  33.077  30.629  1.00  0.00    -0.460 OA
BRANCH  39  40
ATOM     40  C   UNL A   1      35.939  32.044  31.277  1.00  0.00     0.338 C 
ATOM     41  O   UNL A   1      34.762  31.906  31.627  1.00  0.00    -0.246 OA
BRANCH  40  42
ATOM     42  C   UNL A   1      36.997  31.134  31.668  1.00  0.00     0.060 A 
ATOM     43  C   UNL A   1      38.271  31.671  31.847  1.00  0.00     0.016 A 
ATOM     44  C   UNL A   1      36.764  29.757  31.516  1.00  0.00     0.016 A 
ATOM     45  C   UNL A   1      39.346  30.837  31.673  1.00  0.00     0.010 A 
ATOM     46  C   UNL A   1      37.837  28.934  31.316  1.00  0.00     0.010 A 
ATOM     47  C   UNL A   1      39.107  29.502  31.325  1.00  0.00    -0.014 A 
BRANCH  47  48
ATOM     48  C   UNL A   1      40.251  28.669  31.049  1.00  0.00     0.031 A 
ATOM     49  C   UNL A   1      41.105  28.468  32.233  1.00  0.00     0.074 A 
ATOM     50  C   UNL A   1      40.426  28.071  29.857  1.00  0.00     0.049 A 
ATOM     51  N   UNL A   1      42.321  28.860  32.399  1.00  0.00    -0.248 NA
ATOM     52  C   UNL A   1      40.477  27.903  33.440  1.00  0.00     0.031 C 
ATOM     53  C   UNL A   1      39.458  27.982  28.760  1.00  0.00     0.029 A 
ATOM     54  N   UNL A   1      41.471  27.317  29.419  1.00  0.00    -0.354 N 
ATOM     55  C   UNL A   1      42.683  28.394  33.658  1.00  0.00     0.074 A 
ATOM     56  C   UNL A   1      41.472  27.996  34.320  1.00  0.00     0.031 C 
ATOM     57  C   UNL A   1      39.874  27.043  27.882  1.00  0.00     0.029 A 
ATOM     58  C   UNL A   1      41.185  26.566  28.289  1.00  0.00     0.049 A 
ATOM     59  H   UNL A   1      42.349  27.306  29.864  1.00  0.00     0.167 HD
ATOM     60  C   UNL A   1      43.978  28.093  33.928  1.00  0.00     0.037 A 
ATOM     61  C   UNL A   1      41.952  25.576  27.773  1.00  0.00     0.037 A 
ATOM     62  C   UNL A   1      44.860  28.695  32.963  1.00  0.00     0.049 A 
ATOM     63  C   UNL A   1      43.329  25.754  28.290  1.00  0.00     0.074 A 
ATOM     64  C   UNL A   1      45.311  29.967  32.690  1.00  0.00     0.029 A 
ATOM     65  N   UNL A   1      45.107  27.923  31.858  1.00  0.00    -0.354 N 
ATOM     66  N   UNL A   1      44.114  26.741  27.957  1.00  0.00    -0.248 NA
ATOM     67  C   UNL A   1      43.760  24.984  29.454  1.00  0.00     0.031 C 
ATOM     68  C   UNL A   1      45.659  29.975  31.309  1.00  0.00     0.029 A 
ATOM     69  C   UNL A   1      45.427  28.705  30.781  1.00  0.00     0.049 A 
ATOM     70  H   UNL A   1      45.060  26.940  31.842  1.00  0.00     0.167 HD
ATOM     71  C   UNL A   1      44.874  26.973  29.086  1.00  0.00     0.074 A 
ATOM     72  C   UNL A   1      44.755  25.764  29.887  1.00  0.00     0.031 C 
ATOM     73  C   UNL A   1      45.257  28.238  29.421  1.00  0.00     0.037 A 
BRANCH  60  74
ATOM     74  C   UNL A   1      44.408  26.899  34.746  1.00  0.00     0.057 A 
ATOM     75  C   UNL A   1      44.771  26.951  36.109  1.00  0.00     0.134 A 
ATOM     76  C   UNL A   1      44.153  25.611  34.246  1.00  0.00     0.134 A 
ATOM     77  F   UNL A   1      44.944  28.102  36.769  1.00  0.00    -0.206 F 
ATOM     78  C   UNL A   1      44.870  25.812  36.912  1.00  0.00     0.040 A 
ATOM     79  C   UNL A   1      44.197  24.469  35.056  1.00  0.00     0.040 A 
ATOM     80  F   UNL A   1      43.774  25.429  32.973  1.00  0.00    -0.206 F 
ATOM     81  C   UNL A   1      44.555  24.568  36.395  1.00  0.00     0.006 A 
ENDBRANCH  60  74
BRANCH  61  82
ATOM     82  C   UNL A   1      41.542  24.357  27.042  1.00  0.00     0.057 A 
ATOM     83  C   UNL A   1      40.456  23.566  27.458  1.00  0.00     0.134 A 
ATOM     84  C   UNL A   1      42.384  23.785  26.078  1.00  0.00     0.134 A 
ATOM     85  F   UNL A   1      39.619  23.983  28.419  1.00  0.00    -0.206 F 
ATOM     86  C   UNL A   1      40.241  22.274  26.970  1.00  0.00     0.040 A 
ATOM     87  C   UNL A   1      42.187  22.487  25.590  1.00  0.00     0.040 A 
ATOM     88  F   UNL A   1      43.462  24.447  25.634  1.00  0.00    -0.206 F 
ATOM     89  C   UNL A   1      41.121  21.721  26.048  1.00  0.00     0.006 A 
ENDBRANCH  61  82
BRANCH  73  90
ATOM     90  C   UNL A   1      45.310  29.259  28.326  1.00  0.00     0.057 A 
ATOM     91  C   UNL A   1      46.545  29.506  27.713  1.00  0.00     0.134 A 
ATOM     92  C   UNL A   1      44.232  30.066  27.939  1.00  0.00     0.134 A 
ATOM     93  F   UNL A   1      47.628  28.795  28.066  1.00  0.00    -0.206 F 
ATOM     94  C   UNL A   1      46.708  30.515  26.764  1.00  0.00     0.040 A 
ATOM     95  C   UNL A   1      44.375  31.055  26.961  1.00  0.00     0.040 A 
ATOM     96  F   UNL A   1      43.033  29.952  28.526  1.00  0.00    -0.206 F 
ATOM     97  C   UNL A   1      45.617  31.288  26.379  1.00  0.00     0.006 A 
ENDBRANCH  73  90
ENDBRANCH  47  48
ENDBRANCH  40  42
ENDBRANCH  39  40
ENDBRANCH  38  39
ENDBRANCH  37  38
ENDBRANCH  36  37
ENDBRANCH  35  36
ENDBRANCH  34  35
ENDBRANCH   1  34
TORSDOF 22
ENDMDL
MODEL 3
REMARK VINA RESULT:     -10.2      4.928      9.385
REMARK SMILES CC1=Nc2c(c(C)nn2-c2ccc(F)cc2)[C@H](c2ccc(C(=O)OCCOCCOCCOCCOC(=O)c3ccc(-c4c5nc(c(-c6c(F)cccc6F)c6ccc([nH]6)c(-c6c(F)cccc6F)c6nc(c(-c7c(F)cccc7F)c7ccc4[nH]7)C=C6)C=C5)cc3)cc2)S1
REMARK SMILES IDX 30 1 29 2 28 3 27 4 26 5 25 6 24 7 22 8 23 9 21 10 18 11
REMARK SMILES IDX 19 12 94 13 20 14 93 15 17 16 1 17 2 18 3 19 95 20 4 21 5 22
REMARK SMILES IDX 9 23 6 24 8 25 7 26 10 27 11 28 16 29 12 30 15 31 13 32
REMARK SMILES IDX 14 33 31 34 32 35 33 36 34 37 35 38 36 39 37 40 38 41 39 42
REMARK SMILES IDX 40 43 92 44 41 45 91 46 42 47 43 48 44 49 85 50 45 51 90 52
REMARK SMILES IDX 84 53 86 54 46 55 89 56 83 57 82 58 47 60 73 61 56 62 72 63
REMARK SMILES IDX 57 64 60 65 71 66 87 67 58 68 59 69 70 71 88 72 61 73 48 74
REMARK SMILES IDX 49 75 54 76 50 77 51 78 53 79 55 80 52 81 74 82 75 83 80 84
REMARK SMILES IDX 76 85 77 86 79 87 81 88 78 89 62 90 63 91 68 92 64 93 65 94
REMARK SMILES IDX 67 95 69 96 66 97
REMARK H PARENT 86 59 60 70
REMARK Flexibility Score: inf
ROOT
ATOM      1  O   UNL A   1      47.196  32.058  26.121  1.00  0.00    -0.377 OA
ENDROOT
BRANCH   1   2
ATOM      2  C   UNL A   1      47.115  30.992  27.057  1.00  0.00     0.188 C 
BRANCH   2   3
ATOM      3  C   UNL A   1      48.224  29.921  27.135  1.00  0.00     0.188 C 
BRANCH   3   4
ATOM      4  O   UNL A   1      48.166  28.951  26.102  1.00  0.00    -0.376 OA
BRANCH   4   5
ATOM      5  C   UNL A   1      47.279  27.864  26.276  1.00  0.00     0.202 C 
BRANCH   5   6
ATOM      6  C   UNL A   1      46.694  27.285  24.982  1.00  0.00     0.261 C 
BRANCH   6   7
ATOM      7  O   UNL A   1      45.579  26.396  25.167  1.00  0.00    -0.460 OA
BRANCH   7   8
ATOM      8  C   UNL A   1      45.826  25.081  24.999  1.00  0.00     0.338 C 
ATOM      9  O   UNL A   1      46.840  24.593  24.510  1.00  0.00    -0.246 OA
BRANCH   8  10
ATOM     10  C   UNL A   1      44.771  24.283  25.669  1.00  0.00     0.060 A 
ATOM     11  C   UNL A   1      42.640  22.894  26.921  1.00  0.00    -0.030 A 
ATOM     12  C   UNL A   1      42.500  23.439  25.630  1.00  0.00     0.006 A 
ATOM     13  C   UNL A   1      43.911  22.974  27.524  1.00  0.00     0.006 A 
ATOM     14  C   UNL A   1      43.550  24.123  25.011  1.00  0.00     0.016 A 
ATOM     15  C   UNL A   1      44.963  23.674  26.913  1.00  0.00     0.016 A 
BRANCH  11  16
ATOM     16  C   UNL A   1      41.395  22.369  27.630  1.00  0.00     0.119 C 
ATOM     17  C   UNL A   1      40.303  18.993  25.539  1.00  0.00     0.075 C 
ATOM     18  C   UNL A   1      40.155  20.316  26.244  1.00  0.00     0.074 C 
ATOM     19  N   UNL A   1      39.280  21.156  25.787  1.00  0.00    -0.227 NA
ATOM     20  S   UNL A   1      41.236  20.550  27.610  1.00  0.00    -0.098 SA
ATOM     21  C   UNL A   1      39.239  22.393  26.337  1.00  0.00     0.161 A 
ATOM     22  C   UNL A   1      40.186  23.041  27.100  1.00  0.00     0.038 A 
ATOM     23  N   UNL A   1      38.195  23.291  26.154  1.00  0.00    -0.215 N 
ATOM     24  C   UNL A   1      39.656  24.342  27.301  1.00  0.00     0.067 A 
ATOM     25  N   UNL A   1      38.515  24.525  26.622  1.00  0.00    -0.171 NA
ATOM     26  C   UNL A   1      40.189  25.451  28.131  1.00  0.00     0.069 C 
BRANCH  23  27
ATOM     27  C   UNL A   1      36.908  23.032  25.617  1.00  0.00     0.067 A 
ATOM     28  C   UNL A   1      35.831  22.742  26.470  1.00  0.00     0.031 A 
ATOM     29  C   UNL A   1      36.716  23.085  24.230  1.00  0.00     0.031 A 
ATOM     30  C   UNL A   1      34.569  22.489  25.932  1.00  0.00     0.041 A 
ATOM     31  C   UNL A   1      35.461  22.779  23.698  1.00  0.00     0.041 A 
ATOM     32  C   UNL A   1      34.401  22.489  24.551  1.00  0.00     0.123 A 
ATOM     33  F   UNL A   1      33.198  22.205  24.036  1.00  0.00    -0.207 F 
ENDBRANCH  23  27
ENDBRANCH  11  16
ENDBRANCH   8  10
ENDBRANCH   7   8
ENDBRANCH   6   7
ENDBRANCH   5   6
ENDBRANCH   4   5
ENDBRANCH   3   4
ENDBRANCH   2   3
ENDBRANCH   1   2
BRANCH   1  34
ATOM     34  C   UNL A   1      47.360  33.400  26.567  1.00  0.00     0.188 C 
BRANCH  34  35
ATOM     35  C   UNL A   1      46.357  34.521  26.192  1.00  0.00     0.188 C 
BRANCH  35  36
ATOM     36  O   UNL A   1      46.923  35.808  25.997  1.00  0.00    -0.376 OA
BRANCH  36  37
ATOM     37  C   UNL A   1      46.993  36.712  27.081  1.00  0.00     0.202 C 
BRANCH  37  38
ATOM     38  C   UNL A   1      46.214  38.008  26.904  1.00  0.00     0.261 C 
BRANCH  38  39
ATOM     39  O   UNL A   1      44.847  37.906  27.268  1.00  0.00    -0.460 OA
BRANCH  39  40
ATOM     40  C   UNL A   1      44.616  37.784  28.579  1.00  0.00     0.338 C 
ATOM     41  O   UNL A   1      44.724  38.649  29.454  1.00  0.00    -0.246 OA
BRANCH  40  42
ATOM     42  C   UNL A   1      44.357  36.388  28.870  1.00  0.00     0.060 A 
ATOM     43  C   UNL A   1      43.536  35.690  27.984  1.00  0.00     0.016 A 
ATOM     44  C   UNL A   1      44.655  35.923  30.161  1.00  0.00     0.016 A 
ATOM     45  C   UNL A   1      42.845  34.609  28.471  1.00  0.00     0.010 A 
ATOM     46  C   UNL A   1      43.943  34.862  30.652  1.00  0.00     0.010 A 
ATOM     47  C   UNL A   1      42.998  34.270  29.821  1.00  0.00    -0.014 A 
BRANCH  47  48
ATOM     48  C   UNL A   1      42.187  33.195  30.335  1.00  0.00     0.031 A 
ATOM     49  C   UNL A   1      42.717  31.866  29.982  1.00  0.00     0.074 A 
ATOM     50  C   UNL A   1      41.131  33.420  31.136  1.00  0.00     0.049 A 
ATOM     51  N   UNL A   1      42.166  30.976  29.231  1.00  0.00    -0.248 NA
ATOM     52  C   UNL A   1      44.100  31.554  30.381  1.00  0.00     0.031 C 
ATOM     53  C   UNL A   1      40.752  34.687  31.769  1.00  0.00     0.029 A 
ATOM     54  N   UNL A   1      40.235  32.532  31.646  1.00  0.00    -0.354 N 
ATOM     55  C   UNL A   1      43.043  29.898  29.244  1.00  0.00     0.074 A 
ATOM     56  C   UNL A   1      44.283  30.374  29.792  1.00  0.00     0.031 C 
ATOM     57  C   UNL A   1      39.844  34.440  32.739  1.00  0.00     0.029 A 
ATOM     58  C   UNL A   1      39.491  33.030  32.706  1.00  0.00     0.049 A 
ATOM     59  H   UNL A   1      40.124  31.618  31.295  1.00  0.00     0.167 HD
ATOM     60  C   UNL A   1      42.574  28.634  29.086  1.00  0.00     0.037 A 
ATOM     61  C   UNL A   1      38.696  32.311  33.532  1.00  0.00     0.037 A 
ATOM     62  C   UNL A   1      41.251  28.641  28.520  1.00  0.00     0.049 A 
ATOM     63  C   UNL A   1      38.361  31.041  32.846  1.00  0.00     0.074 A 
ATOM     64  C   UNL A   1      40.705  28.898  27.283  1.00  0.00     0.029 A 
ATOM     65  N   UNL A   1      40.238  28.701  29.440  1.00  0.00    -0.354 N 
ATOM     66  N   UNL A   1      37.596  30.958  31.793  1.00  0.00    -0.248 NA
ATOM     67  C   UNL A   1      39.138  29.841  33.145  1.00  0.00     0.031 C 
ATOM     68  C   UNL A   1      39.362  29.306  27.522  1.00  0.00     0.029 A 
ATOM     69  C   UNL A   1      39.120  29.272  28.895  1.00  0.00     0.049 A 
ATOM     70  H   UNL A   1      40.306  28.378  30.367  1.00  0.00     0.167 HD
ATOM     71  C   UNL A   1      38.108  29.892  31.079  1.00  0.00     0.074 A 
ATOM     72  C   UNL A   1      38.910  29.138  32.032  1.00  0.00     0.031 C 
ATOM     73  C   UNL A   1      38.106  29.900  29.716  1.00  0.00     0.037 A 
BRANCH  60  74
ATOM     74  C   UNL A   1      43.088  27.446  29.864  1.00  0.00     0.057 A 
ATOM     75  C   UNL A   1      43.890  26.420  29.321  1.00  0.00     0.134 A 
ATOM     76  C   UNL A   1      43.044  27.488  31.268  1.00  0.00     0.134 A 
ATOM     77  F   UNL A   1      44.126  26.303  28.010  1.00  0.00    -0.206 F 
ATOM     78  C   UNL A   1      44.594  25.507  30.112  1.00  0.00     0.040 A 
ATOM     79  C   UNL A   1      43.788  26.613  32.069  1.00  0.00     0.040 A 
ATOM     80  F   UNL A   1      42.339  28.433  31.907  1.00  0.00    -0.206 F 
ATOM     81  C   UNL A   1      44.569  25.619  31.491  1.00  0.00     0.006 A 
ENDBRANCH  60  74
BRANCH  61  82
ATOM     82  C   UNL A   1      38.381  32.535  34.960  1.00  0.00     0.057 A 
ATOM     83  C   UNL A   1      37.337  33.383  35.370  1.00  0.00     0.134 A 
ATOM     84  C   UNL A   1      39.280  32.140  35.961  1.00  0.00     0.134 A 
ATOM     85  F   UNL A   1      36.453  33.876  34.491  1.00  0.00    -0.206 F 
ATOM     86  C   UNL A   1      37.214  33.837  36.688  1.00  0.00     0.040 A 
ATOM     87  C   UNL A   1      39.176  32.596  37.280  1.00  0.00     0.040 A 
ATOM     88  F   UNL A   1      40.325  31.352  35.667  1.00  0.00    -0.206 F 
ATOM     89  C   UNL A   1      38.149  33.459  37.644  1.00  0.00     0.006 A 
ENDBRANCH  61  82
BRANCH  73  90
ATOM     90  C   UNL A   1      37.106  30.780  29.030  1.00  0.00     0.057 A 
ATOM     91  C   UNL A   1      37.415  32.138  28.879  1.00  0.00     0.134 A 
ATOM     92  C   UNL A   1      35.832  30.366  28.619  1.00  0.00     0.134 A 
ATOM     93  F   UNL A   1      38.604  32.609  29.289  1.00  0.00    -0.206 F 
ATOM     94  C   UNL A   1      36.499  33.049  28.353  1.00  0.00     0.040 A 
ATOM     95  C   UNL A   1      34.919  31.262  28.056  1.00  0.00     0.040 A 
ATOM     96  F   UNL A   1      35.422  29.103  28.795  1.00  0.00    -0.206 F 
ATOM     97  C   UNL A   1      35.248  32.609  27.931  1.00  0.00     0.006 A 
ENDBRANCH  73  90
ENDBRANCH  47  48
ENDBRANCH  40  42
ENDBRANCH  39  40
ENDBRANCH  38  39
ENDBRANCH  37  38
ENDBRANCH  36  37
ENDBRANCH  35  36
ENDBRANCH  34  35
ENDBRANCH   1  34
TORSDOF 22
ENDMDL
