MODEL 1
REMARK VINA RESULT:     -10.4      0.000      0.000
REMARK SMILES O=C(OCCOCCOCCOCCOC(=O)c1ccc2c(c1)[C@@H]1C=CC[C@@H]1[C@H](c1ccncc1)N2)c1ccc(-c2c3nc(c(-c4c(F)cccc4F)c4ccc([nH]4)c(-c4c(F)cccc4F)c4nc(c(-c5c(F)cccc5F)c5ccc2[nH]5)C=C4)C=C3)cc1
REMARK SMILES IDX 8 1 7 2 6 3 5 4 4 5 3 6 2 7 1 8 37 9 38 10 90 11 39 12 89 13
REMARK SMILES IDX 40 14 41 15 42 16 83 17 43 18 88 19 82 20 84 21 44 22 87 23
REMARK SMILES IDX 81 24 80 25 45 27 71 28 54 29 70 30 55 31 58 32 69 33 85 34
REMARK SMILES IDX 56 35 57 36 68 38 86 39 59 40 46 41 47 42 52 43 48 44 49 45
REMARK SMILES IDX 51 46 53 47 50 48 72 49 73 50 78 51 74 52 75 53 77 54 79 55
REMARK SMILES IDX 76 56 60 57 61 58 66 59 62 60 63 61 65 62 67 63 64 64 9 65
REMARK SMILES IDX 10 66 11 67 12 68 13 69 14 70 15 71 16 72 17 73 18 74 19 75
REMARK SMILES IDX 23 76 20 77 22 78 21 79 24 80 36 81 25 82 28 83 29 84 26 86
REMARK SMILES IDX 27 87 30 88 31 89 35 90 32 91 34 92 33 93
REMARK H PARENT 84 26 58 37 36 85
REMARK Flexibility Score: inf
ROOT
ATOM      1  C   UNL A   1      34.533  25.204  25.104  1.00  0.00     0.188 C 
ENDROOT
BRANCH   1   2
ATOM      2  C   UNL A   1      35.599  24.127  25.308  1.00  0.00     0.188 C 
BRANCH   2   3
ATOM      3  O   UNL A   1      35.453  23.083  24.340  1.00  0.00    -0.376 OA
BRANCH   3   4
ATOM      4  C   UNL A   1      36.675  22.552  23.833  1.00  0.00     0.202 C 
BRANCH   4   5
ATOM      5  C   UNL A   1      37.048  21.189  24.420  1.00  0.00     0.261 C 
BRANCH   5   6
ATOM      6  O   UNL A   1      37.585  21.300  25.743  1.00  0.00    -0.460 OA
BRANCH   6   7
ATOM      7  C   UNL A   1      38.885  21.443  26.102  1.00  0.00     0.338 C 
ATOM      8  O   UNL A   1      39.600  20.441  26.091  1.00  0.00    -0.246 OA
BRANCH   7   9
ATOM      9  C   UNL A   1      39.523  22.741  26.502  1.00  0.00     0.060 A 
ATOM     10  C   UNL A   1      39.141  24.015  26.071  1.00  0.00     0.016 A 
ATOM     11  C   UNL A   1      40.549  22.662  27.461  1.00  0.00     0.016 A 
ATOM     12  C   UNL A   1      39.764  25.166  26.539  1.00  0.00     0.010 A 
ATOM     13  C   UNL A   1      41.175  23.812  27.949  1.00  0.00     0.010 A 
ATOM     14  C   UNL A   1      40.789  25.069  27.472  1.00  0.00    -0.014 A 
BRANCH  14  15
ATOM     15  C   UNL A   1      41.535  26.286  27.827  1.00  0.00     0.031 A 
ATOM     16  C   UNL A   1      40.838  27.310  28.666  1.00  0.00     0.074 A 
ATOM     17  C   UNL A   1      42.826  26.415  27.476  1.00  0.00     0.049 A 
ATOM     18  N   UNL A   1      41.229  28.505  29.011  1.00  0.00    -0.248 NA
ATOM     19  C   UNL A   1      39.518  26.928  29.201  1.00  0.00     0.031 C 
ATOM     20  C   UNL A   1      43.615  25.401  26.771  1.00  0.00     0.029 A 
ATOM     21  N   UNL A   1      43.703  27.449  27.668  1.00  0.00    -0.354 N 
ATOM     22  C   UNL A   1      40.189  29.033  29.763  1.00  0.00     0.074 A 
ATOM     23  C   UNL A   1      39.157  28.027  29.844  1.00  0.00     0.031 C 
ATOM     24  C   UNL A   1      44.857  25.873  26.576  1.00  0.00     0.029 A 
ATOM     25  C   UNL A   1      44.928  27.240  27.081  1.00  0.00     0.049 A 
ATOM     26  H   UNL A   1      43.478  28.261  28.176  1.00  0.00     0.167 HD
ATOM     27  C   UNL A   1      40.109  30.263  30.317  1.00  0.00     0.037 A 
ATOM     28  C   UNL A   1      45.959  28.092  26.924  1.00  0.00     0.037 A 
ATOM     29  C   UNL A   1      41.162  31.234  30.221  1.00  0.00     0.049 A 
ATOM     30  C   UNL A   1      45.804  29.490  27.464  1.00  0.00     0.074 A 
ATOM     31  C   UNL A   1      41.200  32.523  30.719  1.00  0.00     0.029 A 
ATOM     32  N   UNL A   1      42.369  31.014  29.570  1.00  0.00    -0.354 N 
ATOM     33  N   UNL A   1      44.809  30.005  28.148  1.00  0.00    -0.248 NA
ATOM     34  C   UNL A   1      46.896  30.432  27.192  1.00  0.00     0.031 C 
ATOM     35  C   UNL A   1      42.411  33.098  30.323  1.00  0.00     0.029 A 
ATOM     36  C   UNL A   1      43.146  32.154  29.620  1.00  0.00     0.049 A 
ATOM     37  H   UNL A   1      42.632  30.168  29.139  1.00  0.00     0.167 HD
ATOM     38  C   UNL A   1      45.153  31.327  28.390  1.00  0.00     0.074 A 
ATOM     39  C   UNL A   1      46.464  31.527  27.803  1.00  0.00     0.031 C 
ATOM     40  C   UNL A   1      44.451  32.297  29.026  1.00  0.00     0.037 A 
BRANCH  27  41
ATOM     41  C   UNL A   1      38.821  30.636  30.983  1.00  0.00     0.057 A 
ATOM     42  C   UNL A   1      37.766  31.247  30.295  1.00  0.00     0.134 A 
ATOM     43  C   UNL A   1      38.645  30.390  32.352  1.00  0.00     0.134 A 
ATOM     44  F   UNL A   1      37.883  31.538  28.991  1.00  0.00    -0.206 F 
ATOM     45  C   UNL A   1      36.587  31.614  30.947  1.00  0.00     0.040 A 
ATOM     46  C   UNL A   1      37.464  30.734  33.010  1.00  0.00     0.040 A 
ATOM     47  F   UNL A   1      39.622  29.819  33.072  1.00  0.00    -0.206 F 
ATOM     48  C   UNL A   1      36.432  31.353  32.308  1.00  0.00     0.006 A 
ENDBRANCH  27  41
BRANCH  28  49
ATOM     49  C   UNL A   1      47.168  27.689  26.156  1.00  0.00     0.057 A 
ATOM     50  C   UNL A   1      47.197  27.727  24.758  1.00  0.00     0.134 A 
ATOM     51  C   UNL A   1      48.317  27.216  26.806  1.00  0.00     0.134 A 
ATOM     52  F   UNL A   1      46.124  28.144  24.071  1.00  0.00    -0.206 F 
ATOM     53  C   UNL A   1      48.312  27.292  24.035  1.00  0.00     0.040 A 
ATOM     54  C   UNL A   1      49.449  26.807  26.098  1.00  0.00     0.040 A 
ATOM     55  F   UNL A   1      48.360  27.146  28.145  1.00  0.00    -0.206 F 
ATOM     56  C   UNL A   1      49.444  26.835  24.707  1.00  0.00     0.006 A 
ENDBRANCH  28  49
BRANCH  40  57
ATOM     57  C   UNL A   1      45.094  33.646  29.123  1.00  0.00     0.057 A 
ATOM     58  C   UNL A   1      45.938  33.978  30.189  1.00  0.00     0.134 A 
ATOM     59  C   UNL A   1      44.930  34.588  28.101  1.00  0.00     0.134 A 
ATOM     60  F   UNL A   1      46.121  33.118  31.203  1.00  0.00    -0.206 F 
ATOM     61  C   UNL A   1      46.592  35.207  30.240  1.00  0.00     0.040 A 
ATOM     62  C   UNL A   1      45.598  35.810  28.128  1.00  0.00     0.040 A 
ATOM     63  F   UNL A   1      44.141  34.322  27.049  1.00  0.00    -0.206 F 
ATOM     64  C   UNL A   1      46.431  36.123  29.201  1.00  0.00     0.006 A 
ENDBRANCH  40  57
ENDBRANCH  14  15
ENDBRANCH   7   9
ENDBRANCH   6   7
ENDBRANCH   5   6
ENDBRANCH   4   5
ENDBRANCH   3   4
ENDBRANCH   2   3
ENDBRANCH   1   2
BRANCH   1  65
ATOM     65  O   UNL A   1      34.152  25.438  23.751  1.00  0.00    -0.377 OA
BRANCH  65  66
ATOM     66  C   UNL A   1      33.759  26.763  23.406  1.00  0.00     0.188 C 
BRANCH  66  67
ATOM     67  C   UNL A   1      33.293  27.720  24.525  1.00  0.00     0.188 C 
BRANCH  67  68
ATOM     68  O   UNL A   1      32.556  28.855  24.089  1.00  0.00    -0.376 OA
BRANCH  68  69
ATOM     69  C   UNL A   1      31.140  28.741  24.198  1.00  0.00     0.202 C 
BRANCH  69  70
ATOM     70  C   UNL A   1      30.451  28.172  22.951  1.00  0.00     0.261 C 
BRANCH  70  71
ATOM     71  O   UNL A   1      30.402  26.737  22.880  1.00  0.00    -0.460 OA
BRANCH  71  72
ATOM     72  C   UNL A   1      29.926  26.054  23.944  1.00  0.00     0.338 C 
ATOM     73  O   UNL A   1      28.978  26.351  24.650  1.00  0.00    -0.246 OA
BRANCH  72  74
ATOM     74  C   UNL A   1      30.626  24.752  23.975  1.00  0.00     0.060 A 
ATOM     75  C   UNL A   1      31.115  24.213  22.782  1.00  0.00     0.018 A 
ATOM     76  C   UNL A   1      30.894  24.121  25.190  1.00  0.00     0.022 A 
ATOM     77  C   UNL A   1      31.886  23.048  22.812  1.00  0.00     0.027 A 
ATOM     78  C   UNL A   1      31.628  22.923  25.220  1.00  0.00    -0.017 A 
ATOM     79  C   UNL A   1      32.108  22.368  24.017  1.00  0.00     0.038 A 
ATOM     80  C   UNL A   1      31.829  22.214  26.539  1.00  0.00     0.049 C 
ATOM     81  N   UNL A   1      32.793  21.152  24.009  1.00  0.00    -0.378 N 
ATOM     82  C   UNL A   1      32.679  22.970  27.522  1.00  0.00    -0.023 C 
ATOM     83  C   UNL A   1      32.574  20.871  26.445  1.00  0.00     0.031 C 
ATOM     84  C   UNL A   1      32.430  20.220  25.068  1.00  0.00     0.114 C 
ATOM     85  H   UNL A   1      33.474  20.939  23.332  1.00  0.00     0.161 HD
ATOM     86  C   UNL A   1      33.858  22.376  27.737  1.00  0.00    -0.030 C 
ATOM     87  C   UNL A   1      34.015  21.148  26.903  1.00  0.00     0.034 C 
BRANCH  84  88
ATOM     88  C   UNL A   1      33.175  18.899  24.989  1.00  0.00    -0.022 A 
ATOM     89  C   UNL A   1      32.591  17.768  25.579  1.00  0.00     0.026 A 
ATOM     90  C   UNL A   1      34.437  18.750  24.404  1.00  0.00     0.026 A 
ATOM     91  C   UNL A   1      33.275  16.565  25.561  1.00  0.00     0.111 A 
ATOM     92  C   UNL A   1      35.039  17.500  24.426  1.00  0.00     0.111 A 
ATOM     93  N   UNL A   1      34.487  16.405  24.992  1.00  0.00    -0.265 NA
ENDBRANCH  84  88
ENDBRANCH  72  74
ENDBRANCH  71  72
ENDBRANCH  70  71
ENDBRANCH  69  70
ENDBRANCH  68  69
ENDBRANCH  67  68
ENDBRANCH  66  67
ENDBRANCH  65  66
ENDBRANCH   1  65
TORSDOF 21
ENDMDL
MODEL 2
REMARK VINA RESULT:     -10.4      1.643      2.595
REMARK SMILES O=C(OCCOCCOCCOCCOC(=O)c1ccc2c(c1)[C@@H]1C=CC[C@@H]1[C@H](c1ccncc1)N2)c1ccc(-c2c3nc(c(-c4c(F)cccc4F)c4ccc([nH]4)c(-c4c(F)cccc4F)c4nc(c(-c5c(F)cccc5F)c5ccc2[nH]5)C=C4)C=C3)cc1
REMARK SMILES IDX 8 1 7 2 6 3 5 4 4 5 3 6 2 7 1 8 37 9 38 10 90 11 39 12 89 13
REMARK SMILES IDX 40 14 41 15 42 16 83 17 43 18 88 19 82 20 84 21 44 22 87 23
REMARK SMILES IDX 81 24 80 25 45 27 71 28 54 29 70 30 55 31 58 32 69 33 85 34
REMARK SMILES IDX 56 35 57 36 68 38 86 39 59 40 46 41 47 42 52 43 48 44 49 45
REMARK SMILES IDX 51 46 53 47 50 48 72 49 73 50 78 51 74 52 75 53 77 54 79 55
REMARK SMILES IDX 76 56 60 57 61 58 66 59 62 60 63 61 65 62 67 63 64 64 9 65
REMARK SMILES IDX 10 66 11 67 12 68 13 69 14 70 15 71 16 72 17 73 18 74 19 75
REMARK SMILES IDX 23 76 20 77 22 78 21 79 24 80 36 81 25 82 28 83 29 84 26 86
REMARK SMILES IDX 27 87 30 88 31 89 35 90 32 91 34 92 33 93
REMARK H PARENT 84 26 58 37 36 85
REMARK Flexibility Score: inf
ROOT
ATOM      1  C   UNL A   1      36.285  24.088  25.726  1.00  0.00     0.188 C 
ENDROOT
BRANCH   1   2
ATOM      2  C   UNL A   1      37.713  23.556  25.606  1.00  0.00     0.188 C 
BRANCH   2   3
ATOM      3  O   UNL A   1      37.712  22.223  25.086  1.00  0.00    -0.376 OA
BRANCH   3   4
ATOM      4  C   UNL A   1      38.473  21.280  25.837  1.00  0.00     0.202 C 
BRANCH   4   5
ATOM      5  C   UNL A   1      38.898  20.049  25.035  1.00  0.00     0.261 C 
BRANCH   5   6
ATOM      6  O   UNL A   1      39.803  19.213  25.767  1.00  0.00    -0.460 OA
BRANCH   6   7
ATOM      7  C   UNL A   1      41.132  19.401  25.965  1.00  0.00     0.338 C 
ATOM      8  O   UNL A   1      41.887  18.453  25.751  1.00  0.00    -0.246 OA
BRANCH   7   9
ATOM      9  C   UNL A   1      41.753  20.691  26.416  1.00  0.00     0.060 A 
ATOM     10  C   UNL A   1      42.005  21.066  27.738  1.00  0.00     0.016 A 
ATOM     11  C   UNL A   1      42.192  21.559  25.400  1.00  0.00     0.016 A 
ATOM     12  C   UNL A   1      42.633  22.265  28.054  1.00  0.00     0.010 A 
ATOM     13  C   UNL A   1      42.837  22.762  25.704  1.00  0.00     0.010 A 
ATOM     14  C   UNL A   1      43.044  23.121  27.040  1.00  0.00    -0.014 A 
BRANCH  14  15
ATOM     15  C   UNL A   1      43.558  24.450  27.405  1.00  0.00     0.031 A 
ATOM     16  C   UNL A   1      42.574  25.468  27.889  1.00  0.00     0.074 A 
ATOM     17  C   UNL A   1      44.880  24.693  27.385  1.00  0.00     0.049 A 
ATOM     18  N   UNL A   1      42.753  26.732  28.156  1.00  0.00    -0.248 NA
ATOM     19  C   UNL A   1      41.197  24.992  28.111  1.00  0.00     0.031 C 
ATOM     20  C   UNL A   1      45.915  23.710  27.054  1.00  0.00     0.029 A 
ATOM     21  N   UNL A   1      45.580  25.838  27.654  1.00  0.00    -0.354 N 
ATOM     22  C   UNL A   1      41.507  27.210  28.535  1.00  0.00     0.074 A 
ATOM     23  C   UNL A   1      40.582  26.103  28.483  1.00  0.00     0.031 C 
ATOM     24  C   UNL A   1      47.118  24.303  27.124  1.00  0.00     0.029 A 
ATOM     25  C   UNL A   1      46.931  25.715  27.438  1.00  0.00     0.049 A 
ATOM     26  H   UNL A   1      45.156  26.668  27.971  1.00  0.00     0.167 HD
ATOM     27  C   UNL A   1      41.174  28.475  28.876  1.00  0.00     0.037 A 
ATOM     28  C   UNL A   1      47.889  26.661  27.439  1.00  0.00     0.037 A 
ATOM     29  C   UNL A   1      42.126  29.549  28.923  1.00  0.00     0.049 A 
ATOM     30  C   UNL A   1      47.474  28.082  27.724  1.00  0.00     0.074 A 
ATOM     31  C   UNL A   1      41.916  30.879  29.234  1.00  0.00     0.029 A 
ATOM     32  N   UNL A   1      43.479  29.404  28.643  1.00  0.00    -0.354 N 
ATOM     33  N   UNL A   1      46.290  28.545  28.050  1.00  0.00    -0.248 NA
ATOM     34  C   UNL A   1      48.513  29.112  27.617  1.00  0.00     0.031 C 
ATOM     35  C   UNL A   1      43.136  31.549  29.090  1.00  0.00     0.029 A 
ATOM     36  C   UNL A   1      44.112  30.628  28.736  1.00  0.00     0.049 A 
ATOM     37  H   UNL A   1      43.920  28.555  28.414  1.00  0.00     0.167 HD
ATOM     38  C   UNL A   1      46.440  29.917  28.191  1.00  0.00     0.074 A 
ATOM     39  C   UNL A   1      47.839  30.207  27.941  1.00  0.00     0.031 C 
ATOM     40  C   UNL A   1      45.512  30.860  28.485  1.00  0.00     0.037 A 
BRANCH  27  41
ATOM     41  C   UNL A   1      39.727  28.762  29.130  1.00  0.00     0.057 A 
ATOM     42  C   UNL A   1      38.850  29.167  28.116  1.00  0.00     0.134 A 
ATOM     43  C   UNL A   1      39.207  28.644  30.426  1.00  0.00     0.134 A 
ATOM     44  F   UNL A   1      39.292  29.330  26.860  1.00  0.00    -0.206 F 
ATOM     45  C   UNL A   1      37.512  29.460  28.385  1.00  0.00     0.040 A 
ATOM     46  C   UNL A   1      37.867  28.914  30.704  1.00  0.00     0.040 A 
ATOM     47  F   UNL A   1      39.997  28.272  31.444  1.00  0.00    -0.206 F 
ATOM     48  C   UNL A   1      37.015  29.329  29.682  1.00  0.00     0.006 A 
ENDBRANCH  27  41
BRANCH  28  49
ATOM     49  C   UNL A   1      49.291  26.325  27.071  1.00  0.00     0.057 A 
ATOM     50  C   UNL A   1      50.262  26.057  28.043  1.00  0.00     0.134 A 
ATOM     51  C   UNL A   1      49.705  26.302  25.732  1.00  0.00     0.134 A 
ATOM     52  F   UNL A   1      49.941  26.087  29.344  1.00  0.00    -0.206 F 
ATOM     53  C   UNL A   1      51.592  25.799  27.699  1.00  0.00     0.040 A 
ATOM     54  C   UNL A   1      51.024  26.016  25.372  1.00  0.00     0.040 A 
ATOM     55  F   UNL A   1      48.831  26.554  24.746  1.00  0.00    -0.206 F 
ATOM     56  C   UNL A   1      51.975  25.774  26.359  1.00  0.00     0.006 A 
ENDBRANCH  28  49
BRANCH  40  57
ATOM     57  C   UNL A   1      45.986  32.279  28.560  1.00  0.00     0.057 A 
ATOM     58  C   UNL A   1      45.928  33.128  27.450  1.00  0.00     0.134 A 
ATOM     59  C   UNL A   1      46.429  32.817  29.775  1.00  0.00     0.134 A 
ATOM     60  F   UNL A   1      45.525  32.662  26.258  1.00  0.00    -0.206 F 
ATOM     61  C   UNL A   1      46.302  34.467  27.542  1.00  0.00     0.040 A 
ATOM     62  C   UNL A   1      46.781  34.161  29.885  1.00  0.00     0.040 A 
ATOM     63  F   UNL A   1      46.495  32.054  30.875  1.00  0.00    -0.206 F 
ATOM     64  C   UNL A   1      46.720  34.989  28.766  1.00  0.00     0.006 A 
ENDBRANCH  40  57
ENDBRANCH  14  15
ENDBRANCH   7   9
ENDBRANCH   6   7
ENDBRANCH   5   6
ENDBRANCH   4   5
ENDBRANCH   3   4
ENDBRANCH   2   3
ENDBRANCH   1   2
BRANCH   1  65
ATOM     65  O   UNL A   1      35.498  24.002  24.539  1.00  0.00    -0.377 OA
BRANCH  65  66
ATOM     66  C   UNL A   1      34.422  24.924  24.404  1.00  0.00     0.188 C 
BRANCH  66  67
ATOM     67  C   UNL A   1      34.016  25.784  25.622  1.00  0.00     0.188 C 
BRANCH  67  68
ATOM     68  O   UNL A   1      33.688  27.136  25.332  1.00  0.00    -0.376 OA
BRANCH  68  69
ATOM     69  C   UNL A   1      32.462  27.600  25.890  1.00  0.00     0.202 C 
BRANCH  69  70
ATOM     70  C   UNL A   1      31.404  28.000  24.854  1.00  0.00     0.261 C 
BRANCH  70  71
ATOM     71  O   UNL A   1      31.036  26.968  23.923  1.00  0.00    -0.460 OA
BRANCH  71  72
ATOM     72  C   UNL A   1      30.071  26.092  24.279  1.00  0.00     0.338 C 
ATOM     73  O   UNL A   1      28.896  26.333  24.491  1.00  0.00    -0.246 OA
BRANCH  72  74
ATOM     74  C   UNL A   1      30.646  24.736  24.154  1.00  0.00     0.060 A 
ATOM     75  C   UNL A   1      30.920  24.226  22.882  1.00  0.00     0.018 A 
ATOM     76  C   UNL A   1      31.014  24.015  25.291  1.00  0.00     0.022 A 
ATOM     77  C   UNL A   1      31.578  23.000  22.753  1.00  0.00     0.027 A 
ATOM     78  C   UNL A   1      31.632  22.759  25.164  1.00  0.00    -0.017 A 
ATOM     79  C   UNL A   1      31.895  22.236  23.884  1.00  0.00     0.038 A 
ATOM     80  C   UNL A   1      31.940  21.961  26.410  1.00  0.00     0.049 C 
ATOM     81  N   UNL A   1      32.457  20.968  23.726  1.00  0.00    -0.378 N 
ATOM     82  C   UNL A   1      32.980  22.584  27.300  1.00  0.00    -0.023 C 
ATOM     83  C   UNL A   1      32.540  20.567  26.154  1.00  0.00     0.031 C 
ATOM     84  C   UNL A   1      32.154  20.011  24.781  1.00  0.00     0.114 C 
ATOM     85  H   UNL A   1      33.019  20.737  22.952  1.00  0.00     0.161 HD
ATOM     86  C   UNL A   1      34.118  21.881  27.323  1.00  0.00    -0.030 C 
ATOM     87  C   UNL A   1      34.048  20.694  26.420  1.00  0.00     0.034 C 
BRANCH  84  88
ATOM     88  C   UNL A   1      32.756  18.638  24.540  1.00  0.00    -0.022 A 
ATOM     89  C   UNL A   1      32.634  17.670  25.548  1.00  0.00     0.026 A 
ATOM     90  C   UNL A   1      33.474  18.293  23.389  1.00  0.00     0.026 A 
ATOM     91  C   UNL A   1      33.219  16.428  25.369  1.00  0.00     0.111 A 
ATOM     92  C   UNL A   1      34.014  17.018  23.297  1.00  0.00     0.111 A 
ATOM     93  N   UNL A   1      33.903  16.079  24.261  1.00  0.00    -0.265 NA
ENDBRANCH  84  88
ENDBRANCH  72  74
ENDBRANCH  71  72
ENDBRANCH  70  71
ENDBRANCH  69  70
ENDBRANCH  68  69
ENDBRANCH  67  68
ENDBRANCH  66  67
ENDBRANCH  65  66
ENDBRANCH   1  65
TORSDOF 21
ENDMDL
MODEL 3
REMARK VINA RESULT:     -10.2      2.618      5.871
REMARK SMILES O=C(OCCOCCOCCOCCOC(=O)c1ccc2c(c1)[C@@H]1C=CC[C@@H]1[C@H](c1ccncc1)N2)c1ccc(-c2c3nc(c(-c4c(F)cccc4F)c4ccc([nH]4)c(-c4c(F)cccc4F)c4nc(c(-c5c(F)cccc5F)c5ccc2[nH]5)C=C4)C=C3)cc1
REMARK SMILES IDX 8 1 7 2 6 3 5 4 4 5 3 6 2 7 1 8 37 9 38 10 90 11 39 12 89 13
REMARK SMILES IDX 40 14 41 15 42 16 83 17 43 18 88 19 82 20 84 21 44 22 87 23
REMARK SMILES IDX 81 24 80 25 45 27 71 28 54 29 70 30 55 31 58 32 69 33 85 34
REMARK SMILES IDX 56 35 57 36 68 38 86 39 59 40 46 41 47 42 52 43 48 44 49 45
REMARK SMILES IDX 51 46 53 47 50 48 72 49 73 50 78 51 74 52 75 53 77 54 79 55
REMARK SMILES IDX 76 56 60 57 61 58 66 59 62 60 63 61 65 62 67 63 64 64 9 65
REMARK SMILES IDX 10 66 11 67 12 68 13 69 14 70 15 71 16 72 17 73 18 74 19 75
REMARK SMILES IDX 23 76 20 77 22 78 21 79 24 80 36 81 25 82 28 83 29 84 26 86
REMARK SMILES IDX 27 87 30 88 31 89 35 90 32 91 34 92 33 93
REMARK H PARENT 84 26 58 37 36 85
REMARK Flexibility Score: inf
ROOT
ATOM      1  C   UNL A   1      30.241  28.057  23.347  1.00  0.00     0.188 C 
ENDROOT
BRANCH   1   2
ATOM      2  C   UNL A   1      30.615  29.427  23.915  1.00  0.00     0.188 C 
BRANCH   2   3
ATOM      3  O   UNL A   1      31.083  29.304  25.261  1.00  0.00    -0.376 OA
BRANCH   3   4
ATOM      4  C   UNL A   1      31.751  30.453  25.777  1.00  0.00     0.202 C 
BRANCH   4   5
ATOM      5  C   UNL A   1      32.356  30.245  27.167  1.00  0.00     0.261 C 
BRANCH   5   6
ATOM      6  O   UNL A   1      33.789  30.261  27.140  1.00  0.00    -0.460 OA
BRANCH   6   7
ATOM      7  C   UNL A   1      34.630  30.793  28.061  1.00  0.00     0.338 C 
ATOM      8  O   UNL A   1      34.245  31.778  28.692  1.00  0.00    -0.246 OA
BRANCH   7   9
ATOM      9  C   UNL A   1      35.997  30.261  28.379  1.00  0.00     0.060 A 
ATOM     10  C   UNL A   1      36.396  29.683  29.587  1.00  0.00     0.016 A 
ATOM     11  C   UNL A   1      36.932  30.281  27.328  1.00  0.00     0.016 A 
ATOM     12  C   UNL A   1      37.676  29.171  29.768  1.00  0.00     0.010 A 
ATOM     13  C   UNL A   1      38.218  29.759  27.494  1.00  0.00     0.010 A 
ATOM     14  C   UNL A   1      38.594  29.215  28.726  1.00  0.00    -0.014 A 
BRANCH  14  15
ATOM     15  C   UNL A   1      39.984  28.816  28.996  1.00  0.00     0.031 A 
ATOM     16  C   UNL A   1      40.872  29.806  29.682  1.00  0.00     0.074 A 
ATOM     17  C   UNL A   1      40.397  27.569  28.710  1.00  0.00     0.049 A 
ATOM     18  N   UNL A   1      42.151  29.743  29.924  1.00  0.00    -0.248 NA
ATOM     19  C   UNL A   1      40.222  31.034  30.174  1.00  0.00     0.031 C 
ATOM     20  C   UNL A   1      39.554  26.504  28.163  1.00  0.00     0.029 A 
ATOM     21  N   UNL A   1      41.629  26.986  28.846  1.00  0.00    -0.354 N 
ATOM     22  C   UNL A   1      42.468  30.938  30.554  1.00  0.00     0.074 A 
ATOM     23  C   UNL A   1      41.249  31.701  30.678  1.00  0.00     0.031 C 
ATOM     24  C   UNL A   1      40.300  25.400  27.994  1.00  0.00     0.029 A 
ATOM     25  C   UNL A   1      41.680  25.703  28.357  1.00  0.00     0.049 A 
ATOM     26  H   UNL A   1      42.400  27.441  29.253  1.00  0.00     0.167 HD
ATOM     27  C   UNL A   1      43.684  31.358  30.971  1.00  0.00     0.037 A 
ATOM     28  C   UNL A   1      42.744  24.897  28.175  1.00  0.00     0.037 A 
ATOM     29  C   UNL A   1      44.873  30.566  30.837  1.00  0.00     0.049 A 
ATOM     30  C   UNL A   1      44.101  25.428  28.557  1.00  0.00     0.074 A 
ATOM     31  C   UNL A   1      46.169  30.880  31.200  1.00  0.00     0.029 A 
ATOM     32  N   UNL A   1      44.903  29.291  30.286  1.00  0.00    -0.354 N 
ATOM     33  N   UNL A   1      44.411  26.571  29.123  1.00  0.00    -0.248 NA
ATOM     34  C   UNL A   1      45.257  24.577  28.252  1.00  0.00     0.031 C 
ATOM     35  C   UNL A   1      46.990  29.814  30.820  1.00  0.00     0.029 A 
ATOM     36  C   UNL A   1      46.200  28.819  30.263  1.00  0.00     0.049 A 
ATOM     37  H   UNL A   1      44.115  28.798  29.961  1.00  0.00     0.167 HD
ATOM     38  C   UNL A   1      45.793  26.577  29.246  1.00  0.00     0.074 A 
ATOM     39  C   UNL A   1      46.259  25.309  28.721  1.00  0.00     0.031 C 
ATOM     40  C   UNL A   1      46.610  27.541  29.735  1.00  0.00     0.037 A 
BRANCH  27  41
ATOM     41  C   UNL A   1      43.782  32.748  31.518  1.00  0.00     0.057 A 
ATOM     42  C   UNL A   1      43.663  33.031  32.884  1.00  0.00     0.134 A 
ATOM     43  C   UNL A   1      43.984  33.830  30.649  1.00  0.00     0.134 A 
ATOM     44  F   UNL A   1      43.438  32.044  33.765  1.00  0.00    -0.206 F 
ATOM     45  C   UNL A   1      43.727  34.340  33.365  1.00  0.00     0.040 A 
ATOM     46  C   UNL A   1      44.069  35.140  31.119  1.00  0.00     0.040 A 
ATOM     47  F   UNL A   1      44.094  33.629  29.327  1.00  0.00    -0.206 F 
ATOM     48  C   UNL A   1      43.935  35.399  32.482  1.00  0.00     0.006 A 
ENDBRANCH  27  41
BRANCH  28  49
ATOM     49  C   UNL A   1      42.588  23.568  27.526  1.00  0.00     0.057 A 
ATOM     50  C   UNL A   1      42.612  23.421  26.134  1.00  0.00     0.134 A 
ATOM     51  C   UNL A   1      42.371  22.409  28.285  1.00  0.00     0.134 A 
ATOM     52  F   UNL A   1      42.789  24.491  25.345  1.00  0.00    -0.206 F 
ATOM     53  C   UNL A   1      42.406  22.181  25.523  1.00  0.00     0.040 A 
ATOM     54  C   UNL A   1      42.194  21.159  27.690  1.00  0.00     0.040 A 
ATOM     55  F   UNL A   1      42.330  22.473  29.624  1.00  0.00    -0.206 F 
ATOM     56  C   UNL A   1      42.201  21.044  26.303  1.00  0.00     0.006 A 
ENDBRANCH  28  49
BRANCH  40  57
ATOM     57  C   UNL A   1      48.079  27.252  29.730  1.00  0.00     0.057 A 
ATOM     58  C   UNL A   1      48.689  26.550  30.775  1.00  0.00     0.134 A 
ATOM     59  C   UNL A   1      48.871  27.611  28.632  1.00  0.00     0.134 A 
ATOM     60  F   UNL A   1      47.981  26.193  31.858  1.00  0.00    -0.206 F 
ATOM     61  C   UNL A   1      50.041  26.219  30.733  1.00  0.00     0.040 A 
ATOM     62  C   UNL A   1      50.219  27.263  28.568  1.00  0.00     0.040 A 
ATOM     63  F   UNL A   1      48.339  28.276  27.596  1.00  0.00    -0.206 F 
ATOM     64  C   UNL A   1      50.808  26.567  29.621  1.00  0.00     0.006 A 
ENDBRANCH  40  57
ENDBRANCH  14  15
ENDBRANCH   7   9
ENDBRANCH   6   7
ENDBRANCH   5   6
ENDBRANCH   4   5
ENDBRANCH   3   4
ENDBRANCH   2   3
ENDBRANCH   1   2
BRANCH   1  65
ATOM     65  O   UNL A   1      30.641  27.826  21.998  1.00  0.00    -0.377 OA
BRANCH  65  66
ATOM     66  C   UNL A   1      31.472  26.697  21.751  1.00  0.00     0.188 C 
BRANCH  66  67
ATOM     67  C   UNL A   1      32.668  26.427  22.692  1.00  0.00     0.188 C 
BRANCH  67  68
ATOM     68  O   UNL A   1      33.544  27.528  22.894  1.00  0.00    -0.376 OA
BRANCH  68  69
ATOM     69  C   UNL A   1      33.912  27.773  24.249  1.00  0.00     0.202 C 
BRANCH  69  70
ATOM     70  C   UNL A   1      33.731  26.570  25.184  1.00  0.00     0.261 C 
BRANCH  70  71
ATOM     71  O   UNL A   1      32.970  26.830  26.376  1.00  0.00    -0.460 OA
BRANCH  71  72
ATOM     72  C   UNL A   1      31.765  26.235  26.513  1.00  0.00     0.338 C 
ATOM     73  O   UNL A   1      30.705  26.767  26.793  1.00  0.00    -0.246 OA
BRANCH  72  74
ATOM     74  C   UNL A   1      31.912  24.840  26.046  1.00  0.00     0.060 A 
ATOM     75  C   UNL A   1      31.042  24.353  25.067  1.00  0.00     0.018 A 
ATOM     76  C   UNL A   1      32.973  24.052  26.494  1.00  0.00     0.022 A 
ATOM     77  C   UNL A   1      31.248  23.081  24.527  1.00  0.00     0.027 A 
ATOM     78  C   UNL A   1      33.154  22.753  25.989  1.00  0.00    -0.017 A 
ATOM     79  C   UNL A   1      32.269  22.254  25.013  1.00  0.00     0.038 A 
ATOM     80  C   UNL A   1      34.257  21.889  26.554  1.00  0.00     0.049 C 
ATOM     81  N   UNL A   1      32.390  20.949  24.533  1.00  0.00    -0.378 N 
ATOM     82  C   UNL A   1      35.644  22.390  26.262  1.00  0.00    -0.023 C 
ATOM     83  C   UNL A   1      34.313  20.459  25.989  1.00  0.00     0.031 C 
ATOM     84  C   UNL A   1      32.955  19.985  25.467  1.00  0.00     0.114 C 
ATOM     85  H   UNL A   1      32.110  20.698  23.623  1.00  0.00     0.161 HD
ATOM     86  C   UNL A   1      36.306  21.592  25.416  1.00  0.00    -0.030 C 
ATOM     87  C   UNL A   1      35.460  20.448  24.966  1.00  0.00     0.034 C 
BRANCH  84  88
ATOM     88  C   UNL A   1      33.027  18.575  24.908  1.00  0.00    -0.022 A 
ATOM     89  C   UNL A   1      32.900  17.498  25.797  1.00  0.00     0.026 A 
ATOM     90  C   UNL A   1      33.264  18.283  23.560  1.00  0.00     0.026 A 
ATOM     91  C   UNL A   1      33.012  16.205  25.316  1.00  0.00     0.111 A 
ATOM     92  C   UNL A   1      33.349  16.953  23.171  1.00  0.00     0.111 A 
ATOM     93  N   UNL A   1      33.229  15.909  24.019  1.00  0.00    -0.265 NA
ENDBRANCH  84  88
ENDBRANCH  72  74
ENDBRANCH  71  72
ENDBRANCH  70  71
ENDBRANCH  69  70
ENDBRANCH  68  69
ENDBRANCH  67  68
ENDBRANCH  66  67
ENDBRANCH  65  66
ENDBRANCH   1  65
TORSDOF 21
ENDMDL
