MODEL 1
REMARK VINA RESULT:     -10.5      0.000      0.000
REMARK SMILES CCOc1cnc(C(=O)c2[nH]c3cc(Cl)ccc3c2CC(=O)OCCOCCOCCOCCOC(=O)c2ccc(-c3c4nc(c(-c5c(F)cccc5F)c5ccc([nH]5)c(-c5c(F)cccc5F)c5nc(c(-c6c(F)cccc6F)c6ccc3[nH]6)C=C5)C=C4)cc2)cc1CC
REMARK SMILES IDX 27 1 26 2 25 3 24 4 23 5 21 6 22 7 20 8 19 9 10 10 11 11
REMARK SMILES IDX 12 12 18 14 13 15 17 16 14 17 16 18 15 19 8 20 9 21 7 22
REMARK SMILES IDX 4 23 5 24 93 25 6 26 92 27 3 28 2 29 1 30 94 31 95 32 28 33
REMARK SMILES IDX 29 34 30 35 31 36 32 37 33 38 34 39 35 40 36 41 37 42 38 43
REMARK SMILES IDX 39 44 91 45 40 46 90 47 41 48 42 49 43 50 84 51 44 52 89 53
REMARK SMILES IDX 83 54 85 55 45 56 88 57 82 58 81 59 46 61 72 62 55 63 71 64
REMARK SMILES IDX 56 65 59 66 70 67 86 68 57 69 58 70 69 72 87 73 60 74 47 75
REMARK SMILES IDX 48 76 53 77 49 78 50 79 52 80 54 81 51 82 73 83 74 84 79 85
REMARK SMILES IDX 75 86 76 87 78 88 80 89 77 90 61 91 62 92 67 93 63 94 64 95
REMARK SMILES IDX 66 96 68 97 65 98
REMARK H PARENT 11 13 85 60 59 71
REMARK Flexibility Score: inf
ROOT
ATOM      1  C   UNL A   1      38.267  21.181  25.890  1.00  0.00     0.188 C 
ENDROOT
BRANCH   1   2
ATOM      2  O   UNL A   1      37.721  22.279  25.191  1.00  0.00    -0.376 OA
BRANCH   2   3
ATOM      3  C   UNL A   1      36.672  22.014  24.265  1.00  0.00     0.202 C 
BRANCH   3   4
ATOM      4  C   UNL A   1      36.102  23.150  23.388  1.00  0.00     0.261 C 
BRANCH   4   5
ATOM      5  O   UNL A   1      34.997  22.787  22.513  1.00  0.00    -0.463 OA
BRANCH   5   6
ATOM      6  C   UNL A   1      33.859  23.514  22.649  1.00  0.00     0.310 C 
ATOM      7  O   UNL A   1      33.810  24.721  22.408  1.00  0.00    -0.252 OA
BRANCH   6   8
ATOM      8  C   UNL A   1      32.604  22.802  23.131  1.00  0.00     0.161 C 
BRANCH   8   9
ATOM      9  C   UNL A   1      32.616  21.807  24.272  1.00  0.00     0.000 A 
ATOM     10  C   UNL A   1      33.029  22.018  25.599  1.00  0.00     0.093 A 
ATOM     11  N   UNL A   1      32.742  20.847  26.272  1.00  0.00    -0.351 N 
ATOM     12  C   UNL A   1      32.691  19.804  25.382  1.00  0.00     0.048 A 
ATOM     13  H   UNL A   1      32.597  20.772  27.243  1.00  0.00     0.167 HD
ATOM     14  C   UNL A   1      32.571  20.374  24.115  1.00  0.00     0.004 A 
ATOM     15  C   UNL A   1      32.764  18.422  25.601  1.00  0.00     0.047 A 
ATOM     16  C   UNL A   1      32.534  19.510  23.000  1.00  0.00     0.012 A 
ATOM     17  C   UNL A   1      32.778  17.599  24.474  1.00  0.00     0.043 A 
ATOM     18  C   UNL A   1      32.666  18.127  23.191  1.00  0.00     0.021 A 
ATOM     19  Cl  UNL A   1      32.973  15.899  24.678  1.00  0.00    -0.084 Cl
BRANCH  10  20
ATOM     20  C   UNL A   1      33.627  23.216  26.200  1.00  0.00     0.227 C 
ATOM     21  O   UNL A   1      34.653  23.169  26.879  1.00  0.00    -0.285 OA
BRANCH  20  22
ATOM     22  C   UNL A   1      32.956  24.552  26.088  1.00  0.00     0.113 A 
ATOM     23  C   UNL A   1      31.643  26.854  25.403  1.00  0.00     0.140 A 
ATOM     24  C   UNL A   1      30.973  25.682  25.737  1.00  0.00     0.158 A 
ATOM     25  C   UNL A   1      33.032  26.903  25.547  1.00  0.00    -0.002 A 
ATOM     26  N   UNL A   1      31.598  24.536  26.091  1.00  0.00    -0.249 NA
ATOM     27  C   UNL A   1      33.697  25.705  25.843  1.00  0.00     0.040 A 
BRANCH  23  28
ATOM     28  O   UNL A   1      30.948  27.937  24.947  1.00  0.00    -0.492 OA
BRANCH  28  29
ATOM     29  C   UNL A   1      30.091  27.580  23.845  1.00  0.00     0.226 C 
ATOM     30  C   UNL A   1      29.602  28.823  23.113  1.00  0.00     0.049 C 
ENDBRANCH  28  29
ENDBRANCH  23  28
BRANCH  25  31
ATOM     31  C   UNL A   1      33.825  28.163  25.299  1.00  0.00     0.036 C 
ATOM     32  C   UNL A   1      34.365  28.802  26.570  1.00  0.00     0.009 C 
ENDBRANCH  25  31
ENDBRANCH  20  22
ENDBRANCH  10  20
ENDBRANCH   8   9
ENDBRANCH   6   8
ENDBRANCH   5   6
ENDBRANCH   4   5
ENDBRANCH   3   4
ENDBRANCH   2   3
ENDBRANCH   1   2
BRANCH   1  33
ATOM     33  C   UNL A   1      38.718  19.971  25.075  1.00  0.00     0.188 C 
BRANCH  33  34
ATOM     34  O   UNL A   1      39.817  19.203  25.531  1.00  0.00    -0.377 OA
BRANCH  34  35
ATOM     35  C   UNL A   1      40.765  19.774  26.417  1.00  0.00     0.188 C 
BRANCH  35  36
ATOM     36  C   UNL A   1      42.216  19.877  25.957  1.00  0.00     0.188 C 
BRANCH  36  37
ATOM     37  O   UNL A   1      42.676  21.127  25.439  1.00  0.00    -0.376 OA
BRANCH  37  38
ATOM     38  C   UNL A   1      43.718  21.832  26.111  1.00  0.00     0.202 C 
BRANCH  38  39
ATOM     39  C   UNL A   1      43.249  22.721  27.258  1.00  0.00     0.261 C 
BRANCH  39  40
ATOM     40  O   UNL A   1      42.787  23.984  26.755  1.00  0.00    -0.460 OA
BRANCH  40  41
ATOM     41  C   UNL A   1      41.446  24.105  26.664  1.00  0.00     0.338 C 
ATOM     42  O   UNL A   1      40.654  23.302  26.193  1.00  0.00    -0.246 OA
BRANCH  41  43
ATOM     43  C   UNL A   1      41.025  25.316  27.387  1.00  0.00     0.060 A 
ATOM     44  C   UNL A   1      41.819  26.463  27.261  1.00  0.00     0.016 A 
ATOM     45  C   UNL A   1      39.899  25.312  28.215  1.00  0.00     0.016 A 
ATOM     46  C   UNL A   1      41.527  27.594  28.011  1.00  0.00     0.010 A 
ATOM     47  C   UNL A   1      39.614  26.443  28.979  1.00  0.00     0.010 A 
ATOM     48  C   UNL A   1      40.457  27.565  28.912  1.00  0.00    -0.014 A 
BRANCH  48  49
ATOM     49  C   UNL A   1      40.364  28.613  29.950  1.00  0.00     0.031 A 
ATOM     50  C   UNL A   1      41.353  28.575  31.080  1.00  0.00     0.074 A 
ATOM     51  C   UNL A   1      39.446  29.588  29.863  1.00  0.00     0.049 A 
ATOM     52  N   UNL A   1      41.448  29.348  32.129  1.00  0.00    -0.248 NA
ATOM     53  C   UNL A   1      42.374  27.515  31.017  1.00  0.00     0.031 C 
ATOM     54  C   UNL A   1      38.483  29.748  28.777  1.00  0.00     0.029 A 
ATOM     55  N   UNL A   1      39.180  30.629  30.713  1.00  0.00    -0.354 N 
ATOM     56  C   UNL A   1      42.534  28.867  32.851  1.00  0.00     0.074 A 
ATOM     57  C   UNL A   1      43.037  27.711  32.144  1.00  0.00     0.031 C 
ATOM     58  C   UNL A   1      37.721  30.826  29.029  1.00  0.00     0.029 A 
ATOM     59  C   UNL A   1      38.122  31.404  30.311  1.00  0.00     0.049 A 
ATOM     60  H   UNL A   1      39.697  30.802  31.533  1.00  0.00     0.167 HD
ATOM     61  C   UNL A   1      43.067  29.354  33.995  1.00  0.00     0.037 A 
ATOM     62  C   UNL A   1      37.537  32.447  30.928  1.00  0.00     0.037 A 
ATOM     63  C   UNL A   1      42.543  30.498  34.693  1.00  0.00     0.049 A 
ATOM     64  C   UNL A   1      38.082  32.908  32.254  1.00  0.00     0.074 A 
ATOM     65  C   UNL A   1      42.995  31.077  35.865  1.00  0.00     0.029 A 
ATOM     66  N   UNL A   1      41.436  31.229  34.284  1.00  0.00    -0.354 N 
ATOM     67  N   UNL A   1      39.112  32.456  32.930  1.00  0.00    -0.248 NA
ATOM     68  C   UNL A   1      37.383  34.024  32.903  1.00  0.00     0.031 C 
ATOM     69  C   UNL A   1      42.126  32.123  36.194  1.00  0.00     0.029 A 
ATOM     70  C   UNL A   1      41.173  32.237  35.194  1.00  0.00     0.049 A 
ATOM     71  H   UNL A   1      40.916  31.055  33.467  1.00  0.00     0.167 HD
ATOM     72  C   UNL A   1      39.207  33.254  34.063  1.00  0.00     0.074 A 
ATOM     73  C   UNL A   1      38.134  34.225  33.976  1.00  0.00     0.031 C 
ATOM     74  C   UNL A   1      40.101  33.197  35.081  1.00  0.00     0.037 A 
BRANCH  61  75
ATOM     75  C   UNL A   1      44.247  28.623  34.569  1.00  0.00     0.057 A 
ATOM     76  C   UNL A   1      44.099  27.564  35.474  1.00  0.00     0.134 A 
ATOM     77  C   UNL A   1      45.553  28.989  34.217  1.00  0.00     0.134 A 
ATOM     78  F   UNL A   1      42.878  27.173  35.870  1.00  0.00    -0.206 F 
ATOM     79  C   UNL A   1      45.204  26.922  36.038  1.00  0.00     0.040 A 
ATOM     80  C   UNL A   1      46.665  28.333  34.747  1.00  0.00     0.040 A 
ATOM     81  F   UNL A   1      45.770  29.994  33.354  1.00  0.00    -0.206 F 
ATOM     82  C   UNL A   1      46.493  27.303  35.669  1.00  0.00     0.006 A 
ENDBRANCH  61  75
BRANCH  62  83
ATOM     83  C   UNL A   1      36.373  33.124  30.302  1.00  0.00     0.057 A 
ATOM     84  C   UNL A   1      36.545  34.049  29.268  1.00  0.00     0.134 A 
ATOM     85  C   UNL A   1      35.063  32.873  30.730  1.00  0.00     0.134 A 
ATOM     86  F   UNL A   1      37.776  34.348  28.828  1.00  0.00    -0.206 F 
ATOM     87  C   UNL A   1      35.461  34.713  28.690  1.00  0.00     0.040 A 
ATOM     88  C   UNL A   1      33.967  33.509  30.143  1.00  0.00     0.040 A 
ATOM     89  F   UNL A   1      34.828  31.996  31.716  1.00  0.00    -0.206 F 
ATOM     90  C   UNL A   1      34.166  34.439  29.125  1.00  0.00     0.006 A 
ENDBRANCH  62  83
BRANCH  74  91
ATOM     91  C   UNL A   1      39.987  34.240  36.157  1.00  0.00     0.057 A 
ATOM     92  C   UNL A   1      40.601  35.494  36.045  1.00  0.00     0.134 A 
ATOM     93  C   UNL A   1      39.216  33.997  37.300  1.00  0.00     0.134 A 
ATOM     94  F   UNL A   1      41.362  35.787  34.981  1.00  0.00    -0.206 F 
ATOM     95  C   UNL A   1      40.473  36.458  37.046  1.00  0.00     0.040 A 
ATOM     96  C   UNL A   1      39.054  34.965  38.291  1.00  0.00     0.040 A 
ATOM     97  F   UNL A   1      38.591  32.821  37.465  1.00  0.00    -0.206 F 
ATOM     98  C   UNL A   1      39.691  36.198  38.169  1.00  0.00     0.006 A 
ENDBRANCH  74  91
ENDBRANCH  48  49
ENDBRANCH  41  43
ENDBRANCH  40  41
ENDBRANCH  39  40
ENDBRANCH  38  39
ENDBRANCH  37  38
ENDBRANCH  36  37
ENDBRANCH  35  36
ENDBRANCH  34  35
ENDBRANCH  33  34
ENDBRANCH   1  33
TORSDOF 26
ENDMDL
MODEL 2
REMARK VINA RESULT:     -10.2      6.461      9.862
REMARK SMILES CCOc1cnc(C(=O)c2[nH]c3cc(Cl)ccc3c2CC(=O)OCCOCCOCCOCCOC(=O)c2ccc(-c3c4nc(c(-c5c(F)cccc5F)c5ccc([nH]5)c(-c5c(F)cccc5F)c5nc(c(-c6c(F)cccc6F)c6ccc3[nH]6)C=C5)C=C4)cc2)cc1CC
REMARK SMILES IDX 27 1 26 2 25 3 24 4 23 5 21 6 22 7 20 8 19 9 10 10 11 11
REMARK SMILES IDX 12 12 18 14 13 15 17 16 14 17 16 18 15 19 8 20 9 21 7 22
REMARK SMILES IDX 4 23 5 24 93 25 6 26 92 27 3 28 2 29 1 30 94 31 95 32 28 33
REMARK SMILES IDX 29 34 30 35 31 36 32 37 33 38 34 39 35 40 36 41 37 42 38 43
REMARK SMILES IDX 39 44 91 45 40 46 90 47 41 48 42 49 43 50 84 51 44 52 89 53
REMARK SMILES IDX 83 54 85 55 45 56 88 57 82 58 81 59 46 61 72 62 55 63 71 64
REMARK SMILES IDX 56 65 59 66 70 67 86 68 57 69 58 70 69 72 87 73 60 74 47 75
REMARK SMILES IDX 48 76 53 77 49 78 50 79 52 80 54 81 51 82 73 83 74 84 79 85
REMARK SMILES IDX 75 86 76 87 78 88 80 89 77 90 61 91 62 92 67 93 63 94 64 95
REMARK SMILES IDX 66 96 68 97 65 98
REMARK H PARENT 11 13 85 60 59 71
REMARK Flexibility Score: inf
ROOT
ATOM      1  C   UNL A   1      37.413  21.543  25.882  1.00  0.00     0.188 C 
ENDROOT
BRANCH   1   2
ATOM      2  O   UNL A   1      36.794  22.676  25.308  1.00  0.00    -0.376 OA
BRANCH   2   3
ATOM      3  C   UNL A   1      36.414  22.594  23.937  1.00  0.00     0.202 C 
BRANCH   3   4
ATOM      4  C   UNL A   1      35.387  23.587  23.353  1.00  0.00     0.261 C 
BRANCH   4   5
ATOM      5  O   UNL A   1      34.460  23.043  22.372  1.00  0.00    -0.463 OA
BRANCH   5   6
ATOM      6  C   UNL A   1      33.279  23.697  22.235  1.00  0.00     0.310 C 
ATOM      7  O   UNL A   1      33.092  24.555  21.370  1.00  0.00    -0.252 OA
BRANCH   6   8
ATOM      8  C   UNL A   1      32.152  23.358  23.200  1.00  0.00     0.161 C 
BRANCH   8   9
ATOM      9  C   UNL A   1      32.284  22.291  24.266  1.00  0.00     0.000 A 
ATOM     10  C   UNL A   1      32.750  22.439  25.585  1.00  0.00     0.093 A 
ATOM     11  N   UNL A   1      32.571  21.209  26.186  1.00  0.00    -0.351 N 
ATOM     12  C   UNL A   1      32.539  20.228  25.227  1.00  0.00     0.048 A 
ATOM     13  H   UNL A   1      32.480  21.059  27.155  1.00  0.00     0.167 HD
ATOM     14  C   UNL A   1      32.320  20.873  24.011  1.00  0.00     0.004 A 
ATOM     15  C   UNL A   1      32.709  18.842  25.345  1.00  0.00     0.047 A 
ATOM     16  C   UNL A   1      32.280  20.085  22.841  1.00  0.00     0.012 A 
ATOM     17  C   UNL A   1      32.716  18.099  24.163  1.00  0.00     0.043 A 
ATOM     18  C   UNL A   1      32.507  18.704  22.927  1.00  0.00     0.021 A 
ATOM     19  Cl  UNL A   1      33.026  16.405  24.238  1.00  0.00    -0.084 Cl
BRANCH  10  20
ATOM     20  C   UNL A   1      33.303  23.630  26.240  1.00  0.00     0.227 C 
ATOM     21  O   UNL A   1      34.237  23.567  27.039  1.00  0.00    -0.285 OA
BRANCH  20  22
ATOM     22  C   UNL A   1      32.686  24.981  26.031  1.00  0.00     0.113 A 
ATOM     23  C   UNL A   1      31.333  27.229  25.254  1.00  0.00     0.140 A 
ATOM     24  C   UNL A   1      30.738  26.219  26.001  1.00  0.00     0.158 A 
ATOM     25  C   UNL A   1      32.705  27.163  25.000  1.00  0.00    -0.002 A 
ATOM     26  N   UNL A   1      31.387  25.105  26.408  1.00  0.00    -0.249 NA
ATOM     27  C   UNL A   1      33.375  25.983  25.353  1.00  0.00     0.040 A 
BRANCH  23  28
ATOM     28  O   UNL A   1      30.584  28.269  24.783  1.00  0.00    -0.492 OA
BRANCH  28  29
ATOM     29  C   UNL A   1      29.889  27.906  23.574  1.00  0.00     0.226 C 
ATOM     30  C   UNL A   1      30.300  28.809  22.420  1.00  0.00     0.049 C 
ENDBRANCH  28  29
ENDBRANCH  23  28
BRANCH  25  31
ATOM     31  C   UNL A   1      33.448  28.264  24.282  1.00  0.00     0.036 C 
ATOM     32  C   UNL A   1      34.046  27.827  22.952  1.00  0.00     0.009 C 
ENDBRANCH  25  31
ENDBRANCH  20  22
ENDBRANCH  10  20
ENDBRANCH   8   9
ENDBRANCH   6   8
ENDBRANCH   5   6
ENDBRANCH   4   5
ENDBRANCH   3   4
ENDBRANCH   2   3
ENDBRANCH   1   2
BRANCH   1  33
ATOM     33  C   UNL A   1      37.812  20.401  24.950  1.00  0.00     0.188 C 
BRANCH  33  34
ATOM     34  O   UNL A   1      39.011  19.691  25.203  1.00  0.00    -0.377 OA
BRANCH  34  35
ATOM     35  C   UNL A   1      39.968  20.213  26.110  1.00  0.00     0.188 C 
BRANCH  35  36
ATOM     36  C   UNL A   1      41.363  19.594  26.126  1.00  0.00     0.188 C 
BRANCH  36  37
ATOM     37  O   UNL A   1      42.343  20.110  25.223  1.00  0.00    -0.376 OA
BRANCH  37  38
ATOM     38  C   UNL A   1      43.669  20.361  25.685  1.00  0.00     0.202 C 
BRANCH  38  39
ATOM     39  C   UNL A   1      44.035  21.836  25.799  1.00  0.00     0.261 C 
BRANCH  39  40
ATOM     40  O   UNL A   1      42.936  22.659  25.381  1.00  0.00    -0.460 OA
BRANCH  40  41
ATOM     41  C   UNL A   1      42.378  23.404  26.359  1.00  0.00     0.338 C 
ATOM     42  O   UNL A   1      41.511  23.067  27.151  1.00  0.00    -0.246 OA
BRANCH  41  43
ATOM     43  C   UNL A   1      43.098  24.684  26.455  1.00  0.00     0.060 A 
ATOM     44  C   UNL A   1      43.395  25.359  25.264  1.00  0.00     0.016 A 
ATOM     45  C   UNL A   1      43.520  25.188  27.688  1.00  0.00     0.016 A 
ATOM     46  C   UNL A   1      44.171  26.511  25.295  1.00  0.00     0.010 A 
ATOM     47  C   UNL A   1      44.310  26.335  27.719  1.00  0.00     0.010 A 
ATOM     48  C   UNL A   1      44.675  26.968  26.518  1.00  0.00    -0.014 A 
BRANCH  48  49
ATOM     49  C   UNL A   1      45.771  27.959  26.516  1.00  0.00     0.031 A 
ATOM     50  C   UNL A   1      45.408  29.410  26.650  1.00  0.00     0.074 A 
ATOM     51  C   UNL A   1      47.053  27.569  26.434  1.00  0.00     0.049 A 
ATOM     52  N   UNL A   1      46.178  30.466  26.628  1.00  0.00    -0.248 NA
ATOM     53  C   UNL A   1      43.978  29.710  26.831  1.00  0.00     0.031 C 
ATOM     54  C   UNL A   1      47.511  26.184  26.362  1.00  0.00     0.029 A 
ATOM     55  N   UNL A   1      48.202  28.312  26.396  1.00  0.00    -0.354 N 
ATOM     56  C   UNL A   1      45.326  31.552  26.788  1.00  0.00     0.074 A 
ATOM     57  C   UNL A   1      43.980  31.032  26.863  1.00  0.00     0.031 C 
ATOM     58  C   UNL A   1      48.853  26.176  26.282  1.00  0.00     0.029 A 
ATOM     59  C   UNL A   1      49.337  27.554  26.259  1.00  0.00     0.049 A 
ATOM     60  H   UNL A   1      48.212  29.295  26.460  1.00  0.00     0.167 HD
ATOM     61  C   UNL A   1      45.643  32.865  26.876  1.00  0.00     0.037 A 
ATOM     62  C   UNL A   1      50.617  27.943  26.110  1.00  0.00     0.037 A 
ATOM     63  C   UNL A   1      46.989  33.367  26.785  1.00  0.00     0.049 A 
ATOM     64  C   UNL A   1      50.936  29.415  26.105  1.00  0.00     0.074 A 
ATOM     65  C   UNL A   1      47.430  34.676  26.851  1.00  0.00     0.029 A 
ATOM     66  N   UNL A   1      48.111  32.573  26.594  1.00  0.00    -0.354 N 
ATOM     67  N   UNL A   1      50.130  30.439  26.264  1.00  0.00    -0.248 NA
ATOM     68  C   UNL A   1      52.342  29.785  25.901  1.00  0.00     0.031 C 
ATOM     69  C   UNL A   1      48.813  34.678  26.643  1.00  0.00     0.029 A 
ATOM     70  C   UNL A   1      49.243  33.367  26.512  1.00  0.00     0.049 A 
ATOM     71  H   UNL A   1      48.104  31.592  26.527  1.00  0.00     0.167 HD
ATOM     72  C   UNL A   1      50.935  31.570  26.215  1.00  0.00     0.074 A 
ATOM     73  C   UNL A   1      52.294  31.103  26.022  1.00  0.00     0.031 C 
ATOM     74  C   UNL A   1      50.587  32.877  26.326  1.00  0.00     0.037 A 
BRANCH  61  75
ATOM     75  C   UNL A   1      44.509  33.836  27.040  1.00  0.00     0.057 A 
ATOM     76  C   UNL A   1      44.021  34.205  28.301  1.00  0.00     0.134 A 
ATOM     77  C   UNL A   1      43.889  34.405  25.920  1.00  0.00     0.134 A 
ATOM     78  F   UNL A   1      44.555  33.685  29.417  1.00  0.00    -0.206 F 
ATOM     79  C   UNL A   1      42.936  35.074  28.441  1.00  0.00     0.040 A 
ATOM     80  C   UNL A   1      42.826  35.300  26.048  1.00  0.00     0.040 A 
ATOM     81  F   UNL A   1      44.305  34.098  24.682  1.00  0.00    -0.206 F 
ATOM     82  C   UNL A   1      42.339  35.628  27.311  1.00  0.00     0.006 A 
ENDBRANCH  61  75
BRANCH  62  83
ATOM     83  C   UNL A   1      51.690  26.928  25.954  1.00  0.00     0.057 A 
ATOM     84  C   UNL A   1      52.403  26.454  27.060  1.00  0.00     0.134 A 
ATOM     85  C   UNL A   1      52.035  26.416  24.696  1.00  0.00     0.134 A 
ATOM     86  F   UNL A   1      52.133  26.920  28.287  1.00  0.00    -0.206 F 
ATOM     87  C   UNL A   1      53.432  25.519  26.922  1.00  0.00     0.040 A 
ATOM     88  C   UNL A   1      53.043  25.461  24.547  1.00  0.00     0.040 A 
ATOM     89  F   UNL A   1      51.389  26.827  23.596  1.00  0.00    -0.206 F 
ATOM     90  C   UNL A   1      53.751  25.017  25.662  1.00  0.00     0.006 A 
ENDBRANCH  62  83
BRANCH  74  91
ATOM     91  C   UNL A   1      51.696  33.889  26.289  1.00  0.00     0.057 A 
ATOM     92  C   UNL A   1      52.160  34.442  25.088  1.00  0.00     0.134 A 
ATOM     93  C   UNL A   1      52.277  34.348  27.478  1.00  0.00     0.134 A 
ATOM     94  F   UNL A   1      51.654  34.038  23.913  1.00  0.00    -0.206 F 
ATOM     95  C   UNL A   1      53.181  35.393  25.071  1.00  0.00     0.040 A 
ATOM     96  C   UNL A   1      53.275  35.322  27.475  1.00  0.00     0.040 A 
ATOM     97  F   UNL A   1      51.871  33.869  28.665  1.00  0.00    -0.206 F 
ATOM     98  C   UNL A   1      53.736  35.842  26.268  1.00  0.00     0.006 A 
ENDBRANCH  74  91
ENDBRANCH  48  49
ENDBRANCH  41  43
ENDBRANCH  40  41
ENDBRANCH  39  40
ENDBRANCH  38  39
ENDBRANCH  37  38
ENDBRANCH  36  37
ENDBRANCH  35  36
ENDBRANCH  34  35
ENDBRANCH  33  34
ENDBRANCH   1  33
TORSDOF 26
ENDMDL
MODEL 3
REMARK VINA RESULT:      -9.8      2.198      6.327
REMARK SMILES CCOc1cnc(C(=O)c2[nH]c3cc(Cl)ccc3c2CC(=O)OCCOCCOCCOCCOC(=O)c2ccc(-c3c4nc(c(-c5c(F)cccc5F)c5ccc([nH]5)c(-c5c(F)cccc5F)c5nc(c(-c6c(F)cccc6F)c6ccc3[nH]6)C=C5)C=C4)cc2)cc1CC
REMARK SMILES IDX 27 1 26 2 25 3 24 4 23 5 21 6 22 7 20 8 19 9 10 10 11 11
REMARK SMILES IDX 12 12 18 14 13 15 17 16 14 17 16 18 15 19 8 20 9 21 7 22
REMARK SMILES IDX 4 23 5 24 93 25 6 26 92 27 3 28 2 29 1 30 94 31 95 32 28 33
REMARK SMILES IDX 29 34 30 35 31 36 32 37 33 38 34 39 35 40 36 41 37 42 38 43
REMARK SMILES IDX 39 44 91 45 40 46 90 47 41 48 42 49 43 50 84 51 44 52 89 53
REMARK SMILES IDX 83 54 85 55 45 56 88 57 82 58 81 59 46 61 72 62 55 63 71 64
REMARK SMILES IDX 56 65 59 66 70 67 86 68 57 69 58 70 69 72 87 73 60 74 47 75
REMARK SMILES IDX 48 76 53 77 49 78 50 79 52 80 54 81 51 82 73 83 74 84 79 85
REMARK SMILES IDX 75 86 76 87 78 88 80 89 77 90 61 91 62 92 67 93 63 94 64 95
REMARK SMILES IDX 66 96 68 97 65 98
REMARK H PARENT 11 13 85 60 59 71
REMARK Flexibility Score: inf
ROOT
ATOM      1  C   UNL A   1      41.833  22.506  27.708  1.00  0.00     0.188 C 
ENDROOT
BRANCH   1   2
ATOM      2  O   UNL A   1      41.743  21.913  26.429  1.00  0.00    -0.376 OA
BRANCH   2   3
ATOM      3  C   UNL A   1      40.521  21.267  26.088  1.00  0.00     0.202 C 
BRANCH   3   4
ATOM      4  C   UNL A   1      39.169  21.941  26.404  1.00  0.00     0.261 C 
BRANCH   4   5
ATOM      5  O   UNL A   1      37.990  21.309  25.830  1.00  0.00    -0.463 OA
BRANCH   5   6
ATOM      6  C   UNL A   1      37.015  22.144  25.390  1.00  0.00     0.310 C 
ATOM      7  O   UNL A   1      36.942  23.322  25.743  1.00  0.00    -0.252 OA
BRANCH   6   8
ATOM      8  C   UNL A   1      35.970  21.589  24.433  1.00  0.00     0.161 C 
BRANCH   8   9
ATOM      9  C   UNL A   1      34.697  20.923  24.911  1.00  0.00     0.000 A 
ATOM     10  C   UNL A   1      33.739  21.430  25.806  1.00  0.00     0.093 A 
ATOM     11  N   UNL A   1      32.718  20.499  25.829  1.00  0.00    -0.351 N 
ATOM     12  C   UNL A   1      33.204  19.273  25.453  1.00  0.00     0.048 A 
ATOM     13  H   UNL A   1      31.785  20.689  26.077  1.00  0.00     0.167 HD
ATOM     14  C   UNL A   1      34.431  19.508  24.836  1.00  0.00     0.004 A 
ATOM     15  C   UNL A   1      32.664  17.992  25.633  1.00  0.00     0.047 A 
ATOM     16  C   UNL A   1      35.169  18.394  24.380  1.00  0.00     0.012 A 
ATOM     17  C   UNL A   1      33.443  16.910  25.219  1.00  0.00     0.043 A 
ATOM     18  C   UNL A   1      34.677  17.099  24.603  1.00  0.00     0.021 A 
ATOM     19  Cl  UNL A   1      32.877  15.308  25.510  1.00  0.00    -0.084 Cl
BRANCH  10  20
ATOM     20  C   UNL A   1      33.761  22.682  26.570  1.00  0.00     0.227 C 
ATOM     21  O   UNL A   1      34.237  22.755  27.702  1.00  0.00    -0.285 OA
BRANCH  20  22
ATOM     22  C   UNL A   1      33.113  23.924  26.032  1.00  0.00     0.113 A 
ATOM     23  C   UNL A   1      32.077  26.013  24.599  1.00  0.00     0.140 A 
ATOM     24  C   UNL A   1      31.417  24.795  24.730  1.00  0.00     0.158 A 
ATOM     25  C   UNL A   1      33.247  26.229  25.330  1.00  0.00    -0.002 A 
ATOM     26  N   UNL A   1      31.901  23.753  25.442  1.00  0.00    -0.249 NA
ATOM     27  C   UNL A   1      33.798  25.136  26.014  1.00  0.00     0.040 A 
BRANCH  23  28
ATOM     28  O   UNL A   1      31.580  26.978  23.771  1.00  0.00    -0.492 OA
BRANCH  28  29
ATOM     29  C   UNL A   1      30.406  27.595  24.334  1.00  0.00     0.226 C 
ATOM     30  C   UNL A   1      29.208  27.425  23.410  1.00  0.00     0.049 C 
ENDBRANCH  28  29
ENDBRANCH  23  28
BRANCH  25  31
ATOM     31  C   UNL A   1      33.972  27.553  25.320  1.00  0.00     0.036 C 
ATOM     32  C   UNL A   1      33.776  28.364  26.594  1.00  0.00     0.009 C 
ENDBRANCH  25  31
ENDBRANCH  20  22
ENDBRANCH  10  20
ENDBRANCH   8   9
ENDBRANCH   6   8
ENDBRANCH   5   6
ENDBRANCH   4   5
ENDBRANCH   3   4
ENDBRANCH   2   3
ENDBRANCH   1   2
BRANCH   1  33
ATOM     33  C   UNL A   1      43.189  22.488  28.408  1.00  0.00     0.188 C 
BRANCH  33  34
ATOM     34  O   UNL A   1      43.525  23.546  29.288  1.00  0.00    -0.377 OA
BRANCH  34  35
ATOM     35  C   UNL A   1      43.543  23.326  30.689  1.00  0.00     0.188 C 
BRANCH  35  36
ATOM     36  C   UNL A   1      44.432  24.219  31.550  1.00  0.00     0.188 C 
BRANCH  36  37
ATOM     37  O   UNL A   1      44.774  23.771  32.864  1.00  0.00    -0.376 OA
BRANCH  37  38
ATOM     38  C   UNL A   1      46.080  24.019  33.379  1.00  0.00     0.202 C 
BRANCH  38  39
ATOM     39  C   UNL A   1      46.795  25.213  32.757  1.00  0.00     0.261 C 
BRANCH  39  40
ATOM     40  O   UNL A   1      47.554  25.916  33.751  1.00  0.00    -0.460 OA
BRANCH  40  41
ATOM     41  C   UNL A   1      46.924  26.089  34.933  1.00  0.00     0.338 C 
ATOM     42  O   UNL A   1      47.239  25.630  36.020  1.00  0.00    -0.246 OA
BRANCH  41  43
ATOM     43  C   UNL A   1      45.850  27.081  34.762  1.00  0.00     0.060 A 
ATOM     44  C   UNL A   1      44.583  26.768  35.270  1.00  0.00     0.016 A 
ATOM     45  C   UNL A   1      46.069  28.275  34.071  1.00  0.00     0.016 A 
ATOM     46  C   UNL A   1      43.512  27.620  35.034  1.00  0.00     0.010 A 
ATOM     47  C   UNL A   1      44.992  29.123  33.822  1.00  0.00     0.010 A 
ATOM     48  C   UNL A   1      43.705  28.771  34.262  1.00  0.00    -0.014 A 
BRANCH  48  49
ATOM     49  C   UNL A   1      42.526  29.475  33.717  1.00  0.00     0.031 A 
ATOM     50  C   UNL A   1      41.961  28.997  32.410  1.00  0.00     0.074 A 
ATOM     51  C   UNL A   1      41.958  30.488  34.389  1.00  0.00     0.049 A 
ATOM     52  N   UNL A   1      40.968  29.475  31.708  1.00  0.00    -0.248 NA
ATOM     53  C   UNL A   1      42.609  27.816  31.814  1.00  0.00     0.031 C 
ATOM     54  C   UNL A   1      42.393  30.988  35.691  1.00  0.00     0.029 A 
ATOM     55  N   UNL A   1      40.889  31.278  34.060  1.00  0.00    -0.354 N 
ATOM     56  C   UNL A   1      40.876  28.657  30.588  1.00  0.00     0.074 A 
ATOM     57  C   UNL A   1      41.938  27.682  30.682  1.00  0.00     0.031 C 
ATOM     58  C   UNL A   1      41.598  32.009  36.050  1.00  0.00     0.029 A 
ATOM     59  C   UNL A   1      40.626  32.255  34.986  1.00  0.00     0.049 A 
ATOM     60  H   UNL A   1      40.361  31.156  33.238  1.00  0.00     0.167 HD
ATOM     61  C   UNL A   1      39.977  28.712  29.578  1.00  0.00     0.037 A 
ATOM     62  C   UNL A   1      39.716  33.245  34.956  1.00  0.00     0.037 A 
ATOM     63  C   UNL A   1      38.935  29.700  29.492  1.00  0.00     0.049 A 
ATOM     64  C   UNL A   1      38.793  33.351  33.771  1.00  0.00     0.074 A 
ATOM     65  C   UNL A   1      37.972  29.859  28.512  1.00  0.00     0.029 A 
ATOM     66  N   UNL A   1      38.731  30.708  30.424  1.00  0.00    -0.354 N 
ATOM     67  N   UNL A   1      38.703  32.573  32.717  1.00  0.00    -0.248 NA
ATOM     68  C   UNL A   1      37.845  34.472  33.770  1.00  0.00     0.031 C 
ATOM     69  C   UNL A   1      37.222  30.998  28.822  1.00  0.00     0.029 A 
ATOM     70  C   UNL A   1      37.674  31.511  30.028  1.00  0.00     0.049 A 
ATOM     71  H   UNL A   1      39.259  30.834  31.244  1.00  0.00     0.167 HD
ATOM     72  C   UNL A   1      37.667  33.089  31.948  1.00  0.00     0.074 A 
ATOM     73  C   UNL A   1      37.154  34.240  32.664  1.00  0.00     0.031 C 
ATOM     74  C   UNL A   1      37.177  32.649  30.762  1.00  0.00     0.037 A 
BRANCH  61  75
ATOM     75  C   UNL A   1      40.117  27.698  28.477  1.00  0.00     0.057 A 
ATOM     76  C   UNL A   1      39.581  26.408  28.581  1.00  0.00     0.134 A 
ATOM     77  C   UNL A   1      40.807  28.015  27.300  1.00  0.00     0.134 A 
ATOM     78  F   UNL A   1      38.924  26.030  29.689  1.00  0.00    -0.206 F 
ATOM     79  C   UNL A   1      39.756  25.458  27.572  1.00  0.00     0.040 A 
ATOM     80  C   UNL A   1      40.961  27.085  26.270  1.00  0.00     0.040 A 
ATOM     81  F   UNL A   1      41.346  29.232  27.132  1.00  0.00    -0.206 F 
ATOM     82  C   UNL A   1      40.445  25.799  26.409  1.00  0.00     0.006 A 
ENDBRANCH  61  75
BRANCH  62  83
ATOM     83  C   UNL A   1      39.631  34.213  36.080  1.00  0.00     0.057 A 
ATOM     84  C   UNL A   1      38.914  33.911  37.241  1.00  0.00     0.134 A 
ATOM     85  C   UNL A   1      40.256  35.466  36.015  1.00  0.00     0.134 A 
ATOM     86  F   UNL A   1      38.277  32.736  37.355  1.00  0.00    -0.206 F 
ATOM     87  C   UNL A   1      38.804  34.823  38.293  1.00  0.00     0.040 A 
ATOM     88  C   UNL A   1      40.177  36.377  37.070  1.00  0.00     0.040 A 
ATOM     89  F   UNL A   1      40.961  35.817  34.931  1.00  0.00    -0.206 F 
ATOM     90  C   UNL A   1      39.443  36.059  38.210  1.00  0.00     0.006 A 
ENDBRANCH  62  83
BRANCH  74  91
ATOM     91  C   UNL A   1      36.001  33.385  30.188  1.00  0.00     0.057 A 
ATOM     92  C   UNL A   1      34.729  33.330  30.774  1.00  0.00     0.134 A 
ATOM     93  C   UNL A   1      36.155  34.195  29.056  1.00  0.00     0.134 A 
ATOM     94  F   UNL A   1      34.511  32.564  31.853  1.00  0.00    -0.206 F 
ATOM     95  C   UNL A   1      33.650  34.032  30.238  1.00  0.00     0.040 A 
ATOM     96  C   UNL A   1      35.091  34.927  28.530  1.00  0.00     0.040 A 
ATOM     97  F   UNL A   1      37.349  34.303  28.451  1.00  0.00    -0.206 F 
ATOM     98  C   UNL A   1      33.830  34.840  29.117  1.00  0.00     0.006 A 
ENDBRANCH  74  91
ENDBRANCH  48  49
ENDBRANCH  41  43
ENDBRANCH  40  41
ENDBRANCH  39  40
ENDBRANCH  38  39
ENDBRANCH  37  38
ENDBRANCH  36  37
ENDBRANCH  35  36
ENDBRANCH  34  35
ENDBRANCH  33  34
ENDBRANCH   1  33
TORSDOF 26
ENDMDL
