MODEL 1
REMARK VINA RESULT:      -9.9      0.000      0.000
REMARK SMILES CCC[N@@H+]1CC2(CC[NH+](c3nccnc3C)CC2)C[C@H]1C(=O)OCCOCCOCCOCCOC(=O)c1ccc(-c2c3nc(c(-c4c(F)cccc4F)c4ccc([nH]4)c(-c4c(F)cccc4F)c4nc(c(-c5c(F)cccc5F)c5ccc2[nH]5)C=C4)C=C3)cc1
REMARK SMILES IDX 29 1 28 2 27 3 26 4 25 5 24 6 23 7 21 8 22 9 20 10 4 11 5 12
REMARK SMILES IDX 6 14 19 15 7 16 18 17 8 18 17 19 9 20 3 22 2 23 1 24 10 25
REMARK SMILES IDX 11 26 15 27 12 28 14 29 16 30 13 31 30 32 31 33 32 34 33 35
REMARK SMILES IDX 34 36 35 37 36 38 37 39 38 40 39 41 91 42 40 43 90 44 41 45
REMARK SMILES IDX 42 46 43 47 84 48 44 49 89 50 83 51 85 52 45 53 88 54 82 55
REMARK SMILES IDX 81 56 46 58 72 59 55 60 71 61 56 62 59 63 70 64 86 65 57 66
REMARK SMILES IDX 58 67 69 69 87 70 60 71 47 72 48 73 53 74 49 75 50 76 52 77
REMARK SMILES IDX 54 78 51 79 73 80 74 81 79 82 75 83 76 84 78 85 80 86 77 87
REMARK SMILES IDX 61 88 62 89 67 90 63 91 64 92 66 93 68 94 65 95
REMARK H PARENT 4 13 9 21 85 57 59 68
REMARK Flexibility Score: inf
ROOT
ATOM      1  O   UNL A   1      40.949  21.805  27.052  1.00  0.00    -0.377 OA
ENDROOT
BRANCH   1   2
ATOM      2  C   UNL A   1      40.865  23.161  26.657  1.00  0.00     0.188 C 
BRANCH   2   3
ATOM      3  C   UNL A   1      39.719  23.962  27.298  1.00  0.00     0.188 C 
BRANCH   3   4
ATOM      4  O   UNL A   1      38.449  24.076  26.663  1.00  0.00    -0.376 OA
BRANCH   4   5
ATOM      5  C   UNL A   1      38.051  23.153  25.662  1.00  0.00     0.202 C 
BRANCH   5   6
ATOM      6  C   UNL A   1      36.869  22.195  25.896  1.00  0.00     0.261 C 
BRANCH   6   7
ATOM      7  O   UNL A   1      35.642  22.786  26.352  1.00  0.00    -0.459 OA
BRANCH   7   8
ATOM      8  C   UNL A   1      34.573  21.958  26.432  1.00  0.00     0.365 C 
ATOM      9  O   UNL A   1      34.179  21.461  27.486  1.00  0.00    -0.245 OA
BRANCH   8  10
ATOM     10  C   UNL A   1      33.924  21.582  25.087  1.00  0.00     0.295 C 
ATOM     11  N   UNL A   1      32.576  20.929  25.082  1.00  0.00    -0.323 N 
ATOM     12  C   UNL A   1      31.605  22.026  25.212  1.00  0.00     0.270 C 
ATOM     13  H   UNL A   1      32.500  20.256  25.845  1.00  0.00     0.348 HD
ATOM     14  C   UNL A   1      32.245  23.264  24.561  1.00  0.00     0.036 C 
ATOM     15  C   UNL A   1      33.724  22.878  24.331  1.00  0.00     0.091 C 
ATOM     16  C   UNL A   1      32.121  24.466  25.538  1.00  0.00     0.075 C 
ATOM     17  C   UNL A   1      31.642  23.561  23.167  1.00  0.00     0.075 C 
ATOM     18  C   UNL A   1      30.773  25.189  25.452  1.00  0.00     0.269 C 
ATOM     19  C   UNL A   1      30.279  24.234  23.233  1.00  0.00     0.269 C 
ATOM     20  N   UNL A   1      30.453  25.412  24.056  1.00  0.00    -0.284 N 
ATOM     21  H   UNL A   1      30.091  24.949  24.846  1.00  0.00     0.355 HD
BRANCH  11  22
ATOM     22  C   UNL A   1      32.331  20.155  23.847  1.00  0.00     0.262 C 
BRANCH  22  23
ATOM     23  C   UNL A   1      32.507  18.641  24.029  1.00  0.00     0.058 C 
ATOM     24  C   UNL A   1      33.956  18.218  24.245  1.00  0.00     0.010 C 
ENDBRANCH  22  23
ENDBRANCH  11  22
BRANCH  20  25
ATOM     25  C   UNL A   1      30.107  26.633  23.533  1.00  0.00     0.247 A 
ATOM     26  N   UNL A   1      28.811  27.004  23.681  1.00  0.00    -0.202 NA
ATOM     27  C   UNL A   1      30.981  27.449  22.784  1.00  0.00     0.119 A 
ATOM     28  C   UNL A   1      28.431  28.173  23.124  1.00  0.00     0.137 A 
ATOM     29  N   UNL A   1      30.593  28.642  22.246  1.00  0.00    -0.252 NA
ATOM     30  C   UNL A   1      32.381  27.049  22.435  1.00  0.00     0.075 C 
ATOM     31  C   UNL A   1      29.305  28.978  22.427  1.00  0.00     0.132 A 
ENDBRANCH  20  25
ENDBRANCH   8  10
ENDBRANCH   7   8
ENDBRANCH   6   7
ENDBRANCH   5   6
ENDBRANCH   4   5
ENDBRANCH   3   4
ENDBRANCH   2   3
ENDBRANCH   1   2
BRANCH   1  32
ATOM     32  C   UNL A   1      42.113  21.117  26.630  1.00  0.00     0.188 C 
BRANCH  32  33
ATOM     33  C   UNL A   1      43.078  21.893  25.712  1.00  0.00     0.188 C 
BRANCH  33  34
ATOM     34  O   UNL A   1      44.444  21.531  25.871  1.00  0.00    -0.376 OA
BRANCH  34  35
ATOM     35  C   UNL A   1      45.465  22.480  25.604  1.00  0.00     0.202 C 
BRANCH  35  36
ATOM     36  C   UNL A   1      45.991  23.367  26.746  1.00  0.00     0.261 C 
BRANCH  36  37
ATOM     37  O   UNL A   1      46.066  24.777  26.504  1.00  0.00    -0.460 OA
BRANCH  37  38
ATOM     38  C   UNL A   1      45.072  25.360  25.806  1.00  0.00     0.338 C 
ATOM     39  O   UNL A   1      44.807  25.201  24.627  1.00  0.00    -0.246 OA
BRANCH  38  40
ATOM     40  C   UNL A   1      44.224  26.089  26.773  1.00  0.00     0.060 A 
ATOM     41  C   UNL A   1      44.437  27.459  26.977  1.00  0.00     0.016 A 
ATOM     42  C   UNL A   1      43.206  25.423  27.460  1.00  0.00     0.016 A 
ATOM     43  C   UNL A   1      43.658  28.161  27.898  1.00  0.00     0.010 A 
ATOM     44  C   UNL A   1      42.447  26.118  28.404  1.00  0.00     0.010 A 
ATOM     45  C   UNL A   1      42.697  27.480  28.654  1.00  0.00    -0.014 A 
BRANCH  45  46
ATOM     46  C   UNL A   1      42.136  28.101  29.877  1.00  0.00     0.031 A 
ATOM     47  C   UNL A   1      40.879  28.916  29.725  1.00  0.00     0.074 A 
ATOM     48  C   UNL A   1      42.714  27.960  31.082  1.00  0.00     0.049 A 
ATOM     49  N   UNL A   1      40.271  29.681  30.592  1.00  0.00    -0.248 NA
ATOM     50  C   UNL A   1      40.226  28.863  28.405  1.00  0.00     0.031 C 
ATOM     51  C   UNL A   1      43.891  27.145  31.370  1.00  0.00     0.029 A 
ATOM     52  N   UNL A   1      42.389  28.524  32.291  1.00  0.00    -0.354 N 
ATOM     53  C   UNL A   1      39.169  30.201  29.924  1.00  0.00     0.074 A 
ATOM     54  C   UNL A   1      39.212  29.697  28.569  1.00  0.00     0.031 C 
ATOM     55  C   UNL A   1      44.207  27.282  32.672  1.00  0.00     0.029 A 
ATOM     56  C   UNL A   1      43.281  28.228  33.294  1.00  0.00     0.049 A 
ATOM     57  H   UNL A   1      41.593  29.088  32.426  1.00  0.00     0.167 HD
ATOM     58  C   UNL A   1      38.201  31.017  30.399  1.00  0.00     0.037 A 
ATOM     59  C   UNL A   1      43.355  28.701  34.554  1.00  0.00     0.037 A 
ATOM     60  C   UNL A   1      38.170  31.526  31.742  1.00  0.00     0.049 A 
ATOM     61  C   UNL A   1      42.329  29.705  35.025  1.00  0.00     0.074 A 
ATOM     62  C   UNL A   1      37.251  32.385  32.318  1.00  0.00     0.029 A 
ATOM     63  N   UNL A   1      39.104  31.221  32.720  1.00  0.00    -0.354 N 
ATOM     64  N   UNL A   1      41.294  30.197  34.388  1.00  0.00    -0.248 NA
ATOM     65  C   UNL A   1      42.485  30.221  36.394  1.00  0.00     0.031 C 
ATOM     66  C   UNL A   1      37.653  32.634  33.632  1.00  0.00     0.029 A 
ATOM     67  C   UNL A   1      38.788  31.882  33.893  1.00  0.00     0.049 A 
ATOM     68  H   UNL A   1      39.876  30.623  32.597  1.00  0.00     0.167 HD
ATOM     69  C   UNL A   1      40.651  31.036  35.292  1.00  0.00     0.074 A 
ATOM     70  C   UNL A   1      41.409  30.984  36.523  1.00  0.00     0.031 C 
ATOM     71  C   UNL A   1      39.531  31.782  35.122  1.00  0.00     0.037 A 
BRANCH  58  72
ATOM     72  C   UNL A   1      37.107  31.417  29.456  1.00  0.00     0.057 A 
ATOM     73  C   UNL A   1      36.021  30.572  29.187  1.00  0.00     0.134 A 
ATOM     74  C   UNL A   1      37.115  32.675  28.840  1.00  0.00     0.134 A 
ATOM     75  F   UNL A   1      35.963  29.347  29.730  1.00  0.00    -0.206 F 
ATOM     76  C   UNL A   1      34.991  30.958  28.327  1.00  0.00     0.040 A 
ATOM     77  C   UNL A   1      36.077  33.083  28.000  1.00  0.00     0.040 A 
ATOM     78  F   UNL A   1      38.124  33.532  29.054  1.00  0.00    -0.206 F 
ATOM     79  C   UNL A   1      35.013  32.221  27.739  1.00  0.00     0.006 A 
ENDBRANCH  58  72
BRANCH  59  80
ATOM     80  C   UNL A   1      44.450  28.273  35.466  1.00  0.00     0.057 A 
ATOM     81  C   UNL A   1      44.236  27.300  36.449  1.00  0.00     0.134 A 
ATOM     82  C   UNL A   1      45.711  28.881  35.431  1.00  0.00     0.134 A 
ATOM     83  F   UNL A   1      43.043  26.696  36.553  1.00  0.00    -0.206 F 
ATOM     84  C   UNL A   1      45.218  26.975  37.388  1.00  0.00     0.040 A 
ATOM     85  C   UNL A   1      46.715  28.543  36.342  1.00  0.00     0.040 A 
ATOM     86  F   UNL A   1      45.986  29.822  34.514  1.00  0.00    -0.206 F 
ATOM     87  C   UNL A   1      46.463  27.599  37.334  1.00  0.00     0.006 A 
ENDBRANCH  59  80
BRANCH  71  88
ATOM     88  C   UNL A   1      39.003  32.531  36.311  1.00  0.00     0.057 A 
ATOM     89  C   UNL A   1      38.111  31.954  37.224  1.00  0.00     0.134 A 
ATOM     90  C   UNL A   1      39.454  33.830  36.582  1.00  0.00     0.134 A 
ATOM     91  F   UNL A   1      37.633  30.717  37.018  1.00  0.00    -0.206 F 
ATOM     92  C   UNL A   1      37.672  32.650  38.351  1.00  0.00     0.040 A 
ATOM     93  C   UNL A   1      39.047  34.523  37.722  1.00  0.00     0.040 A 
ATOM     94  F   UNL A   1      40.320  34.437  35.756  1.00  0.00    -0.206 F 
ATOM     95  C   UNL A   1      38.149  33.935  38.608  1.00  0.00     0.006 A 
ENDBRANCH  71  88
ENDBRANCH  45  46
ENDBRANCH  38  40
ENDBRANCH  37  38
ENDBRANCH  36  37
ENDBRANCH  35  36
ENDBRANCH  34  35
ENDBRANCH  33  34
ENDBRANCH  32  33
ENDBRANCH   1  32
TORSDOF 23
ENDMDL
MODEL 2
REMARK VINA RESULT:      -9.8      5.013      8.432
REMARK SMILES CCC[N@@H+]1CC2(CC[NH+](c3nccnc3C)CC2)C[C@H]1C(=O)OCCOCCOCCOCCOC(=O)c1ccc(-c2c3nc(c(-c4c(F)cccc4F)c4ccc([nH]4)c(-c4c(F)cccc4F)c4nc(c(-c5c(F)cccc5F)c5ccc2[nH]5)C=C4)C=C3)cc1
REMARK SMILES IDX 29 1 28 2 27 3 26 4 25 5 24 6 23 7 21 8 22 9 20 10 4 11 5 12
REMARK SMILES IDX 6 14 19 15 7 16 18 17 8 18 17 19 9 20 3 22 2 23 1 24 10 25
REMARK SMILES IDX 11 26 15 27 12 28 14 29 16 30 13 31 30 32 31 33 32 34 33 35
REMARK SMILES IDX 34 36 35 37 36 38 37 39 38 40 39 41 91 42 40 43 90 44 41 45
REMARK SMILES IDX 42 46 43 47 84 48 44 49 89 50 83 51 85 52 45 53 88 54 82 55
REMARK SMILES IDX 81 56 46 58 72 59 55 60 71 61 56 62 59 63 70 64 86 65 57 66
REMARK SMILES IDX 58 67 69 69 87 70 60 71 47 72 48 73 53 74 49 75 50 76 52 77
REMARK SMILES IDX 54 78 51 79 73 80 74 81 79 82 75 83 76 84 78 85 80 86 77 87
REMARK SMILES IDX 61 88 62 89 67 90 63 91 64 92 66 93 68 94 65 95
REMARK H PARENT 4 13 9 21 85 57 59 68
REMARK Flexibility Score: inf
ROOT
ATOM      1  O   UNL A   1      39.370  21.660  26.217  1.00  0.00    -0.377 OA
ENDROOT
BRANCH   1   2
ATOM      2  C   UNL A   1      38.729  22.912  26.367  1.00  0.00     0.188 C 
BRANCH   2   3
ATOM      3  C   UNL A   1      37.440  23.093  25.547  1.00  0.00     0.188 C 
BRANCH   3   4
ATOM      4  O   UNL A   1      37.252  22.424  24.304  1.00  0.00    -0.376 OA
BRANCH   4   5
ATOM      5  C   UNL A   1      36.371  22.947  23.323  1.00  0.00     0.202 C 
BRANCH   5   6
ATOM      6  C   UNL A   1      34.899  23.243  23.660  1.00  0.00     0.261 C 
BRANCH   6   7
ATOM      7  O   UNL A   1      34.402  24.539  23.291  1.00  0.00    -0.459 OA
BRANCH   7   8
ATOM      8  C   UNL A   1      33.209  24.896  23.823  1.00  0.00     0.365 C 
ATOM      9  O   UNL A   1      32.612  24.221  24.660  1.00  0.00    -0.245 OA
BRANCH   8  10
ATOM     10  C   UNL A   1      32.576  26.171  23.235  1.00  0.00     0.295 C 
ATOM     11  N   UNL A   1      31.199  26.572  23.668  1.00  0.00    -0.323 N 
ATOM     12  C   UNL A   1      31.378  27.283  24.943  1.00  0.00     0.270 C 
ATOM     13  H   UNL A   1      30.600  25.752  23.766  1.00  0.00     0.348 HD
ATOM     14  C   UNL A   1      32.766  27.944  24.891  1.00  0.00     0.036 C 
ATOM     15  C   UNL A   1      33.461  27.324  23.658  1.00  0.00     0.091 C 
ATOM     16  C   UNL A   1      33.532  27.606  26.200  1.00  0.00     0.075 C 
ATOM     17  C   UNL A   1      32.672  29.467  24.628  1.00  0.00     0.075 C 
ATOM     18  C   UNL A   1      33.195  28.540  27.366  1.00  0.00     0.269 C 
ATOM     19  C   UNL A   1      32.278  30.266  25.861  1.00  0.00     0.269 C 
ATOM     20  N   UNL A   1      33.231  29.910  26.891  1.00  0.00    -0.284 N 
ATOM     21  H   UNL A   1      32.600  29.270  27.294  1.00  0.00     0.355 HD
BRANCH  11  22
ATOM     22  C   UNL A   1      30.527  27.435  22.675  1.00  0.00     0.262 C 
BRANCH  22  23
ATOM     23  C   UNL A   1      29.447  28.341  23.284  1.00  0.00     0.058 C 
ATOM     24  C   UNL A   1      28.745  29.224  22.258  1.00  0.00     0.010 C 
ENDBRANCH  22  23
ENDBRANCH  11  22
BRANCH  20  25
ATOM     25  C   UNL A   1      33.950  30.912  27.492  1.00  0.00     0.247 A 
ATOM     26  N   UNL A   1      33.292  32.078  27.707  1.00  0.00    -0.202 NA
ATOM     27  C   UNL A   1      35.326  30.826  27.795  1.00  0.00     0.119 A 
ATOM     28  C   UNL A   1      33.993  33.099  28.242  1.00  0.00     0.137 A 
ATOM     29  N   UNL A   1      36.020  31.857  28.360  1.00  0.00    -0.252 NA
ATOM     30  C   UNL A   1      36.171  29.639  27.449  1.00  0.00     0.075 C 
ATOM     31  C   UNL A   1      35.327  32.989  28.568  1.00  0.00     0.132 A 
ENDBRANCH  20  25
ENDBRANCH   8  10
ENDBRANCH   7   8
ENDBRANCH   6   7
ENDBRANCH   5   6
ENDBRANCH   4   5
ENDBRANCH   3   4
ENDBRANCH   2   3
ENDBRANCH   1   2
BRANCH   1  32
ATOM     32  C   UNL A   1      40.498  21.448  27.047  1.00  0.00     0.188 C 
BRANCH  32  33
ATOM     33  C   UNL A   1      41.836  21.165  26.336  1.00  0.00     0.188 C 
BRANCH  33  34
ATOM     34  O   UNL A   1      42.556  20.064  26.875  1.00  0.00    -0.376 OA
BRANCH  34  35
ATOM     35  C   UNL A   1      42.732  18.886  26.104  1.00  0.00     0.202 C 
BRANCH  35  36
ATOM     36  C   UNL A   1      44.073  18.643  25.389  1.00  0.00     0.261 C 
BRANCH  36  37
ATOM     37  O   UNL A   1      45.030  19.710  25.404  1.00  0.00    -0.460 OA
BRANCH  37  38
ATOM     38  C   UNL A   1      45.052  20.565  24.363  1.00  0.00     0.338 C 
ATOM     39  O   UNL A   1      44.539  20.408  23.268  1.00  0.00    -0.246 OA
BRANCH  38  40
ATOM     40  C   UNL A   1      45.646  21.830  24.846  1.00  0.00     0.060 A 
ATOM     41  C   UNL A   1      45.599  22.132  26.214  1.00  0.00     0.016 A 
ATOM     42  C   UNL A   1      46.267  22.704  23.951  1.00  0.00     0.016 A 
ATOM     43  C   UNL A   1      46.140  23.329  26.687  1.00  0.00     0.010 A 
ATOM     44  C   UNL A   1      46.780  23.915  24.419  1.00  0.00     0.010 A 
ATOM     45  C   UNL A   1      46.683  24.249  25.783  1.00  0.00    -0.014 A 
BRANCH  45  46
ATOM     46  C   UNL A   1      46.910  25.653  26.197  1.00  0.00     0.031 A 
ATOM     47  C   UNL A   1      45.701  26.471  26.563  1.00  0.00     0.074 A 
ATOM     48  C   UNL A   1      48.139  26.197  26.244  1.00  0.00     0.049 A 
ATOM     49  N   UNL A   1      45.603  27.750  26.811  1.00  0.00    -0.248 NA
ATOM     50  C   UNL A   1      44.425  25.739  26.652  1.00  0.00     0.031 C 
ATOM     51  C   UNL A   1      49.391  25.493  25.978  1.00  0.00     0.029 A 
ATOM     52  N   UNL A   1      48.527  27.485  26.516  1.00  0.00    -0.354 N 
ATOM     53  C   UNL A   1      44.258  27.976  27.082  1.00  0.00     0.074 A 
ATOM     54  C   UNL A   1      43.572  26.712  26.931  1.00  0.00     0.031 C 
ATOM     55  C   UNL A   1      50.410  26.367  26.076  1.00  0.00     0.029 A 
ATOM     56  C   UNL A   1      49.876  27.697  26.367  1.00  0.00     0.049 A 
ATOM     57  H   UNL A   1      47.898  28.191  26.793  1.00  0.00     0.167 HD
ATOM     58  C   UNL A   1      43.651  29.131  27.436  1.00  0.00     0.037 A 
ATOM     59  C   UNL A   1      50.585  28.843  26.422  1.00  0.00     0.037 A 
ATOM     60  C   UNL A   1      44.334  30.388  27.572  1.00  0.00     0.049 A 
ATOM     61  C   UNL A   1      49.864  30.141  26.703  1.00  0.00     0.074 A 
ATOM     62  C   UNL A   1      43.808  31.625  27.897  1.00  0.00     0.029 A 
ATOM     63  N   UNL A   1      45.696  30.564  27.389  1.00  0.00    -0.354 N 
ATOM     64  N   UNL A   1      48.594  30.349  26.952  1.00  0.00    -0.248 NA
ATOM     65  C   UNL A   1      50.679  31.366  26.707  1.00  0.00     0.031 C 
ATOM     66  C   UNL A   1      44.846  32.559  27.867  1.00  0.00     0.029 A 
ATOM     67  C   UNL A   1      46.028  31.893  27.585  1.00  0.00     0.049 A 
ATOM     68  H   UNL A   1      46.333  29.851  27.155  1.00  0.00     0.167 HD
ATOM     69  C   UNL A   1      48.469  31.714  27.192  1.00  0.00     0.074 A 
ATOM     70  C   UNL A   1      49.792  32.284  27.062  1.00  0.00     0.031 C 
ATOM     71  C   UNL A   1      47.360  32.432  27.495  1.00  0.00     0.037 A 
BRANCH  58  72
ATOM     72  C   UNL A   1      42.173  29.089  27.688  1.00  0.00     0.057 A 
ATOM     73  C   UNL A   1      41.649  29.054  28.988  1.00  0.00     0.134 A 
ATOM     74  C   UNL A   1      41.263  29.123  26.625  1.00  0.00     0.134 A 
ATOM     75  F   UNL A   1      42.467  29.000  30.049  1.00  0.00    -0.206 F 
ATOM     76  C   UNL A   1      40.272  29.040  29.219  1.00  0.00     0.040 A 
ATOM     77  C   UNL A   1      39.885  29.137  26.844  1.00  0.00     0.040 A 
ATOM     78  F   UNL A   1      41.698  29.157  25.356  1.00  0.00    -0.206 F 
ATOM     79  C   UNL A   1      39.386  29.092  28.145  1.00  0.00     0.006 A 
ENDBRANCH  58  72
BRANCH  59  80
ATOM     80  C   UNL A   1      52.052  28.845  26.177  1.00  0.00     0.057 A 
ATOM     81  C   UNL A   1      52.570  28.898  24.876  1.00  0.00     0.134 A 
ATOM     82  C   UNL A   1      52.970  28.713  27.226  1.00  0.00     0.134 A 
ATOM     83  F   UNL A   1      51.744  28.998  23.825  1.00  0.00    -0.206 F 
ATOM     84  C   UNL A   1      53.939  28.779  24.626  1.00  0.00     0.040 A 
ATOM     85  C   UNL A   1      54.344  28.628  26.994  1.00  0.00     0.040 A 
ATOM     86  F   UNL A   1      52.543  28.657  28.497  1.00  0.00    -0.206 F 
ATOM     87  C   UNL A   1      54.830  28.645  25.688  1.00  0.00     0.006 A 
ENDBRANCH  59  80
BRANCH  71  88
ATOM     88  C   UNL A   1      47.534  33.893  27.797  1.00  0.00     0.057 A 
ATOM     89  C   UNL A   1      47.649  34.379  29.105  1.00  0.00     0.134 A 
ATOM     90  C   UNL A   1      47.661  34.818  26.751  1.00  0.00     0.134 A 
ATOM     91  F   UNL A   1      47.527  33.548  30.152  1.00  0.00    -0.206 F 
ATOM     92  C   UNL A   1      47.862  35.734  29.362  1.00  0.00     0.040 A 
ATOM     93  C   UNL A   1      47.906  36.169  26.995  1.00  0.00     0.040 A 
ATOM     94  F   UNL A   1      47.575  34.417  25.473  1.00  0.00    -0.206 F 
ATOM     95  C   UNL A   1      48.002  36.631  28.304  1.00  0.00     0.006 A 
ENDBRANCH  71  88
ENDBRANCH  45  46
ENDBRANCH  38  40
ENDBRANCH  37  38
ENDBRANCH  36  37
ENDBRANCH  35  36
ENDBRANCH  34  35
ENDBRANCH  33  34
ENDBRANCH  32  33
ENDBRANCH   1  32
TORSDOF 23
ENDMDL
MODEL 3
REMARK VINA RESULT:      -9.7      1.715      3.361
REMARK SMILES CCC[N@@H+]1CC2(CC[NH+](c3nccnc3C)CC2)C[C@H]1C(=O)OCCOCCOCCOCCOC(=O)c1ccc(-c2c3nc(c(-c4c(F)cccc4F)c4ccc([nH]4)c(-c4c(F)cccc4F)c4nc(c(-c5c(F)cccc5F)c5ccc2[nH]5)C=C4)C=C3)cc1
REMARK SMILES IDX 29 1 28 2 27 3 26 4 25 5 24 6 23 7 21 8 22 9 20 10 4 11 5 12
REMARK SMILES IDX 6 14 19 15 7 16 18 17 8 18 17 19 9 20 3 22 2 23 1 24 10 25
REMARK SMILES IDX 11 26 15 27 12 28 14 29 16 30 13 31 30 32 31 33 32 34 33 35
REMARK SMILES IDX 34 36 35 37 36 38 37 39 38 40 39 41 91 42 40 43 90 44 41 45
REMARK SMILES IDX 42 46 43 47 84 48 44 49 89 50 83 51 85 52 45 53 88 54 82 55
REMARK SMILES IDX 81 56 46 58 72 59 55 60 71 61 56 62 59 63 70 64 86 65 57 66
REMARK SMILES IDX 58 67 69 69 87 70 60 71 47 72 48 73 53 74 49 75 50 76 52 77
REMARK SMILES IDX 54 78 51 79 73 80 74 81 79 82 75 83 76 84 78 85 80 86 77 87
REMARK SMILES IDX 61 88 62 89 67 90 63 91 64 92 66 93 68 94 65 95
REMARK H PARENT 4 13 9 21 85 57 59 68
REMARK Flexibility Score: inf
ROOT
ATOM      1  O   UNL A   1      37.472  22.405  26.116  1.00  0.00    -0.377 OA
ENDROOT
BRANCH   1   2
ATOM      2  C   UNL A   1      36.306  22.827  25.436  1.00  0.00     0.188 C 
BRANCH   2   3
ATOM      3  C   UNL A   1      34.989  22.220  25.948  1.00  0.00     0.188 C 
BRANCH   3   4
ATOM      4  O   UNL A   1      33.728  22.647  25.442  1.00  0.00    -0.376 OA
BRANCH   4   5
ATOM      5  C   UNL A   1      32.522  22.066  25.909  1.00  0.00     0.202 C 
BRANCH   5   6
ATOM      6  C   UNL A   1      31.552  22.866  26.796  1.00  0.00     0.261 C 
BRANCH   6   7
ATOM      7  O   UNL A   1      30.474  23.540  26.127  1.00  0.00    -0.459 OA
BRANCH   7   8
ATOM      8  C   UNL A   1      30.480  24.893  26.196  1.00  0.00     0.365 C 
ATOM      9  O   UNL A   1      29.592  25.546  26.742  1.00  0.00    -0.245 OA
BRANCH   8  10
ATOM     10  C   UNL A   1      31.631  25.590  25.449  1.00  0.00     0.295 C 
ATOM     11  N   UNL A   1      31.944  25.181  24.042  1.00  0.00    -0.323 N 
ATOM     12  C   UNL A   1      30.991  25.913  23.196  1.00  0.00     0.270 C 
ATOM     13  H   UNL A   1      31.858  24.170  23.934  1.00  0.00     0.348 HD
ATOM     14  C   UNL A   1      30.666  27.227  23.929  1.00  0.00     0.036 C 
ATOM     15  C   UNL A   1      31.254  27.052  25.347  1.00  0.00     0.091 C 
ATOM     16  C   UNL A   1      29.124  27.408  23.975  1.00  0.00     0.075 C 
ATOM     17  C   UNL A   1      31.392  28.438  23.293  1.00  0.00     0.075 C 
ATOM     18  C   UNL A   1      28.542  28.040  22.706  1.00  0.00     0.269 C 
ATOM     19  C   UNL A   1      30.736  28.927  22.011  1.00  0.00     0.269 C 
ATOM     20  N   UNL A   1      29.351  29.187  22.345  1.00  0.00    -0.284 N 
ATOM     21  H   UNL A   1      29.070  28.319  21.974  1.00  0.00     0.355 HD
BRANCH  11  22
ATOM     22  C   UNL A   1      33.336  25.500  23.661  1.00  0.00     0.262 C 
BRANCH  22  23
ATOM     23  C   UNL A   1      33.710  25.019  22.252  1.00  0.00     0.058 C 
ATOM     24  C   UNL A   1      33.614  23.507  22.080  1.00  0.00     0.010 C 
ENDBRANCH  22  23
ENDBRANCH  11  22
BRANCH  20  25
ATOM     25  C   UNL A   1      28.843  30.439  22.101  1.00  0.00     0.247 A 
ATOM     26  N   UNL A   1      28.404  30.673  20.840  1.00  0.00    -0.202 NA
ATOM     27  C   UNL A   1      28.850  31.491  23.041  1.00  0.00     0.119 A 
ATOM     28  C   UNL A   1      27.955  31.914  20.558  1.00  0.00     0.137 A 
ATOM     29  N   UNL A   1      28.370  32.737  22.753  1.00  0.00    -0.252 NA
ATOM     30  C   UNL A   1      29.459  31.372  24.404  1.00  0.00     0.075 C 
ATOM     31  C   UNL A   1      27.932  32.923  21.496  1.00  0.00     0.132 A 
ENDBRANCH  20  25
ENDBRANCH   8  10
ENDBRANCH   7   8
ENDBRANCH   6   7
ENDBRANCH   5   6
ENDBRANCH   4   5
ENDBRANCH   3   4
ENDBRANCH   2   3
ENDBRANCH   1   2
BRANCH   1  32
ATOM     32  C   UNL A   1      38.529  23.347  26.158  1.00  0.00     0.188 C 
BRANCH  32  33
ATOM     33  C   UNL A   1      39.833  22.892  26.841  1.00  0.00     0.188 C 
BRANCH  33  34
ATOM     34  O   UNL A   1      40.730  22.207  25.976  1.00  0.00    -0.376 OA
BRANCH  34  35
ATOM     35  C   UNL A   1      42.128  22.278  26.204  1.00  0.00     0.202 C 
BRANCH  35  36
ATOM     36  C   UNL A   1      43.001  23.149  25.284  1.00  0.00     0.261 C 
BRANCH  36  37
ATOM     37  O   UNL A   1      43.523  24.367  25.831  1.00  0.00    -0.460 OA
BRANCH  37  38
ATOM     38  C   UNL A   1      42.801  25.495  25.687  1.00  0.00     0.338 C 
ATOM     39  O   UNL A   1      42.212  25.871  24.688  1.00  0.00    -0.246 OA
BRANCH  38  40
ATOM     40  C   UNL A   1      42.679  26.113  27.024  1.00  0.00     0.060 A 
ATOM     41  C   UNL A   1      41.709  25.634  27.916  1.00  0.00     0.016 A 
ATOM     42  C   UNL A   1      43.536  27.149  27.403  1.00  0.00     0.016 A 
ATOM     43  C   UNL A   1      41.567  26.215  29.177  1.00  0.00     0.010 A 
ATOM     44  C   UNL A   1      43.373  27.751  28.652  1.00  0.00     0.010 A 
ATOM     45  C   UNL A   1      42.363  27.312  29.527  1.00  0.00    -0.014 A 
BRANCH  45  46
ATOM     46  C   UNL A   1      41.984  28.169  30.675  1.00  0.00     0.031 A 
ATOM     47  C   UNL A   1      40.831  29.117  30.480  1.00  0.00     0.074 A 
ATOM     48  C   UNL A   1      42.635  28.123  31.850  1.00  0.00     0.049 A 
ATOM     49  N   UNL A   1      40.395  30.071  31.259  1.00  0.00    -0.248 NA
ATOM     50  C   UNL A   1      40.073  28.968  29.225  1.00  0.00     0.031 C 
ATOM     51  C   UNL A   1      43.721  27.205  32.184  1.00  0.00     0.029 A 
ATOM     52  N   UNL A   1      42.482  28.890  32.978  1.00  0.00    -0.354 N 
ATOM     53  C   UNL A   1      39.316  30.636  30.588  1.00  0.00     0.074 A 
ATOM     54  C   UNL A   1      39.187  29.946  29.325  1.00  0.00     0.031 C 
ATOM     55  C   UNL A   1      44.156  27.480  33.429  1.00  0.00     0.029 A 
ATOM     56  C   UNL A   1      43.407  28.620  33.957  1.00  0.00     0.049 A 
ATOM     57  H   UNL A   1      41.776  29.569  33.076  1.00  0.00     0.167 HD
ATOM     58  C   UNL A   1      38.499  31.635  30.995  1.00  0.00     0.037 A 
ATOM     59  C   UNL A   1      43.642  29.251  35.125  1.00  0.00     0.037 A 
ATOM     60  C   UNL A   1      38.640  32.327  32.246  1.00  0.00     0.049 A 
ATOM     61  C   UNL A   1      42.790  30.441  35.503  1.00  0.00     0.074 A 
ATOM     62  C   UNL A   1      37.884  33.375  32.741  1.00  0.00     0.029 A 
ATOM     63  N   UNL A   1      39.604  32.040  33.198  1.00  0.00    -0.354 N 
ATOM     64  N   UNL A   1      41.777  30.974  34.864  1.00  0.00    -0.248 NA
ATOM     65  C   UNL A   1      43.118  31.119  36.767  1.00  0.00     0.031 C 
ATOM     66  C   UNL A   1      38.419  33.749  33.976  1.00  0.00     0.029 A 
ATOM     67  C   UNL A   1      39.468  32.896  34.277  1.00  0.00     0.049 A 
ATOM     68  H   UNL A   1      40.283  31.332  33.120  1.00  0.00     0.167 HD
ATOM     69  C   UNL A   1      41.318  32.011  35.670  1.00  0.00     0.074 A 
ATOM     70  C   UNL A   1      42.160  32.031  36.845  1.00  0.00     0.031 C 
ATOM     71  C   UNL A   1      40.290  32.869  35.458  1.00  0.00     0.037 A 
BRANCH  58  72
ATOM     72  C   UNL A   1      37.390  32.042  30.071  1.00  0.00     0.057 A 
ATOM     73  C   UNL A   1      37.527  33.123  29.189  1.00  0.00     0.134 A 
ATOM     74  C   UNL A   1      36.189  31.324  30.031  1.00  0.00     0.134 A 
ATOM     75  F   UNL A   1      38.646  33.864  29.190  1.00  0.00    -0.206 F 
ATOM     76  C   UNL A   1      36.503  33.484  28.313  1.00  0.00     0.040 A 
ATOM     77  C   UNL A   1      35.168  31.659  29.141  1.00  0.00     0.040 A 
ATOM     78  F   UNL A   1      35.992  30.279  30.849  1.00  0.00    -0.206 F 
ATOM     79  C   UNL A   1      35.323  32.745  28.280  1.00  0.00     0.006 A 
ENDBRANCH  58  72
BRANCH  59  80
ATOM     80  C   UNL A   1      44.744  28.812  36.022  1.00  0.00     0.057 A 
ATOM     81  C   UNL A   1      44.527  27.859  37.025  1.00  0.00     0.134 A 
ATOM     82  C   UNL A   1      46.018  29.390  35.953  1.00  0.00     0.134 A 
ATOM     83  F   UNL A   1      43.323  27.286  37.162  1.00  0.00    -0.206 F 
ATOM     84  C   UNL A   1      45.521  27.527  37.950  1.00  0.00     0.040 A 
ATOM     85  C   UNL A   1      47.032  29.043  36.849  1.00  0.00     0.040 A 
ATOM     86  F   UNL A   1      46.296  30.309  35.016  1.00  0.00    -0.206 F 
ATOM     87  C   UNL A   1      46.778  28.120  37.861  1.00  0.00     0.006 A 
ENDBRANCH  59  80
BRANCH  71  88
ATOM     88  C   UNL A   1      39.956  33.843  36.552  1.00  0.00     0.057 A 
ATOM     89  C   UNL A   1      40.439  35.157  36.557  1.00  0.00     0.134 A 
ATOM     90  C   UNL A   1      39.076  33.474  37.579  1.00  0.00     0.134 A 
ATOM     91  F   UNL A   1      41.292  35.572  35.608  1.00  0.00    -0.206 F 
ATOM     92  C   UNL A   1      40.075  36.062  37.556  1.00  0.00     0.040 A 
ATOM     93  C   UNL A   1      38.681  34.378  38.564  1.00  0.00     0.040 A 
ATOM     94  F   UNL A   1      38.565  32.233  37.626  1.00  0.00    -0.206 F 
ATOM     95  C   UNL A   1      39.185  35.676  38.557  1.00  0.00     0.006 A 
ENDBRANCH  71  88
ENDBRANCH  45  46
ENDBRANCH  38  40
ENDBRANCH  37  38
ENDBRANCH  36  37
ENDBRANCH  35  36
ENDBRANCH  34  35
ENDBRANCH  33  34
ENDBRANCH  32  33
ENDBRANCH   1  32
TORSDOF 23
ENDMDL
