MODEL 1
REMARK VINA RESULT:     -10.9      0.000      0.000
REMARK SMILES Cc1cc(C(=O)OCCOCCOCCOCCOC(=O)c2ccc(-c3c4nc(c(-c5c(F)cccc5F)c5ccc([nH]5)c(-c5c(F)cccc5F)c5nc(c(-c6c(F)cccc6F)c6ccc3[nH]6)C=C5)C=C4)cc2)ccc1NS(=O)(=O)c1c(F)cccc1F
REMARK SMILES IDX 12 1 11 2 10 3 9 4 8 5 7 6 5 7 6 8 4 9 1 10 2 11 3 12 78 13
REMARK SMILES IDX 77 14 76 15 79 16 80 18 81 19 82 20 83 21 84 22 89 23 85 24
REMARK SMILES IDX 86 25 88 26 90 27 87 28 13 29 14 30 15 31 16 32 17 33 18 34
REMARK SMILES IDX 19 35 20 36 21 37 22 38 23 39 75 40 24 41 74 42 25 43 26 44
REMARK SMILES IDX 27 45 68 46 28 47 73 48 67 49 69 50 29 51 72 52 66 53 65 54
REMARK SMILES IDX 30 56 56 57 39 58 55 59 40 60 43 61 54 62 70 63 41 64 42 65
REMARK SMILES IDX 53 67 71 68 44 69 31 70 32 71 37 72 33 73 34 74 36 75 38 76
REMARK SMILES IDX 35 77 57 78 58 79 63 80 59 81 60 82 62 83 64 84 61 85 45 86
REMARK SMILES IDX 46 87 51 88 47 89 48 90 50 91 52 92 49 93
REMARK H PARENT 79 17 69 55 43 66
REMARK Flexibility Score: inf
ROOT
ATOM      1  C   UNL A   1      40.778  20.883  26.464  1.00  0.00     0.188 C 
ENDROOT
BRANCH   1   2
ATOM      2  C   UNL A   1      40.218  22.309  26.594  1.00  0.00     0.188 C 
BRANCH   2   3
ATOM      3  O   UNL A   1      38.919  22.605  26.111  1.00  0.00    -0.376 OA
BRANCH   3   4
ATOM      4  C   UNL A   1      38.148  21.480  25.722  1.00  0.00     0.202 C 
BRANCH   4   5
ATOM      5  C   UNL A   1      37.332  21.583  24.449  1.00  0.00     0.261 C 
BRANCH   5   6
ATOM      6  O   UNL A   1      36.164  22.367  24.661  1.00  0.00    -0.460 OA
BRANCH   6   7
ATOM      7  C   UNL A   1      35.689  22.948  23.553  1.00  0.00     0.338 C 
ATOM      8  O   UNL A   1      36.263  23.107  22.473  1.00  0.00    -0.246 OA
BRANCH   7   9
ATOM      9  C   UNL A   1      34.240  22.970  23.705  1.00  0.00     0.060 A 
ATOM     10  C   UNL A   1      32.180  22.952  26.831  1.00  0.00     0.046 C 
ATOM     11  C   UNL A   1      32.482  23.077  25.367  1.00  0.00    -0.026 A 
ATOM     12  C   UNL A   1      33.800  22.793  25.012  1.00  0.00     0.021 A 
ATOM     13  C   UNL A   1      31.585  23.521  24.375  1.00  0.00     0.052 A 
ATOM     14  C   UNL A   1      32.024  23.583  23.041  1.00  0.00     0.028 A 
ATOM     15  C   UNL A   1      33.360  23.358  22.704  1.00  0.00     0.018 A 
BRANCH  13  16
ATOM     16  N   UNL A   1      30.364  24.133  24.790  1.00  0.00    -0.279 N 
ATOM     17  H   UNL A   1      29.591  23.540  24.925  1.00  0.00     0.180 HD
BRANCH  16  18
ATOM     18  S   UNL A   1      30.123  25.764  25.070  1.00  0.00     0.267 S 
ATOM     19  O   UNL A   1      28.994  26.158  24.252  1.00  0.00    -0.201 OA
ATOM     20  O   UNL A   1      30.083  25.894  26.513  1.00  0.00    -0.201 OA
BRANCH  18  21
ATOM     21  C   UNL A   1      31.526  26.659  24.528  1.00  0.00     0.158 A 
ATOM     22  C   UNL A   1      31.464  27.222  23.258  1.00  0.00     0.146 A 
ATOM     23  C   UNL A   1      32.728  26.675  25.219  1.00  0.00     0.146 A 
ATOM     24  F   UNL A   1      30.304  27.304  22.593  1.00  0.00    -0.205 F 
ATOM     25  C   UNL A   1      32.611  27.711  22.637  1.00  0.00     0.041 A 
ATOM     26  C   UNL A   1      33.893  27.128  24.593  1.00  0.00     0.041 A 
ATOM     27  F   UNL A   1      32.827  26.208  26.469  1.00  0.00    -0.205 F 
ATOM     28  C   UNL A   1      33.838  27.629  23.292  1.00  0.00     0.006 A 
ENDBRANCH  18  21
ENDBRANCH  16  18
ENDBRANCH  13  16
ENDBRANCH   7   9
ENDBRANCH   6   7
ENDBRANCH   5   6
ENDBRANCH   4   5
ENDBRANCH   3   4
ENDBRANCH   2   3
ENDBRANCH   1   2
BRANCH   1  29
ATOM     29  O   UNL A   1      41.584  20.361  27.508  1.00  0.00    -0.377 OA
BRANCH  29  30
ATOM     30  C   UNL A   1      42.640  19.470  27.170  1.00  0.00     0.188 C 
BRANCH  30  31
ATOM     31  C   UNL A   1      42.347  18.172  26.437  1.00  0.00     0.188 C 
BRANCH  31  32
ATOM     32  O   UNL A   1      43.110  18.138  25.234  1.00  0.00    -0.376 OA
BRANCH  32  33
ATOM     33  C   UNL A   1      44.498  18.419  25.390  1.00  0.00     0.202 C 
BRANCH  33  34
ATOM     34  C   UNL A   1      45.095  19.232  24.232  1.00  0.00     0.261 C 
BRANCH  34  35
ATOM     35  O   UNL A   1      44.544  20.566  24.245  1.00  0.00    -0.460 OA
BRANCH  35  36
ATOM     36  C   UNL A   1      45.160  21.460  25.068  1.00  0.00     0.338 C 
ATOM     37  O   UNL A   1      46.242  21.299  25.610  1.00  0.00    -0.246 OA
BRANCH  36  38
ATOM     38  C   UNL A   1      44.188  22.517  25.481  1.00  0.00     0.060 A 
ATOM     39  C   UNL A   1      43.707  23.451  24.546  1.00  0.00     0.016 A 
ATOM     40  C   UNL A   1      44.067  22.796  26.832  1.00  0.00     0.016 A 
ATOM     41  C   UNL A   1      43.322  24.740  24.963  1.00  0.00     0.010 A 
ATOM     42  C   UNL A   1      43.777  24.090  27.214  1.00  0.00     0.010 A 
ATOM     43  C   UNL A   1      43.477  25.107  26.296  1.00  0.00    -0.014 A 
BRANCH  43  44
ATOM     44  C   UNL A   1      43.507  26.498  26.823  1.00  0.00     0.031 A 
ATOM     45  C   UNL A   1      42.200  27.212  27.056  1.00  0.00     0.074 A 
ATOM     46  C   UNL A   1      44.648  26.948  27.421  1.00  0.00     0.049 A 
ATOM     47  N   UNL A   1      42.070  28.374  27.598  1.00  0.00    -0.248 NA
ATOM     48  C   UNL A   1      40.890  26.641  26.736  1.00  0.00     0.031 C 
ATOM     49  C   UNL A   1      44.782  27.957  28.479  1.00  0.00     0.029 A 
ATOM     50  N   UNL A   1      45.963  26.539  27.288  1.00  0.00    -0.354 N 
ATOM     51  C   UNL A   1      40.767  28.511  28.059  1.00  0.00     0.074 A 
ATOM     52  C   UNL A   1      40.052  27.455  27.392  1.00  0.00     0.031 C 
ATOM     53  C   UNL A   1      46.064  28.137  28.837  1.00  0.00     0.029 A 
ATOM     54  C   UNL A   1      46.848  27.483  27.823  1.00  0.00     0.049 A 
ATOM     55  H   UNL A   1      46.241  25.693  26.869  1.00  0.00     0.167 HD
ATOM     56  C   UNL A   1      40.504  29.408  29.064  1.00  0.00     0.037 A 
ATOM     57  C   UNL A   1      47.668  28.189  26.985  1.00  0.00     0.037 A 
ATOM     58  C   UNL A   1      41.701  30.227  29.363  1.00  0.00     0.049 A 
ATOM     59  C   UNL A   1      47.120  29.618  26.850  1.00  0.00     0.074 A 
ATOM     60  C   UNL A   1      42.404  30.552  30.510  1.00  0.00     0.029 A 
ATOM     61  N   UNL A   1      42.469  30.727  28.309  1.00  0.00    -0.354 N 
ATOM     62  N   UNL A   1      45.838  29.915  26.932  1.00  0.00    -0.248 NA
ATOM     63  C   UNL A   1      47.961  30.813  26.943  1.00  0.00     0.031 C 
ATOM     64  C   UNL A   1      43.683  31.055  30.118  1.00  0.00     0.029 A 
ATOM     65  C   UNL A   1      43.713  31.150  28.731  1.00  0.00     0.049 A 
ATOM     66  H   UNL A   1      42.160  30.772  27.376  1.00  0.00     0.167 HD
ATOM     67  C   UNL A   1      45.699  31.236  27.276  1.00  0.00     0.074 A 
ATOM     68  C   UNL A   1      47.051  31.771  27.202  1.00  0.00     0.031 C 
ATOM     69  C   UNL A   1      44.591  31.847  27.804  1.00  0.00     0.037 A 
BRANCH  56  70
ATOM     70  C   UNL A   1      39.244  29.461  29.947  1.00  0.00     0.057 A 
ATOM     71  C   UNL A   1      38.062  30.082  29.476  1.00  0.00     0.134 A 
ATOM     72  C   UNL A   1      39.138  29.017  31.283  1.00  0.00     0.134 A 
ATOM     73  F   UNL A   1      37.966  30.534  28.218  1.00  0.00    -0.206 F 
ATOM     74  C   UNL A   1      36.906  30.268  30.259  1.00  0.00     0.040 A 
ATOM     75  C   UNL A   1      37.965  29.145  32.059  1.00  0.00     0.040 A 
ATOM     76  F   UNL A   1      40.168  28.472  31.938  1.00  0.00    -0.206 F 
ATOM     77  C   UNL A   1      36.846  29.787  31.555  1.00  0.00     0.006 A 
ENDBRANCH  56  70
BRANCH  57  78
ATOM     78  C   UNL A   1      48.331  27.229  26.036  1.00  0.00     0.057 A 
ATOM     79  C   UNL A   1      47.923  27.395  24.689  1.00  0.00     0.134 A 
ATOM     80  C   UNL A   1      49.661  26.826  26.227  1.00  0.00     0.134 A 
ATOM     81  F   UNL A   1      46.653  27.740  24.414  1.00  0.00    -0.206 F 
ATOM     82  C   UNL A   1      48.842  27.447  23.631  1.00  0.00     0.040 A 
ATOM     83  C   UNL A   1      50.581  26.838  25.160  1.00  0.00     0.040 A 
ATOM     84  F   UNL A   1      50.148  26.644  27.462  1.00  0.00    -0.206 F 
ATOM     85  C   UNL A   1      50.190  27.231  23.879  1.00  0.00     0.006 A 
ENDBRANCH  57  78
BRANCH  69  86
ATOM     86  C   UNL A   1      44.189  33.251  27.406  1.00  0.00     0.057 A 
ATOM     87  C   UNL A   1      43.846  33.593  26.092  1.00  0.00     0.134 A 
ATOM     88  C   UNL A   1      43.891  34.235  28.381  1.00  0.00     0.134 A 
ATOM     89  F   UNL A   1      43.982  32.726  25.079  1.00  0.00    -0.206 F 
ATOM     90  C   UNL A   1      43.287  34.830  25.765  1.00  0.00     0.040 A 
ATOM     91  C   UNL A   1      43.277  35.447  28.072  1.00  0.00     0.040 A 
ATOM     92  F   UNL A   1      44.133  34.055  29.688  1.00  0.00    -0.206 F 
ATOM     93  C   UNL A   1      42.984  35.755  26.756  1.00  0.00     0.006 A 
ENDBRANCH  69  86
ENDBRANCH  43  44
ENDBRANCH  36  38
ENDBRANCH  35  36
ENDBRANCH  34  35
ENDBRANCH  33  34
ENDBRANCH  32  33
ENDBRANCH  31  32
ENDBRANCH  30  31
ENDBRANCH  29  30
ENDBRANCH   1  29
TORSDOF 23
ENDMDL
MODEL 2
REMARK VINA RESULT:     -10.8      1.673      2.361
REMARK SMILES Cc1cc(C(=O)OCCOCCOCCOCCOC(=O)c2ccc(-c3c4nc(c(-c5c(F)cccc5F)c5ccc([nH]5)c(-c5c(F)cccc5F)c5nc(c(-c6c(F)cccc6F)c6ccc3[nH]6)C=C5)C=C4)cc2)ccc1NS(=O)(=O)c1c(F)cccc1F
REMARK SMILES IDX 12 1 11 2 10 3 9 4 8 5 7 6 5 7 6 8 4 9 1 10 2 11 3 12 78 13
REMARK SMILES IDX 77 14 76 15 79 16 80 18 81 19 82 20 83 21 84 22 89 23 85 24
REMARK SMILES IDX 86 25 88 26 90 27 87 28 13 29 14 30 15 31 16 32 17 33 18 34
REMARK SMILES IDX 19 35 20 36 21 37 22 38 23 39 75 40 24 41 74 42 25 43 26 44
REMARK SMILES IDX 27 45 68 46 28 47 73 48 67 49 69 50 29 51 72 52 66 53 65 54
REMARK SMILES IDX 30 56 56 57 39 58 55 59 40 60 43 61 54 62 70 63 41 64 42 65
REMARK SMILES IDX 53 67 71 68 44 69 31 70 32 71 37 72 33 73 34 74 36 75 38 76
REMARK SMILES IDX 35 77 57 78 58 79 63 80 59 81 60 82 62 83 64 84 61 85 45 86
REMARK SMILES IDX 46 87 51 88 47 89 48 90 50 91 52 92 49 93
REMARK H PARENT 79 17 69 55 43 66
REMARK Flexibility Score: inf
ROOT
ATOM      1  C   UNL A   1      39.410  22.305  26.339  1.00  0.00     0.188 C 
ENDROOT
BRANCH   1   2
ATOM      2  C   UNL A   1      38.144  22.298  25.468  1.00  0.00     0.188 C 
BRANCH   2   3
ATOM      3  O   UNL A   1      36.894  21.948  26.038  1.00  0.00    -0.376 OA
BRANCH   3   4
ATOM      4  C   UNL A   1      36.108  21.054  25.266  1.00  0.00     0.202 C 
BRANCH   4   5
ATOM      5  C   UNL A   1      34.601  21.218  25.305  1.00  0.00     0.261 C 
BRANCH   5   6
ATOM      6  O   UNL A   1      34.242  22.592  25.236  1.00  0.00    -0.460 OA
BRANCH   6   7
ATOM      7  C   UNL A   1      33.599  23.042  26.319  1.00  0.00     0.338 C 
ATOM      8  O   UNL A   1      33.647  22.600  27.470  1.00  0.00    -0.246 OA
BRANCH   7   9
ATOM      9  C   UNL A   1      33.176  24.399  25.997  1.00  0.00     0.060 A 
ATOM     10  C   UNL A   1      33.878  26.442  22.939  1.00  0.00     0.046 C 
ATOM     11  C   UNL A   1      33.235  26.066  24.242  1.00  0.00    -0.026 A 
ATOM     12  C   UNL A   1      33.749  24.916  24.841  1.00  0.00     0.021 A 
ATOM     13  C   UNL A   1      32.142  26.722  24.841  1.00  0.00     0.052 A 
ATOM     14  C   UNL A   1      31.654  26.244  26.070  1.00  0.00     0.028 A 
ATOM     15  C   UNL A   1      32.130  25.057  26.629  1.00  0.00     0.018 A 
BRANCH  13  16
ATOM     16  N   UNL A   1      31.410  27.669  24.063  1.00  0.00    -0.279 N 
ATOM     17  H   UNL A   1      31.644  28.618  24.181  1.00  0.00     0.180 HD
BRANCH  16  18
ATOM     18  S   UNL A   1      30.195  27.321  22.969  1.00  0.00     0.267 S 
ATOM     19  O   UNL A   1      30.847  27.021  21.712  1.00  0.00    -0.201 OA
ATOM     20  O   UNL A   1      29.364  26.337  23.634  1.00  0.00    -0.201 OA
BRANCH  18  21
ATOM     21  C   UNL A   1      29.197  28.740  22.740  1.00  0.00     0.158 A 
ATOM     22  C   UNL A   1      29.828  29.888  22.273  1.00  0.00     0.146 A 
ATOM     23  C   UNL A   1      27.878  28.817  23.165  1.00  0.00     0.146 A 
ATOM     24  F   UNL A   1      31.071  29.839  21.774  1.00  0.00    -0.205 F 
ATOM     25  C   UNL A   1      29.188  31.124  22.318  1.00  0.00     0.041 A 
ATOM     26  C   UNL A   1      27.239  30.056  23.250  1.00  0.00     0.041 A 
ATOM     27  F   UNL A   1      27.203  27.732  23.560  1.00  0.00    -0.205 F 
ATOM     28  C   UNL A   1      27.902  31.216  22.844  1.00  0.00     0.006 A 
ENDBRANCH  18  21
ENDBRANCH  16  18
ENDBRANCH  13  16
ENDBRANCH   7   9
ENDBRANCH   6   7
ENDBRANCH   5   6
ENDBRANCH   4   5
ENDBRANCH   3   4
ENDBRANCH   2   3
ENDBRANCH   1   2
BRANCH   1  29
ATOM     29  O   UNL A   1      40.352  21.254  26.196  1.00  0.00    -0.377 OA
BRANCH  29  30
ATOM     30  C   UNL A   1      41.033  20.790  27.354  1.00  0.00     0.188 C 
BRANCH  30  31
ATOM     31  C   UNL A   1      41.751  19.450  27.340  1.00  0.00     0.188 C 
BRANCH  31  32
ATOM     32  O   UNL A   1      41.974  19.059  25.988  1.00  0.00    -0.376 OA
BRANCH  32  33
ATOM     33  C   UNL A   1      43.189  18.355  25.756  1.00  0.00     0.202 C 
BRANCH  33  34
ATOM     34  C   UNL A   1      44.133  19.064  24.773  1.00  0.00     0.261 C 
BRANCH  34  35
ATOM     35  O   UNL A   1      45.160  19.761  25.509  1.00  0.00    -0.460 OA
BRANCH  35  36
ATOM     36  C   UNL A   1      45.609  20.923  24.957  1.00  0.00     0.338 C 
ATOM     37  O   UNL A   1      46.742  21.126  24.550  1.00  0.00    -0.246 OA
BRANCH  36  38
ATOM     38  C   UNL A   1      44.627  22.018  25.221  1.00  0.00     0.060 A 
ATOM     39  C   UNL A   1      44.363  22.993  24.243  1.00  0.00     0.016 A 
ATOM     40  C   UNL A   1      44.278  22.275  26.537  1.00  0.00     0.016 A 
ATOM     41  C   UNL A   1      43.969  24.291  24.622  1.00  0.00     0.010 A 
ATOM     42  C   UNL A   1      43.984  23.574  26.898  1.00  0.00     0.010 A 
ATOM     43  C   UNL A   1      43.899  24.623  25.971  1.00  0.00    -0.014 A 
BRANCH  43  44
ATOM     44  C   UNL A   1      43.896  25.999  26.535  1.00  0.00     0.031 A 
ATOM     45  C   UNL A   1      42.580  26.721  26.675  1.00  0.00     0.074 A 
ATOM     46  C   UNL A   1      44.986  26.422  27.238  1.00  0.00     0.049 A 
ATOM     47  N   UNL A   1      42.415  27.871  27.235  1.00  0.00    -0.248 NA
ATOM     48  C   UNL A   1      41.297  26.173  26.232  1.00  0.00     0.031 C 
ATOM     49  C   UNL A   1      45.040  27.402  28.330  1.00  0.00     0.029 A 
ATOM     50  N   UNL A   1      46.304  26.003  27.205  1.00  0.00    -0.354 N 
ATOM     51  C   UNL A   1      41.079  28.010  27.588  1.00  0.00     0.074 A 
ATOM     52  C   UNL A   1      40.413  26.979  26.837  1.00  0.00     0.031 C 
ATOM     53  C   UNL A   1      46.289  27.559  28.799  1.00  0.00     0.029 A 
ATOM     54  C   UNL A   1      47.149  26.923  27.838  1.00  0.00     0.049 A 
ATOM     55  H   UNL A   1      46.609  25.164  26.789  1.00  0.00     0.167 HD
ATOM     56  C   UNL A   1      40.740  28.884  28.591  1.00  0.00     0.037 A 
ATOM     57  C   UNL A   1      48.043  27.641  27.090  1.00  0.00     0.037 A 
ATOM     58  C   UNL A   1      41.915  29.682  29.011  1.00  0.00     0.049 A 
ATOM     59  C   UNL A   1      47.521  29.078  26.946  1.00  0.00     0.074 A 
ATOM     60  C   UNL A   1      42.522  29.971  30.221  1.00  0.00     0.029 A 
ATOM     61  N   UNL A   1      42.773  30.200  28.039  1.00  0.00    -0.354 N 
ATOM     62  N   UNL A   1      46.239  29.387  26.929  1.00  0.00    -0.248 NA
ATOM     63  C   UNL A   1      48.362  30.261  27.141  1.00  0.00     0.031 C 
ATOM     64  C   UNL A   1      43.834  30.470  29.951  1.00  0.00     0.029 A 
ATOM     65  C   UNL A   1      43.980  30.600  28.574  1.00  0.00     0.049 A 
ATOM     66  H   UNL A   1      42.544  30.273  27.084  1.00  0.00     0.167 HD
ATOM     67  C   UNL A   1      46.083  30.701  27.294  1.00  0.00     0.074 A 
ATOM     68  C   UNL A   1      47.441  31.222  27.347  1.00  0.00     0.031 C 
ATOM     69  C   UNL A   1      44.940  31.310  27.743  1.00  0.00     0.037 A 
BRANCH  56  70
ATOM     70  C   UNL A   1      39.411  28.928  29.366  1.00  0.00     0.057 A 
ATOM     71  C   UNL A   1      38.268  29.542  28.798  1.00  0.00     0.134 A 
ATOM     72  C   UNL A   1      39.197  28.484  30.689  1.00  0.00     0.134 A 
ATOM     73  F   UNL A   1      38.274  29.994  27.536  1.00  0.00    -0.206 F 
ATOM     74  C   UNL A   1      37.050  29.720  29.482  1.00  0.00     0.040 A 
ATOM     75  C   UNL A   1      37.963  28.603  31.364  1.00  0.00     0.040 A 
ATOM     76  F   UNL A   1      40.172  27.945  31.427  1.00  0.00    -0.206 F 
ATOM     77  C   UNL A   1      36.886  29.238  30.769  1.00  0.00     0.006 A 
ENDBRANCH  56  70
BRANCH  57  78
ATOM     78  C   UNL A   1      48.776  26.698  26.175  1.00  0.00     0.057 A 
ATOM     79  C   UNL A   1      48.642  27.026  24.803  1.00  0.00     0.134 A 
ATOM     80  C   UNL A   1      50.001  26.130  26.553  1.00  0.00     0.134 A 
ATOM     81  F   UNL A   1      47.485  27.536  24.348  1.00  0.00    -0.206 F 
ATOM     82  C   UNL A   1      49.743  27.066  23.934  1.00  0.00     0.040 A 
ATOM     83  C   UNL A   1      51.101  26.131  25.671  1.00  0.00     0.040 A 
ATOM     84  F   UNL A   1      50.231  25.788  27.828  1.00  0.00    -0.206 F 
ATOM     85  C   UNL A   1      50.994  26.676  24.390  1.00  0.00     0.006 A 
ENDBRANCH  57  78
BRANCH  69  86
ATOM     86  C   UNL A   1      44.585  32.727  27.349  1.00  0.00     0.057 A 
ATOM     87  C   UNL A   1      44.145  33.065  26.063  1.00  0.00     0.134 A 
ATOM     88  C   UNL A   1      44.434  33.745  28.324  1.00  0.00     0.134 A 
ATOM     89  F   UNL A   1      44.137  32.174  25.063  1.00  0.00    -0.206 F 
ATOM     90  C   UNL A   1      43.630  34.327  25.759  1.00  0.00     0.040 A 
ATOM     91  C   UNL A   1      43.865  34.986  28.042  1.00  0.00     0.040 A 
ATOM     92  F   UNL A   1      44.783  33.575  29.607  1.00  0.00    -0.206 F 
ATOM     93  C   UNL A   1      43.473  35.286  26.750  1.00  0.00     0.006 A 
ENDBRANCH  69  86
ENDBRANCH  43  44
ENDBRANCH  36  38
ENDBRANCH  35  36
ENDBRANCH  34  35
ENDBRANCH  33  34
ENDBRANCH  32  33
ENDBRANCH  31  32
ENDBRANCH  30  31
ENDBRANCH  29  30
ENDBRANCH   1  29
TORSDOF 23
ENDMDL
MODEL 3
REMARK VINA RESULT:     -10.7      1.580      2.069
REMARK SMILES Cc1cc(C(=O)OCCOCCOCCOCCOC(=O)c2ccc(-c3c4nc(c(-c5c(F)cccc5F)c5ccc([nH]5)c(-c5c(F)cccc5F)c5nc(c(-c6c(F)cccc6F)c6ccc3[nH]6)C=C5)C=C4)cc2)ccc1NS(=O)(=O)c1c(F)cccc1F
REMARK SMILES IDX 12 1 11 2 10 3 9 4 8 5 7 6 5 7 6 8 4 9 1 10 2 11 3 12 78 13
REMARK SMILES IDX 77 14 76 15 79 16 80 18 81 19 82 20 83 21 84 22 89 23 85 24
REMARK SMILES IDX 86 25 88 26 90 27 87 28 13 29 14 30 15 31 16 32 17 33 18 34
REMARK SMILES IDX 19 35 20 36 21 37 22 38 23 39 75 40 24 41 74 42 25 43 26 44
REMARK SMILES IDX 27 45 68 46 28 47 73 48 67 49 69 50 29 51 72 52 66 53 65 54
REMARK SMILES IDX 30 56 56 57 39 58 55 59 40 60 43 61 54 62 70 63 41 64 42 65
REMARK SMILES IDX 53 67 71 68 44 69 31 70 32 71 37 72 33 73 34 74 36 75 38 76
REMARK SMILES IDX 35 77 57 78 58 79 63 80 59 81 60 82 62 83 64 84 61 85 45 86
REMARK SMILES IDX 46 87 51 88 47 89 48 90 50 91 52 92 49 93
REMARK H PARENT 79 17 69 55 43 66
REMARK Flexibility Score: inf
ROOT
ATOM      1  C   UNL A   1      38.197  22.016  25.374  1.00  0.00     0.188 C 
ENDROOT
BRANCH   1   2
ATOM      2  C   UNL A   1      37.106  21.774  24.319  1.00  0.00     0.188 C 
BRANCH   2   3
ATOM      3  O   UNL A   1      35.739  21.910  24.669  1.00  0.00    -0.376 OA
BRANCH   3   4
ATOM      4  C   UNL A   1      35.249  20.937  25.576  1.00  0.00     0.202 C 
BRANCH   4   5
ATOM      5  C   UNL A   1      34.684  19.651  25.003  1.00  0.00     0.261 C 
BRANCH   5   6
ATOM      6  O   UNL A   1      33.263  19.646  25.083  1.00  0.00    -0.460 OA
BRANCH   6   7
ATOM      7  C   UNL A   1      32.652  19.761  23.899  1.00  0.00     0.338 C 
ATOM      8  O   UNL A   1      32.254  18.858  23.158  1.00  0.00    -0.246 OA
BRANCH   7   9
ATOM      9  C   UNL A   1      32.152  21.128  23.838  1.00  0.00     0.060 A 
ATOM     10  C   UNL A   1      30.569  23.198  26.528  1.00  0.00     0.046 C 
ATOM     11  C   UNL A   1      31.198  22.889  25.201  1.00  0.00    -0.026 A 
ATOM     12  C   UNL A   1      31.476  21.540  24.982  1.00  0.00     0.021 A 
ATOM     13  C   UNL A   1      31.583  23.834  24.230  1.00  0.00     0.052 A 
ATOM     14  C   UNL A   1      32.163  23.381  23.032  1.00  0.00     0.028 A 
ATOM     15  C   UNL A   1      32.496  22.039  22.848  1.00  0.00     0.018 A 
BRANCH  13  16
ATOM     16  N   UNL A   1      31.615  25.213  24.603  1.00  0.00    -0.279 N 
ATOM     17  H   UNL A   1      30.851  25.552  25.121  1.00  0.00     0.180 HD
BRANCH  16  18
ATOM     18  S   UNL A   1      32.828  26.305  24.242  1.00  0.00     0.267 S 
ATOM     19  O   UNL A   1      34.079  25.644  24.548  1.00  0.00    -0.201 OA
ATOM     20  O   UNL A   1      32.533  26.762  22.899  1.00  0.00    -0.201 OA
BRANCH  18  21
ATOM     21  C   UNL A   1      32.680  27.701  25.286  1.00  0.00     0.158 A 
ATOM     22  C   UNL A   1      32.184  27.483  26.567  1.00  0.00     0.146 A 
ATOM     23  C   UNL A   1      32.860  29.003  24.842  1.00  0.00     0.146 A 
ATOM     24  F   UNL A   1      32.076  26.244  27.065  1.00  0.00    -0.205 F 
ATOM     25  C   UNL A   1      31.776  28.548  27.366  1.00  0.00     0.041 A 
ATOM     26  C   UNL A   1      32.420  30.078  25.619  1.00  0.00     0.041 A 
ATOM     27  F   UNL A   1      33.396  29.270  23.645  1.00  0.00    -0.205 F 
ATOM     28  C   UNL A   1      31.859  29.850  26.877  1.00  0.00     0.006 A 
ENDBRANCH  18  21
ENDBRANCH  16  18
ENDBRANCH  13  16
ENDBRANCH   7   9
ENDBRANCH   6   7
ENDBRANCH   5   6
ENDBRANCH   4   5
ENDBRANCH   3   4
ENDBRANCH   2   3
ENDBRANCH   1   2
BRANCH   1  29
ATOM     29  O   UNL A   1      39.073  20.955  25.716  1.00  0.00    -0.377 OA
BRANCH  29  30
ATOM     30  C   UNL A   1      40.085  21.196  26.687  1.00  0.00     0.188 C 
BRANCH  30  31
ATOM     31  C   UNL A   1      41.143  20.143  26.973  1.00  0.00     0.188 C 
BRANCH  31  32
ATOM     32  O   UNL A   1      41.409  19.418  25.776  1.00  0.00    -0.376 OA
BRANCH  32  33
ATOM     33  C   UNL A   1      42.576  18.601  25.811  1.00  0.00     0.202 C 
BRANCH  33  34
ATOM     34  C   UNL A   1      43.711  19.110  24.910  1.00  0.00     0.261 C 
BRANCH  34  35
ATOM     35  O   UNL A   1      44.705  19.777  25.717  1.00  0.00    -0.460 OA
BRANCH  35  36
ATOM     36  C   UNL A   1      45.249  20.907  25.185  1.00  0.00     0.338 C 
ATOM     37  O   UNL A   1      46.420  21.052  24.873  1.00  0.00    -0.246 OA
BRANCH  36  38
ATOM     38  C   UNL A   1      44.297  22.047  25.343  1.00  0.00     0.060 A 
ATOM     39  C   UNL A   1      44.152  23.004  24.323  1.00  0.00     0.016 A 
ATOM     40  C   UNL A   1      43.858  22.354  26.620  1.00  0.00     0.016 A 
ATOM     41  C   UNL A   1      43.784  24.327  24.638  1.00  0.00     0.010 A 
ATOM     42  C   UNL A   1      43.592  23.673  26.925  1.00  0.00     0.010 A 
ATOM     43  C   UNL A   1      43.624  24.699  25.969  1.00  0.00    -0.014 A 
BRANCH  43  44
ATOM     44  C   UNL A   1      43.635  26.089  26.498  1.00  0.00     0.031 A 
ATOM     45  C   UNL A   1      42.324  26.817  26.650  1.00  0.00     0.074 A 
ATOM     46  C   UNL A   1      44.742  26.528  27.163  1.00  0.00     0.049 A 
ATOM     47  N   UNL A   1      42.173  27.981  27.183  1.00  0.00    -0.248 NA
ATOM     48  C   UNL A   1      41.030  26.260  26.251  1.00  0.00     0.031 C 
ATOM     49  C   UNL A   1      44.822  27.537  28.228  1.00  0.00     0.029 A 
ATOM     50  N   UNL A   1      46.059  26.107  27.110  1.00  0.00    -0.354 N 
ATOM     51  C   UNL A   1      40.846  28.131  27.564  1.00  0.00     0.074 A 
ATOM     52  C   UNL A   1      40.162  27.082  26.855  1.00  0.00     0.031 C 
ATOM     53  C   UNL A   1      46.082  27.704  28.664  1.00  0.00     0.029 A 
ATOM     54  C   UNL A   1      46.919  27.042  27.699  1.00  0.00     0.049 A 
ATOM     55  H   UNL A   1      46.353  25.257  26.709  1.00  0.00     0.167 HD
ATOM     56  C   UNL A   1      40.531  29.032  28.551  1.00  0.00     0.037 A 
ATOM     57  C   UNL A   1      47.796  27.739  26.912  1.00  0.00     0.037 A 
ATOM     58  C   UNL A   1      41.716  29.838  28.923  1.00  0.00     0.049 A 
ATOM     59  C   UNL A   1      47.271  29.173  26.744  1.00  0.00     0.074 A 
ATOM     60  C   UNL A   1      42.351  30.157  30.110  1.00  0.00     0.029 A 
ATOM     61  N   UNL A   1      42.552  30.330  27.917  1.00  0.00    -0.354 N 
ATOM     62  N   UNL A   1      45.990  29.483  26.748  1.00  0.00    -0.248 NA
ATOM     63  C   UNL A   1      48.118  30.359  26.888  1.00  0.00     0.031 C 
ATOM     64  C   UNL A   1      43.657  30.647  29.797  1.00  0.00     0.029 A 
ATOM     65  C   UNL A   1      43.771  30.741  28.414  1.00  0.00     0.049 A 
ATOM     66  H   UNL A   1      42.300  30.378  26.967  1.00  0.00     0.167 HD
ATOM     67  C   UNL A   1      45.843  30.806  27.083  1.00  0.00     0.074 A 
ATOM     68  C   UNL A   1      47.203  31.326  27.091  1.00  0.00     0.031 C 
ATOM     69  C   UNL A   1      44.712  31.428  27.542  1.00  0.00     0.037 A 
BRANCH  56  70
ATOM     70  C   UNL A   1      39.220  29.097  29.356  1.00  0.00     0.057 A 
ATOM     71  C   UNL A   1      38.132  29.877  28.894  1.00  0.00     0.134 A 
ATOM     72  C   UNL A   1      38.981  28.512  30.619  1.00  0.00     0.134 A 
ATOM     73  F   UNL A   1      38.165  30.480  27.697  1.00  0.00    -0.206 F 
ATOM     74  C   UNL A   1      36.943  30.077  29.622  1.00  0.00     0.040 A 
ATOM     75  C   UNL A   1      37.771  28.657  31.331  1.00  0.00     0.040 A 
ATOM     76  F   UNL A   1      39.912  27.801  31.262  1.00  0.00    -0.206 F 
ATOM     77  C   UNL A   1      36.750  29.455  30.843  1.00  0.00     0.006 A 
ENDBRANCH  56  70
BRANCH  57  78
ATOM     78  C   UNL A   1      48.506  26.772  26.005  1.00  0.00     0.057 A 
ATOM     79  C   UNL A   1      48.354  27.074  24.629  1.00  0.00     0.134 A 
ATOM     80  C   UNL A   1      49.732  26.201  26.375  1.00  0.00     0.134 A 
ATOM     81  F   UNL A   1      47.195  27.586  24.182  1.00  0.00    -0.206 F 
ATOM     82  C   UNL A   1      49.441  27.086  23.743  1.00  0.00     0.040 A 
ATOM     83  C   UNL A   1      50.818  26.174  25.477  1.00  0.00     0.040 A 
ATOM     84  F   UNL A   1      49.978  25.881  27.653  1.00  0.00    -0.206 F 
ATOM     85  C   UNL A   1      50.696  26.694  24.187  1.00  0.00     0.006 A 
ENDBRANCH  57  78
BRANCH  69  86
ATOM     86  C   UNL A   1      44.349  32.835  27.121  1.00  0.00     0.057 A 
ATOM     87  C   UNL A   1      43.921  33.147  25.824  1.00  0.00     0.134 A 
ATOM     88  C   UNL A   1      44.177  33.868  28.076  1.00  0.00     0.134 A 
ATOM     89  F   UNL A   1      43.935  32.240  24.839  1.00  0.00    -0.206 F 
ATOM     90  C   UNL A   1      43.399  34.399  25.492  1.00  0.00     0.040 A 
ATOM     91  C   UNL A   1      43.600  35.098  27.767  1.00  0.00     0.040 A 
ATOM     92  F   UNL A   1      44.511  33.723  29.366  1.00  0.00    -0.206 F 
ATOM     93  C   UNL A   1      43.221  35.374  26.465  1.00  0.00     0.006 A 
ENDBRANCH  69  86
ENDBRANCH  43  44
ENDBRANCH  36  38
ENDBRANCH  35  36
ENDBRANCH  34  35
ENDBRANCH  33  34
ENDBRANCH  32  33
ENDBRANCH  31  32
ENDBRANCH  30  31
ENDBRANCH  29  30
ENDBRANCH   1  29
TORSDOF 23
ENDMDL
