MODEL 1
REMARK VINA RESULT:     -10.0      0.000      0.000
REMARK SMILES O=C(/C=C/c1ccc(O)c(O)c1)OCCOCCOCCOCCOC(=O)c1ccc(-c2c3nc(c(-c4c(F)cccc4F)c4ccc([nH]4)c(-c4c(F)cccc4F)c4nc(c(-c5c(F)cccc5F)c5ccc2[nH]5)C=C4)C=C3)cc1
REMARK SMILES IDX 19 1 18 2 17 3 16 4 15 5 14 6 13 7 2 8 1 9 3 10 4 11 5 12
REMARK SMILES IDX 6 13 12 14 7 15 10 16 8 17 11 18 9 20 20 22 21 23 22 24
REMARK SMILES IDX 23 25 24 26 25 27 26 28 27 29 28 30 29 31 81 32 30 33 80 34
REMARK SMILES IDX 31 35 32 36 33 37 74 38 34 39 79 40 73 41 75 42 35 43 78 44
REMARK SMILES IDX 72 45 71 46 36 48 62 49 45 50 61 51 46 52 49 53 60 54 76 55
REMARK SMILES IDX 47 56 48 57 59 59 77 60 50 61 37 62 38 63 43 64 39 65 40 66
REMARK SMILES IDX 42 67 44 68 41 69 63 70 64 71 69 72 65 73 66 74 68 75 70 76
REMARK SMILES IDX 67 77 51 78 52 79 57 80 53 81 54 82 56 83 58 84 55 85
REMARK H PARENT 11 19 9 21 75 47 49 58
REMARK Flexibility Score: inf
ROOT
ATOM      1  O   UNL A   1      34.606  33.057  27.741  1.00  0.00    -0.377 OA
ENDROOT
BRANCH   1   2
ATOM      2  C   UNL A   1      34.652  31.790  28.375  1.00  0.00     0.188 C 
BRANCH   2   3
ATOM      3  C   UNL A   1      35.454  30.711  27.653  1.00  0.00     0.188 C 
BRANCH   3   4
ATOM      4  O   UNL A   1      34.805  29.640  26.984  1.00  0.00    -0.376 OA
BRANCH   4   5
ATOM      5  C   UNL A   1      33.491  29.633  26.472  1.00  0.00     0.202 C 
BRANCH   5   6
ATOM      6  C   UNL A   1      32.624  28.383  26.398  1.00  0.00     0.261 C 
BRANCH   6   7
ATOM      7  O   UNL A   1      32.265  27.879  25.111  1.00  0.00    -0.460 OA
BRANCH   7   8
ATOM      8  C   UNL A   1      31.013  27.800  24.604  1.00  0.00     0.330 C 
ATOM      9  O   UNL A   1      30.488  26.707  24.419  1.00  0.00    -0.247 OA
BRANCH   8  10
ATOM     10  C   UNL A   1      30.428  28.989  23.961  1.00  0.00     0.094 C 
ATOM     11  C   UNL A   1      29.657  29.031  22.868  1.00  0.00     0.016 C 
BRANCH  11  12
ATOM     12  C   UNL A   1      28.998  30.270  22.436  1.00  0.00    -0.021 A 
ATOM     13  C   UNL A   1      28.991  31.409  23.252  1.00  0.00     0.012 A 
ATOM     14  C   UNL A   1      28.403  30.333  21.167  1.00  0.00     0.058 A 
ATOM     15  C   UNL A   1      28.450  32.614  22.788  1.00  0.00     0.051 A 
ATOM     16  C   UNL A   1      27.872  31.531  20.713  1.00  0.00     0.157 A 
ATOM     17  C   UNL A   1      27.914  32.671  21.508  1.00  0.00     0.157 A 
BRANCH  16  18
ATOM     18  O   UNL A   1      27.330  31.588  19.460  1.00  0.00    -0.504 OA
ATOM     19  H   UNL A   1      27.101  32.415  19.085  1.00  0.00     0.293 HD
ENDBRANCH  16  18
BRANCH  17  20
ATOM     20  O   UNL A   1      27.432  33.834  20.976  1.00  0.00    -0.504 OA
ATOM     21  H   UNL A   1      27.951  34.613  21.006  1.00  0.00     0.293 HD
ENDBRANCH  17  20
ENDBRANCH  11  12
ENDBRANCH   8  10
ENDBRANCH   7   8
ENDBRANCH   6   7
ENDBRANCH   5   6
ENDBRANCH   4   5
ENDBRANCH   3   4
ENDBRANCH   2   3
ENDBRANCH   1   2
BRANCH   1  22
ATOM     22  C   UNL A   1      34.975  34.132  28.579  1.00  0.00     0.188 C 
BRANCH  22  23
ATOM     23  C   UNL A   1      33.800  34.999  29.083  1.00  0.00     0.188 C 
BRANCH  23  24
ATOM     24  O   UNL A   1      33.138  34.716  30.303  1.00  0.00    -0.376 OA
BRANCH  24  25
ATOM     25  C   UNL A   1      33.696  35.105  31.545  1.00  0.00     0.202 C 
BRANCH  25  26
ATOM     26  C   UNL A   1      34.410  34.106  32.477  1.00  0.00     0.261 C 
BRANCH  26  27
ATOM     27  O   UNL A   1      35.483  33.337  31.920  1.00  0.00    -0.460 OA
BRANCH  27  28
ATOM     28  C   UNL A   1      36.257  32.662  32.800  1.00  0.00     0.338 C 
ATOM     29  O   UNL A   1      36.105  32.573  34.007  1.00  0.00    -0.246 OA
BRANCH  28  30
ATOM     30  C   UNL A   1      37.233  31.850  32.036  1.00  0.00     0.060 A 
ATOM     31  C   UNL A   1      38.156  31.069  32.750  1.00  0.00     0.016 A 
ATOM     32  C   UNL A   1      37.214  31.818  30.640  1.00  0.00     0.016 A 
ATOM     33  C   UNL A   1      39.076  30.272  32.072  1.00  0.00     0.010 A 
ATOM     34  C   UNL A   1      38.165  31.050  29.960  1.00  0.00     0.010 A 
ATOM     35  C   UNL A   1      39.120  30.303  30.674  1.00  0.00    -0.014 A 
BRANCH  35  36
ATOM     36  C   UNL A   1      40.315  29.773  29.979  1.00  0.00     0.031 A 
ATOM     37  C   UNL A   1      41.466  30.715  29.754  1.00  0.00     0.074 A 
ATOM     38  C   UNL A   1      40.401  28.492  29.583  1.00  0.00     0.049 A 
ATOM     39  N   UNL A   1      42.593  30.520  29.121  1.00  0.00    -0.248 NA
ATOM     40  C   UNL A   1      41.319  32.067  30.320  1.00  0.00     0.031 C 
ATOM     41  C   UNL A   1      39.378  27.469  29.792  1.00  0.00     0.029 A 
ATOM     42  N   UNL A   1      41.401  27.838  28.907  1.00  0.00    -0.354 N 
ATOM     43  C   UNL A   1      43.281  31.725  29.201  1.00  0.00     0.074 A 
ATOM     44  C   UNL A   1      42.436  32.653  29.918  1.00  0.00     0.031 C 
ATOM     45  C   UNL A   1      39.797  26.317  29.237  1.00  0.00     0.029 A 
ATOM     46  C   UNL A   1      41.099  26.533  28.605  1.00  0.00     0.049 A 
ATOM     47  H   UNL A   1      42.254  28.264  28.663  1.00  0.00     0.167 HD
ATOM     48  C   UNL A   1      44.509  32.029  28.724  1.00  0.00     0.037 A 
ATOM     49  C   UNL A   1      41.785  25.631  27.876  1.00  0.00     0.037 A 
ATOM     50  C   UNL A   1      45.346  31.104  28.008  1.00  0.00     0.049 A 
ATOM     51  C   UNL A   1      43.117  26.017  27.283  1.00  0.00     0.074 A 
ATOM     52  C   UNL A   1      46.614  31.309  27.497  1.00  0.00     0.029 A 
ATOM     53  N   UNL A   1      44.991  29.801  27.693  1.00  0.00    -0.354 N 
ATOM     54  N   UNL A   1      43.770  27.150  27.380  1.00  0.00    -0.248 NA
ATOM     55  C   UNL A   1      43.809  24.997  26.481  1.00  0.00     0.031 C 
ATOM     56  C   UNL A   1      47.003  30.149  26.819  1.00  0.00     0.029 A 
ATOM     57  C   UNL A   1      46.005  29.199  26.967  1.00  0.00     0.049 A 
ATOM     58  H   UNL A   1      44.144  29.368  27.948  1.00  0.00     0.167 HD
ATOM     59  C   UNL A   1      44.960  26.969  26.681  1.00  0.00     0.074 A 
ATOM     60  C   UNL A   1      44.942  25.611  26.177  1.00  0.00     0.031 C 
ATOM     61  C   UNL A   1      45.976  27.843  26.478  1.00  0.00     0.037 A 
BRANCH  48  62
ATOM     62  C   UNL A   1      45.001  33.432  28.927  1.00  0.00     0.057 A 
ATOM     63  C   UNL A   1      44.745  34.452  28.002  1.00  0.00     0.134 A 
ATOM     64  C   UNL A   1      45.722  33.770  30.079  1.00  0.00     0.134 A 
ATOM     65  F   UNL A   1      44.076  34.192  26.868  1.00  0.00    -0.206 F 
ATOM     66  C   UNL A   1      45.210  35.753  28.203  1.00  0.00     0.040 A 
ATOM     67  C   UNL A   1      46.166  35.073  30.306  1.00  0.00     0.040 A 
ATOM     68  F   UNL A   1      46.003  32.841  31.005  1.00  0.00    -0.206 F 
ATOM     69  C   UNL A   1      45.917  36.068  29.363  1.00  0.00     0.006 A 
ENDBRANCH  48  62
BRANCH  49  70
ATOM     70  C   UNL A   1      41.220  24.277  27.640  1.00  0.00     0.057 A 
ATOM     71  C   UNL A   1      41.704  23.155  28.324  1.00  0.00     0.134 A 
ATOM     72  C   UNL A   1      40.200  24.066  26.702  1.00  0.00     0.134 A 
ATOM     73  F   UNL A   1      42.697  23.286  29.215  1.00  0.00    -0.206 F 
ATOM     74  C   UNL A   1      41.209  21.874  28.073  1.00  0.00     0.040 A 
ATOM     75  C   UNL A   1      39.677  22.795  26.461  1.00  0.00     0.040 A 
ATOM     76  F   UNL A   1      39.692  25.097  26.010  1.00  0.00    -0.206 F 
ATOM     77  C   UNL A   1      40.188  21.692  27.142  1.00  0.00     0.006 A 
ENDBRANCH  49  70
BRANCH  61  78
ATOM     78  C   UNL A   1      47.175  27.352  25.717  1.00  0.00     0.057 A 
ATOM     79  C   UNL A   1      47.317  27.552  24.338  1.00  0.00     0.134 A 
ATOM     80  C   UNL A   1      48.228  26.713  26.388  1.00  0.00     0.134 A 
ATOM     81  F   UNL A   1      46.342  28.147  23.634  1.00  0.00    -0.206 F 
ATOM     82  C   UNL A   1      48.448  27.111  23.650  1.00  0.00     0.040 A 
ATOM     83  C   UNL A   1      49.378  26.297  25.716  1.00  0.00     0.040 A 
ATOM     84  F   UNL A   1      48.165  26.501  27.711  1.00  0.00    -0.206 F 
ATOM     85  C   UNL A   1      49.486  26.489  24.340  1.00  0.00     0.006 A 
ENDBRANCH  61  78
ENDBRANCH  35  36
ENDBRANCH  28  30
ENDBRANCH  27  28
ENDBRANCH  26  27
ENDBRANCH  25  26
ENDBRANCH  24  25
ENDBRANCH  23  24
ENDBRANCH  22  23
ENDBRANCH   1  22
TORSDOF 23
ENDMDL
MODEL 2
REMARK VINA RESULT:      -9.8      2.148      4.167
REMARK SMILES O=C(/C=C/c1ccc(O)c(O)c1)OCCOCCOCCOCCOC(=O)c1ccc(-c2c3nc(c(-c4c(F)cccc4F)c4ccc([nH]4)c(-c4c(F)cccc4F)c4nc(c(-c5c(F)cccc5F)c5ccc2[nH]5)C=C4)C=C3)cc1
REMARK SMILES IDX 19 1 18 2 17 3 16 4 15 5 14 6 13 7 2 8 1 9 3 10 4 11 5 12
REMARK SMILES IDX 6 13 12 14 7 15 10 16 8 17 11 18 9 20 20 22 21 23 22 24
REMARK SMILES IDX 23 25 24 26 25 27 26 28 27 29 28 30 29 31 81 32 30 33 80 34
REMARK SMILES IDX 31 35 32 36 33 37 74 38 34 39 79 40 73 41 75 42 35 43 78 44
REMARK SMILES IDX 72 45 71 46 36 48 62 49 45 50 61 51 46 52 49 53 60 54 76 55
REMARK SMILES IDX 47 56 48 57 59 59 77 60 50 61 37 62 38 63 43 64 39 65 40 66
REMARK SMILES IDX 42 67 44 68 41 69 63 70 64 71 69 72 65 73 66 74 68 75 70 76
REMARK SMILES IDX 67 77 51 78 52 79 57 80 53 81 54 82 56 83 58 84 55 85
REMARK H PARENT 11 19 9 21 75 47 49 58
REMARK Flexibility Score: inf
ROOT
ATOM      1  O   UNL A   1      33.913  33.200  27.796  1.00  0.00    -0.377 OA
ENDROOT
BRANCH   1   2
ATOM      2  C   UNL A   1      34.261  31.998  28.463  1.00  0.00     0.188 C 
BRANCH   2   3
ATOM      3  C   UNL A   1      35.090  31.003  27.655  1.00  0.00     0.188 C 
BRANCH   3   4
ATOM      4  O   UNL A   1      34.479  29.904  26.998  1.00  0.00    -0.376 OA
BRANCH   4   5
ATOM      5  C   UNL A   1      33.146  29.826  26.539  1.00  0.00     0.202 C 
BRANCH   5   6
ATOM      6  C   UNL A   1      32.273  28.589  26.703  1.00  0.00     0.261 C 
BRANCH   6   7
ATOM      7  O   UNL A   1      31.740  27.972  25.530  1.00  0.00    -0.460 OA
BRANCH   7   8
ATOM      8  C   UNL A   1      32.438  27.611  24.429  1.00  0.00     0.330 C 
ATOM      9  O   UNL A   1      32.191  28.124  23.343  1.00  0.00    -0.247 OA
BRANCH   8  10
ATOM     10  C   UNL A   1      33.238  26.374  24.467  1.00  0.00     0.094 C 
ATOM     11  C   UNL A   1      33.728  25.751  25.545  1.00  0.00     0.016 C 
BRANCH  11  12
ATOM     12  C   UNL A   1      34.362  24.430  25.450  1.00  0.00    -0.021 A 
ATOM     13  C   UNL A   1      35.153  24.084  24.347  1.00  0.00     0.012 A 
ATOM     14  C   UNL A   1      34.213  23.512  26.501  1.00  0.00     0.058 A 
ATOM     15  C   UNL A   1      35.835  22.862  24.316  1.00  0.00     0.051 A 
ATOM     16  C   UNL A   1      34.895  22.305  26.464  1.00  0.00     0.157 A 
ATOM     17  C   UNL A   1      35.718  21.989  25.390  1.00  0.00     0.157 A 
BRANCH  16  18
ATOM     18  O   UNL A   1      34.771  21.438  27.512  1.00  0.00    -0.504 OA
ATOM     19  H   UNL A   1      35.496  21.290  28.087  1.00  0.00     0.293 HD
ENDBRANCH  16  18
BRANCH  17  20
ATOM     20  O   UNL A   1      36.412  20.813  25.445  1.00  0.00    -0.504 OA
ATOM     21  H   UNL A   1      36.236  20.135  24.823  1.00  0.00     0.293 HD
ENDBRANCH  17  20
ENDBRANCH  11  12
ENDBRANCH   8  10
ENDBRANCH   7   8
ENDBRANCH   6   7
ENDBRANCH   5   6
ENDBRANCH   4   5
ENDBRANCH   3   4
ENDBRANCH   2   3
ENDBRANCH   1   2
BRANCH   1  22
ATOM     22  C   UNL A   1      34.347  34.370  28.459  1.00  0.00     0.188 C 
BRANCH  22  23
ATOM     23  C   UNL A   1      33.240  35.141  29.210  1.00  0.00     0.188 C 
BRANCH  23  24
ATOM     24  O   UNL A   1      32.961  34.898  30.578  1.00  0.00    -0.376 OA
BRANCH  24  25
ATOM     25  C   UNL A   1      33.831  35.362  31.595  1.00  0.00     0.202 C 
BRANCH  25  26
ATOM     26  C   UNL A   1      34.573  34.402  32.545  1.00  0.00     0.261 C 
BRANCH  26  27
ATOM     27  O   UNL A   1      35.497  33.478  31.958  1.00  0.00    -0.460 OA
BRANCH  27  28
ATOM     28  C   UNL A   1      36.175  32.680  32.815  1.00  0.00     0.338 C 
ATOM     29  O   UNL A   1      35.945  32.498  33.999  1.00  0.00    -0.246 OA
BRANCH  28  30
ATOM     30  C   UNL A   1      37.144  31.874  32.035  1.00  0.00     0.060 A 
ATOM     31  C   UNL A   1      38.012  31.018  32.731  1.00  0.00     0.016 A 
ATOM     32  C   UNL A   1      37.169  31.921  30.639  1.00  0.00     0.016 A 
ATOM     33  C   UNL A   1      38.923  30.224  32.036  1.00  0.00     0.010 A 
ATOM     34  C   UNL A   1      38.111  31.155  29.946  1.00  0.00     0.010 A 
ATOM     35  C   UNL A   1      39.014  30.332  30.645  1.00  0.00    -0.014 A 
BRANCH  35  36
ATOM     36  C   UNL A   1      40.210  29.794  29.957  1.00  0.00     0.031 A 
ATOM     37  C   UNL A   1      41.371  30.727  29.746  1.00  0.00     0.074 A 
ATOM     38  C   UNL A   1      40.287  28.514  29.555  1.00  0.00     0.049 A 
ATOM     39  N   UNL A   1      42.501  30.525  29.122  1.00  0.00    -0.248 NA
ATOM     40  C   UNL A   1      41.231  32.077  30.319  1.00  0.00     0.031 C 
ATOM     41  C   UNL A   1      39.253  27.500  29.750  1.00  0.00     0.029 A 
ATOM     42  N   UNL A   1      41.287  27.855  28.884  1.00  0.00    -0.354 N 
ATOM     43  C   UNL A   1      43.199  31.723  29.215  1.00  0.00     0.074 A 
ATOM     44  C   UNL A   1      42.357  32.655  29.929  1.00  0.00     0.031 C 
ATOM     45  C   UNL A   1      39.667  26.347  29.192  1.00  0.00     0.029 A 
ATOM     46  C   UNL A   1      40.976  26.554  28.572  1.00  0.00     0.049 A 
ATOM     47  H   UNL A   1      42.146  28.274  28.649  1.00  0.00     0.167 HD
ATOM     48  C   UNL A   1      44.435  32.018  28.749  1.00  0.00     0.037 A 
ATOM     49  C   UNL A   1      41.659  25.650  27.844  1.00  0.00     0.037 A 
ATOM     50  C   UNL A   1      45.269  31.089  28.035  1.00  0.00     0.049 A 
ATOM     51  C   UNL A   1      43.000  26.027  27.265  1.00  0.00     0.074 A 
ATOM     52  C   UNL A   1      46.543  31.285  27.536  1.00  0.00     0.029 A 
ATOM     53  N   UNL A   1      44.905  29.791  27.711  1.00  0.00    -0.354 N 
ATOM     54  N   UNL A   1      43.663  27.153  27.373  1.00  0.00    -0.248 NA
ATOM     55  C   UNL A   1      43.689  25.004  26.464  1.00  0.00     0.031 C 
ATOM     56  C   UNL A   1      46.927  30.126  26.855  1.00  0.00     0.029 A 
ATOM     57  C   UNL A   1      45.919  29.184  26.990  1.00  0.00     0.049 A 
ATOM     58  H   UNL A   1      44.051  29.365  27.956  1.00  0.00     0.167 HD
ATOM     59  C   UNL A   1      44.856  26.965  26.684  1.00  0.00     0.074 A 
ATOM     60  C   UNL A   1      44.830  25.610  26.172  1.00  0.00     0.031 C 
ATOM     61  C   UNL A   1      45.882  27.831  26.493  1.00  0.00     0.037 A 
BRANCH  48  62
ATOM     62  C   UNL A   1      44.937  33.415  28.963  1.00  0.00     0.057 A 
ATOM     63  C   UNL A   1      44.682  34.447  28.051  1.00  0.00     0.134 A 
ATOM     64  C   UNL A   1      45.669  33.737  30.114  1.00  0.00     0.134 A 
ATOM     65  F   UNL A   1      44.003  34.204  26.919  1.00  0.00    -0.206 F 
ATOM     66  C   UNL A   1      45.158  35.743  28.263  1.00  0.00     0.040 A 
ATOM     67  C   UNL A   1      46.124  35.034  30.351  1.00  0.00     0.040 A 
ATOM     68  F   UNL A   1      45.949  32.796  31.028  1.00  0.00    -0.206 F 
ATOM     69  C   UNL A   1      45.874  36.040  29.421  1.00  0.00     0.006 A 
ENDBRANCH  48  62
BRANCH  49  70
ATOM     70  C   UNL A   1      41.084  24.302  27.596  1.00  0.00     0.057 A 
ATOM     71  C   UNL A   1      41.575  23.168  28.253  1.00  0.00     0.134 A 
ATOM     72  C   UNL A   1      40.047  24.111  26.674  1.00  0.00     0.134 A 
ATOM     73  F   UNL A   1      42.585  23.279  29.128  1.00  0.00    -0.206 F 
ATOM     74  C   UNL A   1      41.070  21.892  27.990  1.00  0.00     0.040 A 
ATOM     75  C   UNL A   1      39.513  22.847  26.422  1.00  0.00     0.040 A 
ATOM     76  F   UNL A   1      39.531  25.156  26.009  1.00  0.00    -0.206 F 
ATOM     77  C   UNL A   1      40.032  21.731  27.076  1.00  0.00     0.006 A 
ENDBRANCH  49  70
BRANCH  61  78
ATOM     78  C   UNL A   1      47.083  27.333  25.740  1.00  0.00     0.057 A 
ATOM     79  C   UNL A   1      48.115  26.623  26.367  1.00  0.00     0.134 A 
ATOM     80  C   UNL A   1      47.181  27.525  24.355  1.00  0.00     0.134 A 
ATOM     81  F   UNL A   1      48.088  26.413  27.692  1.00  0.00    -0.206 F 
ATOM     82  C   UNL A   1      49.212  26.145  25.649  1.00  0.00     0.040 A 
ATOM     83  C   UNL A   1      48.258  27.024  23.622  1.00  0.00     0.040 A 
ATOM     84  F   UNL A   1      46.222  28.184  23.688  1.00  0.00    -0.206 F 
ATOM     85  C   UNL A   1      49.282  26.339  24.271  1.00  0.00     0.006 A 
ENDBRANCH  61  78
ENDBRANCH  35  36
ENDBRANCH  28  30
ENDBRANCH  27  28
ENDBRANCH  26  27
ENDBRANCH  25  26
ENDBRANCH  24  25
ENDBRANCH  23  24
ENDBRANCH  22  23
ENDBRANCH   1  22
TORSDOF 23
ENDMDL
MODEL 3
REMARK VINA RESULT:      -9.6      4.051      6.316
REMARK SMILES O=C(/C=C/c1ccc(O)c(O)c1)OCCOCCOCCOCCOC(=O)c1ccc(-c2c3nc(c(-c4c(F)cccc4F)c4ccc([nH]4)c(-c4c(F)cccc4F)c4nc(c(-c5c(F)cccc5F)c5ccc2[nH]5)C=C4)C=C3)cc1
REMARK SMILES IDX 19 1 18 2 17 3 16 4 15 5 14 6 13 7 2 8 1 9 3 10 4 11 5 12
REMARK SMILES IDX 6 13 12 14 7 15 10 16 8 17 11 18 9 20 20 22 21 23 22 24
REMARK SMILES IDX 23 25 24 26 25 27 26 28 27 29 28 30 29 31 81 32 30 33 80 34
REMARK SMILES IDX 31 35 32 36 33 37 74 38 34 39 79 40 73 41 75 42 35 43 78 44
REMARK SMILES IDX 72 45 71 46 36 48 62 49 45 50 61 51 46 52 49 53 60 54 76 55
REMARK SMILES IDX 47 56 48 57 59 59 77 60 50 61 37 62 38 63 43 64 39 65 40 66
REMARK SMILES IDX 42 67 44 68 41 69 63 70 64 71 69 72 65 73 66 74 68 75 70 76
REMARK SMILES IDX 67 77 51 78 52 79 57 80 53 81 54 82 56 83 58 84 55 85
REMARK H PARENT 11 19 9 21 75 47 49 58
REMARK Flexibility Score: inf
ROOT
ATOM      1  O   UNL A   1      33.889  27.074  25.352  1.00  0.00    -0.377 OA
ENDROOT
BRANCH   1   2
ATOM      2  C   UNL A   1      34.018  25.662  25.325  1.00  0.00     0.188 C 
BRANCH   2   3
ATOM      3  C   UNL A   1      32.956  24.880  26.093  1.00  0.00     0.188 C 
BRANCH   3   4
ATOM      4  O   UNL A   1      32.320  23.749  25.519  1.00  0.00    -0.376 OA
BRANCH   4   5
ATOM      5  C   UNL A   1      31.156  23.746  24.720  1.00  0.00     0.202 C 
BRANCH   5   6
ATOM      6  C   UNL A   1      31.178  23.615  23.203  1.00  0.00     0.261 C 
BRANCH   6   7
ATOM      7  O   UNL A   1      32.335  24.066  22.498  1.00  0.00    -0.460 OA
BRANCH   7   8
ATOM      8  C   UNL A   1      32.524  25.301  21.978  1.00  0.00     0.330 C 
ATOM      9  O   UNL A   1      33.658  25.710  21.752  1.00  0.00    -0.247 OA
BRANCH   8  10
ATOM     10  C   UNL A   1      31.412  26.266  22.013  1.00  0.00     0.094 C 
ATOM     11  C   UNL A   1      31.103  27.124  22.992  1.00  0.00     0.016 C 
BRANCH  11  12
ATOM     12  C   UNL A   1      30.069  28.152  22.820  1.00  0.00    -0.021 A 
ATOM     13  C   UNL A   1      30.381  29.411  22.293  1.00  0.00     0.012 A 
ATOM     14  C   UNL A   1      28.737  27.856  23.147  1.00  0.00     0.058 A 
ATOM     15  C   UNL A   1      29.371  30.346  22.038  1.00  0.00     0.051 A 
ATOM     16  C   UNL A   1      27.741  28.787  22.889  1.00  0.00     0.157 A 
ATOM     17  C   UNL A   1      28.051  30.015  22.318  1.00  0.00     0.157 A 
BRANCH  16  18
ATOM     18  O   UNL A   1      26.444  28.471  23.176  1.00  0.00    -0.504 OA
ATOM     19  H   UNL A   1      25.902  29.084  23.632  1.00  0.00     0.293 HD
ENDBRANCH  16  18
BRANCH  17  20
ATOM     20  O   UNL A   1      27.017  30.861  22.029  1.00  0.00    -0.504 OA
ATOM     21  H   UNL A   1      27.168  31.627  21.512  1.00  0.00     0.293 HD
ENDBRANCH  17  20
ENDBRANCH  11  12
ENDBRANCH   8  10
ENDBRANCH   7   8
ENDBRANCH   6   7
ENDBRANCH   5   6
ENDBRANCH   4   5
ENDBRANCH   3   4
ENDBRANCH   2   3
ENDBRANCH   1   2
BRANCH   1  22
ATOM     22  C   UNL A   1      33.087  27.556  26.409  1.00  0.00     0.188 C 
BRANCH  22  23
ATOM     23  C   UNL A   1      32.303  28.849  26.095  1.00  0.00     0.188 C 
BRANCH  23  24
ATOM     24  O   UNL A   1      32.949  30.107  26.005  1.00  0.00    -0.376 OA
BRANCH  24  25
ATOM     25  C   UNL A   1      33.152  30.908  27.155  1.00  0.00     0.202 C 
BRANCH  25  26
ATOM     26  C   UNL A   1      32.366  32.211  27.401  1.00  0.00     0.261 C 
BRANCH  26  27
ATOM     27  O   UNL A   1      33.077  33.446  27.252  1.00  0.00    -0.460 OA
BRANCH  27  28
ATOM     28  C   UNL A   1      33.256  34.175  28.378  1.00  0.00     0.338 C 
ATOM     29  O   UNL A   1      32.508  35.019  28.843  1.00  0.00    -0.246 OA
BRANCH  28  30
ATOM     30  C   UNL A   1      34.433  33.636  29.100  1.00  0.00     0.060 A 
ATOM     31  C   UNL A   1      35.711  33.895  28.582  1.00  0.00     0.016 A 
ATOM     32  C   UNL A   1      34.287  32.926  30.295  1.00  0.00     0.016 A 
ATOM     33  C   UNL A   1      36.846  33.428  29.241  1.00  0.00     0.010 A 
ATOM     34  C   UNL A   1      35.424  32.423  30.934  1.00  0.00     0.010 A 
ATOM     35  C   UNL A   1      36.704  32.642  30.389  1.00  0.00    -0.014 A 
BRANCH  35  36
ATOM     36  C   UNL A   1      37.856  31.841  30.862  1.00  0.00     0.031 A 
ATOM     37  C   UNL A   1      38.450  32.195  32.198  1.00  0.00     0.074 A 
ATOM     38  C   UNL A   1      38.349  30.812  30.152  1.00  0.00     0.049 A 
ATOM     39  N   UNL A   1      39.492  31.695  32.807  1.00  0.00    -0.248 NA
ATOM     40  C   UNL A   1      37.771  33.267  32.947  1.00  0.00     0.031 C 
ATOM     41  C   UNL A   1      37.827  30.336  28.873  1.00  0.00     0.029 A 
ATOM     42  N   UNL A   1      39.415  29.987  30.412  1.00  0.00    -0.354 N 
ATOM     43  C   UNL A   1      39.602  32.398  34.000  1.00  0.00     0.074 A 
ATOM     44  C   UNL A   1      38.540  33.379  34.018  1.00  0.00     0.031 C 
ATOM     45  C   UNL A   1      38.589  29.312  28.448  1.00  0.00     0.029 A 
ATOM     46  C   UNL A   1      39.670  29.085  29.408  1.00  0.00     0.049 A 
ATOM     47  H   UNL A   1      39.946  30.037  31.239  1.00  0.00     0.167 HD
ATOM     48  C   UNL A   1      40.506  32.239  34.994  1.00  0.00     0.037 A 
ATOM     49  C   UNL A   1      40.678  28.201  29.272  1.00  0.00     0.037 A 
ATOM     50  C   UNL A   1      41.564  31.265  34.971  1.00  0.00     0.049 A 
ATOM     51  C   UNL A   1      41.722  28.096  30.356  1.00  0.00     0.074 A 
ATOM     52  C   UNL A   1      42.521  31.012  35.936  1.00  0.00     0.029 A 
ATOM     53  N   UNL A   1      41.808  30.392  33.922  1.00  0.00    -0.354 N 
ATOM     54  N   UNL A   1      41.808  28.750  31.490  1.00  0.00    -0.248 NA
ATOM     55  C   UNL A   1      42.808  27.128  30.141  1.00  0.00     0.031 C 
ATOM     56  C   UNL A   1      43.384  30.027  35.445  1.00  0.00     0.029 A 
ATOM     57  C   UNL A   1      42.922  29.618  34.203  1.00  0.00     0.049 A 
ATOM     58  H   UNL A   1      41.270  30.331  33.099  1.00  0.00     0.167 HD
ATOM     59  C   UNL A   1      42.935  28.251  32.135  1.00  0.00     0.074 A 
ATOM     60  C   UNL A   1      43.491  27.231  31.271  1.00  0.00     0.031 C 
ATOM     61  C   UNL A   1      43.460  28.601  33.336  1.00  0.00     0.037 A 
BRANCH  48  62
ATOM     62  C   UNL A   1      40.410  33.167  36.169  1.00  0.00     0.057 A 
ATOM     63  C   UNL A   1      41.176  34.336  36.260  1.00  0.00     0.134 A 
ATOM     64  C   UNL A   1      39.520  32.896  37.216  1.00  0.00     0.134 A 
ATOM     65  F   UNL A   1      42.063  34.646  35.301  1.00  0.00    -0.206 F 
ATOM     66  C   UNL A   1      41.078  35.190  37.360  1.00  0.00     0.040 A 
ATOM     67  C   UNL A   1      39.390  33.756  38.306  1.00  0.00     0.040 A 
ATOM     68  F   UNL A   1      38.757  31.793  37.193  1.00  0.00    -0.206 F 
ATOM     69  C   UNL A   1      40.176  34.904  38.384  1.00  0.00     0.006 A 
ENDBRANCH  48  62
BRANCH  49  70
ATOM     70  C   UNL A   1      40.771  27.357  28.053  1.00  0.00     0.057 A 
ATOM     71  C   UNL A   1      40.139  26.110  27.980  1.00  0.00     0.134 A 
ATOM     72  C   UNL A   1      41.518  27.763  26.940  1.00  0.00     0.134 A 
ATOM     73  F   UNL A   1      39.430  25.651  29.022  1.00  0.00    -0.206 F 
ATOM     74  C   UNL A   1      40.261  25.291  26.855  1.00  0.00     0.040 A 
ATOM     75  C   UNL A   1      41.625  26.968  25.798  1.00  0.00     0.040 A 
ATOM     76  F   UNL A   1      42.150  28.947  26.944  1.00  0.00    -0.206 F 
ATOM     77  C   UNL A   1      41.002  25.723  25.757  1.00  0.00     0.006 A 
ENDBRANCH  49  70
BRANCH  61  78
ATOM     78  C   UNL A   1      44.671  27.849  33.812  1.00  0.00     0.057 A 
ATOM     79  C   UNL A   1      44.570  26.651  34.530  1.00  0.00     0.134 A 
ATOM     80  C   UNL A   1      45.958  28.308  33.501  1.00  0.00     0.134 A 
ATOM     81  F   UNL A   1      43.368  26.161  34.869  1.00  0.00    -0.206 F 
ATOM     82  C   UNL A   1      45.704  25.951  34.944  1.00  0.00     0.040 A 
ATOM     83  C   UNL A   1      47.099  27.601  33.882  1.00  0.00     0.040 A 
ATOM     84  F   UNL A   1      46.129  29.442  32.804  1.00  0.00    -0.206 F 
ATOM     85  C   UNL A   1      46.973  26.422  34.613  1.00  0.00     0.006 A 
ENDBRANCH  61  78
ENDBRANCH  35  36
ENDBRANCH  28  30
ENDBRANCH  27  28
ENDBRANCH  26  27
ENDBRANCH  25  26
ENDBRANCH  24  25
ENDBRANCH  23  24
ENDBRANCH  22  23
ENDBRANCH   1  22
TORSDOF 23
ENDMDL
