MODEL 1
REMARK VINA RESULT:     -11.2      0.000      0.000
REMARK SMILES Cc1ccccc1OC1(C(=O)OCCOCCOCCOCCOC(=O)c2ccc(-c3c4nc(c(-c5c(F)cccc5F)c5ccc([nH]5)c(-c5c(F)cccc5F)c5nc(c(-c6c(F)cccc6F)c6ccc3[nH]6)C=C5)C=C4)cc2)CCN(C(=O)[C@H]2CCCCO2)CC1
REMARK SMILES IDX 18 1 17 2 16 3 15 4 14 5 13 6 12 7 10 8 11 9 9 10 81 11
REMARK SMILES IDX 93 12 82 13 92 14 83 15 84 16 85 17 8 18 7 19 1 20 2 21 3 22
REMARK SMILES IDX 4 23 6 24 5 25 86 26 87 27 91 28 88 29 90 30 89 31 19 32
REMARK SMILES IDX 20 33 21 34 22 35 23 36 24 37 25 38 26 39 27 40 28 41 80 42
REMARK SMILES IDX 29 43 79 44 30 45 31 46 32 47 73 48 33 49 78 50 72 51 74 52
REMARK SMILES IDX 34 53 77 54 71 55 70 56 35 58 61 59 44 60 60 61 45 62 48 63
REMARK SMILES IDX 59 64 75 65 46 66 47 67 58 69 76 70 49 71 36 72 37 73 42 74
REMARK SMILES IDX 38 75 39 76 41 77 43 78 40 79 62 80 63 81 68 82 64 83 65 84
REMARK SMILES IDX 67 85 69 86 66 87 50 88 51 89 56 90 52 91 53 92 55 93 57 94
REMARK SMILES IDX 54 95
REMARK H PARENT 74 57 48 68
REMARK Flexibility Score: inf
ROOT
ATOM      1  O   UNL A   1      34.349  32.274  27.707  1.00  0.00    -0.377 OA
ENDROOT
BRANCH   1   2
ATOM      2  C   UNL A   1      33.614  31.055  27.785  1.00  0.00     0.188 C 
BRANCH   2   3
ATOM      3  C   UNL A   1      33.833  30.110  26.594  1.00  0.00     0.188 C 
BRANCH   3   4
ATOM      4  O   UNL A   1      33.689  28.716  26.849  1.00  0.00    -0.376 OA
BRANCH   4   5
ATOM      5  C   UNL A   1      32.451  28.325  27.440  1.00  0.00     0.202 C 
BRANCH   5   6
ATOM      6  C   UNL A   1      31.517  27.551  26.511  1.00  0.00     0.261 C 
BRANCH   6   7
ATOM      7  O   UNL A   1      31.562  26.165  26.860  1.00  0.00    -0.460 OA
BRANCH   7   8
ATOM      8  C   UNL A   1      30.704  25.315  26.241  1.00  0.00     0.350 C 
ATOM      9  O   UNL A   1      29.518  25.518  26.125  1.00  0.00    -0.247 OA
BRANCH   8  10
ATOM     10  C   UNL A   1      31.500  24.095  25.684  1.00  0.00     0.209 C 
ATOM     11  C   UNL A   1      32.972  24.148  26.123  1.00  0.00     0.082 C 
ATOM     12  C   UNL A   1      30.885  22.835  26.315  1.00  0.00     0.082 C 
ATOM     13  C   UNL A   1      33.717  22.855  26.418  1.00  0.00     0.124 C 
ATOM     14  C   UNL A   1      31.630  21.564  25.907  1.00  0.00     0.124 C 
ATOM     15  N   UNL A   1      33.090  21.638  25.949  1.00  0.00    -0.340 N 
ATOM     16  C   UNL A   1      33.956  20.587  25.613  1.00  0.00     0.251 C 
ATOM     17  O   UNL A   1      35.173  20.676  25.810  1.00  0.00    -0.272 OA
BRANCH  10  18
ATOM     18  O   UNL A   1      31.329  23.923  24.270  1.00  0.00    -0.475 OA
BRANCH  18  19
ATOM     19  C   UNL A   1      31.919  24.737  23.336  1.00  0.00     0.123 A 
ATOM     20  C   UNL A   1      33.368  22.784  22.606  1.00  0.00     0.048 C 
ATOM     21  C   UNL A   1      32.718  24.105  22.370  1.00  0.00    -0.009 A 
ATOM     22  C   UNL A   1      32.905  24.696  21.114  1.00  0.00     0.007 A 
ATOM     23  C   UNL A   1      32.365  25.943  20.835  1.00  0.00     0.001 A 
ATOM     24  C   UNL A   1      31.457  26.029  23.079  1.00  0.00     0.047 A 
ATOM     25  C   UNL A   1      31.690  26.633  21.836  1.00  0.00     0.004 A 
ENDBRANCH  18  19
ENDBRANCH  10  18
BRANCH  16  26
ATOM     26  C   UNL A   1      33.354  19.345  24.913  1.00  0.00     0.207 C 
ATOM     27  C   UNL A   1      34.478  18.597  24.189  1.00  0.00     0.042 C 
ATOM     28  O   UNL A   1      32.753  18.470  25.876  1.00  0.00    -0.368 OA
ATOM     29  C   UNL A   1      33.986  17.304  23.560  1.00  0.00     0.006 C 
ATOM     30  C   UNL A   1      32.191  17.300  25.291  1.00  0.00     0.161 C 
ATOM     31  C   UNL A   1      33.259  16.467  24.597  1.00  0.00     0.029 C 
ENDBRANCH  16  26
ENDBRANCH   8  10
ENDBRANCH   7   8
ENDBRANCH   6   7
ENDBRANCH   5   6
ENDBRANCH   4   5
ENDBRANCH   3   4
ENDBRANCH   2   3
ENDBRANCH   1   2
BRANCH   1  32
ATOM     32  C   UNL A   1      33.577  33.407  28.081  1.00  0.00     0.188 C 
BRANCH  32  33
ATOM     33  C   UNL A   1      34.307  34.698  27.748  1.00  0.00     0.188 C 
BRANCH  33  34
ATOM     34  O   UNL A   1      34.181  35.758  28.687  1.00  0.00    -0.376 OA
BRANCH  34  35
ATOM     35  C   UNL A   1      32.906  36.104  29.215  1.00  0.00     0.202 C 
BRANCH  35  36
ATOM     36  C   UNL A   1      32.731  35.903  30.724  1.00  0.00     0.261 C 
BRANCH  36  37
ATOM     37  O   UNL A   1      33.926  36.340  31.402  1.00  0.00    -0.460 OA
BRANCH  37  38
ATOM     38  C   UNL A   1      34.327  35.563  32.444  1.00  0.00     0.338 C 
ATOM     39  O   UNL A   1      34.544  35.964  33.578  1.00  0.00    -0.246 OA
BRANCH  38  40
ATOM     40  C   UNL A   1      34.799  34.235  31.937  1.00  0.00     0.060 A 
ATOM     41  C   UNL A   1      34.622  33.095  32.740  1.00  0.00     0.016 A 
ATOM     42  C   UNL A   1      35.744  34.209  30.917  1.00  0.00     0.016 A 
ATOM     43  C   UNL A   1      35.534  32.027  32.663  1.00  0.00     0.010 A 
ATOM     44  C   UNL A   1      36.699  33.206  30.928  1.00  0.00     0.010 A 
ATOM     45  C   UNL A   1      36.653  32.134  31.837  1.00  0.00    -0.014 A 
BRANCH  45  46
ATOM     46  C   UNL A   1      37.915  31.368  32.001  1.00  0.00     0.031 A 
ATOM     47  C   UNL A   1      38.134  30.113  31.190  1.00  0.00     0.074 A 
ATOM     48  C   UNL A   1      38.978  31.982  32.594  1.00  0.00     0.049 A 
ATOM     49  N   UNL A   1      39.222  29.418  31.167  1.00  0.00    -0.248 NA
ATOM     50  C   UNL A   1      37.120  29.528  30.308  1.00  0.00     0.031 C 
ATOM     51  C   UNL A   1      40.395  31.739  32.318  1.00  0.00     0.029 A 
ATOM     52  N   UNL A   1      39.034  32.999  33.554  1.00  0.00    -0.354 N 
ATOM     53  C   UNL A   1      39.185  28.560  30.078  1.00  0.00     0.074 A 
ATOM     54  C   UNL A   1      37.819  28.606  29.634  1.00  0.00     0.031 C 
ATOM     55  C   UNL A   1      41.172  32.519  33.081  1.00  0.00     0.029 A 
ATOM     56  C   UNL A   1      40.326  33.028  34.119  1.00  0.00     0.049 A 
ATOM     57  H   UNL A   1      38.291  33.599  33.794  1.00  0.00     0.167 HD
ATOM     58  C   UNL A   1      40.351  28.018  29.607  1.00  0.00     0.037 A 
ATOM     59  C   UNL A   1      40.544  32.673  35.423  1.00  0.00     0.037 A 
ATOM     60  C   UNL A   1      41.472  28.279  30.524  1.00  0.00     0.049 A 
ATOM     61  C   UNL A   1      41.268  31.333  35.554  1.00  0.00     0.074 A 
ATOM     62  C   UNL A   1      42.738  28.823  30.393  1.00  0.00     0.029 A 
ATOM     63  N   UNL A   1      41.282  28.083  31.892  1.00  0.00    -0.354 N 
ATOM     64  N   UNL A   1      41.286  30.439  34.589  1.00  0.00    -0.248 NA
ATOM     65  C   UNL A   1      42.120  30.924  36.671  1.00  0.00     0.031 C 
ATOM     66  C   UNL A   1      43.243  29.073  31.703  1.00  0.00     0.029 A 
ATOM     67  C   UNL A   1      42.321  28.603  32.627  1.00  0.00     0.049 A 
ATOM     68  H   UNL A   1      40.501  27.628  32.282  1.00  0.00     0.167 HD
ATOM     69  C   UNL A   1      42.127  29.412  34.901  1.00  0.00     0.074 A 
ATOM     70  C   UNL A   1      42.608  29.747  36.227  1.00  0.00     0.031 C 
ATOM     71  C   UNL A   1      42.384  28.363  34.062  1.00  0.00     0.037 A 
BRANCH  58  72
ATOM     72  C   UNL A   1      40.570  27.392  28.228  1.00  0.00     0.057 A 
ATOM     73  C   UNL A   1      40.143  26.068  27.967  1.00  0.00     0.134 A 
ATOM     74  C   UNL A   1      41.296  27.969  27.166  1.00  0.00     0.134 A 
ATOM     75  F   UNL A   1      39.422  25.381  28.864  1.00  0.00    -0.206 F 
ATOM     76  C   UNL A   1      40.438  25.376  26.779  1.00  0.00     0.040 A 
ATOM     77  C   UNL A   1      41.548  27.306  25.948  1.00  0.00     0.040 A 
ATOM     78  F   UNL A   1      41.850  29.183  27.263  1.00  0.00    -0.206 F 
ATOM     79  C   UNL A   1      41.136  25.998  25.757  1.00  0.00     0.006 A 
ENDBRANCH  58  72
BRANCH  59  80
ATOM     80  C   UNL A   1      39.611  33.419  36.324  1.00  0.00     0.057 A 
ATOM     81  C   UNL A   1      38.672  32.574  36.956  1.00  0.00     0.134 A 
ATOM     82  C   UNL A   1      40.118  34.472  37.098  1.00  0.00     0.134 A 
ATOM     83  F   UNL A   1      38.088  31.587  36.257  1.00  0.00    -0.206 F 
ATOM     84  C   UNL A   1      38.526  32.553  38.348  1.00  0.00     0.040 A 
ATOM     85  C   UNL A   1      39.942  34.485  38.492  1.00  0.00     0.040 A 
ATOM     86  F   UNL A   1      40.974  35.355  36.565  1.00  0.00    -0.206 F 
ATOM     87  C   UNL A   1      39.219  33.473  39.126  1.00  0.00     0.006 A 
ENDBRANCH  59  80
BRANCH  71  88
ATOM     88  C   UNL A   1      42.723  26.962  34.523  1.00  0.00     0.057 A 
ATOM     89  C   UNL A   1      44.029  26.548  34.815  1.00  0.00     0.134 A 
ATOM     90  C   UNL A   1      41.709  26.058  34.926  1.00  0.00     0.134 A 
ATOM     91  F   UNL A   1      45.086  27.344  34.602  1.00  0.00    -0.206 F 
ATOM     92  C   UNL A   1      44.313  25.314  35.411  1.00  0.00     0.040 A 
ATOM     93  C   UNL A   1      41.978  24.851  35.576  1.00  0.00     0.040 A 
ATOM     94  F   UNL A   1      40.405  26.321  34.755  1.00  0.00    -0.206 F 
ATOM     95  C   UNL A   1      43.287  24.468  35.808  1.00  0.00     0.006 A 
ENDBRANCH  71  88
ENDBRANCH  45  46
ENDBRANCH  38  40
ENDBRANCH  37  38
ENDBRANCH  36  37
ENDBRANCH  35  36
ENDBRANCH  34  35
ENDBRANCH  33  34
ENDBRANCH  32  33
ENDBRANCH   1  32
TORSDOF 23
ENDMDL
MODEL 2
REMARK VINA RESULT:     -10.2      4.283     10.678
REMARK SMILES Cc1ccccc1OC1(C(=O)OCCOCCOCCOCCOC(=O)c2ccc(-c3c4nc(c(-c5c(F)cccc5F)c5ccc([nH]5)c(-c5c(F)cccc5F)c5nc(c(-c6c(F)cccc6F)c6ccc3[nH]6)C=C5)C=C4)cc2)CCN(C(=O)[C@H]2CCCCO2)CC1
REMARK SMILES IDX 18 1 17 2 16 3 15 4 14 5 13 6 12 7 10 8 11 9 9 10 81 11
REMARK SMILES IDX 93 12 82 13 92 14 83 15 84 16 85 17 8 18 7 19 1 20 2 21 3 22
REMARK SMILES IDX 4 23 6 24 5 25 86 26 87 27 91 28 88 29 90 30 89 31 19 32
REMARK SMILES IDX 20 33 21 34 22 35 23 36 24 37 25 38 26 39 27 40 28 41 80 42
REMARK SMILES IDX 29 43 79 44 30 45 31 46 32 47 73 48 33 49 78 50 72 51 74 52
REMARK SMILES IDX 34 53 77 54 71 55 70 56 35 58 61 59 44 60 60 61 45 62 48 63
REMARK SMILES IDX 59 64 75 65 46 66 47 67 58 69 76 70 49 71 36 72 37 73 42 74
REMARK SMILES IDX 38 75 39 76 41 77 43 78 40 79 62 80 63 81 68 82 64 83 65 84
REMARK SMILES IDX 67 85 69 86 66 87 50 88 51 89 56 90 52 91 53 92 55 93 57 94
REMARK SMILES IDX 54 95
REMARK H PARENT 74 57 48 68
REMARK Flexibility Score: inf
ROOT
ATOM      1  O   UNL A   1      36.682  20.705  25.317  1.00  0.00    -0.377 OA
ENDROOT
BRANCH   1   2
ATOM      2  C   UNL A   1      36.476  22.047  25.748  1.00  0.00     0.188 C 
BRANCH   2   3
ATOM      3  C   UNL A   1      35.107  22.299  26.395  1.00  0.00     0.188 C 
BRANCH   3   4
ATOM      4  O   UNL A   1      34.027  21.487  25.943  1.00  0.00    -0.376 OA
BRANCH   4   5
ATOM      5  C   UNL A   1      33.105  22.128  25.062  1.00  0.00     0.202 C 
BRANCH   5   6
ATOM      6  C   UNL A   1      31.647  22.064  25.511  1.00  0.00     0.261 C 
BRANCH   6   7
ATOM      7  O   UNL A   1      31.194  23.390  25.800  1.00  0.00    -0.460 OA
BRANCH   7   8
ATOM      8  C   UNL A   1      30.956  24.232  24.762  1.00  0.00     0.350 C 
ATOM      9  O   UNL A   1      30.299  23.937  23.791  1.00  0.00    -0.247 OA
BRANCH   8  10
ATOM     10  C   UNL A   1      31.620  25.612  25.056  1.00  0.00     0.209 C 
ATOM     11  C   UNL A   1      30.883  26.747  24.327  1.00  0.00     0.082 C 
ATOM     12  C   UNL A   1      31.463  25.869  26.565  1.00  0.00     0.082 C 
ATOM     13  C   UNL A   1      30.770  28.115  24.981  1.00  0.00     0.124 C 
ATOM     14  C   UNL A   1      32.009  27.237  26.975  1.00  0.00     0.124 C 
ATOM     15  N   UNL A   1      31.646  28.356  26.107  1.00  0.00    -0.340 N 
ATOM     16  C   UNL A   1      32.044  29.687  26.305  1.00  0.00     0.251 C 
ATOM     17  O   UNL A   1      31.581  30.600  25.614  1.00  0.00    -0.272 OA
BRANCH  10  18
ATOM     18  O   UNL A   1      33.035  25.605  24.826  1.00  0.00    -0.475 OA
BRANCH  18  19
ATOM     19  C   UNL A   1      33.641  26.342  23.838  1.00  0.00     0.123 A 
ATOM     20  C   UNL A   1      33.181  24.455  22.203  1.00  0.00     0.048 C 
ATOM     21  C   UNL A   1      33.474  25.881  22.523  1.00  0.00    -0.009 A 
ATOM     22  C   UNL A   1      33.548  26.777  21.448  1.00  0.00     0.007 A 
ATOM     23  C   UNL A   1      33.857  28.112  21.665  1.00  0.00     0.001 A 
ATOM     24  C   UNL A   1      34.040  27.664  24.039  1.00  0.00     0.047 A 
ATOM     25  C   UNL A   1      34.158  28.542  22.953  1.00  0.00     0.004 A 
ENDBRANCH  18  19
ENDBRANCH  10  18
BRANCH  16  26
ATOM     26  C   UNL A   1      33.140  29.967  27.361  1.00  0.00     0.207 C 
ATOM     27  C   UNL A   1      34.442  29.299  26.906  1.00  0.00     0.042 C 
ATOM     28  O   UNL A   1      33.359  31.377  27.493  1.00  0.00    -0.368 OA
ATOM     29  C   UNL A   1      35.598  29.615  27.839  1.00  0.00     0.006 C 
ATOM     30  C   UNL A   1      34.369  31.698  28.445  1.00  0.00     0.161 C 
ATOM     31  C   UNL A   1      35.714  31.116  28.034  1.00  0.00     0.029 C 
ENDBRANCH  16  26
ENDBRANCH   8  10
ENDBRANCH   7   8
ENDBRANCH   6   7
ENDBRANCH   5   6
ENDBRANCH   4   5
ENDBRANCH   3   4
ENDBRANCH   2   3
ENDBRANCH   1   2
BRANCH   1  32
ATOM     32  C   UNL A   1      37.996  20.479  24.824  1.00  0.00     0.188 C 
BRANCH  32  33
ATOM     33  C   UNL A   1      38.661  19.323  25.555  1.00  0.00     0.188 C 
BRANCH  33  34
ATOM     34  O   UNL A   1      40.053  19.147  25.328  1.00  0.00    -0.376 OA
BRANCH  34  35
ATOM     35  C   UNL A   1      40.974  19.224  26.410  1.00  0.00     0.202 C 
BRANCH  35  36
ATOM     36  C   UNL A   1      42.442  18.966  26.056  1.00  0.00     0.261 C 
BRANCH  36  37
ATOM     37  O   UNL A   1      43.246  20.057  26.546  1.00  0.00    -0.460 OA
BRANCH  37  38
ATOM     38  C   UNL A   1      43.703  20.922  25.600  1.00  0.00     0.338 C 
ATOM     39  O   UNL A   1      44.749  20.801  24.982  1.00  0.00    -0.246 OA
BRANCH  38  40
ATOM     40  C   UNL A   1      42.931  22.204  25.668  1.00  0.00     0.060 A 
ATOM     41  C   UNL A   1      43.199  23.213  24.728  1.00  0.00     0.016 A 
ATOM     42  C   UNL A   1      42.295  22.536  26.860  1.00  0.00     0.016 A 
ATOM     43  C   UNL A   1      43.032  24.567  25.075  1.00  0.00     0.010 A 
ATOM     44  C   UNL A   1      42.242  23.869  27.231  1.00  0.00     0.010 A 
ATOM     45  C   UNL A   1      42.666  24.904  26.378  1.00  0.00    -0.014 A 
BRANCH  45  46
ATOM     46  C   UNL A   1      42.922  26.216  27.027  1.00  0.00     0.031 A 
ATOM     47  C   UNL A   1      41.759  27.115  27.369  1.00  0.00     0.074 A 
ATOM     48  C   UNL A   1      44.134  26.427  27.614  1.00  0.00     0.049 A 
ATOM     49  N   UNL A   1      41.839  28.227  28.021  1.00  0.00    -0.248 NA
ATOM     50  C   UNL A   1      40.370  26.823  27.002  1.00  0.00     0.031 C 
ATOM     51  C   UNL A   1      44.406  27.267  28.782  1.00  0.00     0.029 A 
ATOM     52  N   UNL A   1      45.399  25.902  27.326  1.00  0.00    -0.354 N 
ATOM     53  C   UNL A   1      40.571  28.594  28.443  1.00  0.00     0.074 A 
ATOM     54  C   UNL A   1      39.686  27.736  27.704  1.00  0.00     0.031 C 
ATOM     55  C   UNL A   1      45.709  27.246  29.094  1.00  0.00     0.029 A 
ATOM     56  C   UNL A   1      46.381  26.698  27.954  1.00  0.00     0.049 A 
ATOM     57  H   UNL A   1      45.575  25.105  26.775  1.00  0.00     0.167 HD
ATOM     58  C   UNL A   1      40.435  29.494  29.466  1.00  0.00     0.037 A 
ATOM     59  C   UNL A   1      47.248  27.468  27.227  1.00  0.00     0.037 A 
ATOM     60  C   UNL A   1      41.725  30.115  29.809  1.00  0.00     0.049 A 
ATOM     61  C   UNL A   1      46.949  28.963  27.348  1.00  0.00     0.074 A 
ATOM     62  C   UNL A   1      42.454  30.280  30.974  1.00  0.00     0.029 A 
ATOM     63  N   UNL A   1      42.549  30.566  28.779  1.00  0.00    -0.354 N 
ATOM     64  N   UNL A   1      45.776  29.423  27.726  1.00  0.00    -0.248 NA
ATOM     65  C   UNL A   1      47.920  30.046  27.197  1.00  0.00     0.031 C 
ATOM     66  C   UNL A   1      43.765  30.707  30.613  1.00  0.00     0.029 A 
ATOM     67  C   UNL A   1      43.807  30.882  29.237  1.00  0.00     0.049 A 
ATOM     68  H   UNL A   1      42.266  30.650  27.839  1.00  0.00     0.167 HD
ATOM     69  C   UNL A   1      45.824  30.774  27.904  1.00  0.00     0.074 A 
ATOM     70  C   UNL A   1      47.182  31.125  27.536  1.00  0.00     0.031 C 
ATOM     71  C   UNL A   1      44.765  31.518  28.343  1.00  0.00     0.037 A 
BRANCH  58  72
ATOM     72  C   UNL A   1      39.183  29.722  30.316  1.00  0.00     0.057 A 
ATOM     73  C   UNL A   1      38.574  30.998  30.366  1.00  0.00     0.134 A 
ATOM     74  C   UNL A   1      38.605  28.787  31.200  1.00  0.00     0.134 A 
ATOM     75  F   UNL A   1      38.988  31.997  29.574  1.00  0.00    -0.206 F 
ATOM     76  C   UNL A   1      37.515  31.320  31.233  1.00  0.00     0.040 A 
ATOM     77  C   UNL A   1      37.506  29.082  32.031  1.00  0.00     0.040 A 
ATOM     78  F   UNL A   1      39.102  27.554  31.352  1.00  0.00    -0.206 F 
ATOM     79  C   UNL A   1      36.968  30.358  32.065  1.00  0.00     0.006 A 
ENDBRANCH  58  72
BRANCH  59  80
ATOM     80  C   UNL A   1      47.907  26.644  26.166  1.00  0.00     0.057 A 
ATOM     81  C   UNL A   1      47.549  27.050  24.861  1.00  0.00     0.134 A 
ATOM     82  C   UNL A   1      49.238  26.246  26.350  1.00  0.00     0.134 A 
ATOM     83  F   UNL A   1      46.275  27.376  24.591  1.00  0.00    -0.206 F 
ATOM     84  C   UNL A   1      48.518  27.384  23.907  1.00  0.00     0.040 A 
ATOM     85  C   UNL A   1      50.213  26.538  25.381  1.00  0.00     0.040 A 
ATOM     86  F   UNL A   1      49.653  25.796  27.542  1.00  0.00    -0.206 F 
ATOM     87  C   UNL A   1      49.864  27.189  24.197  1.00  0.00     0.006 A 
ENDBRANCH  59  80
BRANCH  71  88
ATOM     88  C   UNL A   1      44.513  32.960  27.959  1.00  0.00     0.057 A 
ATOM     89  C   UNL A   1      44.856  34.042  28.781  1.00  0.00     0.134 A 
ATOM     90  C   UNL A   1      44.142  33.311  26.637  1.00  0.00     0.134 A 
ATOM     91  F   UNL A   1      45.340  33.863  30.017  1.00  0.00    -0.206 F 
ATOM     92  C   UNL A   1      44.789  35.370  28.344  1.00  0.00     0.040 A 
ATOM     93  C   UNL A   1      44.129  34.629  26.174  1.00  0.00     0.040 A 
ATOM     94  F   UNL A   1      43.822  32.393  25.714  1.00  0.00    -0.206 F 
ATOM     95  C   UNL A   1      44.439  35.668  27.035  1.00  0.00     0.006 A 
ENDBRANCH  71  88
ENDBRANCH  45  46
ENDBRANCH  38  40
ENDBRANCH  37  38
ENDBRANCH  36  37
ENDBRANCH  35  36
ENDBRANCH  34  35
ENDBRANCH  33  34
ENDBRANCH  32  33
ENDBRANCH   1  32
TORSDOF 23
ENDMDL
MODEL 3
REMARK VINA RESULT:     -10.1      4.283     10.691
REMARK SMILES Cc1ccccc1OC1(C(=O)OCCOCCOCCOCCOC(=O)c2ccc(-c3c4nc(c(-c5c(F)cccc5F)c5ccc([nH]5)c(-c5c(F)cccc5F)c5nc(c(-c6c(F)cccc6F)c6ccc3[nH]6)C=C5)C=C4)cc2)CCN(C(=O)[C@H]2CCCCO2)CC1
REMARK SMILES IDX 18 1 17 2 16 3 15 4 14 5 13 6 12 7 10 8 11 9 9 10 81 11
REMARK SMILES IDX 93 12 82 13 92 14 83 15 84 16 85 17 8 18 7 19 1 20 2 21 3 22
REMARK SMILES IDX 4 23 6 24 5 25 86 26 87 27 91 28 88 29 90 30 89 31 19 32
REMARK SMILES IDX 20 33 21 34 22 35 23 36 24 37 25 38 26 39 27 40 28 41 80 42
REMARK SMILES IDX 29 43 79 44 30 45 31 46 32 47 73 48 33 49 78 50 72 51 74 52
REMARK SMILES IDX 34 53 77 54 71 55 70 56 35 58 61 59 44 60 60 61 45 62 48 63
REMARK SMILES IDX 59 64 75 65 46 66 47 67 58 69 76 70 49 71 36 72 37 73 42 74
REMARK SMILES IDX 38 75 39 76 41 77 43 78 40 79 62 80 63 81 68 82 64 83 65 84
REMARK SMILES IDX 67 85 69 86 66 87 50 88 51 89 56 90 52 91 53 92 55 93 57 94
REMARK SMILES IDX 54 95
REMARK H PARENT 74 57 48 68
REMARK Flexibility Score: inf
ROOT
ATOM      1  O   UNL A   1      36.248  20.813  25.026  1.00  0.00    -0.377 OA
ENDROOT
BRANCH   1   2
ATOM      2  C   UNL A   1      35.854  22.068  25.576  1.00  0.00     0.188 C 
BRANCH   2   3
ATOM      3  C   UNL A   1      34.334  22.268  25.662  1.00  0.00     0.188 C 
BRANCH   3   4
ATOM      4  O   UNL A   1      33.572  21.878  24.524  1.00  0.00    -0.376 OA
BRANCH   4   5
ATOM      5  C   UNL A   1      33.550  22.816  23.449  1.00  0.00     0.202 C 
BRANCH   5   6
ATOM      6  C   UNL A   1      32.192  22.972  22.768  1.00  0.00     0.261 C 
BRANCH   6   7
ATOM      7  O   UNL A   1      31.560  24.155  23.264  1.00  0.00    -0.460 OA
BRANCH   7   8
ATOM      8  C   UNL A   1      31.788  25.328  22.619  1.00  0.00     0.350 C 
ATOM      9  O   UNL A   1      31.752  25.455  21.417  1.00  0.00    -0.247 OA
BRANCH   8  10
ATOM     10  C   UNL A   1      32.048  26.451  23.669  1.00  0.00     0.209 C 
ATOM     11  C   UNL A   1      31.409  26.102  25.023  1.00  0.00     0.082 C 
ATOM     12  C   UNL A   1      33.569  26.511  23.890  1.00  0.00     0.082 C 
ATOM     13  C   UNL A   1      32.097  26.523  26.312  1.00  0.00     0.124 C 
ATOM     14  C   UNL A   1      33.955  27.529  24.963  1.00  0.00     0.124 C 
ATOM     15  N   UNL A   1      33.145  27.513  26.180  1.00  0.00    -0.340 N 
ATOM     16  C   UNL A   1      33.332  28.363  27.280  1.00  0.00     0.251 C 
ATOM     17  O   UNL A   1      32.702  28.195  28.329  1.00  0.00    -0.272 OA
BRANCH  10  18
ATOM     18  O   UNL A   1      31.692  27.753  23.185  1.00  0.00    -0.475 OA
BRANCH  18  19
ATOM     19  C   UNL A   1      30.469  28.333  23.414  1.00  0.00     0.123 A 
ATOM     20  C   UNL A   1      31.625  30.151  24.756  1.00  0.00     0.048 C 
ATOM     21  C   UNL A   1      30.481  29.627  23.956  1.00  0.00    -0.009 A 
ATOM     22  C   UNL A   1      29.408  30.498  23.727  1.00  0.00     0.007 A 
ATOM     23  C   UNL A   1      28.291  30.068  23.026  1.00  0.00     0.001 A 
ATOM     24  C   UNL A   1      29.305  27.880  22.789  1.00  0.00     0.047 A 
ATOM     25  C   UNL A   1      28.216  28.743  22.607  1.00  0.00     0.004 A 
ENDBRANCH  18  19
ENDBRANCH  10  18
BRANCH  16  26
ATOM     26  C   UNL A   1      34.291  29.566  27.112  1.00  0.00     0.207 C 
ATOM     27  C   UNL A   1      33.633  30.806  27.726  1.00  0.00     0.042 C 
ATOM     28  O   UNL A   1      35.532  29.314  27.782  1.00  0.00    -0.368 OA
ATOM     29  C   UNL A   1      34.557  32.012  27.695  1.00  0.00     0.006 C 
ATOM     30  C   UNL A   1      36.454  30.394  27.674  1.00  0.00     0.161 C 
ATOM     31  C   UNL A   1      35.896  31.657  28.315  1.00  0.00     0.029 C 
ENDBRANCH  16  26
ENDBRANCH   8  10
ENDBRANCH   7   8
ENDBRANCH   6   7
ENDBRANCH   5   6
ENDBRANCH   4   5
ENDBRANCH   3   4
ENDBRANCH   2   3
ENDBRANCH   1   2
BRANCH   1  32
ATOM     32  C   UNL A   1      37.643  20.742  24.759  1.00  0.00     0.188 C 
BRANCH  32  33
ATOM     33  C   UNL A   1      38.235  19.449  25.295  1.00  0.00     0.188 C 
BRANCH  33  34
ATOM     34  O   UNL A   1      39.649  19.323  25.223  1.00  0.00    -0.376 OA
BRANCH  34  35
ATOM     35  C   UNL A   1      40.437  19.374  26.407  1.00  0.00     0.202 C 
BRANCH  35  36
ATOM     36  C   UNL A   1      41.927  19.064  26.230  1.00  0.00     0.261 C 
BRANCH  36  37
ATOM     37  O   UNL A   1      42.705  20.165  26.742  1.00  0.00    -0.460 OA
BRANCH  37  38
ATOM     38  C   UNL A   1      43.201  21.019  25.806  1.00  0.00     0.338 C 
ATOM     39  O   UNL A   1      44.238  20.853  25.181  1.00  0.00    -0.246 OA
BRANCH  38  40
ATOM     40  C   UNL A   1      42.498  22.338  25.897  1.00  0.00     0.060 A 
ATOM     41  C   UNL A   1      42.761  23.321  24.928  1.00  0.00     0.016 A 
ATOM     42  C   UNL A   1      41.946  22.716  27.117  1.00  0.00     0.016 A 
ATOM     43  C   UNL A   1      42.679  24.685  25.262  1.00  0.00     0.010 A 
ATOM     44  C   UNL A   1      41.978  24.056  27.470  1.00  0.00     0.010 A 
ATOM     45  C   UNL A   1      42.403  25.057  26.578  1.00  0.00    -0.014 A 
BRANCH  45  46
ATOM     46  C   UNL A   1      42.759  26.363  27.192  1.00  0.00     0.031 A 
ATOM     47  C   UNL A   1      41.661  27.324  27.580  1.00  0.00     0.074 A 
ATOM     48  C   UNL A   1      44.009  26.520  27.711  1.00  0.00     0.049 A 
ATOM     49  N   UNL A   1      41.831  28.440  28.208  1.00  0.00    -0.248 NA
ATOM     50  C   UNL A   1      40.242  27.098  27.291  1.00  0.00     0.031 C 
ATOM     51  C   UNL A   1      44.384  27.362  28.849  1.00  0.00     0.029 A 
ATOM     52  N   UNL A   1      45.229  25.929  27.366  1.00  0.00    -0.354 N 
ATOM     53  C   UNL A   1      40.607  28.876  28.690  1.00  0.00     0.074 A 
ATOM     54  C   UNL A   1      39.643  28.054  28.013  1.00  0.00     0.031 C 
ATOM     55  C   UNL A   1      45.699  27.279  29.092  1.00  0.00     0.029 A 
ATOM     56  C   UNL A   1      46.281  26.682  27.928  1.00  0.00     0.049 A 
ATOM     57  H   UNL A   1      45.336  25.116  26.819  1.00  0.00     0.167 HD
ATOM     58  C   UNL A   1      40.571  29.796  29.704  1.00  0.00     0.037 A 
ATOM     59  C   UNL A   1      47.146  27.398  27.144  1.00  0.00     0.037 A 
ATOM     60  C   UNL A   1      41.907  30.355  29.968  1.00  0.00     0.049 A 
ATOM     61  C   UNL A   1      46.929  28.907  27.257  1.00  0.00     0.074 A 
ATOM     62  C   UNL A   1      42.704  30.499  31.092  1.00  0.00     0.029 A 
ATOM     63  N   UNL A   1      42.696  30.750  28.889  1.00  0.00    -0.354 N 
ATOM     64  N   UNL A   1      45.801  29.431  27.688  1.00  0.00    -0.248 NA
ATOM     65  C   UNL A   1      47.942  29.938  27.037  1.00  0.00     0.031 C 
ATOM     66  C   UNL A   1      44.013  30.855  30.655  1.00  0.00     0.029 A 
ATOM     67  C   UNL A   1      43.990  31.008  29.276  1.00  0.00     0.049 A 
ATOM     68  H   UNL A   1      42.368  30.835  27.965  1.00  0.00     0.167 HD
ATOM     69  C   UNL A   1      45.926  30.780  27.841  1.00  0.00     0.074 A 
ATOM     70  C   UNL A   1      47.279  31.056  27.396  1.00  0.00     0.031 C 
ATOM     71  C   UNL A   1      44.930  31.583  28.323  1.00  0.00     0.037 A 
BRANCH  58  72
ATOM     72  C   UNL A   1      39.379  30.098  30.615  1.00  0.00     0.057 A 
ATOM     73  C   UNL A   1      38.726  29.053  31.310  1.00  0.00     0.134 A 
ATOM     74  C   UNL A   1      38.744  31.349  30.754  1.00  0.00     0.134 A 
ATOM     75  F   UNL A   1      39.210  27.803  31.301  1.00  0.00    -0.206 F 
ATOM     76  C   UNL A   1      37.540  29.230  32.046  1.00  0.00     0.040 A 
ATOM     77  C   UNL A   1      37.588  31.551  31.535  1.00  0.00     0.040 A 
ATOM     78  F   UNL A   1      39.170  32.437  30.101  1.00  0.00    -0.206 F 
ATOM     79  C   UNL A   1      36.970  30.486  32.169  1.00  0.00     0.006 A 
ENDBRANCH  58  72
BRANCH  59  80
ATOM     80  C   UNL A   1      47.705  26.527  26.064  1.00  0.00     0.057 A 
ATOM     81  C   UNL A   1      47.406  27.006  24.769  1.00  0.00     0.134 A 
ATOM     82  C   UNL A   1      48.978  25.966  26.240  1.00  0.00     0.134 A 
ATOM     83  F   UNL A   1      46.182  27.491  24.505  1.00  0.00    -0.206 F 
ATOM     84  C   UNL A   1      48.413  27.244  23.826  1.00  0.00     0.040 A 
ATOM     85  C   UNL A   1      49.986  26.162  25.281  1.00  0.00     0.040 A 
ATOM     86  F   UNL A   1      49.329  25.439  27.421  1.00  0.00    -0.206 F 
ATOM     87  C   UNL A   1      49.724  26.880  24.113  1.00  0.00     0.006 A 
ENDBRANCH  59  80
BRANCH  71  88
ATOM     88  C   UNL A   1      44.730  33.030  27.929  1.00  0.00     0.057 A 
ATOM     89  C   UNL A   1      44.142  33.418  26.717  1.00  0.00     0.134 A 
ATOM     90  C   UNL A   1      44.896  34.075  28.871  1.00  0.00     0.134 A 
ATOM     91  F   UNL A   1      43.812  32.525  25.775  1.00  0.00    -0.206 F 
ATOM     92  C   UNL A   1      43.795  34.746  26.440  1.00  0.00     0.040 A 
ATOM     93  C   UNL A   1      44.498  35.392  28.627  1.00  0.00     0.040 A 
ATOM     94  F   UNL A   1      45.407  33.864  30.092  1.00  0.00    -0.206 F 
ATOM     95  C   UNL A   1      43.958  35.735  27.400  1.00  0.00     0.006 A 
ENDBRANCH  71  88
ENDBRANCH  45  46
ENDBRANCH  38  40
ENDBRANCH  37  38
ENDBRANCH  36  37
ENDBRANCH  35  36
ENDBRANCH  34  35
ENDBRANCH  33  34
ENDBRANCH  32  33
ENDBRANCH   1  32
TORSDOF 23
ENDMDL
