MODEL 1
REMARK VINA RESULT:     -10.3      0.000      0.000
REMARK SMILES Cc1cc(SCC(=O)OCCOCCOCCOCCOC(=O)c2ccc(-c3c4nc(c(-c5c(F)cccc5F)c5ccc([nH]5)c(-c5c(F)cccc5F)c5nc(c(-c6c(F)cccc6F)c6ccc3[nH]6)C=C5)C=C4)cc2)c2cc(I)ccc2n1
REMARK SMILES IDX 15 1 14 2 13 3 12 4 11 5 10 6 9 7 7 8 8 9 6 10 5 11 4 12
REMARK SMILES IDX 1 13 2 14 3 15 85 16 84 17 78 18 83 19 79 20 82 21 80 22
REMARK SMILES IDX 81 23 16 24 17 25 18 26 19 27 20 28 21 29 22 30 23 31 24 32
REMARK SMILES IDX 25 33 77 34 26 35 76 36 27 37 28 38 29 39 70 40 30 41 75 42
REMARK SMILES IDX 69 43 71 44 31 45 74 46 68 47 67 48 32 50 58 51 41 52 57 53
REMARK SMILES IDX 42 54 45 55 56 56 72 57 43 58 44 59 55 61 73 62 46 63 33 64
REMARK SMILES IDX 34 65 39 66 35 67 36 68 38 69 40 70 37 71 59 72 60 73 65 74
REMARK SMILES IDX 61 75 62 76 64 77 66 78 63 79 47 80 48 81 53 82 49 83 50 84
REMARK SMILES IDX 52 85 54 86 51 87
REMARK H PARENT 71 49 45 60
REMARK Flexibility Score: inf
ROOT
ATOM      1  O   UNL A   1      44.452  18.681  25.425  1.00  0.00    -0.377 OA
ENDROOT
BRANCH   1   2
ATOM      2  C   UNL A   1      43.058  18.874  25.471  1.00  0.00     0.188 C 
BRANCH   2   3
ATOM      3  C   UNL A   1      42.208  18.975  26.755  1.00  0.00     0.188 C 
BRANCH   3   4
ATOM      4  O   UNL A   1      42.298  20.143  27.537  1.00  0.00    -0.376 OA
BRANCH   4   5
ATOM      5  C   UNL A   1      42.005  21.429  27.038  1.00  0.00     0.202 C 
BRANCH   5   6
ATOM      6  C   UNL A   1      40.878  21.783  26.044  1.00  0.00     0.261 C 
BRANCH   6   7
ATOM      7  O   UNL A   1      39.517  21.457  26.382  1.00  0.00    -0.463 OA
BRANCH   7   8
ATOM      8  C   UNL A   1      38.563  22.366  26.081  1.00  0.00     0.316 C 
ATOM      9  O   UNL A   1      38.614  23.534  26.463  1.00  0.00    -0.251 OA
BRANCH   8  10
ATOM     10  C   UNL A   1      37.388  21.873  25.242  1.00  0.00     0.197 C 
BRANCH  10  11
ATOM     11  S   UNL A   1      36.021  23.009  24.800  1.00  0.00    -0.114 SA
BRANCH  11  12
ATOM     12  C   UNL A   1      34.443  22.073  24.807  1.00  0.00     0.019 A 
ATOM     13  C   UNL A   1      33.248  18.501  25.150  1.00  0.00     0.067 C 
ATOM     14  C   UNL A   1      33.246  19.995  24.999  1.00  0.00     0.039 A 
ATOM     15  C   UNL A   1      34.414  20.679  24.674  1.00  0.00     0.039 A 
ATOM     16  N   UNL A   1      32.097  20.618  25.327  1.00  0.00    -0.253 NA
ATOM     17  C   UNL A   1      32.085  21.949  25.417  1.00  0.00     0.072 A 
ATOM     18  C   UNL A   1      33.228  22.753  25.184  1.00  0.00     0.015 A 
ATOM     19  C   UNL A   1      30.897  22.523  25.852  1.00  0.00     0.030 A 
ATOM     20  C   UNL A   1      33.083  24.151  25.411  1.00  0.00     0.026 A 
ATOM     21  C   UNL A   1      30.783  23.888  26.099  1.00  0.00     0.017 A 
ATOM     22  C   UNL A   1      31.882  24.701  25.874  1.00  0.00     0.014 A 
ATOM     23  I   UNL A   1      31.742  26.737  26.266  1.00  0.00    -0.044 I 
ENDBRANCH  11  12
ENDBRANCH  10  11
ENDBRANCH   8  10
ENDBRANCH   7   8
ENDBRANCH   6   7
ENDBRANCH   5   6
ENDBRANCH   4   5
ENDBRANCH   3   4
ENDBRANCH   2   3
ENDBRANCH   1   2
BRANCH   1  24
ATOM     24  C   UNL A   1      45.136  19.306  24.372  1.00  0.00     0.188 C 
BRANCH  24  25
ATOM     25  C   UNL A   1      46.469  19.878  24.853  1.00  0.00     0.188 C 
BRANCH  25  26
ATOM     26  O   UNL A   1      46.423  21.281  25.057  1.00  0.00    -0.376 OA
BRANCH  26  27
ATOM     27  C   UNL A   1      45.191  21.919  25.377  1.00  0.00     0.202 C 
BRANCH  27  28
ATOM     28  C   UNL A   1      44.457  22.913  24.453  1.00  0.00     0.261 C 
BRANCH  28  29
ATOM     29  O   UNL A   1      43.818  24.052  25.027  1.00  0.00    -0.460 OA
BRANCH  29  30
ATOM     30  C   UNL A   1      44.530  25.153  25.305  1.00  0.00     0.338 C 
ATOM     31  O   UNL A   1      45.486  25.602  24.698  1.00  0.00    -0.246 OA
BRANCH  30  32
ATOM     32  C   UNL A   1      43.752  25.839  26.357  1.00  0.00     0.060 A 
ATOM     33  C   UNL A   1      42.680  25.193  26.985  1.00  0.00     0.016 A 
ATOM     34  C   UNL A   1      44.018  27.190  26.608  1.00  0.00     0.016 A 
ATOM     35  C   UNL A   1      41.885  25.896  27.890  1.00  0.00     0.010 A 
ATOM     36  C   UNL A   1      43.201  27.902  27.482  1.00  0.00     0.010 A 
ATOM     37  C   UNL A   1      42.157  27.248  28.154  1.00  0.00    -0.014 A 
BRANCH  37  38
ATOM     38  C   UNL A   1      41.560  27.916  29.327  1.00  0.00     0.031 A 
ATOM     39  C   UNL A   1      40.363  28.802  29.226  1.00  0.00     0.074 A 
ATOM     40  C   UNL A   1      42.224  27.764  30.487  1.00  0.00     0.049 A 
ATOM     41  N   UNL A   1      39.790  29.511  30.166  1.00  0.00    -0.248 NA
ATOM     42  C   UNL A   1      39.733  28.922  27.905  1.00  0.00     0.031 C 
ATOM     43  C   UNL A   1      43.425  26.939  30.661  1.00  0.00     0.029 A 
ATOM     44  N   UNL A   1      42.013  28.310  31.723  1.00  0.00    -0.354 N 
ATOM     45  C   UNL A   1      38.717  30.150  29.560  1.00  0.00     0.074 A 
ATOM     46  C   UNL A   1      38.747  29.777  28.159  1.00  0.00     0.031 C 
ATOM     47  C   UNL A   1      43.848  27.040  31.927  1.00  0.00     0.029 A 
ATOM     48  C   UNL A   1      42.972  27.958  32.640  1.00  0.00     0.049 A 
ATOM     49  H   UNL A   1      41.250  28.895  31.933  1.00  0.00     0.167 HD
ATOM     50  C   UNL A   1      37.796  30.961  30.134  1.00  0.00     0.037 A 
ATOM     51  C   UNL A   1      43.137  28.354  33.913  1.00  0.00     0.037 A 
ATOM     52  C   UNL A   1      37.819  31.348  31.524  1.00  0.00     0.049 A 
ATOM     53  C   UNL A   1      42.148  29.318  34.494  1.00  0.00     0.074 A 
ATOM     54  C   UNL A   1      36.918  32.135  32.221  1.00  0.00     0.029 A 
ATOM     55  N   UNL A   1      38.813  30.994  32.427  1.00  0.00    -0.354 N 
ATOM     56  N   UNL A   1      41.086  29.850  33.936  1.00  0.00    -0.248 NA
ATOM     57  C   UNL A   1      42.379  29.738  35.880  1.00  0.00     0.031 C 
ATOM     58  C   UNL A   1      37.400  32.307  33.524  1.00  0.00     0.029 A 
ATOM     59  C   UNL A   1      38.572  31.581  33.660  1.00  0.00     0.049 A 
ATOM     60  H   UNL A   1      39.580  30.409  32.221  1.00  0.00     0.167 HD
ATOM     61  C   UNL A   1      40.512  30.655  34.908  1.00  0.00     0.074 A 
ATOM     62  C   UNL A   1      41.329  30.517  36.098  1.00  0.00     0.031 C 
ATOM     63  C   UNL A   1      39.413  31.443  34.824  1.00  0.00     0.037 A 
BRANCH  50  64
ATOM     64  C   UNL A   1      36.697  31.495  29.257  1.00  0.00     0.057 A 
ATOM     65  C   UNL A   1      35.655  30.667  28.822  1.00  0.00     0.134 A 
ATOM     66  C   UNL A   1      36.690  32.824  28.809  1.00  0.00     0.134 A 
ATOM     67  F   UNL A   1      35.602  29.381  29.198  1.00  0.00    -0.206 F 
ATOM     68  C   UNL A   1      34.645  31.141  27.981  1.00  0.00     0.040 A 
ATOM     69  C   UNL A   1      35.672  33.317  27.990  1.00  0.00     0.040 A 
ATOM     70  F   UNL A   1      37.657  33.674  29.188  1.00  0.00    -0.206 F 
ATOM     71  C   UNL A   1      34.646  32.473  27.570  1.00  0.00     0.006 A 
ENDBRANCH  50  64
BRANCH  51  72
ATOM     72  C   UNL A   1      44.273  27.836  34.710  1.00  0.00     0.057 A 
ATOM     73  C   UNL A   1      44.215  26.592  35.351  1.00  0.00     0.134 A 
ATOM     74  C   UNL A   1      45.450  28.580  34.847  1.00  0.00     0.134 A 
ATOM     75  F   UNL A   1      43.108  25.840  35.274  1.00  0.00    -0.206 F 
ATOM     76  C   UNL A   1      45.287  26.107  36.101  1.00  0.00     0.040 A 
ATOM     77  C   UNL A   1      46.540  28.093  35.568  1.00  0.00     0.040 A 
ATOM     78  F   UNL A   1      45.566  29.774  34.249  1.00  0.00    -0.206 F 
ATOM     79  C   UNL A   1      46.459  26.854  36.200  1.00  0.00     0.006 A 
ENDBRANCH  51  72
BRANCH  63  80
ATOM     80  C   UNL A   1      39.042  32.208  36.062  1.00  0.00     0.057 A 
ATOM     81  C   UNL A   1      38.199  31.643  37.028  1.00  0.00     0.134 A 
ATOM     82  C   UNL A   1      39.517  33.505  36.296  1.00  0.00     0.134 A 
ATOM     83  F   UNL A   1      37.706  30.406  36.865  1.00  0.00    -0.206 F 
ATOM     84  C   UNL A   1      37.840  32.344  38.180  1.00  0.00     0.040 A 
ATOM     85  C   UNL A   1      39.191  34.203  37.459  1.00  0.00     0.040 A 
ATOM     86  F   UNL A   1      40.346  34.093  35.419  1.00  0.00    -0.206 F 
ATOM     87  C   UNL A   1      38.345  33.624  38.402  1.00  0.00     0.006 A 
ENDBRANCH  63  80
ENDBRANCH  37  38
ENDBRANCH  30  32
ENDBRANCH  29  30
ENDBRANCH  28  29
ENDBRANCH  27  28
ENDBRANCH  26  27
ENDBRANCH  25  26
ENDBRANCH  24  25
ENDBRANCH   1  24
TORSDOF 22
ENDMDL
MODEL 2
REMARK VINA RESULT:     -10.0      1.282      6.229
REMARK SMILES Cc1cc(SCC(=O)OCCOCCOCCOCCOC(=O)c2ccc(-c3c4nc(c(-c5c(F)cccc5F)c5ccc([nH]5)c(-c5c(F)cccc5F)c5nc(c(-c6c(F)cccc6F)c6ccc3[nH]6)C=C5)C=C4)cc2)c2cc(I)ccc2n1
REMARK SMILES IDX 15 1 14 2 13 3 12 4 11 5 10 6 9 7 7 8 8 9 6 10 5 11 4 12
REMARK SMILES IDX 1 13 2 14 3 15 85 16 84 17 78 18 83 19 79 20 82 21 80 22
REMARK SMILES IDX 81 23 16 24 17 25 18 26 19 27 20 28 21 29 22 30 23 31 24 32
REMARK SMILES IDX 25 33 77 34 26 35 76 36 27 37 28 38 29 39 70 40 30 41 75 42
REMARK SMILES IDX 69 43 71 44 31 45 74 46 68 47 67 48 32 50 58 51 41 52 57 53
REMARK SMILES IDX 42 54 45 55 56 56 72 57 43 58 44 59 55 61 73 62 46 63 33 64
REMARK SMILES IDX 34 65 39 66 35 67 36 68 38 69 40 70 37 71 59 72 60 73 65 74
REMARK SMILES IDX 61 75 62 76 64 77 66 78 63 79 47 80 48 81 53 82 49 83 50 84
REMARK SMILES IDX 52 85 54 86 51 87
REMARK H PARENT 71 49 45 60
REMARK Flexibility Score: inf
ROOT
ATOM      1  O   UNL A   1      42.917  19.248  25.025  1.00  0.00    -0.377 OA
ENDROOT
BRANCH   1   2
ATOM      2  C   UNL A   1      42.252  19.299  26.266  1.00  0.00     0.188 C 
BRANCH   2   3
ATOM      3  C   UNL A   1      41.873  20.584  27.029  1.00  0.00     0.188 C 
BRANCH   3   4
ATOM      4  O   UNL A   1      40.521  20.979  27.062  1.00  0.00    -0.376 OA
BRANCH   4   5
ATOM      5  C   UNL A   1      40.008  22.037  26.282  1.00  0.00     0.202 C 
BRANCH   5   6
ATOM      6  C   UNL A   1      38.571  22.144  25.728  1.00  0.00     0.261 C 
BRANCH   6   7
ATOM      7  O   UNL A   1      37.648  21.064  25.960  1.00  0.00    -0.463 OA
BRANCH   7   8
ATOM      8  C   UNL A   1      36.366  21.242  25.569  1.00  0.00     0.316 C 
ATOM      9  O   UNL A   1      35.843  20.571  24.681  1.00  0.00    -0.251 OA
BRANCH   8  10
ATOM     10  C   UNL A   1      35.580  22.339  26.280  1.00  0.00     0.197 C 
BRANCH  10  11
ATOM     11  S   UNL A   1      35.398  23.995  25.520  1.00  0.00    -0.114 SA
BRANCH  11  12
ATOM     12  C   UNL A   1      33.915  23.996  24.439  1.00  0.00     0.019 A 
ATOM     13  C   UNL A   1      31.955  21.581  22.287  1.00  0.00     0.067 C 
ATOM     14  C   UNL A   1      32.377  22.833  23.000  1.00  0.00     0.039 A 
ATOM     15  C   UNL A   1      33.648  22.942  23.556  1.00  0.00     0.039 A 
ATOM     16  N   UNL A   1      31.416  23.760  23.179  1.00  0.00    -0.253 NA
ATOM     17  C   UNL A   1      31.660  24.799  23.980  1.00  0.00     0.072 A 
ATOM     18  C   UNL A   1      32.887  24.982  24.662  1.00  0.00     0.015 A 
ATOM     19  C   UNL A   1      30.597  25.667  24.198  1.00  0.00     0.030 A 
ATOM     20  C   UNL A   1      32.965  26.088  25.555  1.00  0.00     0.026 A 
ATOM     21  C   UNL A   1      30.680  26.725  25.099  1.00  0.00     0.017 A 
ATOM     22  C   UNL A   1      31.870  26.934  25.776  1.00  0.00     0.014 A 
ATOM     23  I   UNL A   1      32.005  28.489  27.147  1.00  0.00    -0.044 I 
ENDBRANCH  11  12
ENDBRANCH  10  11
ENDBRANCH   8  10
ENDBRANCH   7   8
ENDBRANCH   6   7
ENDBRANCH   5   6
ENDBRANCH   4   5
ENDBRANCH   3   4
ENDBRANCH   2   3
ENDBRANCH   1   2
BRANCH   1  24
ATOM     24  C   UNL A   1      44.209  18.703  25.029  1.00  0.00     0.188 C 
BRANCH  24  25
ATOM     25  C   UNL A   1      45.043  19.273  23.882  1.00  0.00     0.188 C 
BRANCH  25  26
ATOM     26  O   UNL A   1      44.801  20.652  23.660  1.00  0.00    -0.376 OA
BRANCH  26  27
ATOM     27  C   UNL A   1      45.500  21.635  24.418  1.00  0.00     0.202 C 
BRANCH  27  28
ATOM     28  C   UNL A   1      45.093  22.100  25.831  1.00  0.00     0.261 C 
BRANCH  28  29
ATOM     29  O   UNL A   1      44.085  23.099  25.970  1.00  0.00    -0.460 OA
BRANCH  29  30
ATOM     30  C   UNL A   1      44.306  24.343  25.524  1.00  0.00     0.338 C 
ATOM     31  O   UNL A   1      44.695  24.688  24.423  1.00  0.00    -0.246 OA
BRANCH  30  32
ATOM     32  C   UNL A   1      43.740  25.217  26.573  1.00  0.00     0.060 A 
ATOM     33  C   UNL A   1      42.688  24.768  27.382  1.00  0.00     0.016 A 
ATOM     34  C   UNL A   1      44.179  26.544  26.643  1.00  0.00     0.016 A 
ATOM     35  C   UNL A   1      42.089  25.646  28.284  1.00  0.00     0.010 A 
ATOM     36  C   UNL A   1      43.556  27.430  27.516  1.00  0.00     0.010 A 
ATOM     37  C   UNL A   1      42.537  26.975  28.367  1.00  0.00    -0.014 A 
BRANCH  37  38
ATOM     38  C   UNL A   1      42.161  27.821  29.517  1.00  0.00     0.031 A 
ATOM     39  C   UNL A   1      42.847  27.732  30.839  1.00  0.00     0.074 A 
ATOM     40  C   UNL A   1      41.086  28.609  29.337  1.00  0.00     0.049 A 
ATOM     41  N   UNL A   1      42.562  28.360  31.952  1.00  0.00    -0.248 NA
ATOM     42  C   UNL A   1      43.992  26.816  30.936  1.00  0.00     0.031 C 
ATOM     43  C   UNL A   1      40.337  28.726  28.080  1.00  0.00     0.029 A 
ATOM     44  N   UNL A   1      40.417  29.430  30.201  1.00  0.00    -0.354 N 
ATOM     45  C   UNL A   1      43.500  27.934  32.881  1.00  0.00     0.074 A 
ATOM     46  C   UNL A   1      44.338  26.959  32.211  1.00  0.00     0.031 C 
ATOM     47  C   UNL A   1      39.308  29.564  28.259  1.00  0.00     0.029 A 
ATOM     48  C   UNL A   1      39.307  30.013  29.643  1.00  0.00     0.049 A 
ATOM     49  H   UNL A   1      40.704  29.587  31.130  1.00  0.00     0.167 HD
ATOM     50  C   UNL A   1      43.643  28.335  34.168  1.00  0.00     0.037 A 
ATOM     51  C   UNL A   1      38.376  30.807  30.199  1.00  0.00     0.037 A 
ATOM     52  C   UNL A   1      42.764  29.277  34.819  1.00  0.00     0.049 A 
ATOM     53  C   UNL A   1      38.516  31.166  31.647  1.00  0.00     0.074 A 
ATOM     54  C   UNL A   1      42.835  29.783  36.106  1.00  0.00     0.029 A 
ATOM     55  N   UNL A   1      41.634  29.838  34.237  1.00  0.00    -0.354 N 
ATOM     56  N   UNL A   1      39.457  30.825  32.495  1.00  0.00    -0.248 NA
ATOM     57  C   UNL A   1      37.466  32.017  32.215  1.00  0.00     0.031 C 
ATOM     58  C   UNL A   1      41.717  30.597  36.321  1.00  0.00     0.029 A 
ATOM     59  C   UNL A   1      40.977  30.648  35.151  1.00  0.00     0.049 A 
ATOM     60  H   UNL A   1      41.343  29.682  33.309  1.00  0.00     0.167 HD
ATOM     61  C   UNL A   1      39.122  31.434  33.695  1.00  0.00     0.074 A 
ATOM     62  C   UNL A   1      37.907  32.188  33.453  1.00  0.00     0.031 C 
ATOM     63  C   UNL A   1      39.757  31.372  34.891  1.00  0.00     0.037 A 
BRANCH  50  64
ATOM     64  C   UNL A   1      44.779  27.747  34.958  1.00  0.00     0.057 A 
ATOM     65  C   UNL A   1      46.060  28.311  34.909  1.00  0.00     0.134 A 
ATOM     66  C   UNL A   1      44.616  26.595  35.739  1.00  0.00     0.134 A 
ATOM     67  F   UNL A   1      46.296  29.407  34.172  1.00  0.00    -0.206 F 
ATOM     68  C   UNL A   1      47.133  27.757  35.612  1.00  0.00     0.040 A 
ATOM     69  C   UNL A   1      45.674  26.046  36.468  1.00  0.00     0.040 A 
ATOM     70  F   UNL A   1      43.416  26.001  35.833  1.00  0.00    -0.206 F 
ATOM     71  C   UNL A   1      46.939  26.626  36.403  1.00  0.00     0.006 A 
ENDBRANCH  50  64
BRANCH  51  72
ATOM     72  C   UNL A   1      37.247  31.310  29.382  1.00  0.00     0.057 A 
ATOM     73  C   UNL A   1      36.115  30.526  29.129  1.00  0.00     0.134 A 
ATOM     74  C   UNL A   1      37.278  32.597  28.834  1.00  0.00     0.134 A 
ATOM     75  F   UNL A   1      36.033  29.277  29.611  1.00  0.00    -0.206 F 
ATOM     76  C   UNL A   1      35.053  31.004  28.360  1.00  0.00     0.040 A 
ATOM     77  C   UNL A   1      36.211  33.098  28.088  1.00  0.00     0.040 A 
ATOM     78  F   UNL A   1      38.333  33.396  29.049  1.00  0.00    -0.206 F 
ATOM     79  C   UNL A   1      35.095  32.298  27.847  1.00  0.00     0.006 A 
ENDBRANCH  51  72
BRANCH  63  80
ATOM     80  C   UNL A   1      39.138  32.148  36.018  1.00  0.00     0.057 A 
ATOM     81  C   UNL A   1      38.196  31.552  36.865  1.00  0.00     0.134 A 
ATOM     82  C   UNL A   1      39.473  33.487  36.260  1.00  0.00     0.134 A 
ATOM     83  F   UNL A   1      37.828  30.274  36.687  1.00  0.00    -0.206 F 
ATOM     84  C   UNL A   1      37.607  32.262  37.912  1.00  0.00     0.040 A 
ATOM     85  C   UNL A   1      38.915  34.197  37.323  1.00  0.00     0.040 A 
ATOM     86  F   UNL A   1      40.385  34.108  35.497  1.00  0.00    -0.206 F 
ATOM     87  C   UNL A   1      37.974  33.586  38.149  1.00  0.00     0.006 A 
ENDBRANCH  63  80
ENDBRANCH  37  38
ENDBRANCH  30  32
ENDBRANCH  29  30
ENDBRANCH  28  29
ENDBRANCH  27  28
ENDBRANCH  26  27
ENDBRANCH  25  26
ENDBRANCH  24  25
ENDBRANCH   1  24
TORSDOF 22
ENDMDL
MODEL 3
REMARK VINA RESULT:      -9.7      4.557      9.190
REMARK SMILES Cc1cc(SCC(=O)OCCOCCOCCOCCOC(=O)c2ccc(-c3c4nc(c(-c5c(F)cccc5F)c5ccc([nH]5)c(-c5c(F)cccc5F)c5nc(c(-c6c(F)cccc6F)c6ccc3[nH]6)C=C5)C=C4)cc2)c2cc(I)ccc2n1
REMARK SMILES IDX 15 1 14 2 13 3 12 4 11 5 10 6 9 7 7 8 8 9 6 10 5 11 4 12
REMARK SMILES IDX 1 13 2 14 3 15 85 16 84 17 78 18 83 19 79 20 82 21 80 22
REMARK SMILES IDX 81 23 16 24 17 25 18 26 19 27 20 28 21 29 22 30 23 31 24 32
REMARK SMILES IDX 25 33 77 34 26 35 76 36 27 37 28 38 29 39 70 40 30 41 75 42
REMARK SMILES IDX 69 43 71 44 31 45 74 46 68 47 67 48 32 50 58 51 41 52 57 53
REMARK SMILES IDX 42 54 45 55 56 56 72 57 43 58 44 59 55 61 73 62 46 63 33 64
REMARK SMILES IDX 34 65 39 66 35 67 36 68 38 69 40 70 37 71 59 72 60 73 65 74
REMARK SMILES IDX 61 75 62 76 64 77 66 78 63 79 47 80 48 81 53 82 49 83 50 84
REMARK SMILES IDX 52 85 54 86 51 87
REMARK H PARENT 71 49 45 60
REMARK Flexibility Score: inf
ROOT
ATOM      1  O   UNL A   1      31.274  30.274  25.041  1.00  0.00    -0.377 OA
ENDROOT
BRANCH   1   2
ATOM      2  C   UNL A   1      30.508  29.753  23.980  1.00  0.00     0.188 C 
BRANCH   2   3
ATOM      3  C   UNL A   1      30.959  28.641  23.011  1.00  0.00     0.188 C 
BRANCH   3   4
ATOM      4  O   UNL A   1      30.031  27.647  22.641  1.00  0.00    -0.376 OA
BRANCH   4   5
ATOM      5  C   UNL A   1      29.475  26.732  23.560  1.00  0.00     0.202 C 
BRANCH   5   6
ATOM      6  C   UNL A   1      30.055  26.367  24.943  1.00  0.00     0.261 C 
BRANCH   6   7
ATOM      7  O   UNL A   1      30.772  25.128  25.097  1.00  0.00    -0.463 OA
BRANCH   7   8
ATOM      8  C   UNL A   1      30.580  24.432  26.240  1.00  0.00     0.316 C 
ATOM      9  O   UNL A   1      29.580  24.572  26.942  1.00  0.00    -0.251 OA
BRANCH   8  10
ATOM     10  C   UNL A   1      31.681  23.455  26.641  1.00  0.00     0.197 C 
BRANCH  10  11
ATOM     11  S   UNL A   1      32.068  22.009  25.586  1.00  0.00    -0.114 SA
BRANCH  11  12
ATOM     12  C   UNL A   1      33.877  21.960  25.282  1.00  0.00     0.019 A 
ATOM     13  C   UNL A   1      36.968  23.960  26.145  1.00  0.00     0.067 C 
ATOM     14  C   UNL A   1      36.075  22.886  25.596  1.00  0.00     0.039 A 
ATOM     15  C   UNL A   1      34.696  23.066  25.539  1.00  0.00     0.039 A 
ATOM     16  N   UNL A   1      36.674  21.716  25.300  1.00  0.00    -0.253 NA
ATOM     17  C   UNL A   1      35.918  20.656  25.007  1.00  0.00     0.072 A 
ATOM     18  C   UNL A   1      34.503  20.694  24.991  1.00  0.00     0.015 A 
ATOM     19  C   UNL A   1      36.594  19.459  24.807  1.00  0.00     0.030 A 
ATOM     20  C   UNL A   1      33.833  19.460  24.753  1.00  0.00     0.026 A 
ATOM     21  C   UNL A   1      35.922  18.256  24.607  1.00  0.00     0.017 A 
ATOM     22  C   UNL A   1      34.537  18.262  24.578  1.00  0.00     0.014 A 
ATOM     23  I   UNL A   1      33.514  16.473  24.312  1.00  0.00    -0.044 I 
ENDBRANCH  11  12
ENDBRANCH  10  11
ENDBRANCH   8  10
ENDBRANCH   7   8
ENDBRANCH   6   7
ENDBRANCH   5   6
ENDBRANCH   4   5
ENDBRANCH   3   4
ENDBRANCH   2   3
ENDBRANCH   1   2
BRANCH   1  24
ATOM     24  C   UNL A   1      31.769  29.347  25.970  1.00  0.00     0.188 C 
BRANCH  24  25
ATOM     25  C   UNL A   1      33.163  29.751  26.450  1.00  0.00     0.188 C 
BRANCH  25  26
ATOM     26  O   UNL A   1      33.127  30.702  27.502  1.00  0.00    -0.376 OA
BRANCH  26  27
ATOM     27  C   UNL A   1      33.471  32.061  27.252  1.00  0.00     0.202 C 
BRANCH  27  28
ATOM     28  C   UNL A   1      32.584  33.268  27.621  1.00  0.00     0.261 C 
BRANCH  28  29
ATOM     29  O   UNL A   1      33.202  34.472  28.073  1.00  0.00    -0.460 OA
BRANCH  29  30
ATOM     30  C   UNL A   1      33.372  34.689  29.384  1.00  0.00     0.338 C 
ATOM     31  O   UNL A   1      32.596  35.210  30.165  1.00  0.00    -0.246 OA
BRANCH  30  32
ATOM     32  C   UNL A   1      34.597  33.938  29.728  1.00  0.00     0.060 A 
ATOM     33  C   UNL A   1      35.819  34.252  29.118  1.00  0.00     0.016 A 
ATOM     34  C   UNL A   1      34.482  32.821  30.562  1.00  0.00     0.016 A 
ATOM     35  C   UNL A   1      36.937  33.457  29.365  1.00  0.00     0.010 A 
ATOM     36  C   UNL A   1      35.589  32.005  30.778  1.00  0.00     0.010 A 
ATOM     37  C   UNL A   1      36.828  32.343  30.212  1.00  0.00    -0.014 A 
BRANCH  37  38
ATOM     38  C   UNL A   1      38.038  31.690  30.749  1.00  0.00     0.031 A 
ATOM     39  C   UNL A   1      38.763  30.610  30.016  1.00  0.00     0.074 A 
ATOM     40  C   UNL A   1      38.394  32.052  31.995  1.00  0.00     0.049 A 
ATOM     41  N   UNL A   1      39.790  29.901  30.413  1.00  0.00    -0.248 NA
ATOM     42  C   UNL A   1      38.272  30.271  28.674  1.00  0.00     0.031 C 
ATOM     43  C   UNL A   1      37.713  33.078  32.793  1.00  0.00     0.029 A 
ATOM     44  N   UNL A   1      39.382  31.589  32.820  1.00  0.00    -0.354 N 
ATOM     45  C   UNL A   1      40.085  29.041  29.364  1.00  0.00     0.074 A 
ATOM     46  C   UNL A   1      39.099  29.289  28.330  1.00  0.00     0.031 C 
ATOM     47  C   UNL A   1      38.299  33.161  33.994  1.00  0.00     0.029 A 
ATOM     48  C   UNL A   1      39.368  32.176  34.061  1.00  0.00     0.049 A 
ATOM     49  H   UNL A   1      40.036  30.905  32.550  1.00  0.00     0.167 HD
ATOM     50  C   UNL A   1      41.095  28.140  29.283  1.00  0.00     0.037 A 
ATOM     51  C   UNL A   1      40.125  31.926  35.142  1.00  0.00     0.037 A 
ATOM     52  C   UNL A   1      42.035  27.886  30.348  1.00  0.00     0.049 A 
ATOM     53  C   UNL A   1      41.179  30.865  35.046  1.00  0.00     0.074 A 
ATOM     54  C   UNL A   1      43.118  27.024  30.362  1.00  0.00     0.029 A 
ATOM     55  N   UNL A   1      41.987  28.480  31.603  1.00  0.00    -0.354 N 
ATOM     56  N   UNL A   1      41.507  30.116  34.020  1.00  0.00    -0.248 NA
ATOM     57  C   UNL A   1      41.967  30.613  36.257  1.00  0.00     0.031 C 
ATOM     58  C   UNL A   1      43.684  27.050  31.642  1.00  0.00     0.029 A 
ATOM     59  C   UNL A   1      42.992  27.971  32.412  1.00  0.00     0.049 A 
ATOM     60  H   UNL A   1      41.333  29.164  31.878  1.00  0.00     0.167 HD
ATOM     61  C   UNL A   1      42.551  29.314  34.456  1.00  0.00     0.074 A 
ATOM     62  C   UNL A   1      42.818  29.692  35.831  1.00  0.00     0.031 C 
ATOM     63  C   UNL A   1      43.225  28.349  33.785  1.00  0.00     0.037 A 
BRANCH  50  64
ATOM     64  C   UNL A   1      41.224  27.355  28.007  1.00  0.00     0.057 A 
ATOM     65  C   UNL A   1      42.001  27.830  26.943  1.00  0.00     0.134 A 
ATOM     66  C   UNL A   1      40.547  26.143  27.815  1.00  0.00     0.134 A 
ATOM     67  F   UNL A   1      42.667  28.989  27.048  1.00  0.00    -0.206 F 
ATOM     68  C   UNL A   1      42.105  27.127  25.740  1.00  0.00     0.040 A 
ATOM     69  C   UNL A   1      40.665  25.417  26.627  1.00  0.00     0.040 A 
ATOM     70  F   UNL A   1      39.786  25.627  28.792  1.00  0.00    -0.206 F 
ATOM     71  C   UNL A   1      41.443  25.911  25.582  1.00  0.00     0.006 A 
ENDBRANCH  50  64
BRANCH  51  72
ATOM     72  C   UNL A   1      39.912  32.695  36.390  1.00  0.00     0.057 A 
ATOM     73  C   UNL A   1      40.747  33.761  36.749  1.00  0.00     0.134 A 
ATOM     74  C   UNL A   1      38.860  32.378  37.256  1.00  0.00     0.134 A 
ATOM     75  F   UNL A   1      41.784  34.102  35.972  1.00  0.00    -0.206 F 
ATOM     76  C   UNL A   1      40.542  34.483  37.925  1.00  0.00     0.040 A 
ATOM     77  C   UNL A   1      38.626  33.111  38.419  1.00  0.00     0.040 A 
ATOM     78  F   UNL A   1      38.023  31.373  36.960  1.00  0.00    -0.206 F 
ATOM     79  C   UNL A   1      39.471  34.166  38.758  1.00  0.00     0.006 A 
ENDBRANCH  51  72
BRANCH  63  80
ATOM     80  C   UNL A   1      44.315  27.645  34.540  1.00  0.00     0.057 A 
ATOM     81  C   UNL A   1      44.061  26.441  35.209  1.00  0.00     0.134 A 
ATOM     82  C   UNL A   1      45.615  28.163  34.607  1.00  0.00     0.134 A 
ATOM     83  F   UNL A   1      42.837  25.892  35.187  1.00  0.00    -0.206 F 
ATOM     84  C   UNL A   1      45.063  25.779  35.921  1.00  0.00     0.040 A 
ATOM     85  C   UNL A   1      46.632  27.494  35.289  1.00  0.00     0.040 A 
ATOM     86  F   UNL A   1      45.927  29.301  33.969  1.00  0.00    -0.206 F 
ATOM     87  C   UNL A   1      46.354  26.301  35.954  1.00  0.00     0.006 A 
ENDBRANCH  63  80
ENDBRANCH  37  38
ENDBRANCH  30  32
ENDBRANCH  29  30
ENDBRANCH  28  29
ENDBRANCH  27  28
ENDBRANCH  26  27
ENDBRANCH  25  26
ENDBRANCH  24  25
ENDBRANCH   1  24
TORSDOF 22
ENDMDL
