MODEL 1
REMARK VINA RESULT:     -10.0      0.000      0.000
REMARK SMILES C[NH2+][C@]1(C(=O)OCCOCCOCCOCCOC(=O)c2ccc(-c3c4nc(c(-c5c(F)cccc5F)c5ccc([nH]5)c(-c5c(F)cccc5F)c5nc(c(-c6c(F)cccc6F)c6ccc3[nH]6)C=C5)C=C4)cc2)CCC[C@@H](OCC2CCCCC2)C1
REMARK SMILES IDX 11 1 10 2 9 3 8 4 7 5 6 6 4 7 5 8 3 9 75 10 87 11 76 12
REMARK SMILES IDX 78 13 77 14 2 15 1 16 79 19 80 20 81 21 82 22 86 23 83 24
REMARK SMILES IDX 85 25 84 26 12 27 13 28 14 29 15 30 16 31 17 32 18 33 19 34
REMARK SMILES IDX 20 35 21 36 22 37 74 38 23 39 73 40 24 41 25 42 26 43 67 44
REMARK SMILES IDX 27 45 72 46 66 47 68 48 28 49 71 50 65 51 64 52 29 54 55 55
REMARK SMILES IDX 38 56 54 57 39 58 42 59 53 60 69 61 40 62 41 63 52 65 70 66
REMARK SMILES IDX 43 67 30 68 31 69 36 70 32 71 33 72 35 73 37 74 34 75 56 76
REMARK SMILES IDX 57 77 62 78 58 79 59 80 61 81 63 82 60 83 44 84 45 85 50 86
REMARK SMILES IDX 46 87 47 88 49 89 51 90 48 91
REMARK H PARENT 2 17 2 18 68 53 42 64
REMARK Flexibility Score: inf
ROOT
ATOM      1  C   UNL A   1      40.511  19.471  26.125  1.00  0.00     0.188 C 
ENDROOT
BRANCH   1   2
ATOM      2  C   UNL A   1      40.544  20.885  26.728  1.00  0.00     0.188 C 
BRANCH   2   3
ATOM      3  O   UNL A   1      39.924  21.975  26.068  1.00  0.00    -0.376 OA
BRANCH   3   4
ATOM      4  C   UNL A   1      38.522  22.168  26.128  1.00  0.00     0.202 C 
BRANCH   4   5
ATOM      5  C   UNL A   1      37.625  22.173  24.871  1.00  0.00     0.261 C 
BRANCH   5   6
ATOM      6  O   UNL A   1      36.778  23.311  24.616  1.00  0.00    -0.459 OA
BRANCH   6   7
ATOM      7  C   UNL A   1      35.736  23.093  23.773  1.00  0.00     0.368 C 
ATOM      8  O   UNL A   1      35.845  23.071  22.547  1.00  0.00    -0.245 OA
BRANCH   7   9
ATOM      9  C   UNL A   1      34.342  22.961  24.479  1.00  0.00     0.196 C 
ATOM     10  C   UNL A   1      34.234  23.266  25.986  1.00  0.00     0.081 C 
ATOM     11  C   UNL A   1      33.537  24.083  23.770  1.00  0.00     0.113 C 
ATOM     12  C   UNL A   1      32.801  23.144  26.518  1.00  0.00     0.010 C 
ATOM     13  C   UNL A   1      32.110  24.310  24.286  1.00  0.00     0.125 C 
ATOM     14  C   UNL A   1      31.698  23.515  25.530  1.00  0.00     0.032 C 
BRANCH   9  15
ATOM     15  N   UNL A   1      33.768  21.623  24.136  1.00  0.00    -0.334 N 
ATOM     16  C   UNL A   1      34.365  20.468  24.799  1.00  0.00     0.331 C 
ATOM     17  H   UNL A   1      32.776  21.640  24.379  1.00  0.00     0.347 HD
ATOM     18  H   UNL A   1      33.959  21.493  23.143  1.00  0.00     0.347 HD
ENDBRANCH   9  15
BRANCH  13  19
ATOM     19  O   UNL A   1      31.586  25.651  24.346  1.00  0.00    -0.378 OA
BRANCH  19  20
ATOM     20  C   UNL A   1      32.148  26.732  23.614  1.00  0.00     0.164 C 
BRANCH  20  21
ATOM     21  C   UNL A   1      32.565  27.961  24.460  1.00  0.00     0.015 C 
ATOM     22  C   UNL A   1      31.368  28.654  25.095  1.00  0.00     0.006 C 
ATOM     23  C   UNL A   1      33.586  27.515  25.521  1.00  0.00     0.006 C 
ATOM     24  C   UNL A   1      31.638  29.628  26.230  1.00  0.00     0.000 C 
ATOM     25  C   UNL A   1      33.880  28.599  26.554  1.00  0.00     0.000 C 
ATOM     26  C   UNL A   1      32.600  29.045  27.248  1.00  0.00     0.000 C 
ENDBRANCH  20  21
ENDBRANCH  19  20
ENDBRANCH  13  19
ENDBRANCH   7   9
ENDBRANCH   6   7
ENDBRANCH   5   6
ENDBRANCH   4   5
ENDBRANCH   3   4
ENDBRANCH   2   3
ENDBRANCH   1   2
BRANCH   1  27
ATOM     27  O   UNL A   1      41.742  18.988  25.628  1.00  0.00    -0.377 OA
BRANCH  27  28
ATOM     28  C   UNL A   1      42.876  19.807  25.862  1.00  0.00     0.188 C 
BRANCH  28  29
ATOM     29  C   UNL A   1      44.065  19.654  24.895  1.00  0.00     0.188 C 
BRANCH  29  30
ATOM     30  O   UNL A   1      45.306  20.079  25.440  1.00  0.00    -0.376 OA
BRANCH  30  31
ATOM     31  C   UNL A   1      45.819  21.369  25.151  1.00  0.00     0.202 C 
BRANCH  31  32
ATOM     32  C   UNL A   1      45.563  22.517  26.141  1.00  0.00     0.261 C 
BRANCH  32  33
ATOM     33  O   UNL A   1      45.081  23.752  25.596  1.00  0.00    -0.460 OA
BRANCH  33  34
ATOM     34  C   UNL A   1      43.784  23.811  25.214  1.00  0.00     0.338 C 
ATOM     35  O   UNL A   1      43.215  23.082  24.436  1.00  0.00    -0.246 OA
BRANCH  34  36
ATOM     36  C   UNL A   1      43.117  24.799  26.094  1.00  0.00     0.060 A 
ATOM     37  C   UNL A   1      43.638  26.098  26.162  1.00  0.00     0.016 A 
ATOM     38  C   UNL A   1      41.980  24.454  26.827  1.00  0.00     0.016 A 
ATOM     39  C   UNL A   1      43.044  27.048  26.991  1.00  0.00     0.010 A 
ATOM     40  C   UNL A   1      41.405  25.395  27.684  1.00  0.00     0.010 A 
ATOM     41  C   UNL A   1      41.959  26.683  27.796  1.00  0.00    -0.014 A 
BRANCH  41  42
ATOM     42  C   UNL A   1      41.563  27.566  28.918  1.00  0.00     0.031 A 
ATOM     43  C   UNL A   1      42.331  27.454  30.205  1.00  0.00     0.074 A 
ATOM     44  C   UNL A   1      40.576  28.469  28.790  1.00  0.00     0.049 A 
ATOM     45  N   UNL A   1      42.148  28.075  31.341  1.00  0.00    -0.248 NA
ATOM     46  C   UNL A   1      43.460  26.509  30.209  1.00  0.00     0.031 C 
ATOM     47  C   UNL A   1      39.798  28.709  27.577  1.00  0.00     0.029 A 
ATOM     48  N   UNL A   1      40.056  29.348  29.707  1.00  0.00    -0.354 N 
ATOM     49  C   UNL A   1      43.132  27.592  32.194  1.00  0.00     0.074 A 
ATOM     50  C   UNL A   1      43.888  26.604  31.458  1.00  0.00     0.031 C 
ATOM     51  C   UNL A   1      38.885  29.663  27.830  1.00  0.00     0.029 A 
ATOM     52  C   UNL A   1      38.992  30.073  29.230  1.00  0.00     0.049 A 
ATOM     53  H   UNL A   1      40.412  29.449  30.619  1.00  0.00     0.167 HD
ATOM     54  C   UNL A   1      43.389  27.946  33.475  1.00  0.00     0.037 A 
ATOM     55  C   UNL A   1      38.184  30.945  29.863  1.00  0.00     0.037 A 
ATOM     56  C   UNL A   1      42.629  28.924  34.206  1.00  0.00     0.049 A 
ATOM     57  C   UNL A   1      38.431  31.257  31.318  1.00  0.00     0.074 A 
ATOM     58  C   UNL A   1      42.809  29.359  35.506  1.00  0.00     0.029 A 
ATOM     59  N   UNL A   1      41.534  29.609  33.700  1.00  0.00    -0.354 N 
ATOM     60  N   UNL A   1      39.374  30.810  32.114  1.00  0.00    -0.248 NA
ATOM     61  C   UNL A   1      37.504  32.199  31.962  1.00  0.00     0.031 C 
ATOM     62  C   UNL A   1      41.787  30.265  35.808  1.00  0.00     0.029 A 
ATOM     63  C   UNL A   1      41.011  30.444  34.674  1.00  0.00     0.049 A 
ATOM     64  H   UNL A   1      41.182  29.517  32.786  1.00  0.00     0.167 HD
ATOM     65  C   UNL A   1      39.173  31.439  33.338  1.00  0.00     0.074 A 
ATOM     66  C   UNL A   1      38.027  32.308  33.175  1.00  0.00     0.031 C 
ATOM     67  C   UNL A   1      39.874  31.312  34.491  1.00  0.00     0.037 A 
BRANCH  54  68
ATOM     68  C   UNL A   1      44.516  27.243  34.173  1.00  0.00     0.057 A 
ATOM     69  C   UNL A   1      45.820  27.757  34.186  1.00  0.00     0.134 A 
ATOM     70  C   UNL A   1      44.289  26.044  34.860  1.00  0.00     0.134 A 
ATOM     71  F   UNL A   1      46.111  28.891  33.531  1.00  0.00    -0.206 F 
ATOM     72  C   UNL A   1      46.861  27.090  34.835  1.00  0.00     0.040 A 
ATOM     73  C   UNL A   1      45.315  25.384  35.539  1.00  0.00     0.040 A 
ATOM     74  F   UNL A   1      43.065  25.496  34.890  1.00  0.00    -0.206 F 
ATOM     75  C   UNL A   1      46.608  25.904  35.521  1.00  0.00     0.006 A 
ENDBRANCH  54  68
BRANCH  55  76
ATOM     76  C   UNL A   1      37.047  31.571  29.141  1.00  0.00     0.057 A 
ATOM     77  C   UNL A   1      37.113  32.893  28.684  1.00  0.00     0.134 A 
ATOM     78  C   UNL A   1      35.853  30.873  28.917  1.00  0.00     0.134 A 
ATOM     79  F   UNL A   1      38.219  33.623  28.888  1.00  0.00    -0.206 F 
ATOM     80  C   UNL A   1      36.028  33.505  28.052  1.00  0.00     0.040 A 
ATOM     81  C   UNL A   1      34.771  31.462  28.261  1.00  0.00     0.040 A 
ATOM     82  F   UNL A   1      35.723  29.604  29.330  1.00  0.00    -0.206 F 
ATOM     83  C   UNL A   1      34.854  32.786  27.835  1.00  0.00     0.006 A 
ENDBRANCH  55  76
BRANCH  67  84
ATOM     84  C   UNL A   1      39.455  32.165  35.657  1.00  0.00     0.057 A 
ATOM     85  C   UNL A   1      38.584  31.697  36.648  1.00  0.00     0.134 A 
ATOM     86  C   UNL A   1      39.971  33.460  35.810  1.00  0.00     0.134 A 
ATOM     87  F   UNL A   1      38.046  30.471  36.557  1.00  0.00    -0.206 F 
ATOM     88  C   UNL A   1      38.220  32.494  37.735  1.00  0.00     0.040 A 
ATOM     89  C   UNL A   1      39.640  34.253  36.909  1.00  0.00     0.040 A 
ATOM     90  F   UNL A   1      40.821  33.966  34.904  1.00  0.00    -0.206 F 
ATOM     91  C   UNL A   1      38.755  33.773  37.871  1.00  0.00     0.006 A 
ENDBRANCH  67  84
ENDBRANCH  41  42
ENDBRANCH  34  36
ENDBRANCH  33  34
ENDBRANCH  32  33
ENDBRANCH  31  32
ENDBRANCH  30  31
ENDBRANCH  29  30
ENDBRANCH  28  29
ENDBRANCH  27  28
ENDBRANCH   1  27
TORSDOF 24
ENDMDL
MODEL 2
REMARK VINA RESULT:      -9.8      1.529      2.564
REMARK SMILES C[NH2+][C@]1(C(=O)OCCOCCOCCOCCOC(=O)c2ccc(-c3c4nc(c(-c5c(F)cccc5F)c5ccc([nH]5)c(-c5c(F)cccc5F)c5nc(c(-c6c(F)cccc6F)c6ccc3[nH]6)C=C5)C=C4)cc2)CCC[C@@H](OCC2CCCCC2)C1
REMARK SMILES IDX 11 1 10 2 9 3 8 4 7 5 6 6 4 7 5 8 3 9 75 10 87 11 76 12
REMARK SMILES IDX 78 13 77 14 2 15 1 16 79 19 80 20 81 21 82 22 86 23 83 24
REMARK SMILES IDX 85 25 84 26 12 27 13 28 14 29 15 30 16 31 17 32 18 33 19 34
REMARK SMILES IDX 20 35 21 36 22 37 74 38 23 39 73 40 24 41 25 42 26 43 67 44
REMARK SMILES IDX 27 45 72 46 66 47 68 48 28 49 71 50 65 51 64 52 29 54 55 55
REMARK SMILES IDX 38 56 54 57 39 58 42 59 53 60 69 61 40 62 41 63 52 65 70 66
REMARK SMILES IDX 43 67 30 68 31 69 36 70 32 71 33 72 35 73 37 74 34 75 56 76
REMARK SMILES IDX 57 77 62 78 58 79 59 80 61 81 63 82 60 83 44 84 45 85 50 86
REMARK SMILES IDX 46 87 47 88 49 89 51 90 48 91
REMARK H PARENT 2 17 2 18 68 53 42 64
REMARK Flexibility Score: inf
ROOT
ATOM      1  C   UNL A   1      38.797  22.255  26.141  1.00  0.00     0.188 C 
ENDROOT
BRANCH   1   2
ATOM      2  C   UNL A   1      38.088  21.234  25.237  1.00  0.00     0.188 C 
BRANCH   2   3
ATOM      3  O   UNL A   1      37.212  21.654  24.206  1.00  0.00    -0.376 OA
BRANCH   3   4
ATOM      4  C   UNL A   1      36.500  22.875  24.300  1.00  0.00     0.202 C 
BRANCH   4   5
ATOM      5  C   UNL A   1      35.232  23.169  23.468  1.00  0.00     0.261 C 
BRANCH   5   6
ATOM      6  O   UNL A   1      34.837  24.537  23.248  1.00  0.00    -0.459 OA
BRANCH   6   7
ATOM      7  C   UNL A   1      33.609  24.715  22.695  1.00  0.00     0.368 C 
ATOM      8  O   UNL A   1      33.408  24.751  21.481  1.00  0.00    -0.245 OA
BRANCH   7   9
ATOM      9  C   UNL A   1      32.458  24.969  23.729  1.00  0.00     0.196 C 
ATOM     10  C   UNL A   1      32.781  24.918  25.236  1.00  0.00     0.081 C 
ATOM     11  C   UNL A   1      32.106  26.451  23.432  1.00  0.00     0.113 C 
ATOM     12  C   UNL A   1      31.568  25.238  26.117  1.00  0.00     0.010 C 
ATOM     13  C   UNL A   1      31.047  27.083  24.344  1.00  0.00     0.125 C 
ATOM     14  C   UNL A   1      30.572  26.235  25.529  1.00  0.00     0.032 C 
BRANCH   9  15
ATOM     15  N   UNL A   1      31.305  24.085  23.374  1.00  0.00    -0.334 N 
ATOM     16  C   UNL A   1      31.584  22.656  23.279  1.00  0.00     0.331 C 
ATOM     17  H   UNL A   1      30.586  24.214  24.086  1.00  0.00     0.347 HD
ATOM     18  H   UNL A   1      31.027  24.369  22.435  1.00  0.00     0.347 HD
ENDBRANCH   9  15
BRANCH  13  19
ATOM     19  O   UNL A   1      31.182  28.464  24.731  1.00  0.00    -0.378 OA
BRANCH  19  20
ATOM     20  C   UNL A   1      31.056  29.539  23.810  1.00  0.00     0.164 C 
BRANCH  20  21
ATOM     21  C   UNL A   1      29.614  29.839  23.331  1.00  0.00     0.015 C 
ATOM     22  C   UNL A   1      29.049  31.102  23.967  1.00  0.00     0.006 C 
ATOM     23  C   UNL A   1      29.604  29.929  21.796  1.00  0.00     0.006 C 
ATOM     24  C   UNL A   1      27.815  31.720  23.330  1.00  0.00     0.000 C 
ATOM     25  C   UNL A   1      28.283  30.454  21.241  1.00  0.00     0.000 C 
ATOM     26  C   UNL A   1      27.957  31.822  21.823  1.00  0.00     0.000 C 
ENDBRANCH  20  21
ENDBRANCH  19  20
ENDBRANCH  13  19
ENDBRANCH   7   9
ENDBRANCH   6   7
ENDBRANCH   5   6
ENDBRANCH   4   5
ENDBRANCH   3   4
ENDBRANCH   2   3
ENDBRANCH   1   2
BRANCH   1  27
ATOM     27  O   UNL A   1      39.841  21.743  26.943  1.00  0.00    -0.377 OA
BRANCH  27  28
ATOM     28  C   UNL A   1      40.629  20.717  26.363  1.00  0.00     0.188 C 
BRANCH  28  29
ATOM     29  C   UNL A   1      41.569  19.937  27.301  1.00  0.00     0.188 C 
BRANCH  29  30
ATOM     30  O   UNL A   1      42.811  19.585  26.707  1.00  0.00    -0.376 OA
BRANCH  30  31
ATOM     31  C   UNL A   1      43.228  20.186  25.493  1.00  0.00     0.202 C 
BRANCH  31  32
ATOM     32  C   UNL A   1      44.266  21.320  25.535  1.00  0.00     0.261 C 
BRANCH  32  33
ATOM     33  O   UNL A   1      43.921  22.493  26.282  1.00  0.00    -0.460 OA
BRANCH  33  34
ATOM     34  C   UNL A   1      44.061  23.693  25.675  1.00  0.00     0.338 C 
ATOM     35  O   UNL A   1      44.516  23.912  24.577  1.00  0.00    -0.246 OA
BRANCH  34  36
ATOM     36  C   UNL A   1      43.346  24.688  26.510  1.00  0.00     0.060 A 
ATOM     37  C   UNL A   1      43.833  26.001  26.556  1.00  0.00     0.016 A 
ATOM     38  C   UNL A   1      42.200  24.334  27.223  1.00  0.00     0.016 A 
ATOM     39  C   UNL A   1      43.195  26.957  27.343  1.00  0.00     0.010 A 
ATOM     40  C   UNL A   1      41.580  25.282  28.040  1.00  0.00     0.010 A 
ATOM     41  C   UNL A   1      42.099  26.587  28.130  1.00  0.00    -0.014 A 
BRANCH  41  42
ATOM     42  C   UNL A   1      41.652  27.489  29.217  1.00  0.00     0.031 A 
ATOM     43  C   UNL A   1      42.397  27.440  30.522  1.00  0.00     0.074 A 
ATOM     44  C   UNL A   1      40.640  28.354  29.043  1.00  0.00     0.049 A 
ATOM     45  N   UNL A   1      42.172  28.088  31.634  1.00  0.00    -0.248 NA
ATOM     46  C   UNL A   1      43.557  26.533  30.575  1.00  0.00     0.031 C 
ATOM     47  C   UNL A   1      39.879  28.533  27.809  1.00  0.00     0.029 A 
ATOM     48  N   UNL A   1      40.073  29.243  29.923  1.00  0.00    -0.354 N 
ATOM     49  C   UNL A   1      43.154  27.663  32.521  1.00  0.00     0.074 A 
ATOM     50  C   UNL A   1      43.956  26.679  31.829  1.00  0.00     0.031 C 
ATOM     51  C   UNL A   1      38.930  29.464  28.016  1.00  0.00     0.029 A 
ATOM     52  C   UNL A   1      38.996  29.918  29.404  1.00  0.00     0.049 A 
ATOM     53  H   UNL A   1      40.407  29.382  30.839  1.00  0.00     0.167 HD
ATOM     54  C   UNL A   1      43.374  28.063  33.794  1.00  0.00     0.037 A 
ATOM     55  C   UNL A   1      38.148  30.781  29.996  1.00  0.00     0.037 A 
ATOM     56  C   UNL A   1      42.568  29.037  34.481  1.00  0.00     0.049 A 
ATOM     57  C   UNL A   1      38.356  31.144  31.445  1.00  0.00     0.074 A 
ATOM     58  C   UNL A   1      42.708  29.516  35.771  1.00  0.00     0.029 A 
ATOM     59  N   UNL A   1      41.462  29.670  33.934  1.00  0.00    -0.354 N 
ATOM     60  N   UNL A   1      39.296  30.752  32.272  1.00  0.00    -0.248 NA
ATOM     61  C   UNL A   1      37.386  32.074  32.042  1.00  0.00     0.031 C 
ATOM     62  C   UNL A   1      41.651  30.396  36.026  1.00  0.00     0.029 A 
ATOM     63  C   UNL A   1      40.892  30.516  34.872  1.00  0.00     0.049 A 
ATOM     64  H   UNL A   1      41.131  29.539  33.016  1.00  0.00     0.167 HD
ATOM     65  C   UNL A   1      39.050  31.410  33.472  1.00  0.00     0.074 A 
ATOM     66  C   UNL A   1      37.880  32.236  33.261  1.00  0.00     0.031 C 
ATOM     67  C   UNL A   1      39.732  31.340  34.642  1.00  0.00     0.037 A 
BRANCH  54  68
ATOM     68  C   UNL A   1      44.509  27.419  34.535  1.00  0.00     0.057 A 
ATOM     69  C   UNL A   1      44.358  26.207  35.223  1.00  0.00     0.134 A 
ATOM     70  C   UNL A   1      45.779  28.010  34.542  1.00  0.00     0.134 A 
ATOM     71  F   UNL A   1      43.163  25.598  35.272  1.00  0.00    -0.206 F 
ATOM     72  C   UNL A   1      45.420  25.622  35.913  1.00  0.00     0.040 A 
ATOM     73  C   UNL A   1      46.857  27.419  35.202  1.00  0.00     0.040 A 
ATOM     74  F   UNL A   1      45.995  29.170  33.903  1.00  0.00    -0.206 F 
ATOM     75  C   UNL A   1      46.677  26.224  35.897  1.00  0.00     0.006 A 
ENDBRANCH  54  68
BRANCH  55  76
ATOM     76  C   UNL A   1      37.006  31.348  29.233  1.00  0.00     0.057 A 
ATOM     77  C   UNL A   1      35.872  30.581  28.941  1.00  0.00     0.134 A 
ATOM     78  C   UNL A   1      37.034  32.662  28.749  1.00  0.00     0.134 A 
ATOM     79  F   UNL A   1      35.794  29.307  29.355  1.00  0.00    -0.206 F 
ATOM     80  C   UNL A   1      34.819  31.090  28.178  1.00  0.00     0.040 A 
ATOM     81  C   UNL A   1      35.977  33.195  28.010  1.00  0.00     0.040 A 
ATOM     82  F   UNL A   1      38.091  33.452  28.992  1.00  0.00    -0.206 F 
ATOM     83  C   UNL A   1      34.868  32.404  27.714  1.00  0.00     0.006 A 
ENDBRANCH  55  76
BRANCH  67  84
ATOM     84  C   UNL A   1      39.263  32.213  35.773  1.00  0.00     0.057 A 
ATOM     85  C   UNL A   1      38.373  31.751  36.751  1.00  0.00     0.134 A 
ATOM     86  C   UNL A   1      39.747  33.522  35.907  1.00  0.00     0.134 A 
ATOM     87  F   UNL A   1      37.864  30.512  36.677  1.00  0.00    -0.206 F 
ATOM     88  C   UNL A   1      37.962  32.568  37.807  1.00  0.00     0.040 A 
ATOM     89  C   UNL A   1      39.368  34.336  36.976  1.00  0.00     0.040 A 
ATOM     90  F   UNL A   1      40.612  34.024  35.013  1.00  0.00    -0.206 F 
ATOM     91  C   UNL A   1      38.467  33.861  37.925  1.00  0.00     0.006 A 
ENDBRANCH  67  84
ENDBRANCH  41  42
ENDBRANCH  34  36
ENDBRANCH  33  34
ENDBRANCH  32  33
ENDBRANCH  31  32
ENDBRANCH  30  31
ENDBRANCH  29  30
ENDBRANCH  28  29
ENDBRANCH  27  28
ENDBRANCH   1  27
TORSDOF 24
ENDMDL
MODEL 3
REMARK VINA RESULT:      -9.7      1.277      2.337
REMARK SMILES C[NH2+][C@]1(C(=O)OCCOCCOCCOCCOC(=O)c2ccc(-c3c4nc(c(-c5c(F)cccc5F)c5ccc([nH]5)c(-c5c(F)cccc5F)c5nc(c(-c6c(F)cccc6F)c6ccc3[nH]6)C=C5)C=C4)cc2)CCC[C@@H](OCC2CCCCC2)C1
REMARK SMILES IDX 11 1 10 2 9 3 8 4 7 5 6 6 4 7 5 8 3 9 75 10 87 11 76 12
REMARK SMILES IDX 78 13 77 14 2 15 1 16 79 19 80 20 81 21 82 22 86 23 83 24
REMARK SMILES IDX 85 25 84 26 12 27 13 28 14 29 15 30 16 31 17 32 18 33 19 34
REMARK SMILES IDX 20 35 21 36 22 37 74 38 23 39 73 40 24 41 25 42 26 43 67 44
REMARK SMILES IDX 27 45 72 46 66 47 68 48 28 49 71 50 65 51 64 52 29 54 55 55
REMARK SMILES IDX 38 56 54 57 39 58 42 59 53 60 69 61 40 62 41 63 52 65 70 66
REMARK SMILES IDX 43 67 30 68 31 69 36 70 32 71 33 72 35 73 37 74 34 75 56 76
REMARK SMILES IDX 57 77 62 78 58 79 59 80 61 81 63 82 60 83 44 84 45 85 50 86
REMARK SMILES IDX 46 87 47 88 49 89 51 90 48 91
REMARK H PARENT 2 17 2 18 68 53 42 64
REMARK Flexibility Score: inf
ROOT
ATOM      1  C   UNL A   1      38.004  20.603  25.210  1.00  0.00     0.188 C 
ENDROOT
BRANCH   1   2
ATOM      2  C   UNL A   1      37.041  19.423  25.001  1.00  0.00     0.188 C 
BRANCH   2   3
ATOM      3  O   UNL A   1      35.667  19.639  24.730  1.00  0.00    -0.376 OA
BRANCH   3   4
ATOM      4  C   UNL A   1      35.036  20.862  25.069  1.00  0.00     0.202 C 
BRANCH   4   5
ATOM      5  C   UNL A   1      33.582  21.189  24.668  1.00  0.00     0.261 C 
BRANCH   5   6
ATOM      6  O   UNL A   1      33.227  22.552  24.363  1.00  0.00    -0.459 OA
BRANCH   6   7
ATOM      7  C   UNL A   1      32.886  23.325  25.427  1.00  0.00     0.368 C 
ATOM      8  O   UNL A   1      33.497  23.321  26.495  1.00  0.00    -0.245 OA
BRANCH   7   9
ATOM      9  C   UNL A   1      31.581  24.172  25.227  1.00  0.00     0.196 C 
ATOM     10  C   UNL A   1      31.420  25.493  26.004  1.00  0.00     0.081 C 
ATOM     11  C   UNL A   1      31.714  24.583  23.736  1.00  0.00     0.113 C 
ATOM     12  C   UNL A   1      30.120  26.231  25.663  1.00  0.00     0.010 C 
ATOM     13  C   UNL A   1      30.624  25.522  23.201  1.00  0.00     0.125 C 
ATOM     14  C   UNL A   1      29.624  26.063  24.229  1.00  0.00     0.032 C 
BRANCH   9  15
ATOM     15  N   UNL A   1      30.404  23.269  25.407  1.00  0.00    -0.334 N 
ATOM     16  C   UNL A   1      30.122  22.830  26.771  1.00  0.00     0.331 C 
ATOM     17  H   UNL A   1      29.579  23.763  25.065  1.00  0.00     0.347 HD
ATOM     18  H   UNL A   1      30.633  22.419  24.892  1.00  0.00     0.347 HD
ENDBRANCH   9  15
BRANCH  13  19
ATOM     19  O   UNL A   1      30.978  26.545  22.251  1.00  0.00    -0.378 OA
BRANCH  19  20
ATOM     20  C   UNL A   1      30.642  27.914  22.431  1.00  0.00     0.164 C 
BRANCH  20  21
ATOM     21  C   UNL A   1      31.701  28.765  23.176  1.00  0.00     0.015 C 
ATOM     22  C   UNL A   1      31.167  29.326  24.487  1.00  0.00     0.006 C 
ATOM     23  C   UNL A   1      32.961  27.912  23.401  1.00  0.00     0.006 C 
ATOM     24  C   UNL A   1      32.177  29.858  25.490  1.00  0.00     0.000 C 
ATOM     25  C   UNL A   1      33.970  28.579  24.333  1.00  0.00     0.000 C 
ATOM     26  C   UNL A   1      33.334  28.895  25.680  1.00  0.00     0.000 C 
ENDBRANCH  20  21
ENDBRANCH  19  20
ENDBRANCH  13  19
ENDBRANCH   7   9
ENDBRANCH   6   7
ENDBRANCH   5   6
ENDBRANCH   4   5
ENDBRANCH   3   4
ENDBRANCH   2   3
ENDBRANCH   1   2
BRANCH   1  27
ATOM     27  O   UNL A   1      39.290  20.268  25.691  1.00  0.00    -0.377 OA
BRANCH  27  28
ATOM     28  C   UNL A   1      40.079  21.347  26.166  1.00  0.00     0.188 C 
BRANCH  28  29
ATOM     29  C   UNL A   1      40.842  21.130  27.486  1.00  0.00     0.188 C 
BRANCH  29  30
ATOM     30  O   UNL A   1      42.134  20.563  27.316  1.00  0.00    -0.376 OA
BRANCH  30  31
ATOM     31  C   UNL A   1      42.695  20.416  26.022  1.00  0.00     0.202 C 
BRANCH  31  32
ATOM     32  C   UNL A   1      43.821  21.365  25.580  1.00  0.00     0.261 C 
BRANCH  32  33
ATOM     33  O   UNL A   1      43.935  22.611  26.279  1.00  0.00    -0.460 OA
BRANCH  33  34
ATOM     34  C   UNL A   1      43.869  23.751  25.553  1.00  0.00     0.338 C 
ATOM     35  O   UNL A   1      44.149  23.896  24.387  1.00  0.00    -0.246 OA
BRANCH  34  36
ATOM     36  C   UNL A   1      43.175  24.758  26.390  1.00  0.00     0.060 A 
ATOM     37  C   UNL A   1      43.737  26.036  26.509  1.00  0.00     0.016 A 
ATOM     38  C   UNL A   1      41.975  24.451  27.034  1.00  0.00     0.016 A 
ATOM     39  C   UNL A   1      43.119  27.002  27.300  1.00  0.00     0.010 A 
ATOM     40  C   UNL A   1      41.373  25.407  27.855  1.00  0.00     0.010 A 
ATOM     41  C   UNL A   1      41.964  26.673  28.020  1.00  0.00    -0.014 A 
BRANCH  41  42
ATOM     42  C   UNL A   1      41.519  27.563  29.117  1.00  0.00     0.031 A 
ATOM     43  C   UNL A   1      42.260  27.494  30.423  1.00  0.00     0.074 A 
ATOM     44  C   UNL A   1      40.510  28.435  28.952  1.00  0.00     0.049 A 
ATOM     45  N   UNL A   1      42.035  28.127  31.544  1.00  0.00    -0.248 NA
ATOM     46  C   UNL A   1      43.415  26.581  30.468  1.00  0.00     0.031 C 
ATOM     47  C   UNL A   1      39.753  28.633  27.719  1.00  0.00     0.029 A 
ATOM     48  N   UNL A   1      39.945  29.314  29.842  1.00  0.00    -0.354 N 
ATOM     49  C   UNL A   1      43.013  27.686  32.427  1.00  0.00     0.074 A 
ATOM     50  C   UNL A   1      43.812  26.708  31.724  1.00  0.00     0.031 C 
ATOM     51  C   UNL A   1      38.808  29.566  27.935  1.00  0.00     0.029 A 
ATOM     52  C   UNL A   1      38.873  30.001  29.330  1.00  0.00     0.049 A 
ATOM     53  H   UNL A   1      40.278  29.440  30.761  1.00  0.00     0.167 HD
ATOM     54  C   UNL A   1      43.231  28.068  33.706  1.00  0.00     0.037 A 
ATOM     55  C   UNL A   1      38.027  30.860  29.931  1.00  0.00     0.037 A 
ATOM     56  C   UNL A   1      42.427  29.037  34.403  1.00  0.00     0.049 A 
ATOM     57  C   UNL A   1      38.233  31.203  31.385  1.00  0.00     0.074 A 
ATOM     58  C   UNL A   1      42.566  29.498  35.700  1.00  0.00     0.029 A 
ATOM     59  N   UNL A   1      41.326  29.682  33.863  1.00  0.00    -0.354 N 
ATOM     60  N   UNL A   1      39.169  30.795  32.209  1.00  0.00    -0.248 NA
ATOM     61  C   UNL A   1      37.265  32.129  31.992  1.00  0.00     0.031 C 
ATOM     62  C   UNL A   1      41.513  30.379  35.964  1.00  0.00     0.029 A 
ATOM     63  C   UNL A   1      40.757  30.518  34.810  1.00  0.00     0.049 A 
ATOM     64  H   UNL A   1      40.996  29.565  32.942  1.00  0.00     0.167 HD
ATOM     65  C   UNL A   1      38.923  31.439  33.417  1.00  0.00     0.074 A 
ATOM     66  C   UNL A   1      37.757  32.272  33.214  1.00  0.00     0.031 C 
ATOM     67  C   UNL A   1      39.601  31.350  34.588  1.00  0.00     0.037 A 
BRANCH  54  68
ATOM     68  C   UNL A   1      44.361  27.409  34.441  1.00  0.00     0.057 A 
ATOM     69  C   UNL A   1      45.603  28.034  34.611  1.00  0.00     0.134 A 
ATOM     70  C   UNL A   1      44.196  26.137  35.005  1.00  0.00     0.134 A 
ATOM     71  F   UNL A   1      45.835  29.244  34.080  1.00  0.00    -0.206 F 
ATOM     72  C   UNL A   1      46.648  27.408  35.292  1.00  0.00     0.040 A 
ATOM     73  C   UNL A   1      45.224  25.513  35.715  1.00  0.00     0.040 A 
ATOM     74  F   UNL A   1      43.032  25.482  34.881  1.00  0.00    -0.206 F 
ATOM     75  C   UNL A   1      46.457  26.146  35.853  1.00  0.00     0.006 A 
ENDBRANCH  54  68
BRANCH  55  76
ATOM     76  C   UNL A   1      36.889  31.442  29.172  1.00  0.00     0.057 A 
ATOM     77  C   UNL A   1      35.767  30.675  28.839  1.00  0.00     0.134 A 
ATOM     78  C   UNL A   1      36.911  32.773  28.734  1.00  0.00     0.134 A 
ATOM     79  F   UNL A   1      35.697  29.387  29.207  1.00  0.00    -0.206 F 
ATOM     80  C   UNL A   1      34.720  31.200  28.079  1.00  0.00     0.040 A 
ATOM     81  C   UNL A   1      35.858  33.320  28.000  1.00  0.00     0.040 A 
ATOM     82  F   UNL A   1      37.957  33.563  29.019  1.00  0.00    -0.206 F 
ATOM     83  C   UNL A   1      34.762  32.530  27.662  1.00  0.00     0.006 A 
ENDBRANCH  55  76
BRANCH  67  84
ATOM     84  C   UNL A   1      39.133  32.211  35.729  1.00  0.00     0.057 A 
ATOM     85  C   UNL A   1      39.537  33.544  35.871  1.00  0.00     0.134 A 
ATOM     86  C   UNL A   1      38.228  31.706  36.673  1.00  0.00     0.134 A 
ATOM     87  F   UNL A   1      40.409  34.087  35.008  1.00  0.00    -0.206 F 
ATOM     88  C   UNL A   1      39.077  34.336  36.925  1.00  0.00     0.040 A 
ATOM     89  C   UNL A   1      37.737  32.499  37.711  1.00  0.00     0.040 A 
ATOM     90  F   UNL A   1      37.790  30.441  36.589  1.00  0.00    -0.206 F 
ATOM     91  C   UNL A   1      38.168  33.816  37.844  1.00  0.00     0.006 A 
ENDBRANCH  67  84
ENDBRANCH  41  42
ENDBRANCH  34  36
ENDBRANCH  33  34
ENDBRANCH  32  33
ENDBRANCH  31  32
ENDBRANCH  30  31
ENDBRANCH  29  30
ENDBRANCH  28  29
ENDBRANCH  27  28
ENDBRANCH   1  27
TORSDOF 24
ENDMDL
