MODEL 1
REMARK VINA RESULT:     -11.0      0.000      0.000
REMARK SMILES CC1(C)Oc2ccc(NC(=O)[C@H]3CC=CC[C@@H]3C(=O)OCCOCCOCCOCCOC(=O)c3ccc(-c4c5nc(c(-c6c(F)cccc6F)c6ccc([nH]6)c(-c6c(F)cccc6F)c6nc(c(-c7c(F)cccc7F)c7ccc4[nH]7)C=C6)C=C5)cc3)cc2NC1=O
REMARK SMILES IDX 26 1 25 2 24 3 23 4 22 5 21 6 20 7 18 8 19 9 17 10 12 11
REMARK SMILES IDX 13 12 14 13 16 14 15 15 10 16 9 17 11 19 8 20 1 21 2 22 3 23
REMARK SMILES IDX 4 24 92 25 5 26 91 27 93 28 6 29 90 30 7 32 89 33 27 34
REMARK SMILES IDX 28 35 29 36 30 37 31 38 32 39 33 40 34 41 35 42 36 43 88 44
REMARK SMILES IDX 37 45 87 46 38 47 39 48 40 49 81 50 41 51 86 52 80 53 82 54
REMARK SMILES IDX 42 55 85 56 79 57 78 58 43 60 69 61 52 62 68 63 53 64 56 65
REMARK SMILES IDX 67 66 83 67 54 68 55 69 66 71 84 72 57 73 44 74 45 75 50 76
REMARK SMILES IDX 46 77 47 78 49 79 51 80 48 81 70 82 71 83 76 84 72 85 73 86
REMARK SMILES IDX 75 87 77 88 74 89 58 90 59 91 64 92 60 93 61 94 63 95 65 96
REMARK SMILES IDX 62 97
REMARK H PARENT 9 18 91 31 82 59 56 70
REMARK Flexibility Score: inf
ROOT
ATOM      1  O   UNL A   1      42.251  19.819  26.993  1.00  0.00    -0.377 OA
ENDROOT
BRANCH   1   2
ATOM      2  C   UNL A   1      41.265  20.810  27.209  1.00  0.00     0.188 C 
BRANCH   2   3
ATOM      3  C   UNL A   1      40.109  20.897  26.198  1.00  0.00     0.188 C 
BRANCH   3   4
ATOM      4  O   UNL A   1      39.252  22.003  26.436  1.00  0.00    -0.376 OA
BRANCH   4   5
ATOM      5  C   UNL A   1      37.970  21.979  25.832  1.00  0.00     0.202 C 
BRANCH   5   6
ATOM      6  C   UNL A   1      37.373  23.317  25.369  1.00  0.00     0.261 C 
BRANCH   6   7
ATOM      7  O   UNL A   1      36.125  23.685  25.971  1.00  0.00    -0.463 OA
BRANCH   7   8
ATOM      8  C   UNL A   1      35.103  22.800  25.892  1.00  0.00     0.310 C 
ATOM      9  O   UNL A   1      34.680  22.163  26.849  1.00  0.00    -0.252 OA
BRANCH   8  10
ATOM     10  C   UNL A   1      34.431  22.838  24.515  1.00  0.00     0.116 C 
ATOM     11  C   UNL A   1      33.962  24.267  24.205  1.00  0.00     0.097 C 
ATOM     12  C   UNL A   1      32.788  24.601  25.175  1.00  0.00     0.041 C 
ATOM     13  C   UNL A   1      31.813  23.465  25.382  1.00  0.00    -0.030 C 
ATOM     14  C   UNL A   1      33.322  21.800  24.323  1.00  0.00     0.043 C 
ATOM     15  C   UNL A   1      32.042  22.208  24.975  1.00  0.00    -0.030 C 
BRANCH  11  16
ATOM     16  C   UNL A   1      33.556  24.535  22.749  1.00  0.00     0.228 C 
ATOM     17  N   UNL A   1      32.783  25.562  22.298  1.00  0.00    -0.326 N 
ATOM     18  H   UNL A   1      32.685  25.527  21.318  1.00  0.00     0.169 HD
ATOM     19  O   UNL A   1      33.924  23.762  21.851  1.00  0.00    -0.274 OA
BRANCH  17  20
ATOM     20  C   UNL A   1      32.089  26.656  22.836  1.00  0.00     0.043 A 
ATOM     21  C   UNL A   1      27.838  31.303  23.717  1.00  0.00     0.067 C 
ATOM     22  C   UNL A   1      28.540  30.134  23.019  1.00  0.00     0.182 C 
ATOM     23  C   UNL A   1      28.513  30.403  21.501  1.00  0.00     0.067 C 
ATOM     24  O   UNL A   1      29.888  30.127  23.517  1.00  0.00    -0.476 OA
ATOM     25  C   UNL A   1      27.766  28.813  23.223  1.00  0.00     0.268 C 
ATOM     26  C   UNL A   1      30.543  28.930  23.400  1.00  0.00     0.144 A 
ATOM     27  N   UNL A   1      28.523  27.689  22.988  1.00  0.00    -0.319 N 
ATOM     28  O   UNL A   1      26.559  28.737  23.436  1.00  0.00    -0.270 OA
ATOM     29  C   UNL A   1      31.897  28.901  23.720  1.00  0.00     0.051 A 
ATOM     30  C   UNL A   1      29.920  27.750  23.012  1.00  0.00     0.086 A 
ATOM     31  H   UNL A   1      28.077  26.832  22.801  1.00  0.00     0.170 HD
ATOM     32  C   UNL A   1      32.666  27.754  23.463  1.00  0.00     0.030 A 
ATOM     33  C   UNL A   1      30.687  26.621  22.714  1.00  0.00     0.056 A 
ENDBRANCH  17  20
ENDBRANCH  11  16
ENDBRANCH   8  10
ENDBRANCH   7   8
ENDBRANCH   6   7
ENDBRANCH   5   6
ENDBRANCH   4   5
ENDBRANCH   3   4
ENDBRANCH   2   3
ENDBRANCH   1   2
BRANCH   1  34
ATOM     34  C   UNL A   1      42.921  19.786  25.737  1.00  0.00     0.188 C 
BRANCH  34  35
ATOM     35  C   UNL A   1      44.064  20.774  25.391  1.00  0.00     0.188 C 
BRANCH  35  36
ATOM     36  O   UNL A   1      43.665  22.096  25.062  1.00  0.00    -0.376 OA
BRANCH  36  37
ATOM     37  C   UNL A   1      44.661  23.105  25.154  1.00  0.00     0.202 C 
BRANCH  37  38
ATOM     38  C   UNL A   1      44.124  24.519  25.404  1.00  0.00     0.261 C 
BRANCH  38  39
ATOM     39  O   UNL A   1      43.318  24.684  26.574  1.00  0.00    -0.460 OA
BRANCH  39  40
ATOM     40  C   UNL A   1      41.989  24.865  26.420  1.00  0.00     0.338 C 
ATOM     41  O   UNL A   1      41.216  24.205  25.753  1.00  0.00    -0.246 OA
BRANCH  40  42
ATOM     42  C   UNL A   1      41.612  25.896  27.403  1.00  0.00     0.060 A 
ATOM     43  C   UNL A   1      40.558  25.658  28.290  1.00  0.00     0.016 A 
ATOM     44  C   UNL A   1      42.245  27.143  27.356  1.00  0.00     0.016 A 
ATOM     45  C   UNL A   1      40.156  26.668  29.160  1.00  0.00     0.010 A 
ATOM     46  C   UNL A   1      41.825  28.160  28.211  1.00  0.00     0.010 A 
ATOM     47  C   UNL A   1      40.798  27.916  29.137  1.00  0.00    -0.014 A 
BRANCH  47  48
ATOM     48  C   UNL A   1      40.561  28.879  30.232  1.00  0.00     0.031 A 
ATOM     49  C   UNL A   1      39.509  29.937  30.159  1.00  0.00     0.074 A 
ATOM     50  C   UNL A   1      41.365  28.779  31.307  1.00  0.00     0.049 A 
ATOM     51  N   UNL A   1      39.184  30.829  31.062  1.00  0.00    -0.248 NA
ATOM     52  C   UNL A   1      38.722  30.013  28.922  1.00  0.00     0.031 C 
ATOM     53  C   UNL A   1      42.435  27.789  31.463  1.00  0.00     0.029 A 
ATOM     54  N   UNL A   1      41.417  29.513  32.459  1.00  0.00    -0.354 N 
ATOM     55  C   UNL A   1      38.141  31.561  30.516  1.00  0.00     0.074 A 
ATOM     56  C   UNL A   1      37.914  31.035  29.184  1.00  0.00     0.031 C 
ATOM     57  C   UNL A   1      43.038  27.980  32.644  1.00  0.00     0.029 A 
ATOM     58  C   UNL A   1      42.415  29.116  33.313  1.00  0.00     0.049 A 
ATOM     59  H   UNL A   1      40.799  30.255  32.657  1.00  0.00     0.167 HD
ATOM     60  C   UNL A   1      37.437  32.570  31.086  1.00  0.00     0.037 A 
ATOM     61  C   UNL A   1      42.795  29.620  34.498  1.00  0.00     0.037 A 
ATOM     62  C   UNL A   1      37.695  33.100  32.403  1.00  0.00     0.049 A 
ATOM     63  C   UNL A   1      42.046  30.789  35.065  1.00  0.00     0.074 A 
ATOM     64  C   UNL A   1      37.001  34.081  33.092  1.00  0.00     0.029 A 
ATOM     65  N   UNL A   1      38.746  32.710  33.223  1.00  0.00    -0.354 N 
ATOM     66  N   UNL A   1      41.002  31.415  34.579  1.00  0.00    -0.248 NA
ATOM     67  C   UNL A   1      42.529  31.321  36.346  1.00  0.00     0.031 C 
ATOM     68  C   UNL A   1      37.667  34.326  34.299  1.00  0.00     0.029 A 
ATOM     69  C   UNL A   1      38.746  33.463  34.387  1.00  0.00     0.049 A 
ATOM     70  H   UNL A   1      39.395  32.002  33.009  1.00  0.00     0.167 HD
ATOM     71  C   UNL A   1      40.695  32.407  35.500  1.00  0.00     0.074 A 
ATOM     72  C   UNL A   1      41.647  32.281  36.585  1.00  0.00     0.031 C 
ATOM     73  C   UNL A   1      39.715  33.342  35.448  1.00  0.00     0.037 A 
BRANCH  60  74
ATOM     74  C   UNL A   1      36.318  33.175  30.288  1.00  0.00     0.057 A 
ATOM     75  C   UNL A   1      34.985  32.829  30.540  1.00  0.00     0.134 A 
ATOM     76  C   UNL A   1      36.565  34.054  29.225  1.00  0.00     0.134 A 
ATOM     77  F   UNL A   1      34.678  31.983  31.536  1.00  0.00    -0.206 F 
ATOM     78  C   UNL A   1      33.938  33.333  29.766  1.00  0.00     0.040 A 
ATOM     79  C   UNL A   1      35.524  34.583  28.458  1.00  0.00     0.040 A 
ATOM     80  F   UNL A   1      37.819  34.429  28.929  1.00  0.00    -0.206 F 
ATOM     81  C   UNL A   1      34.206  34.217  28.724  1.00  0.00     0.006 A 
ENDBRANCH  60  74
BRANCH  61  82
ATOM     82  C   UNL A   1      43.941  29.022  35.222  1.00  0.00     0.057 A 
ATOM     83  C   UNL A   1      45.258  29.412  34.952  1.00  0.00     0.134 A 
ATOM     84  C   UNL A   1      43.742  28.045  36.203  1.00  0.00     0.134 A 
ATOM     85  F   UNL A   1      45.511  30.337  34.014  1.00  0.00    -0.206 F 
ATOM     86  C   UNL A   1      46.339  28.850  35.631  1.00  0.00     0.040 A 
ATOM     87  C   UNL A   1      44.811  27.492  36.908  1.00  0.00     0.040 A 
ATOM     88  F   UNL A   1      42.501  27.641  36.511  1.00  0.00    -0.206 F 
ATOM     89  C   UNL A   1      46.115  27.893  36.618  1.00  0.00     0.006 A 
ENDBRANCH  61  82
BRANCH  73  90
ATOM     90  C   UNL A   1      39.638  34.300  36.600  1.00  0.00     0.057 A 
ATOM     91  C   UNL A   1      38.977  33.951  37.784  1.00  0.00     0.134 A 
ATOM     92  C   UNL A   1      40.220  35.573  36.536  1.00  0.00     0.134 A 
ATOM     93  F   UNL A   1      38.397  32.748  37.912  1.00  0.00    -0.206 F 
ATOM     94  C   UNL A   1      38.895  34.835  38.862  1.00  0.00     0.040 A 
ATOM     95  C   UNL A   1      40.168  36.455  37.616  1.00  0.00     0.040 A 
ATOM     96  F   UNL A   1      40.887  35.960  35.438  1.00  0.00    -0.206 F 
ATOM     97  C   UNL A   1      39.498  36.088  38.782  1.00  0.00     0.006 A 
ENDBRANCH  73  90
ENDBRANCH  47  48
ENDBRANCH  40  42
ENDBRANCH  39  40
ENDBRANCH  38  39
ENDBRANCH  37  38
ENDBRANCH  36  37
ENDBRANCH  35  36
ENDBRANCH  34  35
ENDBRANCH   1  34
TORSDOF 22
ENDMDL
MODEL 2
REMARK VINA RESULT:     -10.1      4.822      9.805
REMARK SMILES CC1(C)Oc2ccc(NC(=O)[C@H]3CC=CC[C@@H]3C(=O)OCCOCCOCCOCCOC(=O)c3ccc(-c4c5nc(c(-c6c(F)cccc6F)c6ccc([nH]6)c(-c6c(F)cccc6F)c6nc(c(-c7c(F)cccc7F)c7ccc4[nH]7)C=C6)C=C5)cc3)cc2NC1=O
REMARK SMILES IDX 26 1 25 2 24 3 23 4 22 5 21 6 20 7 18 8 19 9 17 10 12 11
REMARK SMILES IDX 13 12 14 13 16 14 15 15 10 16 9 17 11 19 8 20 1 21 2 22 3 23
REMARK SMILES IDX 4 24 92 25 5 26 91 27 93 28 6 29 90 30 7 32 89 33 27 34
REMARK SMILES IDX 28 35 29 36 30 37 31 38 32 39 33 40 34 41 35 42 36 43 88 44
REMARK SMILES IDX 37 45 87 46 38 47 39 48 40 49 81 50 41 51 86 52 80 53 82 54
REMARK SMILES IDX 42 55 85 56 79 57 78 58 43 60 69 61 52 62 68 63 53 64 56 65
REMARK SMILES IDX 67 66 83 67 54 68 55 69 66 71 84 72 57 73 44 74 45 75 50 76
REMARK SMILES IDX 46 77 47 78 49 79 51 80 48 81 70 82 71 83 76 84 72 85 73 86
REMARK SMILES IDX 75 87 77 88 74 89 58 90 59 91 64 92 60 93 61 94 63 95 65 96
REMARK SMILES IDX 62 97
REMARK H PARENT 9 18 91 31 82 59 56 70
REMARK Flexibility Score: inf
ROOT
ATOM      1  O   UNL A   1      31.551  29.227  27.582  1.00  0.00    -0.377 OA
ENDROOT
BRANCH   1   2
ATOM      2  C   UNL A   1      31.388  27.845  27.837  1.00  0.00     0.188 C 
BRANCH   2   3
ATOM      3  C   UNL A   1      31.673  26.869  26.682  1.00  0.00     0.188 C 
BRANCH   3   4
ATOM      4  O   UNL A   1      30.983  25.637  26.820  1.00  0.00    -0.376 OA
BRANCH   4   5
ATOM      5  C   UNL A   1      31.763  24.460  26.939  1.00  0.00     0.202 C 
BRANCH   5   6
ATOM      6  C   UNL A   1      33.242  24.538  26.529  1.00  0.00     0.261 C 
BRANCH   6   7
ATOM      7  O   UNL A   1      34.080  23.479  27.010  1.00  0.00    -0.463 OA
BRANCH   7   8
ATOM      8  C   UNL A   1      33.740  22.210  26.684  1.00  0.00     0.310 C 
ATOM      9  O   UNL A   1      33.415  21.361  27.505  1.00  0.00    -0.252 OA
BRANCH   8  10
ATOM     10  C   UNL A   1      33.634  22.029  25.167  1.00  0.00     0.116 C 
ATOM     11  C   UNL A   1      32.799  20.778  24.850  1.00  0.00     0.097 C 
ATOM     12  C   UNL A   1      33.625  19.533  25.293  1.00  0.00     0.041 C 
ATOM     13  C   UNL A   1      35.097  19.617  24.964  1.00  0.00    -0.030 C 
ATOM     14  C   UNL A   1      34.977  22.040  24.431  1.00  0.00     0.043 C 
ATOM     15  C   UNL A   1      35.702  20.740  24.551  1.00  0.00    -0.030 C 
BRANCH  11  16
ATOM     16  C   UNL A   1      32.338  20.635  23.393  1.00  0.00     0.228 C 
ATOM     17  N   UNL A   1      31.903  21.635  22.577  1.00  0.00    -0.326 N 
ATOM     18  H   UNL A   1      31.685  21.291  21.680  1.00  0.00     0.169 HD
ATOM     19  O   UNL A   1      32.320  19.517  22.855  1.00  0.00    -0.274 OA
BRANCH  17  20
ATOM     20  C   UNL A   1      31.680  23.018  22.655  1.00  0.00     0.043 A 
ATOM     21  C   UNL A   1      32.567  29.276  23.353  1.00  0.00     0.067 C 
ATOM     22  C   UNL A   1      32.920  27.786  23.330  1.00  0.00     0.182 C 
ATOM     23  C   UNL A   1      33.928  27.520  24.466  1.00  0.00     0.067 C 
ATOM     24  O   UNL A   1      31.687  27.084  23.562  1.00  0.00    -0.476 OA
ATOM     25  C   UNL A   1      33.649  27.402  22.025  1.00  0.00     0.268 C 
ATOM     26  C   UNL A   1      31.670  25.784  23.131  1.00  0.00     0.144 A 
ATOM     27  N   UNL A   1      33.628  26.052  21.759  1.00  0.00    -0.319 N 
ATOM     28  O   UNL A   1      34.313  28.177  21.342  1.00  0.00    -0.270 OA
ATOM     29  C   UNL A   1      30.564  25.008  23.465  1.00  0.00     0.051 A 
ATOM     30  C   UNL A   1      32.678  25.220  22.358  1.00  0.00     0.086 A 
ATOM     31  H   UNL A   1      34.289  25.668  21.139  1.00  0.00     0.170 HD
ATOM     32  C   UNL A   1      30.556  23.628  23.203  1.00  0.00     0.030 A 
ATOM     33  C   UNL A   1      32.695  23.842  22.133  1.00  0.00     0.056 A 
ENDBRANCH  17  20
ENDBRANCH  11  16
ENDBRANCH   8  10
ENDBRANCH   7   8
ENDBRANCH   6   7
ENDBRANCH   5   6
ENDBRANCH   4   5
ENDBRANCH   3   4
ENDBRANCH   2   3
ENDBRANCH   1   2
BRANCH   1  34
ATOM     34  C   UNL A   1      32.787  29.678  27.036  1.00  0.00     0.188 C 
BRANCH  34  35
ATOM     35  C   UNL A   1      33.249  31.152  27.158  1.00  0.00     0.188 C 
BRANCH  35  36
ATOM     36  O   UNL A   1      33.934  31.492  28.355  1.00  0.00    -0.376 OA
BRANCH  36  37
ATOM     37  C   UNL A   1      34.766  32.643  28.309  1.00  0.00     0.202 C 
BRANCH  37  38
ATOM     38  C   UNL A   1      35.151  33.213  29.678  1.00  0.00     0.261 C 
BRANCH  38  39
ATOM     39  O   UNL A   1      36.429  32.816  30.184  1.00  0.00    -0.460 OA
BRANCH  39  40
ATOM     40  C   UNL A   1      36.518  31.659  30.873  1.00  0.00     0.338 C 
ATOM     41  O   UNL A   1      35.659  31.119  31.544  1.00  0.00    -0.246 OA
BRANCH  40  42
ATOM     42  C   UNL A   1      37.800  31.055  30.471  1.00  0.00     0.060 A 
ATOM     43  C   UNL A   1      38.085  30.864  29.116  1.00  0.00     0.016 A 
ATOM     44  C   UNL A   1      38.668  30.579  31.461  1.00  0.00     0.016 A 
ATOM     45  C   UNL A   1      39.262  30.219  28.748  1.00  0.00     0.010 A 
ATOM     46  C   UNL A   1      39.834  29.912  31.092  1.00  0.00     0.010 A 
ATOM     47  C   UNL A   1      40.150  29.756  29.733  1.00  0.00    -0.014 A 
BRANCH  47  48
ATOM     48  C   UNL A   1      41.510  29.328  29.346  1.00  0.00     0.031 A 
ATOM     49  C   UNL A   1      42.676  30.262  29.341  1.00  0.00     0.074 A 
ATOM     50  C   UNL A   1      41.652  28.045  28.966  1.00  0.00     0.049 A 
ATOM     51  N   UNL A   1      43.926  30.005  29.043  1.00  0.00    -0.248 NA
ATOM     52  C   UNL A   1      42.416  31.660  29.708  1.00  0.00     0.031 C 
ATOM     53  C   UNL A   1      40.568  27.060  28.920  1.00  0.00     0.029 A 
ATOM     54  N   UNL A   1      42.752  27.353  28.540  1.00  0.00    -0.354 N 
ATOM     55  C   UNL A   1      44.610  31.200  29.208  1.00  0.00     0.074 A 
ATOM     56  C   UNL A   1      43.626  32.194  29.592  1.00  0.00     0.031 C 
ATOM     57  C   UNL A   1      41.058  25.890  28.489  1.00  0.00     0.029 A 
ATOM     58  C   UNL A   1      42.479  26.050  28.207  1.00  0.00     0.049 A 
ATOM     59  H   UNL A   1      43.652  27.750  28.479  1.00  0.00     0.167 HD
ATOM     60  C   UNL A   1      45.937  31.434  29.061  1.00  0.00     0.037 A 
ATOM     61  C   UNL A   1      43.283  25.093  27.714  1.00  0.00     0.037 A 
ATOM     62  C   UNL A   1      46.898  30.438  28.651  1.00  0.00     0.049 A 
ATOM     63  C   UNL A   1      44.732  25.407  27.486  1.00  0.00     0.074 A 
ATOM     64  C   UNL A   1      48.273  30.561  28.529  1.00  0.00     0.029 A 
ATOM     65  N   UNL A   1      46.582  29.140  28.271  1.00  0.00    -0.354 N 
ATOM     66  N   UNL A   1      45.385  26.517  27.732  1.00  0.00    -0.248 NA
ATOM     67  C   UNL A   1      45.554  24.335  26.912  1.00  0.00     0.031 C 
ATOM     68  C   UNL A   1      48.779  29.359  28.019  1.00  0.00     0.029 A 
ATOM     69  C   UNL A   1      47.728  28.469  27.870  1.00  0.00     0.049 A 
ATOM     70  H   UNL A   1      45.677  28.753  28.286  1.00  0.00     0.167 HD
ATOM     71  C   UNL A   1      46.698  26.273  27.354  1.00  0.00     0.074 A 
ATOM     72  C   UNL A   1      46.752  24.901  26.889  1.00  0.00     0.031 C 
ATOM     73  C   UNL A   1      47.762  27.111  27.386  1.00  0.00     0.037 A 
BRANCH  60  74
ATOM     74  C   UNL A   1      46.435  32.823  29.340  1.00  0.00     0.057 A 
ATOM     75  C   UNL A   1      46.799  33.209  30.636  1.00  0.00     0.134 A 
ATOM     76  C   UNL A   1      46.494  33.799  28.336  1.00  0.00     0.134 A 
ATOM     77  F   UNL A   1      46.755  32.328  31.648  1.00  0.00    -0.206 F 
ATOM     78  C   UNL A   1      47.202  34.515  30.925  1.00  0.00     0.040 A 
ATOM     79  C   UNL A   1      46.917  35.102  28.608  1.00  0.00     0.040 A 
ATOM     80  F   UNL A   1      46.161  33.496  27.072  1.00  0.00    -0.206 F 
ATOM     81  C   UNL A   1      47.267  35.464  29.907  1.00  0.00     0.006 A 
ENDBRANCH  60  74
BRANCH  61  82
ATOM     82  C   UNL A   1      42.732  23.754  27.403  1.00  0.00     0.057 A 
ATOM     83  C   UNL A   1      42.380  23.396  26.096  1.00  0.00     0.134 A 
ATOM     84  C   UNL A   1      42.548  22.800  28.408  1.00  0.00     0.134 A 
ATOM     85  F   UNL A   1      42.524  24.274  25.092  1.00  0.00    -0.206 F 
ATOM     86  C   UNL A   1      41.860  22.137  25.800  1.00  0.00     0.040 A 
ATOM     87  C   UNL A   1      42.053  21.527  28.123  1.00  0.00     0.040 A 
ATOM     88  F   UNL A   1      42.880  23.083  29.677  1.00  0.00    -0.206 F 
ATOM     89  C   UNL A   1      41.704  21.195  26.815  1.00  0.00     0.006 A 
ENDBRANCH  61  82
BRANCH  73  90
ATOM     90  C   UNL A   1      49.069  26.560  26.896  1.00  0.00     0.057 A 
ATOM     91  C   UNL A   1      49.916  25.845  27.751  1.00  0.00     0.134 A 
ATOM     92  C   UNL A   1      49.488  26.738  25.571  1.00  0.00     0.134 A 
ATOM     93  F   UNL A   1      49.575  25.640  29.032  1.00  0.00    -0.206 F 
ATOM     94  C   UNL A   1      51.135  25.330  27.307  1.00  0.00     0.040 A 
ATOM     95  C   UNL A   1      50.692  26.205  25.109  1.00  0.00     0.040 A 
ATOM     96  F   UNL A   1      48.712  27.394  24.695  1.00  0.00    -0.206 F 
ATOM     97  C   UNL A   1      51.522  25.504  25.980  1.00  0.00     0.006 A 
ENDBRANCH  73  90
ENDBRANCH  47  48
ENDBRANCH  40  42
ENDBRANCH  39  40
ENDBRANCH  38  39
ENDBRANCH  37  38
ENDBRANCH  36  37
ENDBRANCH  35  36
ENDBRANCH  34  35
ENDBRANCH   1  34
TORSDOF 22
ENDMDL
MODEL 3
REMARK VINA RESULT:      -9.6      6.118     11.964
REMARK SMILES CC1(C)Oc2ccc(NC(=O)[C@H]3CC=CC[C@@H]3C(=O)OCCOCCOCCOCCOC(=O)c3ccc(-c4c5nc(c(-c6c(F)cccc6F)c6ccc([nH]6)c(-c6c(F)cccc6F)c6nc(c(-c7c(F)cccc7F)c7ccc4[nH]7)C=C6)C=C5)cc3)cc2NC1=O
REMARK SMILES IDX 26 1 25 2 24 3 23 4 22 5 21 6 20 7 18 8 19 9 17 10 12 11
REMARK SMILES IDX 13 12 14 13 16 14 15 15 10 16 9 17 11 19 8 20 1 21 2 22 3 23
REMARK SMILES IDX 4 24 92 25 5 26 91 27 93 28 6 29 90 30 7 32 89 33 27 34
REMARK SMILES IDX 28 35 29 36 30 37 31 38 32 39 33 40 34 41 35 42 36 43 88 44
REMARK SMILES IDX 37 45 87 46 38 47 39 48 40 49 81 50 41 51 86 52 80 53 82 54
REMARK SMILES IDX 42 55 85 56 79 57 78 58 43 60 69 61 52 62 68 63 53 64 56 65
REMARK SMILES IDX 67 66 83 67 54 68 55 69 66 71 84 72 57 73 44 74 45 75 50 76
REMARK SMILES IDX 46 77 47 78 49 79 51 80 48 81 70 82 71 83 76 84 72 85 73 86
REMARK SMILES IDX 75 87 77 88 74 89 58 90 59 91 64 92 60 93 61 94 63 95 65 96
REMARK SMILES IDX 62 97
REMARK H PARENT 9 18 91 31 82 59 56 70
REMARK Flexibility Score: inf
ROOT
ATOM      1  O   UNL A   1      38.469  32.233  38.913  1.00  0.00    -0.377 OA
ENDROOT
BRANCH   1   2
ATOM      2  C   UNL A   1      37.676  31.904  37.789  1.00  0.00     0.188 C 
BRANCH   2   3
ATOM      3  C   UNL A   1      37.778  30.471  37.239  1.00  0.00     0.188 C 
BRANCH   3   4
ATOM      4  O   UNL A   1      38.513  30.398  36.027  1.00  0.00    -0.376 OA
BRANCH   4   5
ATOM      5  C   UNL A   1      38.130  31.268  34.977  1.00  0.00     0.202 C 
BRANCH   5   6
ATOM      6  C   UNL A   1      37.734  30.636  33.632  1.00  0.00     0.261 C 
BRANCH   6   7
ATOM      7  O   UNL A   1      37.655  29.205  33.614  1.00  0.00    -0.463 OA
BRANCH   7   8
ATOM      8  C   UNL A   1      38.407  28.545  32.702  1.00  0.00     0.310 C 
ATOM      9  O   UNL A   1      38.529  27.326  32.675  1.00  0.00    -0.252 OA
BRANCH   8  10
ATOM     10  C   UNL A   1      38.926  29.489  31.612  1.00  0.00     0.116 C 
ATOM     11  C   UNL A   1      37.927  29.535  30.446  1.00  0.00     0.097 C 
ATOM     12  C   UNL A   1      37.953  28.143  29.744  1.00  0.00     0.041 C 
ATOM     13  C   UNL A   1      39.336  27.552  29.592  1.00  0.00    -0.030 C 
ATOM     14  C   UNL A   1      40.356  29.196  31.149  1.00  0.00     0.043 C 
ATOM     15  C   UNL A   1      40.423  28.042  30.204  1.00  0.00    -0.030 C 
BRANCH  11  16
ATOM     16  C   UNL A   1      38.143  30.662  29.426  1.00  0.00     0.228 C 
ATOM     17  N   UNL A   1      37.880  31.986  29.612  1.00  0.00    -0.326 N 
ATOM     18  H   UNL A   1      38.124  32.510  28.815  1.00  0.00     0.169 HD
ATOM     19  O   UNL A   1      38.580  30.399  28.295  1.00  0.00    -0.274 OA
BRANCH  17  20
ATOM     20  C   UNL A   1      37.360  32.812  30.619  1.00  0.00     0.043 A 
ATOM     21  C   UNL A   1      33.649  36.851  33.838  1.00  0.00     0.067 C 
ATOM     22  C   UNL A   1      34.145  36.013  32.655  1.00  0.00     0.182 C 
ATOM     23  C   UNL A   1      33.899  36.821  31.365  1.00  0.00     0.067 C 
ATOM     24  O   UNL A   1      35.551  35.811  32.875  1.00  0.00    -0.476 OA
ATOM     25  C   UNL A   1      33.320  34.717  32.501  1.00  0.00     0.268 C 
ATOM     26  C   UNL A   1      36.091  34.734  32.224  1.00  0.00     0.144 A 
ATOM     27  N   UNL A   1      33.947  33.751  31.750  1.00  0.00    -0.319 N 
ATOM     28  O   UNL A   1      32.159  34.579  32.878  1.00  0.00    -0.270 OA
ATOM     29  C   UNL A   1      37.473  34.577  32.272  1.00  0.00     0.051 A 
ATOM     30  C   UNL A   1      35.331  33.785  31.551  1.00  0.00     0.086 A 
ATOM     31  H   UNL A   1      33.416  33.026  31.346  1.00  0.00     0.170 HD
ATOM     32  C   UNL A   1      38.107  33.597  31.490  1.00  0.00     0.030 A 
ATOM     33  C   UNL A   1      35.958  32.838  30.738  1.00  0.00     0.056 A 
ENDBRANCH  17  20
ENDBRANCH  11  16
ENDBRANCH   8  10
ENDBRANCH   7   8
ENDBRANCH   6   7
ENDBRANCH   5   6
ENDBRANCH   4   5
ENDBRANCH   3   4
ENDBRANCH   2   3
ENDBRANCH   1   2
BRANCH   1  34
ATOM     34  C   UNL A   1      38.152  33.410  39.650  1.00  0.00     0.188 C 
BRANCH  34  35
ATOM     35  C   UNL A   1      38.220  33.453  41.197  1.00  0.00     0.188 C 
BRANCH  35  36
ATOM     36  O   UNL A   1      39.277  34.221  41.752  1.00  0.00    -0.376 OA
BRANCH  36  37
ATOM     37  C   UNL A   1      39.683  35.371  41.022  1.00  0.00     0.202 C 
BRANCH  37  38
ATOM     38  C   UNL A   1      41.117  35.316  40.482  1.00  0.00     0.261 C 
BRANCH  38  39
ATOM     39  O   UNL A   1      41.420  36.223  39.418  1.00  0.00    -0.460 OA
BRANCH  39  40
ATOM     40  C   UNL A   1      40.525  36.362  38.417  1.00  0.00     0.338 C 
ATOM     41  O   UNL A   1      39.654  37.202  38.301  1.00  0.00    -0.246 OA
BRANCH  40  42
ATOM     42  C   UNL A   1      40.954  35.420  37.368  1.00  0.00     0.060 A 
ATOM     43  C   UNL A   1      40.004  34.634  36.708  1.00  0.00     0.016 A 
ATOM     44  C   UNL A   1      42.322  35.247  37.127  1.00  0.00     0.016 A 
ATOM     45  C   UNL A   1      40.426  33.689  35.777  1.00  0.00     0.010 A 
ATOM     46  C   UNL A   1      42.743  34.283  36.213  1.00  0.00     0.010 A 
ATOM     47  C   UNL A   1      41.795  33.522  35.512  1.00  0.00    -0.014 A 
BRANCH  47  48
ATOM     48  C   UNL A   1      42.220  32.728  34.341  1.00  0.00     0.031 A 
ATOM     49  C   UNL A   1      42.527  31.268  34.427  1.00  0.00     0.074 A 
ATOM     50  C   UNL A   1      42.347  33.391  33.177  1.00  0.00     0.049 A 
ATOM     51  N   UNL A   1      42.887  30.452  33.468  1.00  0.00    -0.248 NA
ATOM     52  C   UNL A   1      42.424  30.640  35.751  1.00  0.00     0.031 C 
ATOM     53  C   UNL A   1      42.088  34.822  32.997  1.00  0.00     0.029 A 
ATOM     54  N   UNL A   1      42.731  32.961  31.937  1.00  0.00    -0.354 N 
ATOM     55  C   UNL A   1      43.033  29.207  34.063  1.00  0.00     0.074 A 
ATOM     56  C   UNL A   1      42.762  29.386  35.476  1.00  0.00     0.031 C 
ATOM     57  C   UNL A   1      42.321  35.152  31.719  1.00  0.00     0.029 A 
ATOM     58  C   UNL A   1      42.767  33.964  31.001  1.00  0.00     0.049 A 
ATOM     59  H   UNL A   1      42.958  32.024  31.735  1.00  0.00     0.167 HD
ATOM     60  C   UNL A   1      43.353  28.029  33.473  1.00  0.00     0.037 A 
ATOM     61  C   UNL A   1      43.134  33.932  29.709  1.00  0.00     0.037 A 
ATOM     62  C   UNL A   1      43.647  27.876  32.068  1.00  0.00     0.049 A 
ATOM     63  C   UNL A   1      43.561  32.627  29.106  1.00  0.00     0.074 A 
ATOM     64  C   UNL A   1      43.926  26.715  31.365  1.00  0.00     0.029 A 
ATOM     65  N   UNL A   1      43.726  28.919  31.156  1.00  0.00    -0.354 N 
ATOM     66  N   UNL A   1      43.608  31.439  29.657  1.00  0.00    -0.248 NA
ATOM     67  C   UNL A   1      43.986  32.660  27.701  1.00  0.00     0.031 C 
ATOM     68  C   UNL A   1      44.231  27.064  30.043  1.00  0.00     0.029 A 
ATOM     69  C   UNL A   1      44.094  28.435  29.909  1.00  0.00     0.049 A 
ATOM     70  H   UNL A   1      43.546  29.864  31.364  1.00  0.00     0.167 HD
ATOM     71  C   UNL A   1      44.055  30.580  28.664  1.00  0.00     0.074 A 
ATOM     72  C   UNL A   1      44.239  31.380  27.469  1.00  0.00     0.031 C 
ATOM     73  C   UNL A   1      44.297  29.248  28.736  1.00  0.00     0.037 A 
BRANCH  60  74
ATOM     74  C   UNL A   1      43.409  26.808  34.344  1.00  0.00     0.057 A 
ATOM     75  C   UNL A   1      44.637  26.268  34.749  1.00  0.00     0.134 A 
ATOM     76  C   UNL A   1      42.248  26.126  34.731  1.00  0.00     0.134 A 
ATOM     77  F   UNL A   1      45.789  26.863  34.403  1.00  0.00    -0.206 F 
ATOM     78  C   UNL A   1      44.708  25.096  35.505  1.00  0.00     0.040 A 
ATOM     79  C   UNL A   1      42.305  24.966  35.507  1.00  0.00     0.040 A 
ATOM     80  F   UNL A   1      41.038  26.589  34.379  1.00  0.00    -0.206 F 
ATOM     81  C   UNL A   1      43.539  24.445  35.891  1.00  0.00     0.006 A 
ENDBRANCH  60  74
BRANCH  61  82
ATOM     82  C   UNL A   1      43.115  35.176  28.906  1.00  0.00     0.057 A 
ATOM     83  C   UNL A   1      44.284  35.908  28.667  1.00  0.00     0.134 A 
ATOM     84  C   UNL A   1      41.923  35.660  28.356  1.00  0.00     0.134 A 
ATOM     85  F   UNL A   1      45.455  35.499  29.177  1.00  0.00    -0.206 F 
ATOM     86  C   UNL A   1      44.269  37.081  27.911  1.00  0.00     0.040 A 
ATOM     87  C   UNL A   1      41.897  36.817  27.578  1.00  0.00     0.040 A 
ATOM     88  F   UNL A   1      40.774  34.994  28.543  1.00  0.00    -0.206 F 
ATOM     89  C   UNL A   1      43.073  37.533  27.358  1.00  0.00     0.006 A 
ENDBRANCH  61  82
BRANCH  73  90
ATOM     90  C   UNL A   1      44.792  28.585  27.484  1.00  0.00     0.057 A 
ATOM     91  C   UNL A   1      46.159  28.540  27.185  1.00  0.00     0.134 A 
ATOM     92  C   UNL A   1      43.910  27.990  26.571  1.00  0.00     0.134 A 
ATOM     93  F   UNL A   1      47.057  29.092  28.014  1.00  0.00    -0.206 F 
ATOM     94  C   UNL A   1      46.631  27.929  26.021  1.00  0.00     0.040 A 
ATOM     95  C   UNL A   1      44.372  27.353  25.420  1.00  0.00     0.040 A 
ATOM     96  F   UNL A   1      42.590  27.979  26.811  1.00  0.00    -0.206 F 
ATOM     97  C   UNL A   1      45.737  27.326  25.139  1.00  0.00     0.006 A 
ENDBRANCH  73  90
ENDBRANCH  47  48
ENDBRANCH  40  42
ENDBRANCH  39  40
ENDBRANCH  38  39
ENDBRANCH  37  38
ENDBRANCH  36  37
ENDBRANCH  35  36
ENDBRANCH  34  35
ENDBRANCH   1  34
TORSDOF 22
ENDMDL
