MODEL 1
REMARK VINA RESULT:     -10.0      0.000      0.000
REMARK SMILES O=C(OCCOCCOCCOCCOC(=O)c1ccc(-c2c3nc(c(-c4c(F)cccc4F)c4ccc([nH]4)c(-c4c(F)cccc4F)c4nc(c(-c5c(F)cccc5F)c5ccc2[nH]5)C=C4)C=C3)cc1)C1=NN(c2ccc([N+](=O)[O-])cc2)[C@H](c2ccccc2)C1
REMARK SMILES IDX 9 1 8 2 7 3 6 4 5 5 4 6 3 7 2 8 1 9 72 10 73 11 91 12 74 13
REMARK SMILES IDX 84 14 75 15 76 16 83 17 77 18 82 19 78 20 79 21 80 22 81 23
REMARK SMILES IDX 85 24 86 25 90 26 87 27 89 28 88 29 10 30 11 31 12 32 13 33
REMARK SMILES IDX 14 34 15 35 16 36 17 37 18 38 19 39 71 40 20 41 70 42 21 43
REMARK SMILES IDX 22 44 23 45 64 46 24 47 69 48 63 49 65 50 25 51 68 52 62 53
REMARK SMILES IDX 61 54 26 56 52 57 35 58 51 59 36 60 39 61 50 62 66 63 37 64
REMARK SMILES IDX 38 65 49 67 67 68 40 69 27 70 28 71 33 72 29 73 30 74 32 75
REMARK SMILES IDX 34 76 31 77 53 78 54 79 59 80 55 81 56 82 58 83 60 84 57 85
REMARK SMILES IDX 41 86 42 87 47 88 43 89 44 90 46 91 48 92 45 93
REMARK H PARENT 65 55 39 66
REMARK Flexibility Score: inf
ROOT
ATOM      1  O   UNL A   1      38.733  20.936  25.479  1.00  0.00    -0.377 OA
ENDROOT
BRANCH   1   2
ATOM      2  C   UNL A   1      37.422  20.799  24.946  1.00  0.00     0.188 C 
BRANCH   2   3
ATOM      3  C   UNL A   1      36.404  21.875  25.313  1.00  0.00     0.188 C 
BRANCH   3   4
ATOM      4  O   UNL A   1      35.348  21.581  26.209  1.00  0.00    -0.376 OA
BRANCH   4   5
ATOM      5  C   UNL A   1      34.405  22.491  26.739  1.00  0.00     0.202 C 
BRANCH   5   6
ATOM      6  C   UNL A   1      32.941  22.111  26.943  1.00  0.00     0.261 C 
BRANCH   6   7
ATOM      7  O   UNL A   1      31.976  22.815  26.161  1.00  0.00    -0.459 OA
BRANCH   7   8
ATOM      8  C   UNL A   1      31.443  23.961  26.615  1.00  0.00     0.354 C 
ATOM      9  O   UNL A   1      30.389  24.003  27.235  1.00  0.00    -0.245 OA
BRANCH   8  10
ATOM     10  C   UNL A   1      32.035  25.262  26.125  1.00  0.00     0.148 C 
ATOM     11  N   UNL A   1      31.917  26.411  26.720  1.00  0.00    -0.169 NA
ATOM     12  C   UNL A   1      32.893  25.263  24.887  1.00  0.00     0.098 C 
ATOM     13  N   UNL A   1      32.704  27.244  25.998  1.00  0.00    -0.257 N 
ATOM     14  C   UNL A   1      32.854  26.774  24.618  1.00  0.00     0.144 C 
BRANCH  13  15
ATOM     15  C   UNL A   1      33.111  28.466  26.498  1.00  0.00     0.061 A 
ATOM     16  C   UNL A   1      32.193  29.511  26.684  1.00  0.00     0.035 A 
ATOM     17  C   UNL A   1      34.452  28.692  26.827  1.00  0.00     0.035 A 
ATOM     18  C   UNL A   1      32.594  30.738  27.228  1.00  0.00     0.088 A 
ATOM     19  C   UNL A   1      34.865  29.897  27.401  1.00  0.00     0.088 A 
ATOM     20  C   UNL A   1      33.929  30.916  27.606  1.00  0.00     0.269 A 
BRANCH  20  21
ATOM     21  N   UNL A   1      34.352  32.171  28.236  1.00  0.00     0.062 N 
ATOM     22  O   UNL A   1      34.413  32.206  29.473  1.00  0.00    -0.258 OA
ATOM     23  O   UNL A   1      34.639  33.121  27.492  1.00  0.00    -0.258 OA
ENDBRANCH  20  21
ENDBRANCH  13  15
BRANCH  14  24
ATOM     24  C   UNL A   1      31.618  27.271  23.857  1.00  0.00    -0.023 A 
ATOM     25  C   UNL A   1      30.375  26.608  23.909  1.00  0.00     0.006 A 
ATOM     26  C   UNL A   1      31.656  28.564  23.307  1.00  0.00     0.006 A 
ATOM     27  C   UNL A   1      29.201  27.259  23.532  1.00  0.00     0.000 A 
ATOM     28  C   UNL A   1      30.478  29.212  22.934  1.00  0.00     0.000 A 
ATOM     29  C   UNL A   1      29.250  28.569  23.070  1.00  0.00     0.000 A 
ENDBRANCH  14  24
ENDBRANCH   8  10
ENDBRANCH   7   8
ENDBRANCH   6   7
ENDBRANCH   5   6
ENDBRANCH   4   5
ENDBRANCH   3   4
ENDBRANCH   2   3
ENDBRANCH   1   2
BRANCH   1  30
ATOM     30  C   UNL A   1      39.399  19.703  25.711  1.00  0.00     0.188 C 
BRANCH  30  31
ATOM     31  C   UNL A   1      40.768  19.869  26.400  1.00  0.00     0.188 C 
BRANCH  31  32
ATOM     32  O   UNL A   1      41.860  19.755  25.492  1.00  0.00    -0.376 OA
BRANCH  32  33
ATOM     33  C   UNL A   1      43.034  20.491  25.809  1.00  0.00     0.202 C 
BRANCH  33  34
ATOM     34  C   UNL A   1      42.965  22.028  25.755  1.00  0.00     0.261 C 
BRANCH  34  35
ATOM     35  O   UNL A   1      44.078  22.704  25.141  1.00  0.00    -0.460 OA
BRANCH  35  36
ATOM     36  C   UNL A   1      45.248  22.758  25.809  1.00  0.00     0.338 C 
ATOM     37  O   UNL A   1      46.025  21.840  26.006  1.00  0.00    -0.246 OA
BRANCH  36  38
ATOM     38  C   UNL A   1      45.558  24.190  26.054  1.00  0.00     0.060 A 
ATOM     39  C   UNL A   1      45.371  25.101  25.004  1.00  0.00     0.016 A 
ATOM     40  C   UNL A   1      45.951  24.648  27.318  1.00  0.00     0.016 A 
ATOM     41  C   UNL A   1      45.643  26.455  25.193  1.00  0.00     0.010 A 
ATOM     42  C   UNL A   1      46.249  26.003  27.501  1.00  0.00     0.010 A 
ATOM     43  C   UNL A   1      46.152  26.899  26.422  1.00  0.00    -0.014 A 
BRANCH  43  44
ATOM     44  C   UNL A   1      46.889  28.185  26.449  1.00  0.00     0.031 A 
ATOM     45  C   UNL A   1      48.384  28.119  26.265  1.00  0.00     0.074 A 
ATOM     46  C   UNL A   1      46.271  29.375  26.549  1.00  0.00     0.049 A 
ATOM     47  N   UNL A   1      49.263  29.084  26.181  1.00  0.00    -0.248 NA
ATOM     48  C   UNL A   1      48.966  26.769  26.155  1.00  0.00     0.031 C 
ATOM     49  C   UNL A   1      44.832  29.579  26.688  1.00  0.00     0.029 A 
ATOM     50  N   UNL A   1      46.792  30.646  26.535  1.00  0.00    -0.354 N 
ATOM     51  C   UNL A   1      50.491  28.458  26.009  1.00  0.00     0.074 A 
ATOM     52  C   UNL A   1      50.256  27.033  26.039  1.00  0.00     0.031 C 
ATOM     53  C   UNL A   1      44.583  30.900  26.746  1.00  0.00     0.029 A 
ATOM     54  C   UNL A   1      45.846  31.633  26.664  1.00  0.00     0.049 A 
ATOM     55  H   UNL A   1      47.754  30.832  26.442  1.00  0.00     0.167 HD
ATOM     56  C   UNL A   1      51.709  29.015  25.823  1.00  0.00     0.037 A 
ATOM     57  C   UNL A   1      45.992  32.972  26.710  1.00  0.00     0.037 A 
ATOM     58  C   UNL A   1      51.947  30.432  25.797  1.00  0.00     0.049 A 
ATOM     59  C   UNL A   1      47.371  33.571  26.571  1.00  0.00     0.074 A 
ATOM     60  C   UNL A   1      53.142  31.102  25.612  1.00  0.00     0.029 A 
ATOM     61  N   UNL A   1      50.967  31.396  25.972  1.00  0.00    -0.354 N 
ATOM     62  N   UNL A   1      48.521  32.973  26.373  1.00  0.00    -0.248 NA
ATOM     63  C   UNL A   1      47.466  35.037  26.647  1.00  0.00     0.031 C 
ATOM     64  C   UNL A   1      52.894  32.473  25.727  1.00  0.00     0.029 A 
ATOM     65  C   UNL A   1      51.533  32.658  25.921  1.00  0.00     0.049 A 
ATOM     66  H   UNL A   1      50.010  31.211  26.113  1.00  0.00     0.167 HD
ATOM     67  C   UNL A   1      49.467  33.987  26.259  1.00  0.00     0.074 A 
ATOM     68  C   UNL A   1      48.753  35.239  26.403  1.00  0.00     0.031 C 
ATOM     69  C   UNL A   1      50.804  33.893  26.049  1.00  0.00     0.037 A 
BRANCH  56  70
ATOM     70  C   UNL A   1      52.874  28.083  25.672  1.00  0.00     0.057 A 
ATOM     71  C   UNL A   1      53.316  27.640  24.417  1.00  0.00     0.134 A 
ATOM     72  C   UNL A   1      53.562  27.617  26.800  1.00  0.00     0.134 A 
ATOM     73  F   UNL A   1      52.684  28.028  23.299  1.00  0.00    -0.206 F 
ATOM     74  C   UNL A   1      54.383  26.749  24.292  1.00  0.00     0.040 A 
ATOM     75  C   UNL A   1      54.648  26.749  26.685  1.00  0.00     0.040 A 
ATOM     76  F   UNL A   1      53.189  27.998  28.031  1.00  0.00    -0.206 F 
ATOM     77  C   UNL A   1      55.057  26.307  25.429  1.00  0.00     0.006 A 
ENDBRANCH  56  70
BRANCH  57  78
ATOM     78  C   UNL A   1      44.807  33.853  26.890  1.00  0.00     0.057 A 
ATOM     79  C   UNL A   1      44.323  34.170  28.165  1.00  0.00     0.134 A 
ATOM     80  C   UNL A   1      44.103  34.360  25.791  1.00  0.00     0.134 A 
ATOM     81  F   UNL A   1      44.936  33.693  29.258  1.00  0.00    -0.206 F 
ATOM     82  C   UNL A   1      43.171  34.940  28.340  1.00  0.00     0.040 A 
ATOM     83  C   UNL A   1      42.966  35.153  25.952  1.00  0.00     0.040 A 
ATOM     84  F   UNL A   1      44.513  34.091  24.542  1.00  0.00    -0.206 F 
ATOM     85  C   UNL A   1      42.490  35.437  27.231  1.00  0.00     0.006 A 
ENDBRANCH  57  78
BRANCH  69  86
ATOM     86  C   UNL A   1      51.572  35.175  25.900  1.00  0.00     0.057 A 
ATOM     87  C   UNL A   1      51.810  35.764  24.651  1.00  0.00     0.134 A 
ATOM     88  C   UNL A   1      52.050  35.848  27.033  1.00  0.00     0.134 A 
ATOM     89  F   UNL A   1      51.386  35.168  23.527  1.00  0.00    -0.206 F 
ATOM     90  C   UNL A   1      52.525  36.958  24.532  1.00  0.00     0.040 A 
ATOM     91  C   UNL A   1      52.738  37.058  26.928  1.00  0.00     0.040 A 
ATOM     92  F   UNL A   1      51.844  35.348  28.260  1.00  0.00    -0.206 F 
ATOM     93  C   UNL A   1      52.985  37.610  25.674  1.00  0.00     0.006 A 
ENDBRANCH  69  86
ENDBRANCH  43  44
ENDBRANCH  36  38
ENDBRANCH  35  36
ENDBRANCH  34  35
ENDBRANCH  33  34
ENDBRANCH  32  33
ENDBRANCH  31  32
ENDBRANCH  30  31
ENDBRANCH   1  30
TORSDOF 23
ENDMDL
MODEL 2
REMARK VINA RESULT:      -9.7      6.724      9.407
REMARK SMILES O=C(OCCOCCOCCOCCOC(=O)c1ccc(-c2c3nc(c(-c4c(F)cccc4F)c4ccc([nH]4)c(-c4c(F)cccc4F)c4nc(c(-c5c(F)cccc5F)c5ccc2[nH]5)C=C4)C=C3)cc1)C1=NN(c2ccc([N+](=O)[O-])cc2)[C@H](c2ccccc2)C1
REMARK SMILES IDX 9 1 8 2 7 3 6 4 5 5 4 6 3 7 2 8 1 9 72 10 73 11 91 12 74 13
REMARK SMILES IDX 84 14 75 15 76 16 83 17 77 18 82 19 78 20 79 21 80 22 81 23
REMARK SMILES IDX 85 24 86 25 90 26 87 27 89 28 88 29 10 30 11 31 12 32 13 33
REMARK SMILES IDX 14 34 15 35 16 36 17 37 18 38 19 39 71 40 20 41 70 42 21 43
REMARK SMILES IDX 22 44 23 45 64 46 24 47 69 48 63 49 65 50 25 51 68 52 62 53
REMARK SMILES IDX 61 54 26 56 52 57 35 58 51 59 36 60 39 61 50 62 66 63 37 64
REMARK SMILES IDX 38 65 49 67 67 68 40 69 27 70 28 71 33 72 29 73 30 74 32 75
REMARK SMILES IDX 34 76 31 77 53 78 54 79 59 80 55 81 56 82 58 83 60 84 57 85
REMARK SMILES IDX 41 86 42 87 47 88 43 89 44 90 46 91 48 92 45 93
REMARK H PARENT 65 55 39 66
REMARK Flexibility Score: inf
ROOT
ATOM      1  O   UNL A   1      38.635  22.104  26.127  1.00  0.00    -0.377 OA
ENDROOT
BRANCH   1   2
ATOM      2  C   UNL A   1      37.501  21.833  25.313  1.00  0.00     0.188 C 
BRANCH   2   3
ATOM      3  C   UNL A   1      36.172  22.450  25.740  1.00  0.00     0.188 C 
BRANCH   3   4
ATOM      4  O   UNL A   1      34.980  21.689  25.678  1.00  0.00    -0.376 OA
BRANCH   4   5
ATOM      5  C   UNL A   1      33.710  22.055  26.181  1.00  0.00     0.202 C 
BRANCH   5   6
ATOM      6  C   UNL A   1      32.415  21.548  25.554  1.00  0.00     0.261 C 
BRANCH   6   7
ATOM      7  O   UNL A   1      31.381  22.510  25.341  1.00  0.00    -0.459 OA
BRANCH   7   8
ATOM      8  C   UNL A   1      31.207  23.520  26.207  1.00  0.00     0.354 C 
ATOM      9  O   UNL A   1      30.582  23.400  27.252  1.00  0.00    -0.245 OA
BRANCH   8  10
ATOM     10  C   UNL A   1      31.581  24.913  25.756  1.00  0.00     0.148 C 
ATOM     11  N   UNL A   1      31.693  25.949  26.533  1.00  0.00    -0.169 NA
ATOM     12  C   UNL A   1      31.922  25.154  24.309  1.00  0.00     0.098 C 
ATOM     13  N   UNL A   1      32.161  26.927  25.721  1.00  0.00    -0.257 N 
ATOM     14  C   UNL A   1      31.791  26.683  24.325  1.00  0.00     0.144 C 
BRANCH  13  15
ATOM     15  C   UNL A   1      32.726  28.079  26.233  1.00  0.00     0.061 A 
ATOM     16  C   UNL A   1      34.101  28.148  26.504  1.00  0.00     0.035 A 
ATOM     17  C   UNL A   1      31.938  29.205  26.498  1.00  0.00     0.035 A 
ATOM     18  C   UNL A   1      34.686  29.326  26.986  1.00  0.00     0.088 A 
ATOM     19  C   UNL A   1      32.507  30.399  26.949  1.00  0.00     0.088 A 
ATOM     20  C   UNL A   1      33.885  30.456  27.184  1.00  0.00     0.269 A 
BRANCH  20  21
ATOM     21  N   UNL A   1      34.491  31.716  27.627  1.00  0.00     0.062 N 
ATOM     22  O   UNL A   1      35.722  31.749  27.767  1.00  0.00    -0.258 OA
ATOM     23  O   UNL A   1      33.737  32.682  27.821  1.00  0.00    -0.258 OA
ENDBRANCH  20  21
ENDBRANCH  13  15
BRANCH  14  24
ATOM     24  C   UNL A   1      30.363  27.219  24.158  1.00  0.00    -0.023 A 
ATOM     25  C   UNL A   1      30.084  28.470  23.573  1.00  0.00     0.006 A 
ATOM     26  C   UNL A   1      29.294  26.328  24.355  1.00  0.00     0.006 A 
ATOM     27  C   UNL A   1      28.808  28.770  23.098  1.00  0.00     0.000 A 
ATOM     28  C   UNL A   1      28.020  26.630  23.875  1.00  0.00     0.000 A 
ATOM     29  C   UNL A   1      27.783  27.839  23.225  1.00  0.00     0.000 A 
ENDBRANCH  14  24
ENDBRANCH   8  10
ENDBRANCH   7   8
ENDBRANCH   6   7
ENDBRANCH   5   6
ENDBRANCH   4   5
ENDBRANCH   3   4
ENDBRANCH   2   3
ENDBRANCH   1   2
BRANCH   1  30
ATOM     30  C   UNL A   1      39.612  21.073  26.126  1.00  0.00     0.188 C 
BRANCH  30  31
ATOM     31  C   UNL A   1      41.008  21.555  26.569  1.00  0.00     0.188 C 
BRANCH  31  32
ATOM     32  O   UNL A   1      41.843  21.908  25.471  1.00  0.00    -0.376 OA
BRANCH  32  33
ATOM     33  C   UNL A   1      42.775  22.959  25.689  1.00  0.00     0.202 C 
BRANCH  33  34
ATOM     34  C   UNL A   1      42.242  24.402  25.748  1.00  0.00     0.261 C 
BRANCH  34  35
ATOM     35  O   UNL A   1      43.222  25.449  25.880  1.00  0.00    -0.460 OA
BRANCH  35  36
ATOM     36  C   UNL A   1      43.895  25.559  27.044  1.00  0.00     0.338 C 
ATOM     37  O   UNL A   1      45.028  25.177  27.276  1.00  0.00    -0.246 OA
BRANCH  36  38
ATOM     38  C   UNL A   1      43.110  26.455  27.932  1.00  0.00     0.060 A 
ATOM     39  C   UNL A   1      43.440  27.818  27.961  1.00  0.00     0.016 A 
ATOM     40  C   UNL A   1      42.016  25.982  28.667  1.00  0.00     0.016 A 
ATOM     41  C   UNL A   1      42.724  28.695  28.775  1.00  0.00     0.010 A 
ATOM     42  C   UNL A   1      41.313  26.857  29.503  1.00  0.00     0.010 A 
ATOM     43  C   UNL A   1      41.705  28.204  29.603  1.00  0.00    -0.014 A 
BRANCH  43  44
ATOM     44  C   UNL A   1      41.316  29.010  30.786  1.00  0.00     0.031 A 
ATOM     45  C   UNL A   1      42.196  28.900  32.005  1.00  0.00     0.074 A 
ATOM     46  C   UNL A   1      40.280  29.868  30.772  1.00  0.00     0.049 A 
ATOM     47  N   UNL A   1      42.130  29.536  33.146  1.00  0.00    -0.248 NA
ATOM     48  C   UNL A   1      43.310  27.940  31.919  1.00  0.00     0.031 C 
ATOM     49  C   UNL A   1      39.380  30.098  29.646  1.00  0.00     0.029 A 
ATOM     50  N   UNL A   1      39.824  30.718  31.748  1.00  0.00    -0.354 N 
ATOM     51  C   UNL A   1      43.189  29.054  33.905  1.00  0.00     0.074 A 
ATOM     52  C   UNL A   1      43.859  28.046  33.116  1.00  0.00     0.031 C 
ATOM     53  C   UNL A   1      38.476  31.032  29.995  1.00  0.00     0.029 A 
ATOM     54  C   UNL A   1      38.725  31.452  31.374  1.00  0.00     0.049 A 
ATOM     55  H   UNL A   1      40.244  30.793  32.635  1.00  0.00     0.167 HD
ATOM     56  C   UNL A   1      43.585  29.425  35.143  1.00  0.00     0.037 A 
ATOM     57  C   UNL A   1      38.010  32.357  32.070  1.00  0.00     0.037 A 
ATOM     58  C   UNL A   1      42.918  30.424  35.932  1.00  0.00     0.049 A 
ATOM     59  C   UNL A   1      38.429  32.707  33.477  1.00  0.00     0.074 A 
ATOM     60  C   UNL A   1      43.239  30.879  37.198  1.00  0.00     0.029 A 
ATOM     61  N   UNL A   1      41.786  31.115  35.530  1.00  0.00    -0.354 N 
ATOM     62  N   UNL A   1      39.451  32.271  34.173  1.00  0.00    -0.248 NA
ATOM     63  C   UNL A   1      37.596  33.688  34.191  1.00  0.00     0.031 C 
ATOM     64  C   UNL A   1      42.270  31.810  37.583  1.00  0.00     0.029 A 
ATOM     65  C   UNL A   1      41.381  31.978  36.532  1.00  0.00     0.049 A 
ATOM     66  H   UNL A   1      41.336  31.006  34.661  1.00  0.00     0.167 HD
ATOM     67  C   UNL A   1      39.411  32.954  35.384  1.00  0.00     0.074 A 
ATOM     68  C   UNL A   1      38.265  33.838  35.325  1.00  0.00     0.031 C 
ATOM     69  C   UNL A   1      40.248  32.863  36.448  1.00  0.00     0.037 A 
BRANCH  56  70
ATOM     70  C   UNL A   1      44.773  28.717  35.725  1.00  0.00     0.057 A 
ATOM     71  C   UNL A   1      46.085  29.155  35.498  1.00  0.00     0.134 A 
ATOM     72  C   UNL A   1      44.601  27.578  36.522  1.00  0.00     0.134 A 
ATOM     73  F   UNL A   1      46.320  30.225  34.722  1.00  0.00    -0.206 F 
ATOM     74  C   UNL A   1      47.183  28.470  36.020  1.00  0.00     0.040 A 
ATOM     75  C   UNL A   1      45.689  26.903  37.073  1.00  0.00     0.040 A 
ATOM     76  F   UNL A   1      43.372  27.104  36.775  1.00  0.00    -0.206 F 
ATOM     77  C   UNL A   1      46.986  27.344  36.817  1.00  0.00     0.006 A 
ENDBRANCH  56  70
BRANCH  57  78
ATOM     78  C   UNL A   1      36.822  33.011  31.457  1.00  0.00     0.057 A 
ATOM     79  C   UNL A   1      35.521  32.628  31.803  1.00  0.00     0.134 A 
ATOM     80  C   UNL A   1      36.961  34.001  30.478  1.00  0.00     0.134 A 
ATOM     81  F   UNL A   1      35.320  31.665  32.715  1.00  0.00    -0.206 F 
ATOM     82  C   UNL A   1      34.403  33.189  31.182  1.00  0.00     0.040 A 
ATOM     83  C   UNL A   1      35.852  34.590  29.868  1.00  0.00     0.040 A 
ATOM     84  F   UNL A   1      38.181  34.413  30.098  1.00  0.00    -0.206 F 
ATOM     85  C   UNL A   1      34.567  34.176  30.213  1.00  0.00     0.006 A 
ENDBRANCH  57  78
BRANCH  69  86
ATOM     86  C   UNL A   1      39.994  33.784  37.608  1.00  0.00     0.057 A 
ATOM     87  C   UNL A   1      40.671  35.001  37.759  1.00  0.00     0.134 A 
ATOM     88  C   UNL A   1      39.028  33.459  38.570  1.00  0.00     0.134 A 
ATOM     89  F   UNL A   1      41.613  35.369  36.877  1.00  0.00    -0.206 F 
ATOM     90  C   UNL A   1      40.420  35.845  38.843  1.00  0.00     0.040 A 
ATOM     91  C   UNL A   1      38.747  34.309  39.640  1.00  0.00     0.040 A 
ATOM     92  F   UNL A   1      38.332  32.315  38.478  1.00  0.00    -0.206 F 
ATOM     93  C   UNL A   1      39.451  35.502  39.783  1.00  0.00     0.006 A 
ENDBRANCH  69  86
ENDBRANCH  43  44
ENDBRANCH  36  38
ENDBRANCH  35  36
ENDBRANCH  34  35
ENDBRANCH  33  34
ENDBRANCH  32  33
ENDBRANCH  31  32
ENDBRANCH  30  31
ENDBRANCH   1  30
TORSDOF 23
ENDMDL
MODEL 3
REMARK VINA RESULT:      -9.5      9.266     13.804
REMARK SMILES O=C(OCCOCCOCCOCCOC(=O)c1ccc(-c2c3nc(c(-c4c(F)cccc4F)c4ccc([nH]4)c(-c4c(F)cccc4F)c4nc(c(-c5c(F)cccc5F)c5ccc2[nH]5)C=C4)C=C3)cc1)C1=NN(c2ccc([N+](=O)[O-])cc2)[C@H](c2ccccc2)C1
REMARK SMILES IDX 9 1 8 2 7 3 6 4 5 5 4 6 3 7 2 8 1 9 72 10 73 11 91 12 74 13
REMARK SMILES IDX 84 14 75 15 76 16 83 17 77 18 82 19 78 20 79 21 80 22 81 23
REMARK SMILES IDX 85 24 86 25 90 26 87 27 89 28 88 29 10 30 11 31 12 32 13 33
REMARK SMILES IDX 14 34 15 35 16 36 17 37 18 38 19 39 71 40 20 41 70 42 21 43
REMARK SMILES IDX 22 44 23 45 64 46 24 47 69 48 63 49 65 50 25 51 68 52 62 53
REMARK SMILES IDX 61 54 26 56 52 57 35 58 51 59 36 60 39 61 50 62 66 63 37 64
REMARK SMILES IDX 38 65 49 67 67 68 40 69 27 70 28 71 33 72 29 73 30 74 32 75
REMARK SMILES IDX 34 76 31 77 53 78 54 79 59 80 55 81 56 82 58 83 60 84 57 85
REMARK SMILES IDX 41 86 42 87 47 88 43 89 44 90 46 91 48 92 45 93
REMARK H PARENT 65 55 39 66
REMARK Flexibility Score: inf
ROOT
ATOM      1  O   UNL A   1      33.382  31.005  27.493  1.00  0.00    -0.377 OA
ENDROOT
BRANCH   1   2
ATOM      2  C   UNL A   1      33.445  29.843  26.675  1.00  0.00     0.188 C 
BRANCH   2   3
ATOM      3  C   UNL A   1      32.946  28.535  27.283  1.00  0.00     0.188 C 
BRANCH   3   4
ATOM      4  O   UNL A   1      31.680  28.017  26.917  1.00  0.00    -0.376 OA
BRANCH   4   5
ATOM      5  C   UNL A   1      31.327  26.655  26.780  1.00  0.00     0.202 C 
BRANCH   5   6
ATOM      6  C   UNL A   1      31.078  26.018  25.416  1.00  0.00     0.261 C 
BRANCH   6   7
ATOM      7  O   UNL A   1      30.277  24.836  25.392  1.00  0.00    -0.459 OA
BRANCH   7   8
ATOM      8  C   UNL A   1      30.675  23.735  26.050  1.00  0.00     0.354 C 
ATOM      9  O   UNL A   1      30.498  23.578  27.250  1.00  0.00    -0.245 OA
BRANCH   8  10
ATOM     10  C   UNL A   1      31.593  22.773  25.332  1.00  0.00     0.148 C 
ATOM     11  N   UNL A   1      32.096  21.691  25.846  1.00  0.00    -0.169 NA
ATOM     12  C   UNL A   1      31.928  23.013  23.883  1.00  0.00     0.098 C 
ATOM     13  N   UNL A   1      32.740  21.097  24.813  1.00  0.00    -0.257 N 
ATOM     14  C   UNL A   1      33.141  22.077  23.801  1.00  0.00     0.144 C 
BRANCH  13  15
ATOM     15  C   UNL A   1      33.116  19.769  24.865  1.00  0.00     0.061 A 
ATOM     16  C   UNL A   1      34.422  19.375  24.539  1.00  0.00     0.035 A 
ATOM     17  C   UNL A   1      32.198  18.781  25.241  1.00  0.00     0.035 A 
ATOM     18  C   UNL A   1      34.819  18.035  24.628  1.00  0.00     0.088 A 
ATOM     19  C   UNL A   1      32.582  17.444  25.368  1.00  0.00     0.088 A 
ATOM     20  C   UNL A   1      33.898  17.077  25.067  1.00  0.00     0.269 A 
BRANCH  20  21
ATOM     21  N   UNL A   1      34.314  15.680  25.228  1.00  0.00     0.062 N 
ATOM     22  O   UNL A   1      33.436  14.806  25.192  1.00  0.00    -0.258 OA
ATOM     23  O   UNL A   1      35.525  15.452  25.375  1.00  0.00    -0.258 OA
ENDBRANCH  20  21
ENDBRANCH  13  15
BRANCH  14  24
ATOM     24  C   UNL A   1      34.467  22.679  24.288  1.00  0.00    -0.023 A 
ATOM     25  C   UNL A   1      34.678  23.070  25.625  1.00  0.00     0.006 A 
ATOM     26  C   UNL A   1      35.583  22.595  23.439  1.00  0.00     0.006 A 
ATOM     27  C   UNL A   1      35.967  23.255  26.121  1.00  0.00     0.000 A 
ATOM     28  C   UNL A   1      36.872  22.779  23.939  1.00  0.00     0.000 A 
ATOM     29  C   UNL A   1      37.065  23.084  25.285  1.00  0.00     0.000 A 
ENDBRANCH  14  24
ENDBRANCH   8  10
ENDBRANCH   7   8
ENDBRANCH   6   7
ENDBRANCH   5   6
ENDBRANCH   4   5
ENDBRANCH   3   4
ENDBRANCH   2   3
ENDBRANCH   1   2
BRANCH   1  30
ATOM     30  C   UNL A   1      34.619  31.690  27.627  1.00  0.00     0.188 C 
BRANCH  30  31
ATOM     31  C   UNL A   1      34.512  32.986  28.457  1.00  0.00     0.188 C 
BRANCH  31  32
ATOM     32  O   UNL A   1      35.634  33.188  29.310  1.00  0.00    -0.376 OA
BRANCH  32  33
ATOM     33  C   UNL A   1      35.566  32.605  30.604  1.00  0.00     0.202 C 
BRANCH  33  34
ATOM     34  C   UNL A   1      34.599  33.223  31.631  1.00  0.00     0.261 C 
BRANCH  34  35
ATOM     35  O   UNL A   1      35.043  33.257  32.999  1.00  0.00    -0.460 OA
BRANCH  35  36
ATOM     36  C   UNL A   1      36.020  34.123  33.339  1.00  0.00     0.338 C 
ATOM     37  O   UNL A   1      35.915  35.328  33.486  1.00  0.00    -0.246 OA
BRANCH  36  38
ATOM     38  C   UNL A   1      37.203  33.325  33.750  1.00  0.00     0.060 A 
ATOM     39  C   UNL A   1      37.021  32.303  34.694  1.00  0.00     0.016 A 
ATOM     40  C   UNL A   1      38.459  33.521  33.163  1.00  0.00     0.016 A 
ATOM     41  C   UNL A   1      38.103  31.525  35.103  1.00  0.00     0.010 A 
ATOM     42  C   UNL A   1      39.551  32.757  33.591  1.00  0.00     0.010 A 
ATOM     43  C   UNL A   1      39.385  31.798  34.605  1.00  0.00    -0.014 A 
BRANCH  43  44
ATOM     44  C   UNL A   1      40.553  31.332  35.392  1.00  0.00     0.031 A 
ATOM     45  C   UNL A   1      41.088  32.273  36.442  1.00  0.00     0.074 A 
ATOM     46  C   UNL A   1      41.079  30.102  35.253  1.00  0.00     0.049 A 
ATOM     47  N   UNL A   1      42.050  32.100  37.311  1.00  0.00    -0.248 NA
ATOM     48  C   UNL A   1      40.439  33.593  36.523  1.00  0.00     0.031 C 
ATOM     49  C   UNL A   1      40.629  29.085  34.307  1.00  0.00     0.029 A 
ATOM     50  N   UNL A   1      42.111  29.501  35.930  1.00  0.00    -0.354 N 
ATOM     51  C   UNL A   1      42.115  33.283  38.036  1.00  0.00     0.074 A 
ATOM     52  C   UNL A   1      41.128  34.182  37.484  1.00  0.00     0.031 C 
ATOM     53  C   UNL A   1      41.382  27.981  34.465  1.00  0.00     0.029 A 
ATOM     54  C   UNL A   1      42.377  28.220  35.511  1.00  0.00     0.049 A 
ATOM     55  H   UNL A   1      42.615  29.946  36.648  1.00  0.00     0.167 HD
ATOM     56  C   UNL A   1      42.914  33.594  39.082  1.00  0.00     0.037 A 
ATOM     57  C   UNL A   1      43.316  27.348  35.928  1.00  0.00     0.037 A 
ATOM     58  C   UNL A   1      43.900  32.705  39.631  1.00  0.00     0.049 A 
ATOM     59  C   UNL A   1      44.243  27.743  37.052  1.00  0.00     0.074 A 
ATOM     60  C   UNL A   1      44.759  32.920  40.693  1.00  0.00     0.029 A 
ATOM     61  N   UNL A   1      44.163  31.432  39.150  1.00  0.00    -0.354 N 
ATOM     62  N   UNL A   1      44.275  28.850  37.753  1.00  0.00    -0.248 NA
ATOM     63  C   UNL A   1      45.258  26.755  37.449  1.00  0.00     0.031 C 
ATOM     64  C   UNL A   1      45.579  31.794  40.823  1.00  0.00     0.029 A 
ATOM     65  C   UNL A   1      45.187  30.856  39.880  1.00  0.00     0.049 A 
ATOM     66  H   UNL A   1      43.692  31.002  38.400  1.00  0.00     0.167 HD
ATOM     67  C   UNL A   1      45.280  28.676  38.700  1.00  0.00     0.074 A 
ATOM     68  C   UNL A   1      45.828  27.353  38.486  1.00  0.00     0.031 C 
ATOM     69  C   UNL A   1      45.708  29.530  39.664  1.00  0.00     0.037 A 
BRANCH  56  70
ATOM     70  C   UNL A   1      42.771  34.967  39.669  1.00  0.00     0.057 A 
ATOM     71  C   UNL A   1      41.884  35.239  40.720  1.00  0.00     0.134 A 
ATOM     72  C   UNL A   1      43.530  36.035  39.173  1.00  0.00     0.134 A 
ATOM     73  F   UNL A   1      41.108  34.266  41.224  1.00  0.00    -0.206 F 
ATOM     74  C   UNL A   1      41.739  36.527  41.238  1.00  0.00     0.040 A 
ATOM     75  C   UNL A   1      43.414  37.320  39.702  1.00  0.00     0.040 A 
ATOM     76  F   UNL A   1      44.395  35.845  38.165  1.00  0.00    -0.206 F 
ATOM     77  C   UNL A   1      42.512  37.571  40.733  1.00  0.00     0.006 A 
ENDBRANCH  56  70
BRANCH  57  78
ATOM     78  C   UNL A   1      43.435  26.008  35.293  1.00  0.00     0.057 A 
ATOM     79  C   UNL A   1      44.280  25.794  34.198  1.00  0.00     0.134 A 
ATOM     80  C   UNL A   1      42.672  24.922  35.738  1.00  0.00     0.134 A 
ATOM     81  F   UNL A   1      45.017  26.801  33.706  1.00  0.00    -0.206 F 
ATOM     82  C   UNL A   1      44.345  24.557  33.554  1.00  0.00     0.040 A 
ATOM     83  C   UNL A   1      42.747  23.672  35.121  1.00  0.00     0.040 A 
ATOM     84  F   UNL A   1      41.840  25.060  36.782  1.00  0.00    -0.206 F 
ATOM     85  C   UNL A   1      43.580  23.489  34.018  1.00  0.00     0.006 A 
ENDBRANCH  57  78
BRANCH  69  86
ATOM     86  C   UNL A   1      46.777  29.040  40.597  1.00  0.00     0.057 A 
ATOM     87  C   UNL A   1      46.484  28.281  41.738  1.00  0.00     0.134 A 
ATOM     88  C   UNL A   1      48.127  29.303  40.326  1.00  0.00     0.134 A 
ATOM     89  F   UNL A   1      45.212  28.000  42.059  1.00  0.00    -0.206 F 
ATOM     90  C   UNL A   1      47.492  27.832  42.594  1.00  0.00     0.040 A 
ATOM     91  C   UNL A   1      49.145  28.833  41.157  1.00  0.00     0.040 A 
ATOM     92  F   UNL A   1      48.479  30.011  39.242  1.00  0.00    -0.206 F 
ATOM     93  C   UNL A   1      48.827  28.103  42.300  1.00  0.00     0.006 A 
ENDBRANCH  69  86
ENDBRANCH  43  44
ENDBRANCH  36  38
ENDBRANCH  35  36
ENDBRANCH  34  35
ENDBRANCH  33  34
ENDBRANCH  32  33
ENDBRANCH  31  32
ENDBRANCH  30  31
ENDBRANCH   1  30
TORSDOF 23
ENDMDL
