MODEL 1
REMARK VINA RESULT:     -11.3      0.000      0.000
REMARK SMILES CN1C(=O)C[C@@H](C(=O)OCCOCCOCCOCCOC(=O)c2ccc(-c3c4nc(c(-c5c(F)cccc5F)c5ccc([nH]5)c(-c5c(F)cccc5F)c5nc(c(-c6c(F)cccc6F)c6ccc3[nH]6)C=C5)C=C4)cc2)C12CCN(S(=O)(=O)c1ccccc1F)CC2
REMARK SMILES IDX 15 1 14 2 13 3 12 4 11 5 10 6 9 7 7 8 8 9 6 10 1 11 2 12
REMARK SMILES IDX 3 13 78 14 4 15 5 16 79 17 93 18 80 19 92 20 81 21 82 22
REMARK SMILES IDX 83 23 84 24 85 25 86 26 90 27 87 28 89 29 91 30 88 31 16 32
REMARK SMILES IDX 17 33 18 34 19 35 20 36 21 37 22 38 23 39 24 40 25 41 77 42
REMARK SMILES IDX 26 43 76 44 27 45 28 46 29 47 70 48 30 49 75 50 69 51 71 52
REMARK SMILES IDX 31 53 74 54 68 55 67 56 32 58 58 59 41 60 57 61 42 62 45 63
REMARK SMILES IDX 56 64 72 65 43 66 44 67 55 69 73 70 46 71 33 72 34 73 39 74
REMARK SMILES IDX 35 75 36 76 38 77 40 78 37 79 59 80 60 81 65 82 61 83 62 84
REMARK SMILES IDX 64 85 66 86 63 87 47 88 48 89 53 90 49 91 50 92 52 93 54 94
REMARK SMILES IDX 51 95
REMARK H PARENT 71 57 45 68
REMARK Flexibility Score: inf
ROOT
ATOM      1  O   UNL A   1      33.189  33.411  28.018  1.00  0.00    -0.377 OA
ENDROOT
BRANCH   1   2
ATOM      2  C   UNL A   1      33.282  32.056  27.623  1.00  0.00     0.188 C 
BRANCH   2   3
ATOM      3  C   UNL A   1      34.518  31.299  28.099  1.00  0.00     0.188 C 
BRANCH   3   4
ATOM      4  O   UNL A   1      34.519  29.893  27.989  1.00  0.00    -0.376 OA
BRANCH   4   5
ATOM      5  C   UNL A   1      34.820  29.287  26.734  1.00  0.00     0.202 C 
BRANCH   5   6
ATOM      6  C   UNL A   1      33.787  29.210  25.586  1.00  0.00     0.261 C 
BRANCH   6   7
ATOM      7  O   UNL A   1      32.372  29.261  25.944  1.00  0.00    -0.463 OA
BRANCH   7   8
ATOM      8  C   UNL A   1      31.540  29.651  24.957  1.00  0.00     0.311 C 
ATOM      9  O   UNL A   1      30.831  30.657  25.040  1.00  0.00    -0.252 OA
BRANCH   8  10
ATOM     10  C   UNL A   1      31.372  28.763  23.729  1.00  0.00     0.134 C 
ATOM     11  C   UNL A   1      28.846  25.974  23.656  1.00  0.00     0.147 C 
ATOM     12  N   UNL A   1      29.630  27.195  23.547  1.00  0.00    -0.339 N 
ATOM     13  C   UNL A   1      29.058  28.410  23.224  1.00  0.00     0.223 C 
ATOM     14  C   UNL A   1      31.105  27.231  23.593  1.00  0.00     0.059 C 
ATOM     15  O   UNL A   1      27.870  28.650  23.088  1.00  0.00    -0.275 OA
ATOM     16  C   UNL A   1      30.165  29.397  22.996  1.00  0.00     0.118 C 
ATOM     17  C   UNL A   1      31.642  26.272  24.667  1.00  0.00     0.046 C 
ATOM     18  C   UNL A   1      31.650  26.757  22.196  1.00  0.00     0.046 C 
ATOM     19  C   UNL A   1      33.109  25.907  24.549  1.00  0.00     0.105 C 
ATOM     20  C   UNL A   1      33.145  26.428  22.171  1.00  0.00     0.105 C 
ATOM     21  N   UNL A   1      33.503  25.433  23.212  1.00  0.00    -0.198 NA
BRANCH  21  22
ATOM     22  S   UNL A   1      33.266  23.802  22.771  1.00  0.00     0.245 S 
ATOM     23  O   UNL A   1      31.957  23.398  23.213  1.00  0.00    -0.207 OA
ATOM     24  O   UNL A   1      33.613  23.707  21.360  1.00  0.00    -0.207 OA
BRANCH  22  25
ATOM     25  C   UNL A   1      34.481  22.863  23.652  1.00  0.00     0.118 A 
ATOM     26  C   UNL A   1      35.844  22.987  23.347  1.00  0.00     0.025 A 
ATOM     27  C   UNL A   1      34.064  21.877  24.539  1.00  0.00     0.143 A 
ATOM     28  C   UNL A   1      36.776  22.136  23.954  1.00  0.00     0.002 A 
ATOM     29  C   UNL A   1      34.992  21.020  25.127  1.00  0.00     0.041 A 
ATOM     30  F   UNL A   1      32.779  21.746  24.887  1.00  0.00    -0.206 F 
ATOM     31  C   UNL A   1      36.349  21.150  24.843  1.00  0.00     0.003 A 
ENDBRANCH  22  25
ENDBRANCH  21  22
ENDBRANCH   8  10
ENDBRANCH   7   8
ENDBRANCH   6   7
ENDBRANCH   5   6
ENDBRANCH   4   5
ENDBRANCH   3   4
ENDBRANCH   2   3
ENDBRANCH   1   2
BRANCH   1  32
ATOM     32  C   UNL A   1      34.327  34.117  28.506  1.00  0.00     0.188 C 
BRANCH  32  33
ATOM     33  C   UNL A   1      34.180  35.051  29.709  1.00  0.00     0.188 C 
BRANCH  33  34
ATOM     34  O   UNL A   1      33.396  34.583  30.806  1.00  0.00    -0.376 OA
BRANCH  34  35
ATOM     35  C   UNL A   1      33.935  34.712  32.119  1.00  0.00     0.202 C 
BRANCH  35  36
ATOM     36  C   UNL A   1      34.037  33.408  32.898  1.00  0.00     0.261 C 
BRANCH  36  37
ATOM     37  O   UNL A   1      34.886  32.466  32.213  1.00  0.00    -0.460 OA
BRANCH  37  38
ATOM     38  C   UNL A   1      36.000  32.107  32.885  1.00  0.00     0.338 C 
ATOM     39  O   UNL A   1      36.310  32.422  34.023  1.00  0.00    -0.246 OA
BRANCH  38  40
ATOM     40  C   UNL A   1      36.785  31.133  32.106  1.00  0.00     0.060 A 
ATOM     41  C   UNL A   1      37.701  30.340  32.807  1.00  0.00     0.016 A 
ATOM     42  C   UNL A   1      36.754  31.119  30.710  1.00  0.00     0.016 A 
ATOM     43  C   UNL A   1      38.660  29.608  32.111  1.00  0.00     0.010 A 
ATOM     44  C   UNL A   1      37.718  30.388  30.013  1.00  0.00     0.010 A 
ATOM     45  C   UNL A   1      38.714  29.689  30.715  1.00  0.00    -0.014 A 
BRANCH  45  46
ATOM     46  C   UNL A   1      39.940  29.258  30.006  1.00  0.00     0.031 A 
ATOM     47  C   UNL A   1      41.052  30.258  29.834  1.00  0.00     0.074 A 
ATOM     48  C   UNL A   1      40.067  28.004  29.543  1.00  0.00     0.049 A 
ATOM     49  N   UNL A   1      42.193  30.135  29.207  1.00  0.00    -0.248 NA
ATOM     50  C   UNL A   1      40.843  31.580  30.450  1.00  0.00     0.031 C 
ATOM     51  C   UNL A   1      39.074  26.944  29.697  1.00  0.00     0.029 A 
ATOM     52  N   UNL A   1      41.087  27.417  28.842  1.00  0.00    -0.354 N 
ATOM     53  C   UNL A   1      42.833  31.362  29.350  1.00  0.00     0.074 A 
ATOM     54  C   UNL A   1      41.938  32.227  30.085  1.00  0.00     0.031 C 
ATOM     55  C   UNL A   1      39.532  25.832  29.096  1.00  0.00     0.029 A 
ATOM     56  C   UNL A   1      40.832  26.116  28.490  1.00  0.00     0.049 A 
ATOM     57  H   UNL A   1      41.924  27.884  28.613  1.00  0.00     0.167 HD
ATOM     58  C   UNL A   1      44.063  31.729  28.916  1.00  0.00     0.037 A 
ATOM     59  C   UNL A   1      41.560  25.264  27.745  1.00  0.00     0.037 A 
ATOM     60  C   UNL A   1      44.938  30.863  28.173  1.00  0.00     0.049 A 
ATOM     61  C   UNL A   1      42.885  25.721  27.193  1.00  0.00     0.074 A 
ATOM     62  C   UNL A   1      46.202  31.128  27.679  1.00  0.00     0.029 A 
ATOM     63  N   UNL A   1      44.629  29.560  27.808  1.00  0.00    -0.354 N 
ATOM     64  N   UNL A   1      43.490  26.875  27.345  1.00  0.00    -0.248 NA
ATOM     65  C   UNL A   1      43.628  24.759  26.368  1.00  0.00     0.031 C 
ATOM     66  C   UNL A   1      46.637  30.003  26.972  1.00  0.00     0.029 A 
ATOM     67  C   UNL A   1      45.670  29.015  27.078  1.00  0.00     0.049 A 
ATOM     68  H   UNL A   1      43.793  29.093  28.036  1.00  0.00     0.167 HD
ATOM     69  C   UNL A   1      44.703  26.762  26.676  1.00  0.00     0.074 A 
ATOM     70  C   UNL A   1      44.742  25.429  26.110  1.00  0.00     0.031 C 
ATOM     71  C   UNL A   1      45.697  27.675  26.548  1.00  0.00     0.037 A 
BRANCH  58  72
ATOM     72  C   UNL A   1      44.508  33.134  29.211  1.00  0.00     0.057 A 
ATOM     73  C   UNL A   1      45.197  33.464  30.386  1.00  0.00     0.134 A 
ATOM     74  C   UNL A   1      44.245  34.172  28.307  1.00  0.00     0.134 A 
ATOM     75  F   UNL A   1      45.468  32.522  31.302  1.00  0.00    -0.206 F 
ATOM     76  C   UNL A   1      45.576  34.778  30.668  1.00  0.00     0.040 A 
ATOM     77  C   UNL A   1      44.645  35.485  28.564  1.00  0.00     0.040 A 
ATOM     78  F   UNL A   1      43.594  33.929  27.160  1.00  0.00    -0.206 F 
ATOM     79  C   UNL A   1      45.305  35.793  29.752  1.00  0.00     0.006 A 
ENDBRANCH  58  72
BRANCH  59  80
ATOM     80  C   UNL A   1      41.059  23.890  27.491  1.00  0.00     0.057 A 
ATOM     81  C   UNL A   1      40.008  23.659  26.595  1.00  0.00     0.134 A 
ATOM     82  C   UNL A   1      41.619  22.776  28.127  1.00  0.00     0.134 A 
ATOM     83  F   UNL A   1      39.419  24.688  25.968  1.00  0.00    -0.206 F 
ATOM     84  C   UNL A   1      39.524  22.373  26.352  1.00  0.00     0.040 A 
ATOM     85  C   UNL A   1      41.161  21.482  27.875  1.00  0.00     0.040 A 
ATOM     86  F   UNL A   1      42.632  22.929  28.993  1.00  0.00    -0.206 F 
ATOM     87  C   UNL A   1      40.106  21.279  26.988  1.00  0.00     0.006 A 
ENDBRANCH  59  80
BRANCH  71  88
ATOM     88  C   UNL A   1      46.945  27.248  25.831  1.00  0.00     0.057 A 
ATOM     89  C   UNL A   1      47.188  27.582  24.493  1.00  0.00     0.134 A 
ATOM     90  C   UNL A   1      47.952  26.559  26.521  1.00  0.00     0.134 A 
ATOM     91  F   UNL A   1      46.260  28.231  23.775  1.00  0.00    -0.206 F 
ATOM     92  C   UNL A   1      48.384  27.234  23.864  1.00  0.00     0.040 A 
ATOM     93  C   UNL A   1      49.162  26.230  25.910  1.00  0.00     0.040 A 
ATOM     94  F   UNL A   1      47.785  26.219  27.808  1.00  0.00    -0.206 F 
ATOM     95  C   UNL A   1      49.380  26.566  24.575  1.00  0.00     0.006 A 
ENDBRANCH  71  88
ENDBRANCH  45  46
ENDBRANCH  38  40
ENDBRANCH  37  38
ENDBRANCH  36  37
ENDBRANCH  35  36
ENDBRANCH  34  35
ENDBRANCH  33  34
ENDBRANCH  32  33
ENDBRANCH   1  32
TORSDOF 22
ENDMDL
MODEL 2
REMARK VINA RESULT:     -11.0      3.669      8.161
REMARK SMILES CN1C(=O)C[C@@H](C(=O)OCCOCCOCCOCCOC(=O)c2ccc(-c3c4nc(c(-c5c(F)cccc5F)c5ccc([nH]5)c(-c5c(F)cccc5F)c5nc(c(-c6c(F)cccc6F)c6ccc3[nH]6)C=C5)C=C4)cc2)C12CCN(S(=O)(=O)c1ccccc1F)CC2
REMARK SMILES IDX 15 1 14 2 13 3 12 4 11 5 10 6 9 7 7 8 8 9 6 10 1 11 2 12
REMARK SMILES IDX 3 13 78 14 4 15 5 16 79 17 93 18 80 19 92 20 81 21 82 22
REMARK SMILES IDX 83 23 84 24 85 25 86 26 90 27 87 28 89 29 91 30 88 31 16 32
REMARK SMILES IDX 17 33 18 34 19 35 20 36 21 37 22 38 23 39 24 40 25 41 77 42
REMARK SMILES IDX 26 43 76 44 27 45 28 46 29 47 70 48 30 49 75 50 69 51 71 52
REMARK SMILES IDX 31 53 74 54 68 55 67 56 32 58 58 59 41 60 57 61 42 62 45 63
REMARK SMILES IDX 56 64 72 65 43 66 44 67 55 69 73 70 46 71 33 72 34 73 39 74
REMARK SMILES IDX 35 75 36 76 38 77 40 78 37 79 59 80 60 81 65 82 61 83 62 84
REMARK SMILES IDX 64 85 66 86 63 87 47 88 48 89 53 90 49 91 50 92 52 93 54 94
REMARK SMILES IDX 51 95
REMARK H PARENT 71 57 45 68
REMARK Flexibility Score: inf
ROOT
ATOM      1  O   UNL A   1      31.443  26.636  26.125  1.00  0.00    -0.377 OA
ENDROOT
BRANCH   1   2
ATOM      2  C   UNL A   1      30.200  25.973  25.992  1.00  0.00     0.188 C 
BRANCH   2   3
ATOM      3  C   UNL A   1      30.135  24.548  26.533  1.00  0.00     0.188 C 
BRANCH   3   4
ATOM      4  O   UNL A   1      31.209  24.087  27.322  1.00  0.00    -0.376 OA
BRANCH   4   5
ATOM      5  C   UNL A   1      31.579  22.711  27.267  1.00  0.00     0.202 C 
BRANCH   5   6
ATOM      6  C   UNL A   1      33.000  22.223  27.631  1.00  0.00     0.261 C 
BRANCH   6   7
ATOM      7  O   UNL A   1      33.449  20.958  27.057  1.00  0.00    -0.463 OA
BRANCH   7   8
ATOM      8  C   UNL A   1      33.086  20.745  25.776  1.00  0.00     0.311 C 
ATOM      9  O   UNL A   1      32.145  20.011  25.462  1.00  0.00    -0.252 OA
BRANCH   8  10
ATOM     10  C   UNL A   1      33.931  21.334  24.651  1.00  0.00     0.134 C 
ATOM     11  C   UNL A   1      36.280  24.209  25.263  1.00  0.00     0.147 C 
ATOM     12  N   UNL A   1      35.598  22.942  25.049  1.00  0.00    -0.339 N 
ATOM     13  C   UNL A   1      36.179  21.731  25.371  1.00  0.00     0.223 C 
ATOM     14  C   UNL A   1      34.322  22.808  24.320  1.00  0.00     0.059 C 
ATOM     15  O   UNL A   1      37.243  21.555  25.941  1.00  0.00    -0.275 OA
ATOM     16  C   UNL A   1      35.301  20.638  24.835  1.00  0.00     0.118 C 
ATOM     17  C   UNL A   1      33.360  23.947  24.690  1.00  0.00     0.046 C 
ATOM     18  C   UNL A   1      34.625  22.904  22.780  1.00  0.00     0.046 C 
ATOM     19  C   UNL A   1      32.200  24.166  23.737  1.00  0.00     0.105 C 
ATOM     20  C   UNL A   1      33.392  23.107  21.896  1.00  0.00     0.105 C 
ATOM     21  N   UNL A   1      32.601  24.287  22.326  1.00  0.00    -0.198 NA
BRANCH  21  22
ATOM     22  S   UNL A   1      33.133  25.784  21.705  1.00  0.00     0.245 S 
ATOM     23  O   UNL A   1      34.486  26.003  22.148  1.00  0.00    -0.207 OA
ATOM     24  O   UNL A   1      32.835  25.764  20.280  1.00  0.00    -0.207 OA
BRANCH  22  25
ATOM     25  C   UNL A   1      32.090  27.023  22.420  1.00  0.00     0.118 A 
ATOM     26  C   UNL A   1      30.697  26.955  22.282  1.00  0.00     0.025 A 
ATOM     27  C   UNL A   1      32.669  28.155  22.982  1.00  0.00     0.143 A 
ATOM     28  C   UNL A   1      29.898  28.015  22.731  1.00  0.00     0.002 A 
ATOM     29  C   UNL A   1      31.873  29.215  23.411  1.00  0.00     0.041 A 
ATOM     30  F   UNL A   1      33.992  28.248  23.166  1.00  0.00    -0.206 F 
ATOM     31  C   UNL A   1      30.487  29.147  23.293  1.00  0.00     0.003 A 
ENDBRANCH  22  25
ENDBRANCH  21  22
ENDBRANCH   8  10
ENDBRANCH   7   8
ENDBRANCH   6   7
ENDBRANCH   5   6
ENDBRANCH   4   5
ENDBRANCH   3   4
ENDBRANCH   2   3
ENDBRANCH   1   2
BRANCH   1  32
ATOM     32  C   UNL A   1      31.681  27.550  27.192  1.00  0.00     0.188 C 
BRANCH  32  33
ATOM     33  C   UNL A   1      32.390  28.877  26.911  1.00  0.00     0.188 C 
BRANCH  33  34
ATOM     34  O   UNL A   1      31.711  30.073  27.294  1.00  0.00    -0.376 OA
BRANCH  34  35
ATOM     35  C   UNL A   1      31.666  31.148  26.360  1.00  0.00     0.202 C 
BRANCH  35  36
ATOM     36  C   UNL A   1      31.460  32.524  26.979  1.00  0.00     0.261 C 
BRANCH  36  37
ATOM     37  O   UNL A   1      32.660  33.315  26.880  1.00  0.00    -0.460 OA
BRANCH  37  38
ATOM     38  C   UNL A   1      33.231  33.637  28.060  1.00  0.00     0.338 C 
ATOM     39  O   UNL A   1      32.749  34.316  28.952  1.00  0.00    -0.246 OA
BRANCH  38  40
ATOM     40  C   UNL A   1      34.516  32.936  28.223  1.00  0.00     0.060 A 
ATOM     41  C   UNL A   1      34.469  31.581  28.570  1.00  0.00     0.016 A 
ATOM     42  C   UNL A   1      35.731  33.625  28.211  1.00  0.00     0.016 A 
ATOM     43  C   UNL A   1      35.623  30.935  29.008  1.00  0.00     0.010 A 
ATOM     44  C   UNL A   1      36.887  32.978  28.654  1.00  0.00     0.010 A 
ATOM     45  C   UNL A   1      36.819  31.654  29.117  1.00  0.00    -0.014 A 
BRANCH  45  46
ATOM     46  C   UNL A   1      37.923  31.112  29.941  1.00  0.00     0.031 A 
ATOM     47  C   UNL A   1      38.862  30.119  29.310  1.00  0.00     0.074 A 
ATOM     48  C   UNL A   1      38.097  31.509  31.212  1.00  0.00     0.049 A 
ATOM     49  N   UNL A   1      39.865  29.467  29.838  1.00  0.00    -0.248 NA
ATOM     50  C   UNL A   1      38.630  29.815  27.887  1.00  0.00     0.031 C 
ATOM     51  C   UNL A   1      37.278  32.499  31.905  1.00  0.00     0.029 A 
ATOM     52  N   UNL A   1      39.020  31.114  32.145  1.00  0.00    -0.354 N 
ATOM     53  C   UNL A   1      40.378  28.676  28.816  1.00  0.00     0.074 A 
ATOM     54  C   UNL A   1      39.554  28.897  27.650  1.00  0.00     0.031 C 
ATOM     55  C   UNL A   1      37.731  32.629  33.164  1.00  0.00     0.029 A 
ATOM     56  C   UNL A   1      38.847  31.708  33.369  1.00  0.00     0.049 A 
ATOM     57  H   UNL A   1      39.737  30.467  31.955  1.00  0.00     0.167 HD
ATOM     58  C   UNL A   1      41.451  27.848  28.846  1.00  0.00     0.037 A 
ATOM     59  C   UNL A   1      39.507  31.509  34.526  1.00  0.00     0.037 A 
ATOM     60  C   UNL A   1      42.256  27.627  30.018  1.00  0.00     0.049 A 
ATOM     61  C   UNL A   1      40.639  30.515  34.563  1.00  0.00     0.074 A 
ATOM     62  C   UNL A   1      43.361  26.810  30.165  1.00  0.00     0.029 A 
ATOM     63  N   UNL A   1      42.029  28.225  31.250  1.00  0.00    -0.354 N 
ATOM     64  N   UNL A   1      41.129  29.784  33.591  1.00  0.00    -0.248 NA
ATOM     65  C   UNL A   1      41.309  30.321  35.856  1.00  0.00     0.031 C 
ATOM     66  C   UNL A   1      43.772  26.874  31.501  1.00  0.00     0.029 A 
ATOM     67  C   UNL A   1      42.961  27.778  32.169  1.00  0.00     0.049 A 
ATOM     68  H   UNL A   1      41.311  28.871  31.441  1.00  0.00     0.167 HD
ATOM     69  C   UNL A   1      42.192  29.079  34.142  1.00  0.00     0.074 A 
ATOM     70  C   UNL A   1      42.269  29.465  35.535  1.00  0.00     0.031 C 
ATOM     71  C   UNL A   1      43.034  28.199  33.546  1.00  0.00     0.037 A 
BRANCH  58  72
ATOM     72  C   UNL A   1      41.785  27.106  27.583  1.00  0.00     0.057 A 
ATOM     73  C   UNL A   1      41.322  25.804  27.341  1.00  0.00     0.134 A 
ATOM     74  C   UNL A   1      42.579  27.699  26.594  1.00  0.00     0.134 A 
ATOM     75  F   UNL A   1      40.569  25.170  28.254  1.00  0.00    -0.206 F 
ATOM     76  C   UNL A   1      41.666  25.109  26.181  1.00  0.00     0.040 A 
ATOM     77  C   UNL A   1      42.905  27.025  25.415  1.00  0.00     0.040 A 
ATOM     78  F   UNL A   1      43.053  28.944  26.755  1.00  0.00    -0.206 F 
ATOM     79  C   UNL A   1      42.456  25.722  25.210  1.00  0.00     0.006 A 
ENDBRANCH  58  72
BRANCH  59  80
ATOM     80  C   UNL A   1      39.123  32.275  35.737  1.00  0.00     0.057 A 
ATOM     81  C   UNL A   1      39.610  33.569  35.958  1.00  0.00     0.134 A 
ATOM     82  C   UNL A   1      38.257  31.741  36.700  1.00  0.00     0.134 A 
ATOM     83  F   UNL A   1      40.456  34.130  35.082  1.00  0.00    -0.206 F 
ATOM     84  C   UNL A   1      39.261  34.298  37.097  1.00  0.00     0.040 A 
ATOM     85  C   UNL A   1      37.881  32.467  37.830  1.00  0.00     0.040 A 
ATOM     86  F   UNL A   1      37.752  30.508  36.545  1.00  0.00    -0.206 F 
ATOM     87  C   UNL A   1      38.388  33.748  38.033  1.00  0.00     0.006 A 
ENDBRANCH  59  80
BRANCH  71  88
ATOM     88  C   UNL A   1      44.157  27.644  34.373  1.00  0.00     0.057 A 
ATOM     89  C   UNL A   1      45.381  28.310  34.514  1.00  0.00     0.134 A 
ATOM     90  C   UNL A   1      43.976  26.460  35.101  1.00  0.00     0.134 A 
ATOM     91  F   UNL A   1      45.620  29.442  33.835  1.00  0.00    -0.206 F 
ATOM     92  C   UNL A   1      46.388  27.811  35.341  1.00  0.00     0.040 A 
ATOM     93  C   UNL A   1      44.965  25.967  35.952  1.00  0.00     0.040 A 
ATOM     94  F   UNL A   1      42.822  25.779  35.019  1.00  0.00    -0.206 F 
ATOM     95  C   UNL A   1      46.178  26.643  36.072  1.00  0.00     0.006 A 
ENDBRANCH  71  88
ENDBRANCH  45  46
ENDBRANCH  38  40
ENDBRANCH  37  38
ENDBRANCH  36  37
ENDBRANCH  35  36
ENDBRANCH  34  35
ENDBRANCH  33  34
ENDBRANCH  32  33
ENDBRANCH   1  32
TORSDOF 22
ENDMDL
MODEL 3
REMARK VINA RESULT:     -10.9      3.640      6.904
REMARK SMILES CN1C(=O)C[C@@H](C(=O)OCCOCCOCCOCCOC(=O)c2ccc(-c3c4nc(c(-c5c(F)cccc5F)c5ccc([nH]5)c(-c5c(F)cccc5F)c5nc(c(-c6c(F)cccc6F)c6ccc3[nH]6)C=C5)C=C4)cc2)C12CCN(S(=O)(=O)c1ccccc1F)CC2
REMARK SMILES IDX 15 1 14 2 13 3 12 4 11 5 10 6 9 7 7 8 8 9 6 10 1 11 2 12
REMARK SMILES IDX 3 13 78 14 4 15 5 16 79 17 93 18 80 19 92 20 81 21 82 22
REMARK SMILES IDX 83 23 84 24 85 25 86 26 90 27 87 28 89 29 91 30 88 31 16 32
REMARK SMILES IDX 17 33 18 34 19 35 20 36 21 37 22 38 23 39 24 40 25 41 77 42
REMARK SMILES IDX 26 43 76 44 27 45 28 46 29 47 70 48 30 49 75 50 69 51 71 52
REMARK SMILES IDX 31 53 74 54 68 55 67 56 32 58 58 59 41 60 57 61 42 62 45 63
REMARK SMILES IDX 56 64 72 65 43 66 44 67 55 69 73 70 46 71 33 72 34 73 39 74
REMARK SMILES IDX 35 75 36 76 38 77 40 78 37 79 59 80 60 81 65 82 61 83 62 84
REMARK SMILES IDX 64 85 66 86 63 87 47 88 48 89 53 90 49 91 50 92 52 93 54 94
REMARK SMILES IDX 51 95
REMARK H PARENT 71 57 45 68
REMARK Flexibility Score: inf
ROOT
ATOM      1  O   UNL A   1      31.347  26.663  26.151  1.00  0.00    -0.377 OA
ENDROOT
BRANCH   1   2
ATOM      2  C   UNL A   1      30.164  25.905  25.979  1.00  0.00     0.188 C 
BRANCH   2   3
ATOM      3  C   UNL A   1      30.178  24.493  26.557  1.00  0.00     0.188 C 
BRANCH   3   4
ATOM      4  O   UNL A   1      31.299  24.097  27.316  1.00  0.00    -0.376 OA
BRANCH   4   5
ATOM      5  C   UNL A   1      31.667  22.720  27.356  1.00  0.00     0.202 C 
BRANCH   5   6
ATOM      6  C   UNL A   1      33.121  22.262  27.613  1.00  0.00     0.261 C 
BRANCH   6   7
ATOM      7  O   UNL A   1      33.525  20.962  27.083  1.00  0.00    -0.463 OA
BRANCH   7   8
ATOM      8  C   UNL A   1      33.150  20.715  25.812  1.00  0.00     0.311 C 
ATOM      9  O   UNL A   1      32.220  19.957  25.525  1.00  0.00    -0.252 OA
BRANCH   8  10
ATOM     10  C   UNL A   1      33.970  21.297  24.665  1.00  0.00     0.134 C 
ATOM     11  C   UNL A   1      36.381  24.132  25.219  1.00  0.00     0.147 C 
ATOM     12  N   UNL A   1      35.674  22.877  25.020  1.00  0.00    -0.339 N 
ATOM     13  C   UNL A   1      36.245  21.655  25.318  1.00  0.00     0.223 C 
ATOM     14  C   UNL A   1      34.374  22.767  24.329  1.00  0.00     0.059 C 
ATOM     15  O   UNL A   1      37.323  21.460  25.855  1.00  0.00    -0.275 OA
ATOM     16  C   UNL A   1      35.334  20.579  24.804  1.00  0.00     0.118 C 
ATOM     17  C   UNL A   1      33.442  23.919  24.733  1.00  0.00     0.046 C 
ATOM     18  C   UNL A   1      34.633  22.866  22.781  1.00  0.00     0.046 C 
ATOM     19  C   UNL A   1      32.258  24.160  23.817  1.00  0.00     0.105 C 
ATOM     20  C   UNL A   1      33.376  23.092  21.936  1.00  0.00     0.105 C 
ATOM     21  N   UNL A   1      32.617  24.283  22.394  1.00  0.00    -0.198 NA
BRANCH  21  22
ATOM     22  S   UNL A   1      33.154  25.775  21.765  1.00  0.00     0.245 S 
ATOM     23  O   UNL A   1      34.496  26.007  22.234  1.00  0.00    -0.207 OA
ATOM     24  O   UNL A   1      32.887  25.733  20.334  1.00  0.00    -0.207 OA
BRANCH  22  25
ATOM     25  C   UNL A   1      32.089  27.016  22.441  1.00  0.00     0.118 A 
ATOM     26  C   UNL A   1      30.696  26.874  22.384  1.00  0.00     0.025 A 
ATOM     27  C   UNL A   1      32.639  28.214  22.883  1.00  0.00     0.143 A 
ATOM     28  C   UNL A   1      29.869  27.928  22.795  1.00  0.00     0.002 A 
ATOM     29  C   UNL A   1      31.814  29.267  23.273  1.00  0.00     0.041 A 
ATOM     30  F   UNL A   1      33.963  28.380  22.988  1.00  0.00    -0.206 F 
ATOM     31  C   UNL A   1      30.429  29.126  23.237  1.00  0.00     0.003 A 
ENDBRANCH  22  25
ENDBRANCH  21  22
ENDBRANCH   8  10
ENDBRANCH   7   8
ENDBRANCH   6   7
ENDBRANCH   5   6
ENDBRANCH   4   5
ENDBRANCH   3   4
ENDBRANCH   2   3
ENDBRANCH   1   2
BRANCH   1  32
ATOM     32  C   UNL A   1      31.394  27.761  27.058  1.00  0.00     0.188 C 
BRANCH  32  33
ATOM     33  C   UNL A   1      32.164  29.027  26.677  1.00  0.00     0.188 C 
BRANCH  33  34
ATOM     34  O   UNL A   1      31.735  30.254  27.268  1.00  0.00    -0.376 OA
BRANCH  34  35
ATOM     35  C   UNL A   1      31.714  31.420  26.450  1.00  0.00     0.202 C 
BRANCH  35  36
ATOM     36  C   UNL A   1      31.675  32.736  27.215  1.00  0.00     0.261 C 
BRANCH  36  37
ATOM     37  O   UNL A   1      32.934  33.429  27.110  1.00  0.00    -0.460 OA
BRANCH  37  38
ATOM     38  C   UNL A   1      33.568  33.644  28.281  1.00  0.00     0.338 C 
ATOM     39  O   UNL A   1      33.149  34.267  29.244  1.00  0.00    -0.246 OA
BRANCH  38  40
ATOM     40  C   UNL A   1      34.837  32.897  28.330  1.00  0.00     0.060 A 
ATOM     41  C   UNL A   1      34.759  31.508  28.479  1.00  0.00     0.016 A 
ATOM     42  C   UNL A   1      36.068  33.552  28.406  1.00  0.00     0.016 A 
ATOM     43  C   UNL A   1      35.899  30.780  28.808  1.00  0.00     0.010 A 
ATOM     44  C   UNL A   1      37.211  32.822  28.740  1.00  0.00     0.010 A 
ATOM     45  C   UNL A   1      37.113  31.447  29.009  1.00  0.00    -0.014 A 
BRANCH  45  46
ATOM     46  C   UNL A   1      38.208  30.767  29.736  1.00  0.00     0.031 A 
ATOM     47  C   UNL A   1      38.423  31.110  31.186  1.00  0.00     0.074 A 
ATOM     48  C   UNL A   1      38.980  29.853  29.126  1.00  0.00     0.049 A 
ATOM     49  N   UNL A   1      39.343  30.691  32.014  1.00  0.00    -0.248 NA
ATOM     50  C   UNL A   1      37.469  32.064  31.779  1.00  0.00     0.031 C 
ATOM     51  C   UNL A   1      38.829  29.411  27.742  1.00  0.00     0.029 A 
ATOM     52  N   UNL A   1      40.051  29.141  29.598  1.00  0.00    -0.354 N 
ATOM     53  C   UNL A   1      39.082  31.332  33.221  1.00  0.00     0.074 A 
ATOM     54  C   UNL A   1      37.945  32.198  33.007  1.00  0.00     0.031 C 
ATOM     55  C   UNL A   1      39.784  28.505  27.472  1.00  0.00     0.029 A 
ATOM     56  C   UNL A   1      40.628  28.331  28.652  1.00  0.00     0.049 A 
ATOM     57  H   UNL A   1      40.376  29.204  30.525  1.00  0.00     0.167 HD
ATOM     58  C   UNL A   1      39.728  31.200  34.405  1.00  0.00     0.037 A 
ATOM     59  C   UNL A   1      41.727  27.557  28.733  1.00  0.00     0.037 A 
ATOM     60  C   UNL A   1      40.867  30.344  34.601  1.00  0.00     0.049 A 
ATOM     61  C   UNL A   1      42.486  27.494  30.033  1.00  0.00     0.074 A 
ATOM     62  C   UNL A   1      41.602  30.134  35.754  1.00  0.00     0.029 A 
ATOM     63  N   UNL A   1      41.442  29.563  33.609  1.00  0.00    -0.354 N 
ATOM     64  N   UNL A   1      42.225  28.089  31.172  1.00  0.00    -0.248 NA
ATOM     65  C   UNL A   1      43.690  26.653  30.059  1.00  0.00     0.031 C 
ATOM     66  C   UNL A   1      42.653  29.265  35.445  1.00  0.00     0.029 A 
ATOM     67  C   UNL A   1      42.536  28.885  34.117  1.00  0.00     0.049 A 
ATOM     68  H   UNL A   1      41.120  29.500  32.681  1.00  0.00     0.167 HD
ATOM     69  C   UNL A   1      43.202  27.658  32.061  1.00  0.00     0.074 A 
ATOM     70  C   UNL A   1      44.065  26.758  31.325  1.00  0.00     0.031 C 
ATOM     71  C   UNL A   1      43.365  27.972  33.370  1.00  0.00     0.037 A 
BRANCH  58  72
ATOM     72  C   UNL A   1      39.229  32.024  35.559  1.00  0.00     0.057 A 
ATOM     73  C   UNL A   1      38.319  31.516  36.496  1.00  0.00     0.134 A 
ATOM     74  C   UNL A   1      39.665  33.343  35.736  1.00  0.00     0.134 A 
ATOM     75  F   UNL A   1      37.848  30.265  36.378  1.00  0.00    -0.206 F 
ATOM     76  C   UNL A   1      37.834  32.300  37.544  1.00  0.00     0.040 A 
ATOM     77  C   UNL A   1      39.210  34.127  36.798  1.00  0.00     0.040 A 
ATOM     78  F   UNL A   1      40.539  33.894  34.880  1.00  0.00    -0.206 F 
ATOM     79  C   UNL A   1      38.284  33.609  37.701  1.00  0.00     0.006 A 
ENDBRANCH  58  72
BRANCH  59  80
ATOM     80  C   UNL A   1      42.166  26.771  27.553  1.00  0.00     0.057 A 
ATOM     81  C   UNL A   1      42.982  27.340  26.569  1.00  0.00     0.134 A 
ATOM     82  C   UNL A   1      41.787  25.434  27.381  1.00  0.00     0.134 A 
ATOM     83  F   UNL A   1      43.364  28.622  26.668  1.00  0.00    -0.206 F 
ATOM     84  C   UNL A   1      43.397  26.614  25.452  1.00  0.00     0.040 A 
ATOM     85  C   UNL A   1      42.214  24.688  26.281  1.00  0.00     0.040 A 
ATOM     86  F   UNL A   1      41.009  24.828  28.291  1.00  0.00    -0.206 F 
ATOM     87  C   UNL A   1      43.017  25.280  25.310  1.00  0.00     0.006 A 
ENDBRANCH  59  80
BRANCH  71  88
ATOM     88  C   UNL A   1      44.473  27.287  34.116  1.00  0.00     0.057 A 
ATOM     89  C   UNL A   1      44.303  26.035  34.720  1.00  0.00     0.134 A 
ATOM     90  C   UNL A   1      45.751  27.860  34.159  1.00  0.00     0.134 A 
ATOM     91  F   UNL A   1      43.102  25.439  34.723  1.00  0.00    -0.206 F 
ATOM     92  C   UNL A   1      45.365  25.384  35.351  1.00  0.00     0.040 A 
ATOM     93  C   UNL A   1      46.825  27.206  34.762  1.00  0.00     0.040 A 
ATOM     94  F   UNL A   1      45.982  29.053  33.589  1.00  0.00    -0.206 F 
ATOM     95  C   UNL A   1      46.632  25.964  35.363  1.00  0.00     0.006 A 
ENDBRANCH  71  88
ENDBRANCH  45  46
ENDBRANCH  38  40
ENDBRANCH  37  38
ENDBRANCH  36  37
ENDBRANCH  35  36
ENDBRANCH  34  35
ENDBRANCH  33  34
ENDBRANCH  32  33
ENDBRANCH   1  32
TORSDOF 22
ENDMDL
