MODEL 1
REMARK VINA RESULT:     -10.8      0.000      0.000
REMARK SMILES O=C(OCCOCCOCCOCCOC(=O)[C@H]1CCCN(c2cc(-c3ccccn3)nc(-c3ccccc3F)n2)C1)c1ccc(-c2c3nc(c(-c4c(F)cccc4F)c4ccc([nH]4)c(-c4c(F)cccc4F)c4nc(c(-c5c(F)cccc5F)c5ccc2[nH]5)C=C4)C=C3)cc1
REMARK SMILES IDX 9 1 8 2 7 3 6 4 5 5 4 6 3 7 2 8 1 9 43 10 44 11 96 12 45 13
REMARK SMILES IDX 95 14 46 15 47 16 48 17 89 18 49 19 94 20 88 21 90 22 50 23
REMARK SMILES IDX 93 24 87 25 86 26 51 28 77 29 60 30 76 31 61 32 64 33 75 34
REMARK SMILES IDX 91 35 62 36 63 37 74 39 92 40 65 41 52 42 53 43 58 44 54 45
REMARK SMILES IDX 55 46 57 47 59 48 56 49 78 50 79 51 84 52 80 53 81 54 83 55
REMARK SMILES IDX 85 56 82 57 66 58 67 59 72 60 68 61 69 62 71 63 73 64 70 65
REMARK SMILES IDX 10 66 11 67 12 68 13 69 14 70 15 71 16 72 17 73 18 74 19 75
REMARK SMILES IDX 42 76 20 77 22 78 21 79 23 80 24 81 41 82 25 83 33 84 32 85
REMARK SMILES IDX 26 86 27 87 31 88 28 89 30 90 29 91 34 92 35 93 39 94 36 95
REMARK SMILES IDX 38 96 40 97 37 98
REMARK H PARENT 90 27 64 38
REMARK Flexibility Score: inf
ROOT
ATOM      1  O   UNL A   1      34.216  33.388  29.020  1.00  0.00    -0.377 OA
ENDROOT
BRANCH   1   2
ATOM      2  C   UNL A   1      35.381  34.140  28.692  1.00  0.00     0.188 C 
BRANCH   2   3
ATOM      3  C   UNL A   1      36.604  33.740  29.513  1.00  0.00     0.188 C 
BRANCH   3   4
ATOM      4  O   UNL A   1      36.274  33.811  30.903  1.00  0.00    -0.376 OA
BRANCH   4   5
ATOM      5  C   UNL A   1      36.694  32.690  31.678  1.00  0.00     0.202 C 
BRANCH   5   6
ATOM      6  C   UNL A   1      35.621  31.609  31.782  1.00  0.00     0.261 C 
BRANCH   6   7
ATOM      7  O   UNL A   1      36.115  30.331  31.360  1.00  0.00    -0.460 OA
BRANCH   7   8
ATOM      8  C   UNL A   1      37.116  29.603  31.915  1.00  0.00     0.338 C 
ATOM      9  O   UNL A   1      36.950  29.174  33.057  1.00  0.00    -0.246 OA
BRANCH   8  10
ATOM     10  C   UNL A   1      38.405  29.255  31.229  1.00  0.00     0.060 A 
ATOM     11  C   UNL A   1      39.481  28.564  31.796  1.00  0.00     0.016 A 
ATOM     12  C   UNL A   1      38.498  29.588  29.865  1.00  0.00     0.016 A 
ATOM     13  C   UNL A   1      40.611  28.231  31.058  1.00  0.00     0.010 A 
ATOM     14  C   UNL A   1      39.628  29.256  29.112  1.00  0.00     0.010 A 
ATOM     15  C   UNL A   1      40.692  28.582  29.716  1.00  0.00    -0.014 A 
BRANCH  15  16
ATOM     16  C   UNL A   1      41.961  28.350  29.010  1.00  0.00     0.031 A 
ATOM     17  C   UNL A   1      42.214  26.983  28.456  1.00  0.00     0.074 A 
ATOM     18  C   UNL A   1      42.802  29.374  28.777  1.00  0.00     0.049 A 
ATOM     19  N   UNL A   1      43.285  26.509  27.883  1.00  0.00    -0.248 NA
ATOM     20  C   UNL A   1      41.097  26.024  28.539  1.00  0.00     0.031 C 
ATOM     21  C   UNL A   1      42.557  30.767  29.155  1.00  0.00     0.029 A 
ATOM     22  N   UNL A   1      44.020  29.405  28.154  1.00  0.00    -0.354 N 
ATOM     23  C   UNL A   1      42.983  25.192  27.567  1.00  0.00     0.074 A 
ATOM     24  C   UNL A   1      41.627  24.941  27.990  1.00  0.00     0.031 C 
ATOM     25  C   UNL A   1      43.599  31.517  28.757  1.00  0.00     0.029 A 
ATOM     26  C   UNL A   1      44.608  30.646  28.162  1.00  0.00     0.049 A 
ATOM     27  H   UNL A   1      44.435  28.614  27.740  1.00  0.00     0.167 HD
ATOM     28  C   UNL A   1      43.789  24.277  26.984  1.00  0.00     0.037 A 
ATOM     29  C   UNL A   1      45.845  31.015  27.776  1.00  0.00     0.037 A 
ATOM     30  C   UNL A   1      45.134  24.562  26.574  1.00  0.00     0.049 A 
ATOM     31  C   UNL A   1      46.765  29.948  27.243  1.00  0.00     0.074 A 
ATOM     32  C   UNL A   1      46.069  23.706  26.027  1.00  0.00     0.029 A 
ATOM     33  N   UNL A   1      45.730  25.811  26.674  1.00  0.00    -0.354 N 
ATOM     34  N   UNL A   1      46.506  28.682  27.007  1.00  0.00    -0.248 NA
ATOM     35  C   UNL A   1      48.150  30.341  26.955  1.00  0.00     0.031 C 
ATOM     36  C   UNL A   1      47.249  24.431  25.833  1.00  0.00     0.029 A 
ATOM     37  C   UNL A   1      47.034  25.745  26.225  1.00  0.00     0.049 A 
ATOM     38  H   UNL A   1      45.290  26.623  27.014  1.00  0.00     0.167 HD
ATOM     39  C   UNL A   1      47.694  28.127  26.551  1.00  0.00     0.074 A 
ATOM     40  C   UNL A   1      48.667  29.201  26.516  1.00  0.00     0.031 C 
ATOM     41  C   UNL A   1      47.964  26.845  26.206  1.00  0.00     0.037 A 
BRANCH  28  42
ATOM     42  C   UNL A   1      43.259  22.888  26.828  1.00  0.00     0.057 A 
ATOM     43  C   UNL A   1      42.975  22.381  25.553  1.00  0.00     0.134 A 
ATOM     44  C   UNL A   1      43.012  22.057  27.927  1.00  0.00     0.134 A 
ATOM     45  F   UNL A   1      43.203  23.125  24.460  1.00  0.00    -0.206 F 
ATOM     46  C   UNL A   1      42.451  21.100  25.377  1.00  0.00     0.040 A 
ATOM     47  C   UNL A   1      42.501  20.767  27.762  1.00  0.00     0.040 A 
ATOM     48  F   UNL A   1      43.290  22.474  29.171  1.00  0.00    -0.206 F 
ATOM     49  C   UNL A   1      42.213  20.290  26.485  1.00  0.00     0.006 A 
ENDBRANCH  28  42
BRANCH  29  50
ATOM     50  C   UNL A   1      46.307  32.416  27.964  1.00  0.00     0.057 A 
ATOM     51  C   UNL A   1      46.936  32.821  29.150  1.00  0.00     0.134 A 
ATOM     52  C   UNL A   1      46.143  33.383  26.966  1.00  0.00     0.134 A 
ATOM     53  F   UNL A   1      47.134  31.944  30.146  1.00  0.00    -0.206 F 
ATOM     54  C   UNL A   1      47.363  34.136  29.346  1.00  0.00     0.040 A 
ATOM     55  C   UNL A   1      46.590  34.697  27.139  1.00  0.00     0.040 A 
ATOM     56  F   UNL A   1      45.574  33.058  25.797  1.00  0.00    -0.206 F 
ATOM     57  C   UNL A   1      47.196  35.078  28.335  1.00  0.00     0.006 A 
ENDBRANCH  29  50
BRANCH  41  58
ATOM     58  C   UNL A   1      49.361  26.530  25.774  1.00  0.00     0.057 A 
ATOM     59  C   UNL A   1      50.285  25.994  26.679  1.00  0.00     0.134 A 
ATOM     60  C   UNL A   1      49.818  26.880  24.499  1.00  0.00     0.134 A 
ATOM     61  F   UNL A   1      49.903  25.655  27.920  1.00  0.00    -0.206 F 
ATOM     62  C   UNL A   1      51.627  25.842  26.338  1.00  0.00     0.040 A 
ATOM     63  C   UNL A   1      51.155  26.713  24.139  1.00  0.00     0.040 A 
ATOM     64  F   UNL A   1      48.974  27.391  23.590  1.00  0.00    -0.206 F 
ATOM     65  C   UNL A   1      52.065  26.205  25.064  1.00  0.00     0.006 A 
ENDBRANCH  41  58
ENDBRANCH  15  16
ENDBRANCH   8  10
ENDBRANCH   7   8
ENDBRANCH   6   7
ENDBRANCH   5   6
ENDBRANCH   4   5
ENDBRANCH   3   4
ENDBRANCH   2   3
ENDBRANCH   1   2
BRANCH   1  66
ATOM     66  C   UNL A   1      33.652  32.599  27.979  1.00  0.00     0.188 C 
BRANCH  66  67
ATOM     67  C   UNL A   1      34.101  31.141  27.832  1.00  0.00     0.188 C 
BRANCH  67  68
ATOM     68  O   UNL A   1      33.146  30.275  27.234  1.00  0.00    -0.376 OA
BRANCH  68  69
ATOM     69  C   UNL A   1      33.602  29.567  26.083  1.00  0.00     0.202 C 
BRANCH  69  70
ATOM     70  C   UNL A   1      33.189  28.092  26.059  1.00  0.00     0.261 C 
BRANCH  70  71
ATOM     71  O   UNL A   1      32.821  27.599  24.758  1.00  0.00    -0.463 OA
BRANCH  71  72
ATOM     72  C   UNL A   1      31.736  26.800  24.634  1.00  0.00     0.310 C 
ATOM     73  O   UNL A   1      30.718  27.120  24.027  1.00  0.00    -0.252 OA
BRANCH  72  74
ATOM     74  C   UNL A   1      31.956  25.416  25.249  1.00  0.00     0.118 C 
ATOM     75  C   UNL A   1      30.732  25.055  26.115  1.00  0.00     0.019 C 
ATOM     76  C   UNL A   1      32.319  24.354  24.194  1.00  0.00     0.133 C 
ATOM     77  C   UNL A   1      30.692  23.585  26.527  1.00  0.00     0.022 C 
ATOM     78  N   UNL A   1      32.087  22.980  24.648  1.00  0.00    -0.356 N 
ATOM     79  C   UNL A   1      30.842  22.665  25.320  1.00  0.00     0.118 C 
BRANCH  78  80
ATOM     80  C   UNL A   1      33.195  22.183  24.820  1.00  0.00     0.133 A 
ATOM     81  C   UNL A   1      34.431  22.705  25.123  1.00  0.00     0.077 A 
ATOM     82  N   UNL A   1      33.008  20.867  24.745  1.00  0.00    -0.211 NA
ATOM     83  C   UNL A   1      35.453  21.807  25.391  1.00  0.00     0.095 A 
ATOM     84  C   UNL A   1      34.044  20.059  25.005  1.00  0.00     0.165 A 
ATOM     85  N   UNL A   1      35.273  20.467  25.338  1.00  0.00    -0.226 NA
BRANCH  83  86
ATOM     86  C   UNL A   1      36.784  22.289  25.789  1.00  0.00     0.089 A 
ATOM     87  C   UNL A   1      37.004  23.625  26.136  1.00  0.00     0.030 A 
ATOM     88  N   UNL A   1      37.793  21.382  25.747  1.00  0.00    -0.255 NA
ATOM     89  C   UNL A   1      38.295  24.038  26.461  1.00  0.00     0.004 A 
ATOM     90  C   UNL A   1      39.032  21.809  26.080  1.00  0.00     0.112 A 
ATOM     91  C   UNL A   1      39.330  23.114  26.436  1.00  0.00     0.020 A 
ENDBRANCH  83  86
BRANCH  84  92
ATOM     92  C   UNL A   1      33.733  18.644  24.877  1.00  0.00     0.055 A 
ATOM     93  C   UNL A   1      32.475  18.165  25.300  1.00  0.00     0.015 A 
ATOM     94  C   UNL A   1      34.687  17.708  24.478  1.00  0.00     0.134 A 
ATOM     95  C   UNL A   1      32.191  16.799  25.329  1.00  0.00     0.001 A 
ATOM     96  C   UNL A   1      34.412  16.340  24.509  1.00  0.00     0.040 A 
ATOM     97  F   UNL A   1      35.921  18.098  24.124  1.00  0.00    -0.206 F 
ATOM     98  C   UNL A   1      33.165  15.885  24.937  1.00  0.00     0.003 A 
ENDBRANCH  84  92
ENDBRANCH  78  80
ENDBRANCH  72  74
ENDBRANCH  71  72
ENDBRANCH  70  71
ENDBRANCH  69  70
ENDBRANCH  68  69
ENDBRANCH  67  68
ENDBRANCH  66  67
ENDBRANCH   1  66
TORSDOF 23
ENDMDL
MODEL 2
REMARK VINA RESULT:     -10.8      1.109      3.030
REMARK SMILES O=C(OCCOCCOCCOCCOC(=O)[C@H]1CCCN(c2cc(-c3ccccn3)nc(-c3ccccc3F)n2)C1)c1ccc(-c2c3nc(c(-c4c(F)cccc4F)c4ccc([nH]4)c(-c4c(F)cccc4F)c4nc(c(-c5c(F)cccc5F)c5ccc2[nH]5)C=C4)C=C3)cc1
REMARK SMILES IDX 9 1 8 2 7 3 6 4 5 5 4 6 3 7 2 8 1 9 43 10 44 11 96 12 45 13
REMARK SMILES IDX 95 14 46 15 47 16 48 17 89 18 49 19 94 20 88 21 90 22 50 23
REMARK SMILES IDX 93 24 87 25 86 26 51 28 77 29 60 30 76 31 61 32 64 33 75 34
REMARK SMILES IDX 91 35 62 36 63 37 74 39 92 40 65 41 52 42 53 43 58 44 54 45
REMARK SMILES IDX 55 46 57 47 59 48 56 49 78 50 79 51 84 52 80 53 81 54 83 55
REMARK SMILES IDX 85 56 82 57 66 58 67 59 72 60 68 61 69 62 71 63 73 64 70 65
REMARK SMILES IDX 10 66 11 67 12 68 13 69 14 70 15 71 16 72 17 73 18 74 19 75
REMARK SMILES IDX 42 76 20 77 22 78 21 79 23 80 24 81 41 82 25 83 33 84 32 85
REMARK SMILES IDX 26 86 27 87 31 88 28 89 30 90 29 91 34 92 35 93 39 94 36 95
REMARK SMILES IDX 38 96 40 97 37 98
REMARK H PARENT 90 27 64 38
REMARK Flexibility Score: inf
ROOT
ATOM      1  O   UNL A   1      33.267  33.284  28.512  1.00  0.00    -0.377 OA
ENDROOT
BRANCH   1   2
ATOM      2  C   UNL A   1      33.910  34.531  28.260  1.00  0.00     0.188 C 
BRANCH   2   3
ATOM      3  C   UNL A   1      35.256  34.665  28.966  1.00  0.00     0.188 C 
BRANCH   3   4
ATOM      4  O   UNL A   1      35.099  34.299  30.339  1.00  0.00    -0.376 OA
BRANCH   4   5
ATOM      5  C   UNL A   1      36.010  33.305  30.804  1.00  0.00     0.202 C 
BRANCH   5   6
ATOM      6  C   UNL A   1      35.307  32.049  31.312  1.00  0.00     0.261 C 
BRANCH   6   7
ATOM      7  O   UNL A   1      35.968  30.856  30.870  1.00  0.00    -0.460 OA
BRANCH   7   8
ATOM      8  C   UNL A   1      36.903  30.131  31.532  1.00  0.00     0.338 C 
ATOM      9  O   UNL A   1      36.630  29.739  32.667  1.00  0.00    -0.246 OA
BRANCH   8  10
ATOM     10  C   UNL A   1      38.242  29.744  30.973  1.00  0.00     0.060 A 
ATOM     11  C   UNL A   1      39.280  29.123  31.675  1.00  0.00     0.016 A 
ATOM     12  C   UNL A   1      38.429  29.955  29.595  1.00  0.00     0.016 A 
ATOM     13  C   UNL A   1      40.463  28.744  31.052  1.00  0.00     0.010 A 
ATOM     14  C   UNL A   1      39.613  29.574  28.956  1.00  0.00     0.010 A 
ATOM     15  C   UNL A   1      40.638  28.974  29.693  1.00  0.00    -0.014 A 
BRANCH  15  16
ATOM     16  C   UNL A   1      41.956  28.700  29.102  1.00  0.00     0.031 A 
ATOM     17  C   UNL A   1      42.215  27.323  28.577  1.00  0.00     0.074 A 
ATOM     18  C   UNL A   1      42.845  29.697  28.942  1.00  0.00     0.049 A 
ATOM     19  N   UNL A   1      43.317  26.814  28.102  1.00  0.00    -0.248 NA
ATOM     20  C   UNL A   1      41.066  26.399  28.563  1.00  0.00     0.031 C 
ATOM     21  C   UNL A   1      42.611  31.098  29.294  1.00  0.00     0.029 A 
ATOM     22  N   UNL A   1      44.114  29.687  28.430  1.00  0.00    -0.354 N 
ATOM     23  C   UNL A   1      43.004  25.505  27.763  1.00  0.00     0.074 A 
ATOM     24  C   UNL A   1      41.608  25.298  28.065  1.00  0.00     0.031 C 
ATOM     25  C   UNL A   1      43.707  31.814  28.988  1.00  0.00     0.029 A 
ATOM     26  C   UNL A   1      44.737  30.910  28.487  1.00  0.00     0.049 A 
ATOM     27  H   UNL A   1      44.540  28.882  28.055  1.00  0.00     0.167 HD
ATOM     28  C   UNL A   1      43.829  24.563  27.256  1.00  0.00     0.037 A 
ATOM     29  C   UNL A   1      46.014  31.239  28.211  1.00  0.00     0.037 A 
ATOM     30  C   UNL A   1      45.213  24.805  26.966  1.00  0.00     0.049 A 
ATOM     31  C   UNL A   1      46.944  30.141  27.764  1.00  0.00     0.074 A 
ATOM     32  C   UNL A   1      46.166  23.918  26.506  1.00  0.00     0.029 A 
ATOM     33  N   UNL A   1      45.836  26.035  27.115  1.00  0.00    -0.354 N 
ATOM     34  N   UNL A   1      46.669  28.883  27.508  1.00  0.00    -0.248 NA
ATOM     35  C   UNL A   1      48.361  30.491  27.599  1.00  0.00     0.031 C 
ATOM     36  C   UNL A   1      47.380  24.605  26.415  1.00  0.00     0.029 A 
ATOM     37  C   UNL A   1      47.173  25.927  26.783  1.00  0.00     0.049 A 
ATOM     38  H   UNL A   1      45.394  26.862  27.412  1.00  0.00     0.167 HD
ATOM     39  C   UNL A   1      47.874  28.290  27.161  1.00  0.00     0.074 A 
ATOM     40  C   UNL A   1      48.879  29.333  27.209  1.00  0.00     0.031 C 
ATOM     41  C   UNL A   1      48.134  26.998  26.844  1.00  0.00     0.037 A 
BRANCH  28  42
ATOM     42  C   UNL A   1      43.272  23.189  27.057  1.00  0.00     0.057 A 
ATOM     43  C   UNL A   1      43.030  22.709  25.764  1.00  0.00     0.134 A 
ATOM     44  C   UNL A   1      42.959  22.350  28.131  1.00  0.00     0.134 A 
ATOM     45  F   UNL A   1      43.320  23.462  24.692  1.00  0.00    -0.206 F 
ATOM     46  C   UNL A   1      42.482  21.444  25.546  1.00  0.00     0.040 A 
ATOM     47  C   UNL A   1      42.425  21.075  27.926  1.00  0.00     0.040 A 
ATOM     48  F   UNL A   1      43.196  22.742  29.393  1.00  0.00    -0.206 F 
ATOM     49  C   UNL A   1      42.178  20.624  26.631  1.00  0.00     0.006 A 
ENDBRANCH  28  42
BRANCH  29  50
ATOM     50  C   UNL A   1      46.501  32.626  28.435  1.00  0.00     0.057 A 
ATOM     51  C   UNL A   1      47.044  33.015  29.668  1.00  0.00     0.134 A 
ATOM     52  C   UNL A   1      46.447  33.595  27.428  1.00  0.00     0.134 A 
ATOM     53  F   UNL A   1      47.134  32.135  30.677  1.00  0.00    -0.206 F 
ATOM     54  C   UNL A   1      47.492  34.317  29.899  1.00  0.00     0.040 A 
ATOM     55  C   UNL A   1      46.918  34.895  27.636  1.00  0.00     0.040 A 
ATOM     56  F   UNL A   1      45.965  33.285  26.216  1.00  0.00    -0.206 F 
ATOM     57  C   UNL A   1      47.435  35.261  28.877  1.00  0.00     0.006 A 
ENDBRANCH  29  50
BRANCH  41  58
ATOM     58  C   UNL A   1      49.553  26.638  26.538  1.00  0.00     0.057 A 
ATOM     59  C   UNL A   1      50.049  26.736  25.233  1.00  0.00     0.134 A 
ATOM     60  C   UNL A   1      50.382  26.075  27.516  1.00  0.00     0.134 A 
ATOM     61  F   UNL A   1      49.292  27.255  24.254  1.00  0.00    -0.206 F 
ATOM     62  C   UNL A   1      51.316  26.259  24.903  1.00  0.00     0.040 A 
ATOM     63  C   UNL A   1      51.659  25.613  27.201  1.00  0.00     0.040 A 
ATOM     64  F   UNL A   1      49.960  25.963  28.784  1.00  0.00    -0.206 F 
ATOM     65  C   UNL A   1      52.124  25.693  25.889  1.00  0.00     0.006 A 
ENDBRANCH  41  58
ENDBRANCH  15  16
ENDBRANCH   8  10
ENDBRANCH   7   8
ENDBRANCH   6   7
ENDBRANCH   5   6
ENDBRANCH   4   5
ENDBRANCH   3   4
ENDBRANCH   2   3
ENDBRANCH   1   2
BRANCH   1  66
ATOM     66  C   UNL A   1      33.342  32.308  27.480  1.00  0.00     0.188 C 
BRANCH  66  67
ATOM     67  C   UNL A   1      34.150  31.029  27.730  1.00  0.00     0.188 C 
BRANCH  67  68
ATOM     68  O   UNL A   1      33.494  29.822  27.367  1.00  0.00    -0.376 OA
BRANCH  68  69
ATOM     69  C   UNL A   1      33.440  29.555  25.966  1.00  0.00     0.202 C 
BRANCH  69  70
ATOM     70  C   UNL A   1      33.628  28.078  25.609  1.00  0.00     0.261 C 
BRANCH  70  71
ATOM     71  O   UNL A   1      33.853  27.829  24.210  1.00  0.00    -0.463 OA
BRANCH  71  72
ATOM     72  C   UNL A   1      32.914  27.168  23.494  1.00  0.00     0.310 C 
ATOM     73  O   UNL A   1      32.389  27.617  22.479  1.00  0.00    -0.252 OA
BRANCH  72  74
ATOM     74  C   UNL A   1      32.653  25.760  24.032  1.00  0.00     0.118 C 
ATOM     75  C   UNL A   1      31.136  25.579  24.238  1.00  0.00     0.019 C 
ATOM     76  C   UNL A   1      33.308  24.668  23.165  1.00  0.00     0.133 C 
ATOM     77  C   UNL A   1      30.724  24.127  24.473  1.00  0.00     0.022 C 
ATOM     78  N   UNL A   1      32.720  23.339  23.361  1.00  0.00    -0.356 N 
ATOM     79  C   UNL A   1      31.276  23.210  23.388  1.00  0.00     0.118 C 
BRANCH  78  80
ATOM     80  C   UNL A   1      33.519  22.381  23.940  1.00  0.00     0.133 A 
ATOM     81  C   UNL A   1      33.147  21.058  23.998  1.00  0.00     0.077 A 
ATOM     82  N   UNL A   1      34.707  22.779  24.389  1.00  0.00    -0.211 NA
ATOM     83  C   UNL A   1      34.077  20.158  24.497  1.00  0.00     0.095 A 
ATOM     84  C   UNL A   1      35.549  21.855  24.870  1.00  0.00     0.165 A 
ATOM     85  N   UNL A   1      35.296  20.544  24.940  1.00  0.00    -0.226 NA
BRANCH  83  86
ATOM     86  C   UNL A   1      33.779  18.718  24.528  1.00  0.00     0.089 A 
ATOM     87  C   UNL A   1      32.477  18.237  24.364  1.00  0.00     0.030 A 
ATOM     88  N   UNL A   1      34.824  17.889  24.778  1.00  0.00    -0.255 NA
ATOM     89  C   UNL A   1      32.243  16.866  24.447  1.00  0.00     0.004 A 
ATOM     90  C   UNL A   1      34.570  16.563  24.840  1.00  0.00     0.112 A 
ATOM     91  C   UNL A   1      33.309  16.010  24.686  1.00  0.00     0.020 A 
ENDBRANCH  83  86
BRANCH  84  92
ATOM     92  C   UNL A   1      36.810  22.401  25.350  1.00  0.00     0.055 A 
ATOM     93  C   UNL A   1      37.937  21.560  25.464  1.00  0.00     0.015 A 
ATOM     94  C   UNL A   1      36.915  23.703  25.838  1.00  0.00     0.134 A 
ATOM     95  C   UNL A   1      39.119  22.007  26.053  1.00  0.00     0.001 A 
ATOM     96  C   UNL A   1      38.094  24.157  26.433  1.00  0.00     0.040 A 
ATOM     97  F   UNL A   1      35.859  24.531  25.814  1.00  0.00    -0.206 F 
ATOM     98  C   UNL A   1      39.195  23.308  26.543  1.00  0.00     0.003 A 
ENDBRANCH  84  92
ENDBRANCH  78  80
ENDBRANCH  72  74
ENDBRANCH  71  72
ENDBRANCH  70  71
ENDBRANCH  69  70
ENDBRANCH  68  69
ENDBRANCH  67  68
ENDBRANCH  66  67
ENDBRANCH   1  66
TORSDOF 23
ENDMDL
MODEL 3
REMARK VINA RESULT:      -9.9      3.252      7.765
REMARK SMILES O=C(OCCOCCOCCOCCOC(=O)[C@H]1CCCN(c2cc(-c3ccccn3)nc(-c3ccccc3F)n2)C1)c1ccc(-c2c3nc(c(-c4c(F)cccc4F)c4ccc([nH]4)c(-c4c(F)cccc4F)c4nc(c(-c5c(F)cccc5F)c5ccc2[nH]5)C=C4)C=C3)cc1
REMARK SMILES IDX 9 1 8 2 7 3 6 4 5 5 4 6 3 7 2 8 1 9 43 10 44 11 96 12 45 13
REMARK SMILES IDX 95 14 46 15 47 16 48 17 89 18 49 19 94 20 88 21 90 22 50 23
REMARK SMILES IDX 93 24 87 25 86 26 51 28 77 29 60 30 76 31 61 32 64 33 75 34
REMARK SMILES IDX 91 35 62 36 63 37 74 39 92 40 65 41 52 42 53 43 58 44 54 45
REMARK SMILES IDX 55 46 57 47 59 48 56 49 78 50 79 51 84 52 80 53 81 54 83 55
REMARK SMILES IDX 85 56 82 57 66 58 67 59 72 60 68 61 69 62 71 63 73 64 70 65
REMARK SMILES IDX 10 66 11 67 12 68 13 69 14 70 15 71 16 72 17 73 18 74 19 75
REMARK SMILES IDX 42 76 20 77 22 78 21 79 23 80 24 81 41 82 25 83 33 84 32 85
REMARK SMILES IDX 26 86 27 87 31 88 28 89 30 90 29 91 34 92 35 93 39 94 36 95
REMARK SMILES IDX 38 96 40 97 37 98
REMARK H PARENT 90 27 64 38
REMARK Flexibility Score: inf
ROOT
ATOM      1  O   UNL A   1      33.199  34.546  30.359  1.00  0.00    -0.377 OA
ENDROOT
BRANCH   1   2
ATOM      2  C   UNL A   1      32.860  35.870  30.761  1.00  0.00     0.188 C 
BRANCH   2   3
ATOM      3  C   UNL A   1      33.727  36.391  31.905  1.00  0.00     0.188 C 
BRANCH   3   4
ATOM      4  O   UNL A   1      33.789  35.396  32.930  1.00  0.00    -0.376 OA
BRANCH   4   5
ATOM      5  C   UNL A   1      35.097  34.902  33.207  1.00  0.00     0.202 C 
BRANCH   5   6
ATOM      6  C   UNL A   1      35.109  33.848  34.312  1.00  0.00     0.261 C 
BRANCH   6   7
ATOM      7  O   UNL A   1      36.030  32.788  34.024  1.00  0.00    -0.460 OA
BRANCH   7   8
ATOM      8  C   UNL A   1      37.206  32.519  34.642  1.00  0.00     0.338 C 
ATOM      9  O   UNL A   1      37.282  32.731  35.853  1.00  0.00    -0.246 OA
BRANCH   8  10
ATOM     10  C   UNL A   1      38.422  31.954  33.966  1.00  0.00     0.060 A 
ATOM     11  C   UNL A   1      38.468  31.393  32.686  1.00  0.00     0.016 A 
ATOM     12  C   UNL A   1      39.639  32.079  34.661  1.00  0.00     0.016 A 
ATOM     13  C   UNL A   1      39.659  30.953  32.119  1.00  0.00     0.010 A 
ATOM     14  C   UNL A   1      40.844  31.643  34.100  1.00  0.00     0.010 A 
ATOM     15  C   UNL A   1      40.849  31.069  32.826  1.00  0.00    -0.014 A 
BRANCH  15  16
ATOM     16  C   UNL A   1      42.060  30.456  32.260  1.00  0.00     0.031 A 
ATOM     17  C   UNL A   1      42.771  31.191  31.167  1.00  0.00     0.074 A 
ATOM     18  C   UNL A   1      42.563  29.331  32.799  1.00  0.00     0.049 A 
ATOM     19  N   UNL A   1      43.793  30.817  30.449  1.00  0.00    -0.248 NA
ATOM     20  C   UNL A   1      42.274  32.544  30.855  1.00  0.00     0.031 C 
ATOM     21  C   UNL A   1      42.011  28.635  33.962  1.00  0.00     0.029 A 
ATOM     22  N   UNL A   1      43.657  28.586  32.450  1.00  0.00    -0.354 N 
ATOM     23  C   UNL A   1      44.042  31.871  29.582  1.00  0.00     0.074 A 
ATOM     24  C   UNL A   1      43.081  32.910  29.870  1.00  0.00     0.031 C 
ATOM     25  C   UNL A   1      42.771  27.559  34.229  1.00  0.00     0.029 A 
ATOM     26  C   UNL A   1      43.816  27.456  33.215  1.00  0.00     0.049 A 
ATOM     27  H   UNL A   1      44.271  28.836  31.722  1.00  0.00     0.167 HD
ATOM     28  C   UNL A   1      44.989  31.945  28.621  1.00  0.00     0.037 A 
ATOM     29  C   UNL A   1      44.681  26.433  33.069  1.00  0.00     0.037 A 
ATOM     30  C   UNL A   1      45.929  30.893  28.363  1.00  0.00     0.049 A 
ATOM     31  C   UNL A   1      45.646  26.485  31.913  1.00  0.00     0.074 A 
ATOM     32  C   UNL A   1      46.898  30.822  27.381  1.00  0.00     0.029 A 
ATOM     33  N   UNL A   1      46.010  29.722  29.103  1.00  0.00    -0.354 N 
ATOM     34  N   UNL A   1      45.839  27.452  31.045  1.00  0.00    -0.248 NA
ATOM     35  C   UNL A   1      46.487  25.302  31.691  1.00  0.00     0.031 C 
ATOM     36  C   UNL A   1      47.539  29.586  27.502  1.00  0.00     0.029 A 
ATOM     37  C   UNL A   1      46.994  28.905  28.582  1.00  0.00     0.049 A 
ATOM     38  H   UNL A   1      45.450  29.504  29.882  1.00  0.00     0.167 HD
ATOM     39  C   UNL A   1      46.814  26.993  30.171  1.00  0.00     0.074 A 
ATOM     40  C   UNL A   1      47.195  25.672  30.631  1.00  0.00     0.031 C 
ATOM     41  C   UNL A   1      47.339  27.598  29.079  1.00  0.00     0.037 A 
BRANCH  28  42
ATOM     42  C   UNL A   1      44.998  33.161  27.751  1.00  0.00     0.057 A 
ATOM     43  C   UNL A   1      44.349  33.143  26.509  1.00  0.00     0.134 A 
ATOM     44  C   UNL A   1      45.657  34.338  28.122  1.00  0.00     0.134 A 
ATOM     45  F   UNL A   1      43.690  32.048  26.102  1.00  0.00    -0.206 F 
ATOM     46  C   UNL A   1      44.367  34.251  25.661  1.00  0.00     0.040 A 
ATOM     47  C   UNL A   1      45.669  35.459  27.289  1.00  0.00     0.040 A 
ATOM     48  F   UNL A   1      46.272  34.426  29.312  1.00  0.00    -0.206 F 
ATOM     49  C   UNL A   1      45.029  35.413  26.051  1.00  0.00     0.006 A 
ENDBRANCH  28  42
BRANCH  29  50
ATOM     50  C   UNL A   1      44.612  25.253  33.971  1.00  0.00     0.057 A 
ATOM     51  C   UNL A   1      45.141  25.298  35.269  1.00  0.00     0.134 A 
ATOM     52  C   UNL A   1      44.011  24.055  33.568  1.00  0.00     0.134 A 
ATOM     53  F   UNL A   1      45.724  26.417  35.724  1.00  0.00    -0.206 F 
ATOM     54  C   UNL A   1      45.096  24.194  36.122  1.00  0.00     0.040 A 
ATOM     55  C   UNL A   1      43.934  22.951  34.422  1.00  0.00     0.040 A 
ATOM     56  F   UNL A   1      43.462  23.951  32.350  1.00  0.00    -0.206 F 
ATOM     57  C   UNL A   1      44.484  23.016  35.701  1.00  0.00     0.006 A 
ENDBRANCH  29  50
BRANCH  41  58
ATOM     58  C   UNL A   1      48.368  26.839  28.302  1.00  0.00     0.057 A 
ATOM     59  C   UNL A   1      49.719  26.894  28.663  1.00  0.00     0.134 A 
ATOM     60  C   UNL A   1      48.029  26.164  27.124  1.00  0.00     0.134 A 
ATOM     61  F   UNL A   1      50.101  27.542  29.775  1.00  0.00    -0.206 F 
ATOM     62  C   UNL A   1      50.706  26.324  27.862  1.00  0.00     0.040 A 
ATOM     63  C   UNL A   1      49.007  25.571  26.325  1.00  0.00     0.040 A 
ATOM     64  F   UNL A   1      46.749  26.074  26.734  1.00  0.00    -0.206 F 
ATOM     65  C   UNL A   1      50.350  25.662  26.687  1.00  0.00     0.006 A 
ENDBRANCH  41  58
ENDBRANCH  15  16
ENDBRANCH   8  10
ENDBRANCH   7   8
ENDBRANCH   6   7
ENDBRANCH   5   6
ENDBRANCH   4   5
ENDBRANCH   3   4
ENDBRANCH   2   3
ENDBRANCH   1   2
BRANCH   1  66
ATOM     66  C   UNL A   1      34.445  34.382  29.692  1.00  0.00     0.188 C 
BRANCH  66  67
ATOM     67  C   UNL A   1      34.442  33.998  28.208  1.00  0.00     0.188 C 
BRANCH  67  68
ATOM     68  O   UNL A   1      35.245  32.873  27.876  1.00  0.00    -0.376 OA
BRANCH  68  69
ATOM     69  C   UNL A   1      34.618  31.604  28.056  1.00  0.00     0.202 C 
BRANCH  69  70
ATOM     70  C   UNL A   1      35.442  30.426  27.530  1.00  0.00     0.261 C 
BRANCH  70  71
ATOM     71  O   UNL A   1      35.662  29.377  28.490  1.00  0.00    -0.463 OA
BRANCH  71  72
ATOM     72  C   UNL A   1      36.815  29.357  29.198  1.00  0.00     0.310 C 
ATOM     73  O   UNL A   1      36.904  29.721  30.367  1.00  0.00    -0.252 OA
BRANCH  72  74
ATOM     74  C   UNL A   1      37.972  28.735  28.414  1.00  0.00     0.118 C 
ATOM     75  C   UNL A   1      38.925  29.858  27.957  1.00  0.00     0.019 C 
ATOM     76  C   UNL A   1      38.663  27.595  29.186  1.00  0.00     0.133 C 
ATOM     77  C   UNL A   1      40.266  29.344  27.439  1.00  0.00     0.022 C 
ATOM     78  N   UNL A   1      40.012  27.297  28.700  1.00  0.00    -0.356 N 
ATOM     79  C   UNL A   1      40.921  28.396  28.437  1.00  0.00     0.118 C 
BRANCH  78  80
ATOM     80  C   UNL A   1      40.205  26.073  28.103  1.00  0.00     0.133 A 
ATOM     81  C   UNL A   1      39.167  25.354  27.557  1.00  0.00     0.077 A 
ATOM     82  N   UNL A   1      41.460  25.637  28.015  1.00  0.00    -0.211 NA
ATOM     83  C   UNL A   1      39.488  24.190  26.876  1.00  0.00     0.095 A 
ATOM     84  C   UNL A   1      41.694  24.496  27.353  1.00  0.00     0.165 A 
ATOM     85  N   UNL A   1      40.760  23.743  26.762  1.00  0.00    -0.226 NA
BRANCH  83  86
ATOM     86  C   UNL A   1      38.440  23.403  26.209  1.00  0.00     0.089 A 
ATOM     87  C   UNL A   1      37.124  23.866  26.117  1.00  0.00     0.030 A 
ATOM     88  N   UNL A   1      38.806  22.184  25.737  1.00  0.00    -0.255 NA
ATOM     89  C   UNL A   1      36.161  23.061  25.514  1.00  0.00     0.004 A 
ATOM     90  C   UNL A   1      37.853  21.430  25.145  1.00  0.00     0.112 A 
ATOM     91  C   UNL A   1      36.530  21.820  25.014  1.00  0.00     0.020 A 
ENDBRANCH  83  86
BRANCH  84  92
ATOM     92  C   UNL A   1      43.095  24.104  27.334  1.00  0.00     0.055 A 
ATOM     93  C   UNL A   1      43.734  23.857  26.100  1.00  0.00     0.015 A 
ATOM     94  C   UNL A   1      43.802  23.824  28.502  1.00  0.00     0.134 A 
ATOM     95  C   UNL A   1      45.029  23.341  26.045  1.00  0.00     0.001 A 
ATOM     96  C   UNL A   1      45.097  23.304  28.455  1.00  0.00     0.040 A 
ATOM     97  F   UNL A   1      43.226  23.980  29.704  1.00  0.00    -0.206 F 
ATOM     98  C   UNL A   1      45.709  23.060  27.226  1.00  0.00     0.003 A 
ENDBRANCH  84  92
ENDBRANCH  78  80
ENDBRANCH  72  74
ENDBRANCH  71  72
ENDBRANCH  70  71
ENDBRANCH  69  70
ENDBRANCH  68  69
ENDBRANCH  67  68
ENDBRANCH  66  67
ENDBRANCH   1  66
TORSDOF 23
ENDMDL
