MODEL 1
REMARK VINA RESULT:     -10.9      0.000      0.000
REMARK SMILES O=C(OCCOCCOCCOCCOC(=O)c1c(C(=O)N2CCc3ccccc32)cccc1[N+](=O)[O-])c1ccc(-c2c3nc(c(-c4c(F)cccc4F)c4ccc([nH]4)c(-c4c(F)cccc4F)c4nc(c(-c5c(F)cccc5F)c5ccc2[nH]5)C=C4)C=C3)cc1
REMARK SMILES IDX 9 1 8 2 7 3 6 4 5 5 4 6 3 7 2 8 1 9 38 10 39 11 91 12 40 13
REMARK SMILES IDX 90 14 41 15 42 16 43 17 84 18 44 19 89 20 83 21 85 22 45 23
REMARK SMILES IDX 88 24 82 25 81 26 46 28 72 29 55 30 71 31 56 32 59 33 70 34
REMARK SMILES IDX 86 35 57 36 58 37 69 39 87 40 60 41 47 42 48 43 53 44 49 45
REMARK SMILES IDX 50 46 52 47 54 48 51 49 73 50 74 51 79 52 75 53 76 54 78 55
REMARK SMILES IDX 80 56 77 57 61 58 62 59 67 60 63 61 64 62 66 63 68 64 65 65
REMARK SMILES IDX 10 66 11 67 12 68 13 69 14 70 15 71 16 72 17 73 18 74 19 75
REMARK SMILES IDX 34 76 31 77 33 78 32 79 20 80 21 81 22 82 23 83 30 84 24 85
REMARK SMILES IDX 25 86 29 87 26 88 28 89 27 90 35 91 36 92 37 93
REMARK H PARENT 85 27 59 38
REMARK Flexibility Score: inf
ROOT
ATOM      1  O   UNL A   1      40.802  20.908  25.857  1.00  0.00    -0.377 OA
ENDROOT
BRANCH   1   2
ATOM      2  C   UNL A   1      41.528  19.897  26.560  1.00  0.00     0.188 C 
BRANCH   2   3
ATOM      3  C   UNL A   1      42.671  19.218  25.790  1.00  0.00     0.188 C 
BRANCH   3   4
ATOM      4  O   UNL A   1      43.417  20.119  24.979  1.00  0.00    -0.376 OA
BRANCH   4   5
ATOM      5  C   UNL A   1      44.802  20.188  25.277  1.00  0.00     0.202 C 
BRANCH   5   6
ATOM      6  C   UNL A   1      45.176  21.630  25.630  1.00  0.00     0.261 C 
BRANCH   6   7
ATOM      7  O   UNL A   1      44.144  22.381  26.310  1.00  0.00    -0.460 OA
BRANCH   7   8
ATOM      8  C   UNL A   1      43.481  23.388  25.685  1.00  0.00     0.338 C 
ATOM      9  O   UNL A   1      43.025  23.263  24.555  1.00  0.00    -0.246 OA
BRANCH   8  10
ATOM     10  C   UNL A   1      43.042  24.511  26.568  1.00  0.00     0.060 A 
ATOM     11  C   UNL A   1      43.415  25.848  26.378  1.00  0.00     0.016 A 
ATOM     12  C   UNL A   1      42.164  24.198  27.614  1.00  0.00     0.016 A 
ATOM     13  C   UNL A   1      42.959  26.851  27.236  1.00  0.00     0.010 A 
ATOM     14  C   UNL A   1      41.706  25.198  28.476  1.00  0.00     0.010 A 
ATOM     15  C   UNL A   1      42.119  26.526  28.301  1.00  0.00    -0.014 A 
BRANCH  15  16
ATOM     16  C   UNL A   1      41.766  27.541  29.316  1.00  0.00     0.031 A 
ATOM     17  C   UNL A   1      42.524  27.546  30.610  1.00  0.00     0.074 A 
ATOM     18  C   UNL A   1      40.772  28.420  29.098  1.00  0.00     0.049 A 
ATOM     19  N   UNL A   1      42.283  28.202  31.713  1.00  0.00    -0.248 NA
ATOM     20  C   UNL A   1      43.719  26.686  30.664  1.00  0.00     0.031 C 
ATOM     21  C   UNL A   1      40.017  28.554  27.853  1.00  0.00     0.029 A 
ATOM     22  N   UNL A   1      40.214  29.354  29.934  1.00  0.00    -0.354 N 
ATOM     23  C   UNL A   1      43.271  27.809  32.605  1.00  0.00     0.074 A 
ATOM     24  C   UNL A   1      44.122  26.866  31.913  1.00  0.00     0.031 C 
ATOM     25  C   UNL A   1      39.071  29.495  28.019  1.00  0.00     0.029 A 
ATOM     26  C   UNL A   1      39.125  29.991  29.392  1.00  0.00     0.049 A 
ATOM     27  H   UNL A   1      40.561  29.547  30.836  1.00  0.00     0.167 HD
ATOM     28  C   UNL A   1      43.442  28.192  33.891  1.00  0.00     0.037 A 
ATOM     29  C   UNL A   1      38.248  30.840  29.961  1.00  0.00     0.037 A 
ATOM     30  C   UNL A   1      42.588  29.130  34.568  1.00  0.00     0.049 A 
ATOM     31  C   UNL A   1      38.417  31.199  31.415  1.00  0.00     0.074 A 
ATOM     32  C   UNL A   1      42.670  29.590  35.869  1.00  0.00     0.029 A 
ATOM     33  N   UNL A   1      41.489  29.744  33.989  1.00  0.00    -0.354 N 
ATOM     34  N   UNL A   1      39.348  30.819  32.258  1.00  0.00    -0.248 NA
ATOM     35  C   UNL A   1      37.403  32.087  32.003  1.00  0.00     0.031 C 
ATOM     36  C   UNL A   1      41.594  30.459  36.088  1.00  0.00     0.029 A 
ATOM     37  C   UNL A   1      40.865  30.562  34.914  1.00  0.00     0.049 A 
ATOM     38  H   UNL A   1      41.194  29.616  33.057  1.00  0.00     0.167 HD
ATOM     39  C   UNL A   1      39.039  31.428  33.468  1.00  0.00     0.074 A 
ATOM     40  C   UNL A   1      37.844  32.215  33.247  1.00  0.00     0.031 C 
ATOM     41  C   UNL A   1      39.680  31.338  34.658  1.00  0.00     0.037 A 
BRANCH  28  42
ATOM     42  C   UNL A   1      44.560  27.550  34.651  1.00  0.00     0.057 A 
ATOM     43  C   UNL A   1      45.841  28.111  34.702  1.00  0.00     0.134 A 
ATOM     44  C   UNL A   1      44.352  26.343  35.332  1.00  0.00     0.134 A 
ATOM     45  F   UNL A   1      46.110  29.252  34.051  1.00  0.00    -0.206 F 
ATOM     46  C   UNL A   1      46.884  27.483  35.388  1.00  0.00     0.040 A 
ATOM     47  C   UNL A   1      45.380  25.716  36.034  1.00  0.00     0.040 A 
ATOM     48  F   UNL A   1      43.148  25.752  35.317  1.00  0.00    -0.206 F 
ATOM     49  C   UNL A   1      46.653  26.283  36.059  1.00  0.00     0.006 A 
ENDBRANCH  28  42
BRANCH  29  50
ATOM     50  C   UNL A   1      37.099  31.366  29.181  1.00  0.00     0.057 A 
ATOM     51  C   UNL A   1      37.090  32.678  28.696  1.00  0.00     0.134 A 
ATOM     52  C   UNL A   1      35.969  30.577  28.927  1.00  0.00     0.134 A 
ATOM     53  F   UNL A   1      38.129  33.492  28.933  1.00  0.00    -0.206 F 
ATOM     54  C   UNL A   1      35.996  33.193  27.997  1.00  0.00     0.040 A 
ATOM     55  C   UNL A   1      34.878  31.072  28.209  1.00  0.00     0.040 A 
ATOM     56  F   UNL A   1      35.910  29.314  29.371  1.00  0.00    -0.206 F 
ATOM     57  C   UNL A   1      34.887  32.386  27.748  1.00  0.00     0.006 A 
ENDBRANCH  29  50
BRANCH  41  58
ATOM     58  C   UNL A   1      39.112  32.122  35.803  1.00  0.00     0.057 A 
ATOM     59  C   UNL A   1      38.217  31.544  36.711  1.00  0.00     0.134 A 
ATOM     60  C   UNL A   1      39.516  33.442  36.035  1.00  0.00     0.134 A 
ATOM     61  F   UNL A   1      37.786  30.286  36.534  1.00  0.00    -0.206 F 
ATOM     62  C   UNL A   1      37.737  32.256  37.810  1.00  0.00     0.040 A 
ATOM     63  C   UNL A   1      39.057  34.159  37.139  1.00  0.00     0.040 A 
ATOM     64  F   UNL A   1      40.378  34.046  35.204  1.00  0.00    -0.206 F 
ATOM     65  C   UNL A   1      38.164  33.565  38.030  1.00  0.00     0.006 A 
ENDBRANCH  41  58
ENDBRANCH  15  16
ENDBRANCH   8  10
ENDBRANCH   7   8
ENDBRANCH   6   7
ENDBRANCH   5   6
ENDBRANCH   4   5
ENDBRANCH   3   4
ENDBRANCH   2   3
ENDBRANCH   1   2
BRANCH   1  66
ATOM     66  C   UNL A   1      39.757  21.491  26.636  1.00  0.00     0.188 C 
BRANCH  66  67
ATOM     67  C   UNL A   1      39.475  22.980  26.433  1.00  0.00     0.188 C 
BRANCH  67  68
ATOM     68  O   UNL A   1      38.204  23.285  25.869  1.00  0.00    -0.376 OA
BRANCH  68  69
ATOM     69  C   UNL A   1      37.344  22.173  25.593  1.00  0.00     0.202 C 
BRANCH  69  70
ATOM     70  C   UNL A   1      35.972  22.178  26.272  1.00  0.00     0.261 C 
BRANCH  70  71
ATOM     71  O   UNL A   1      35.186  21.071  25.784  1.00  0.00    -0.459 OA
BRANCH  71  72
ATOM     72  C   UNL A   1      33.882  21.348  25.593  1.00  0.00     0.346 C 
ATOM     73  O   UNL A   1      33.042  21.567  26.448  1.00  0.00    -0.246 OA
BRANCH  72  74
ATOM     74  C   UNL A   1      33.504  21.170  24.179  1.00  0.00     0.150 A 
ATOM     75  C   UNL A   1      33.308  22.276  23.315  1.00  0.00     0.061 A 
ATOM     76  C   UNL A   1      32.937  19.930  23.854  1.00  0.00     0.284 A 
ATOM     77  C   UNL A   1      32.341  22.136  22.315  1.00  0.00     0.015 A 
ATOM     78  C   UNL A   1      32.117  19.766  22.736  1.00  0.00     0.086 A 
ATOM     79  C   UNL A   1      31.784  20.890  21.993  1.00  0.00     0.008 A 
BRANCH  75  80
ATOM     80  C   UNL A   1      34.011  23.569  23.559  1.00  0.00     0.259 C 
ATOM     81  O   UNL A   1      35.166  23.620  23.124  1.00  0.00    -0.269 OA
BRANCH  80  82
ATOM     82  N   UNL A   1      33.479  24.722  24.173  1.00  0.00    -0.308 N 
ATOM     83  C   UNL A   1      34.165  25.190  25.406  1.00  0.00     0.131 C 
ATOM     84  C   UNL A   1      32.225  25.380  24.122  1.00  0.00     0.047 A 
ATOM     85  C   UNL A   1      33.279  26.216  26.099  1.00  0.00     0.059 C 
ATOM     86  C   UNL A   1      32.013  26.049  25.335  1.00  0.00    -0.022 A 
ATOM     87  C   UNL A   1      31.203  25.372  23.197  1.00  0.00     0.026 A 
ATOM     88  C   UNL A   1      30.758  26.486  25.738  1.00  0.00     0.006 A 
ATOM     89  C   UNL A   1      29.921  25.787  23.588  1.00  0.00     0.002 A 
ATOM     90  C   UNL A   1      29.690  26.294  24.872  1.00  0.00     0.000 A 
ENDBRANCH  80  82
ENDBRANCH  75  80
BRANCH  76  91
ATOM     91  N   UNL A   1      33.128  18.783  24.721  1.00  0.00     0.063 N 
ATOM     92  O   UNL A   1      32.169  18.451  25.429  1.00  0.00    -0.258 OA
ATOM     93  O   UNL A   1      34.205  18.182  24.636  1.00  0.00    -0.258 OA
ENDBRANCH  76  91
ENDBRANCH  72  74
ENDBRANCH  71  72
ENDBRANCH  70  71
ENDBRANCH  69  70
ENDBRANCH  68  69
ENDBRANCH  67  68
ENDBRANCH  66  67
ENDBRANCH   1  66
TORSDOF 23
ENDMDL
MODEL 2
REMARK VINA RESULT:     -10.9      1.175      2.130
REMARK SMILES O=C(OCCOCCOCCOCCOC(=O)c1c(C(=O)N2CCc3ccccc32)cccc1[N+](=O)[O-])c1ccc(-c2c3nc(c(-c4c(F)cccc4F)c4ccc([nH]4)c(-c4c(F)cccc4F)c4nc(c(-c5c(F)cccc5F)c5ccc2[nH]5)C=C4)C=C3)cc1
REMARK SMILES IDX 9 1 8 2 7 3 6 4 5 5 4 6 3 7 2 8 1 9 38 10 39 11 91 12 40 13
REMARK SMILES IDX 90 14 41 15 42 16 43 17 84 18 44 19 89 20 83 21 85 22 45 23
REMARK SMILES IDX 88 24 82 25 81 26 46 28 72 29 55 30 71 31 56 32 59 33 70 34
REMARK SMILES IDX 86 35 57 36 58 37 69 39 87 40 60 41 47 42 48 43 53 44 49 45
REMARK SMILES IDX 50 46 52 47 54 48 51 49 73 50 74 51 79 52 75 53 76 54 78 55
REMARK SMILES IDX 80 56 77 57 61 58 62 59 67 60 63 61 64 62 66 63 68 64 65 65
REMARK SMILES IDX 10 66 11 67 12 68 13 69 14 70 15 71 16 72 17 73 18 74 19 75
REMARK SMILES IDX 34 76 31 77 33 78 32 79 20 80 21 81 22 82 23 83 30 84 24 85
REMARK SMILES IDX 25 86 29 87 26 88 28 89 27 90 35 91 36 92 37 93
REMARK H PARENT 85 27 59 38
REMARK Flexibility Score: inf
ROOT
ATOM      1  O   UNL A   1      41.112  20.986  27.134  1.00  0.00    -0.377 OA
ENDROOT
BRANCH   1   2
ATOM      2  C   UNL A   1      41.877  19.779  27.185  1.00  0.00     0.188 C 
BRANCH   2   3
ATOM      3  C   UNL A   1      42.227  19.136  25.834  1.00  0.00     0.188 C 
BRANCH   3   4
ATOM      4  O   UNL A   1      43.063  19.954  25.022  1.00  0.00    -0.376 OA
BRANCH   4   5
ATOM      5  C   UNL A   1      44.412  20.045  25.451  1.00  0.00     0.202 C 
BRANCH   5   6
ATOM      6  C   UNL A   1      44.864  21.507  25.401  1.00  0.00     0.261 C 
BRANCH   6   7
ATOM      7  O   UNL A   1      44.096  22.414  26.224  1.00  0.00    -0.460 OA
BRANCH   7   8
ATOM      8  C   UNL A   1      43.286  23.353  25.669  1.00  0.00     0.338 C 
ATOM      9  O   UNL A   1      42.675  23.149  24.627  1.00  0.00    -0.246 OA
BRANCH   8  10
ATOM     10  C   UNL A   1      42.917  24.491  26.564  1.00  0.00     0.060 A 
ATOM     11  C   UNL A   1      43.480  25.771  26.475  1.00  0.00     0.016 A 
ATOM     12  C   UNL A   1      41.909  24.262  27.509  1.00  0.00     0.016 A 
ATOM     13  C   UNL A   1      43.081  26.794  27.338  1.00  0.00     0.010 A 
ATOM     14  C   UNL A   1      41.506  25.282  28.375  1.00  0.00     0.010 A 
ATOM     15  C   UNL A   1      42.107  26.547  28.306  1.00  0.00    -0.014 A 
BRANCH  15  16
ATOM     16  C   UNL A   1      41.794  27.561  29.334  1.00  0.00     0.031 A 
ATOM     17  C   UNL A   1      42.572  27.536  30.616  1.00  0.00     0.074 A 
ATOM     18  C   UNL A   1      40.821  28.467  29.138  1.00  0.00     0.049 A 
ATOM     19  N   UNL A   1      42.365  28.189  31.728  1.00  0.00    -0.248 NA
ATOM     20  C   UNL A   1      43.745  26.646  30.645  1.00  0.00     0.031 C 
ATOM     21  C   UNL A   1      40.050  28.631  27.906  1.00  0.00     0.029 A 
ATOM     22  N   UNL A   1      40.300  29.408  29.990  1.00  0.00    -0.354 N 
ATOM     23  C   UNL A   1      43.356  27.763  32.601  1.00  0.00     0.074 A 
ATOM     24  C   UNL A   1      44.172  26.805  31.888  1.00  0.00     0.031 C 
ATOM     25  C   UNL A   1      39.131  29.594  28.094  1.00  0.00     0.029 A 
ATOM     26  C   UNL A   1      39.219  30.077  29.470  1.00  0.00     0.049 A 
ATOM     27  H   UNL A   1      40.665  29.585  30.888  1.00  0.00     0.167 HD
ATOM     28  C   UNL A   1      43.556  28.131  33.887  1.00  0.00     0.037 A 
ATOM     29  C   UNL A   1      38.373  30.943  30.060  1.00  0.00     0.037 A 
ATOM     30  C   UNL A   1      42.737  29.084  34.585  1.00  0.00     0.049 A 
ATOM     31  C   UNL A   1      38.572  31.285  31.513  1.00  0.00     0.074 A 
ATOM     32  C   UNL A   1      42.850  29.531  35.889  1.00  0.00     0.029 A 
ATOM     33  N   UNL A   1      41.645  29.731  34.028  1.00  0.00    -0.354 N 
ATOM     34  N   UNL A   1      39.506  30.875  32.339  1.00  0.00    -0.248 NA
ATOM     35  C   UNL A   1      37.590  32.194  32.124  1.00  0.00     0.031 C 
ATOM     36  C   UNL A   1      41.801  30.425  36.131  1.00  0.00     0.029 A 
ATOM     37  C   UNL A   1      41.057  30.556  34.969  1.00  0.00     0.049 A 
ATOM     38  H   UNL A   1      41.333  29.618  33.100  1.00  0.00     0.167 HD
ATOM     39  C   UNL A   1      39.232  31.481  33.558  1.00  0.00     0.074 A 
ATOM     40  C   UNL A   1      38.053  32.300  33.362  1.00  0.00     0.031 C 
ATOM     41  C   UNL A   1      39.888  31.365  34.738  1.00  0.00     0.037 A 
BRANCH  28  42
ATOM     42  C   UNL A   1      44.669  27.454  34.625  1.00  0.00     0.057 A 
ATOM     43  C   UNL A   1      44.472  26.268  35.340  1.00  0.00     0.134 A 
ATOM     44  C   UNL A   1      45.956  28.007  34.627  1.00  0.00     0.134 A 
ATOM     45  F   UNL A   1      43.257  25.701  35.397  1.00  0.00    -0.206 F 
ATOM     46  C   UNL A   1      45.512  25.665  36.052  1.00  0.00     0.040 A 
ATOM     47  C   UNL A   1      47.007  27.405  35.318  1.00  0.00     0.040 A 
ATOM     48  F   UNL A   1      46.209  29.146  33.964  1.00  0.00    -0.206 F 
ATOM     49  C   UNL A   1      46.785  26.233  36.038  1.00  0.00     0.006 A 
ENDBRANCH  28  42
BRANCH  29  50
ATOM     50  C   UNL A   1      37.225  31.505  29.302  1.00  0.00     0.057 A 
ATOM     51  C   UNL A   1      37.279  32.789  28.749  1.00  0.00     0.134 A 
ATOM     52  C   UNL A   1      36.037  30.781  29.136  1.00  0.00     0.134 A 
ATOM     53  F   UNL A   1      38.378  33.543  28.899  1.00  0.00    -0.206 F 
ATOM     54  C   UNL A   1      36.190  33.339  28.070  1.00  0.00     0.040 A 
ATOM     55  C   UNL A   1      34.949  31.311  28.440  1.00  0.00     0.040 A 
ATOM     56  F   UNL A   1      35.917  29.548  29.649  1.00  0.00    -0.206 F 
ATOM     57  C   UNL A   1      35.021  32.597  27.910  1.00  0.00     0.006 A 
ENDBRANCH  29  50
BRANCH  41  58
ATOM     58  C   UNL A   1      39.357  32.153  35.897  1.00  0.00     0.057 A 
ATOM     59  C   UNL A   1      39.781  33.463  36.145  1.00  0.00     0.134 A 
ATOM     60  C   UNL A   1      38.366  31.619  36.730  1.00  0.00     0.134 A 
ATOM     61  F   UNL A   1      40.736  34.024  35.388  1.00  0.00    -0.206 F 
ATOM     62  C   UNL A   1      39.241  34.216  37.189  1.00  0.00     0.040 A 
ATOM     63  C   UNL A   1      37.806  32.367  37.765  1.00  0.00     0.040 A 
ATOM     64  F   UNL A   1      37.914  30.371  36.536  1.00  0.00    -0.206 F 
ATOM     65  C   UNL A   1      38.245  33.670  37.997  1.00  0.00     0.006 A 
ENDBRANCH  41  58
ENDBRANCH  15  16
ENDBRANCH   8  10
ENDBRANCH   7   8
ENDBRANCH   6   7
ENDBRANCH   5   6
ENDBRANCH   4   5
ENDBRANCH   3   4
ENDBRANCH   2   3
ENDBRANCH   1   2
BRANCH   1  66
ATOM     66  C   UNL A   1      40.036  20.928  26.197  1.00  0.00     0.188 C 
BRANCH  66  67
ATOM     67  C   UNL A   1      39.070  22.113  26.160  1.00  0.00     0.188 C 
BRANCH  67  68
ATOM     68  O   UNL A   1      37.774  21.823  25.647  1.00  0.00    -0.376 OA
BRANCH  68  69
ATOM     69  C   UNL A   1      36.837  22.906  25.631  1.00  0.00     0.202 C 
BRANCH  69  70
ATOM     70  C   UNL A   1      36.274  23.308  24.265  1.00  0.00     0.261 C 
BRANCH  70  71
ATOM     71  O   UNL A   1      34.899  23.721  24.411  1.00  0.00    -0.459 OA
BRANCH  71  72
ATOM     72  C   UNL A   1      34.069  23.255  23.459  1.00  0.00     0.346 C 
ATOM     73  O   UNL A   1      34.307  23.127  22.270  1.00  0.00    -0.246 OA
BRANCH  72  74
ATOM     74  C   UNL A   1      32.703  23.077  23.986  1.00  0.00     0.150 A 
ATOM     75  C   UNL A   1      31.818  24.172  24.146  1.00  0.00     0.061 A 
ATOM     76  C   UNL A   1      32.480  21.896  24.708  1.00  0.00     0.284 A 
ATOM     77  C   UNL A   1      30.917  24.108  25.213  1.00  0.00     0.015 A 
ATOM     78  C   UNL A   1      31.449  21.789  25.643  1.00  0.00     0.086 A 
ATOM     79  C   UNL A   1      30.696  22.921  25.926  1.00  0.00     0.008 A 
BRANCH  75  80
ATOM     80  C   UNL A   1      31.946  25.388  23.292  1.00  0.00     0.259 C 
ATOM     81  O   UNL A   1      31.540  25.251  22.134  1.00  0.00    -0.269 OA
BRANCH  80  82
ATOM     82  N   UNL A   1      32.422  26.656  23.686  1.00  0.00    -0.308 N 
ATOM     83  C   UNL A   1      33.452  27.276  22.811  1.00  0.00     0.131 C 
ATOM     84  C   UNL A   1      32.431  27.372  24.908  1.00  0.00     0.047 A 
ATOM     85  C   UNL A   1      34.075  28.454  23.548  1.00  0.00     0.059 C 
ATOM     86  C   UNL A   1      33.530  28.242  24.917  1.00  0.00    -0.022 A 
ATOM     87  C   UNL A   1      31.669  27.277  26.053  1.00  0.00     0.026 A 
ATOM     88  C   UNL A   1      34.021  28.815  26.083  1.00  0.00     0.006 A 
ATOM     89  C   UNL A   1      32.156  27.828  27.249  1.00  0.00     0.002 A 
ATOM     90  C   UNL A   1      33.354  28.550  27.272  1.00  0.00     0.000 A 
ENDBRANCH  80  82
ENDBRANCH  75  80
BRANCH  76  91
ATOM     91  N   UNL A   1      33.371  20.762  24.557  1.00  0.00     0.063 N 
ATOM     92  O   UNL A   1      34.230  20.604  25.433  1.00  0.00    -0.258 OA
ATOM     93  O   UNL A   1      33.161  20.000  23.606  1.00  0.00    -0.258 OA
ENDBRANCH  76  91
ENDBRANCH  72  74
ENDBRANCH  71  72
ENDBRANCH  70  71
ENDBRANCH  69  70
ENDBRANCH  68  69
ENDBRANCH  67  68
ENDBRANCH  66  67
ENDBRANCH   1  66
TORSDOF 23
ENDMDL
MODEL 3
REMARK VINA RESULT:     -10.9      1.225      3.396
REMARK SMILES O=C(OCCOCCOCCOCCOC(=O)c1c(C(=O)N2CCc3ccccc32)cccc1[N+](=O)[O-])c1ccc(-c2c3nc(c(-c4c(F)cccc4F)c4ccc([nH]4)c(-c4c(F)cccc4F)c4nc(c(-c5c(F)cccc5F)c5ccc2[nH]5)C=C4)C=C3)cc1
REMARK SMILES IDX 9 1 8 2 7 3 6 4 5 5 4 6 3 7 2 8 1 9 38 10 39 11 91 12 40 13
REMARK SMILES IDX 90 14 41 15 42 16 43 17 84 18 44 19 89 20 83 21 85 22 45 23
REMARK SMILES IDX 88 24 82 25 81 26 46 28 72 29 55 30 71 31 56 32 59 33 70 34
REMARK SMILES IDX 86 35 57 36 58 37 69 39 87 40 60 41 47 42 48 43 53 44 49 45
REMARK SMILES IDX 50 46 52 47 54 48 51 49 73 50 74 51 79 52 75 53 76 54 78 55
REMARK SMILES IDX 80 56 77 57 61 58 62 59 67 60 63 61 64 62 66 63 68 64 65 65
REMARK SMILES IDX 10 66 11 67 12 68 13 69 14 70 15 71 16 72 17 73 18 74 19 75
REMARK SMILES IDX 34 76 31 77 33 78 32 79 20 80 21 81 22 82 23 83 30 84 24 85
REMARK SMILES IDX 25 86 29 87 26 88 28 89 27 90 35 91 36 92 37 93
REMARK H PARENT 85 27 59 38
REMARK Flexibility Score: inf
ROOT
ATOM      1  O   UNL A   1      40.621  21.425  26.065  1.00  0.00    -0.377 OA
ENDROOT
BRANCH   1   2
ATOM      2  C   UNL A   1      41.103  20.440  26.980  1.00  0.00     0.188 C 
BRANCH   2   3
ATOM      3  C   UNL A   1      41.850  19.245  26.365  1.00  0.00     0.188 C 
BRANCH   3   4
ATOM      4  O   UNL A   1      42.728  19.615  25.308  1.00  0.00    -0.376 OA
BRANCH   4   5
ATOM      5  C   UNL A   1      44.097  19.711  25.670  1.00  0.00     0.202 C 
BRANCH   5   6
ATOM      6  C   UNL A   1      44.607  21.121  25.361  1.00  0.00     0.261 C 
BRANCH   6   7
ATOM      7  O   UNL A   1      43.969  22.181  26.109  1.00  0.00    -0.460 OA
BRANCH   7   8
ATOM      8  C   UNL A   1      43.407  23.246  25.479  1.00  0.00     0.338 C 
ATOM      9  O   UNL A   1      43.015  23.183  24.320  1.00  0.00    -0.246 OA
BRANCH   8  10
ATOM     10  C   UNL A   1      42.982  24.367  26.371  1.00  0.00     0.060 A 
ATOM     11  C   UNL A   1      43.330  25.708  26.162  1.00  0.00     0.016 A 
ATOM     12  C   UNL A   1      42.144  24.047  27.447  1.00  0.00     0.016 A 
ATOM     13  C   UNL A   1      42.889  26.709  27.031  1.00  0.00     0.010 A 
ATOM     14  C   UNL A   1      41.701  25.044  28.320  1.00  0.00     0.010 A 
ATOM     15  C   UNL A   1      42.090  26.378  28.126  1.00  0.00    -0.014 A 
BRANCH  15  16
ATOM     16  C   UNL A   1      41.756  27.392  29.147  1.00  0.00     0.031 A 
ATOM     17  C   UNL A   1      42.535  27.392  30.429  1.00  0.00     0.074 A 
ATOM     18  C   UNL A   1      40.763  28.275  28.946  1.00  0.00     0.049 A 
ATOM     19  N   UNL A   1      42.314  28.049  31.536  1.00  0.00    -0.248 NA
ATOM     20  C   UNL A   1      43.727  26.528  30.463  1.00  0.00     0.031 C 
ATOM     21  C   UNL A   1      39.989  28.414  27.713  1.00  0.00     0.029 A 
ATOM     22  N   UNL A   1      40.222  29.211  29.792  1.00  0.00    -0.354 N 
ATOM     23  C   UNL A   1      43.315  27.651  32.412  1.00  0.00     0.074 A 
ATOM     24  C   UNL A   1      44.151  26.705  31.705  1.00  0.00     0.031 C 
ATOM     25  C   UNL A   1      39.049  29.359  27.895  1.00  0.00     0.029 A 
ATOM     26  C   UNL A   1      39.127  29.853  29.267  1.00  0.00     0.049 A 
ATOM     27  H   UNL A   1      40.584  29.401  30.688  1.00  0.00     0.167 HD
ATOM     28  C   UNL A   1      43.507  28.031  33.696  1.00  0.00     0.037 A 
ATOM     29  C   UNL A   1      38.263  30.704  29.852  1.00  0.00     0.037 A 
ATOM     30  C   UNL A   1      42.668  28.971  34.387  1.00  0.00     0.049 A 
ATOM     31  C   UNL A   1      38.455  31.060  31.303  1.00  0.00     0.074 A 
ATOM     32  C   UNL A   1      42.772  29.430  35.687  1.00  0.00     0.029 A 
ATOM     33  N   UNL A   1      41.562  29.590  33.827  1.00  0.00    -0.354 N 
ATOM     34  N   UNL A   1      39.399  30.676  32.131  1.00  0.00    -0.248 NA
ATOM     35  C   UNL A   1      37.455  31.952  31.908  1.00  0.00     0.031 C 
ATOM     36  C   UNL A   1      41.704  30.302  35.925  1.00  0.00     0.029 A 
ATOM     37  C   UNL A   1      40.957  30.409  34.762  1.00  0.00     0.049 A 
ATOM     38  H   UNL A   1      41.252  29.465  32.900  1.00  0.00     0.167 HD
ATOM     39  C   UNL A   1      39.111  31.285  33.346  1.00  0.00     0.074 A 
ATOM     40  C   UNL A   1      37.916  32.077  33.145  1.00  0.00     0.031 C 
ATOM     41  C   UNL A   1      39.770  31.191  34.526  1.00  0.00     0.037 A 
BRANCH  28  42
ATOM     42  C   UNL A   1      44.635  27.383  34.437  1.00  0.00     0.057 A 
ATOM     43  C   UNL A   1      45.949  27.858  34.353  1.00  0.00     0.134 A 
ATOM     44  C   UNL A   1      44.402  26.259  35.238  1.00  0.00     0.134 A 
ATOM     45  F   UNL A   1      46.241  28.917  33.582  1.00  0.00    -0.206 F 
ATOM     46  C   UNL A   1      46.997  27.223  35.023  1.00  0.00     0.040 A 
ATOM     47  C   UNL A   1      45.437  25.627  35.927  1.00  0.00     0.040 A 
ATOM     48  F   UNL A   1      43.165  25.752  35.357  1.00  0.00    -0.206 F 
ATOM     49  C   UNL A   1      46.740  26.106  35.816  1.00  0.00     0.006 A 
ENDBRANCH  28  42
BRANCH  29  50
ATOM     50  C   UNL A   1      37.103  31.236  29.091  1.00  0.00     0.057 A 
ATOM     51  C   UNL A   1      37.073  32.562  28.646  1.00  0.00     0.134 A 
ATOM     52  C   UNL A   1      35.985  30.438  28.815  1.00  0.00     0.134 A 
ATOM     53  F   UNL A   1      38.100  33.384  28.905  1.00  0.00    -0.206 F 
ATOM     54  C   UNL A   1      35.969  33.080  27.965  1.00  0.00     0.040 A 
ATOM     55  C   UNL A   1      34.885  30.937  28.115  1.00  0.00     0.040 A 
ATOM     56  F   UNL A   1      35.947  29.161  29.220  1.00  0.00    -0.206 F 
ATOM     57  C   UNL A   1      34.872  32.264  27.694  1.00  0.00     0.006 A 
ENDBRANCH  29  50
BRANCH  41  58
ATOM     58  C   UNL A   1      39.224  31.975  35.680  1.00  0.00     0.057 A 
ATOM     59  C   UNL A   1      39.507  33.336  35.839  1.00  0.00     0.134 A 
ATOM     60  C   UNL A   1      38.354  31.378  36.601  1.00  0.00     0.134 A 
ATOM     61  F   UNL A   1      40.343  33.960  34.994  1.00  0.00    -0.206 F 
ATOM     62  C   UNL A   1      38.948  34.078  36.879  1.00  0.00     0.040 A 
ATOM     63  C   UNL A   1      37.774  32.113  37.635  1.00  0.00     0.040 A 
ATOM     64  F   UNL A   1      38.038  30.079  36.496  1.00  0.00    -0.206 F 
ATOM     65  C   UNL A   1      38.072  33.467  37.776  1.00  0.00     0.006 A 
ENDBRANCH  41  58
ENDBRANCH  15  16
ENDBRANCH   8  10
ENDBRANCH   7   8
ENDBRANCH   6   7
ENDBRANCH   5   6
ENDBRANCH   4   5
ENDBRANCH   3   4
ENDBRANCH   2   3
ENDBRANCH   1   2
BRANCH   1  66
ATOM     66  C   UNL A   1      39.275  21.825  26.330  1.00  0.00     0.188 C 
BRANCH  66  67
ATOM     67  C   UNL A   1      38.191  21.330  25.372  1.00  0.00     0.188 C 
BRANCH  67  68
ATOM     68  O   UNL A   1      36.861  21.694  25.722  1.00  0.00    -0.376 OA
BRANCH  68  69
ATOM     69  C   UNL A   1      36.595  23.096  25.851  1.00  0.00     0.202 C 
BRANCH  69  70
ATOM     70  C   UNL A   1      35.977  23.793  24.636  1.00  0.00     0.261 C 
BRANCH  70  71
ATOM     71  O   UNL A   1      35.130  24.875  25.078  1.00  0.00    -0.459 OA
BRANCH  71  72
ATOM     72  C   UNL A   1      33.967  24.988  24.410  1.00  0.00     0.346 C 
ATOM     73  O   UNL A   1      33.819  25.199  23.218  1.00  0.00    -0.246 OA
BRANCH  72  74
ATOM     74  C   UNL A   1      32.822  25.020  25.338  1.00  0.00     0.150 A 
ATOM     75  C   UNL A   1      32.068  23.857  25.630  1.00  0.00     0.061 A 
ATOM     76  C   UNL A   1      32.260  26.284  25.567  1.00  0.00     0.284 A 
ATOM     77  C   UNL A   1      30.705  24.032  25.887  1.00  0.00     0.015 A 
ATOM     78  C   UNL A   1      30.944  26.436  26.006  1.00  0.00     0.086 A 
ATOM     79  C   UNL A   1      30.153  25.300  26.120  1.00  0.00     0.008 A 
BRANCH  75  80
ATOM     80  C   UNL A   1      32.684  22.502  25.530  1.00  0.00     0.259 C 
ATOM     81  O   UNL A   1      33.136  22.061  26.592  1.00  0.00    -0.269 OA
BRANCH  80  82
ATOM     82  N   UNL A   1      32.749  21.681  24.386  1.00  0.00    -0.308 N 
ATOM     83  C   UNL A   1      31.959  22.125  23.208  1.00  0.00     0.131 C 
ATOM     84  C   UNL A   1      33.107  20.329  24.158  1.00  0.00     0.047 A 
ATOM     85  C   UNL A   1      31.882  20.979  22.209  1.00  0.00     0.059 C 
ATOM     86  C   UNL A   1      32.417  19.860  23.032  1.00  0.00    -0.022 A 
ATOM     87  C   UNL A   1      33.867  19.430  24.875  1.00  0.00     0.026 A 
ATOM     88  C   UNL A   1      32.272  18.507  22.754  1.00  0.00     0.006 A 
ATOM     89  C   UNL A   1      33.720  18.056  24.628  1.00  0.00     0.002 A 
ATOM     90  C   UNL A   1      32.884  17.596  23.605  1.00  0.00     0.000 A 
ENDBRANCH  80  82
ENDBRANCH  75  80
BRANCH  76  91
ATOM     91  N   UNL A   1      33.015  27.488  25.279  1.00  0.00     0.063 N 
ATOM     92  O   UNL A   1      32.698  28.118  24.262  1.00  0.00    -0.258 OA
ATOM     93  O   UNL A   1      33.869  27.833  26.104  1.00  0.00    -0.258 OA
ENDBRANCH  76  91
ENDBRANCH  72  74
ENDBRANCH  71  72
ENDBRANCH  70  71
ENDBRANCH  69  70
ENDBRANCH  68  69
ENDBRANCH  67  68
ENDBRANCH  66  67
ENDBRANCH   1  66
TORSDOF 23
ENDMDL
