MODEL 1
REMARK VINA RESULT:      -7.4      0.000      0.000
REMARK SMILES Cc1nonc1C[C@@H](C(=O)OCCOCCOCCOCCOC(=O)c1ccc(-c2c3nc(c(-c4c(F)cccc4F)c4ccc([nH]4)c(-c4c(F)cccc4F)c4nc(c(-c5c(F)cccc5F)c5ccc2[nH]5)C=C4)C=C3)cc1)c1ccccc1Br
REMARK SMILES IDX 17 1 16 2 15 3 14 4 13 5 12 6 11 7 9 8 10 9 8 10 7 11 6 12
REMARK SMILES IDX 1 13 2 14 3 15 4 16 5 17 80 18 81 19 85 20 82 21 84 22 86 23
REMARK SMILES IDX 83 24 18 25 19 26 20 27 21 28 22 29 23 30 24 31 25 32 26 33
REMARK SMILES IDX 27 34 79 35 28 36 78 37 29 38 30 39 31 40 72 41 32 42 77 43
REMARK SMILES IDX 71 44 73 45 33 46 76 47 70 48 69 49 34 51 60 52 43 53 59 54
REMARK SMILES IDX 44 55 47 56 58 57 74 58 45 59 46 60 57 62 75 63 48 64 35 65
REMARK SMILES IDX 36 66 41 67 37 68 38 69 40 70 42 71 39 72 61 73 62 74 67 75
REMARK SMILES IDX 63 76 64 77 66 78 68 79 65 80 49 81 50 82 55 83 51 84 52 85
REMARK SMILES IDX 54 86 56 87 53 88
REMARK H PARENT 73 50 47 61
REMARK Flexibility Score: inf
ROOT
ATOM      1  O   UNL A   1      35.984  32.642  28.180  1.00  0.00    -0.377 OA
ENDROOT
BRANCH   1   2
ATOM      2  C   UNL A   1      36.471  31.331  28.424  1.00  0.00     0.188 C 
BRANCH   2   3
ATOM      3  C   UNL A   1      37.743  31.114  29.267  1.00  0.00     0.188 C 
BRANCH   3   4
ATOM      4  O   UNL A   1      38.129  29.756  29.459  1.00  0.00    -0.376 OA
BRANCH   4   5
ATOM      5  C   UNL A   1      39.167  29.284  28.606  1.00  0.00     0.202 C 
BRANCH   5   6
ATOM      6  C   UNL A   1      40.392  28.760  29.351  1.00  0.00     0.261 C 
BRANCH   6   7
ATOM      7  O   UNL A   1      40.971  27.670  28.619  1.00  0.00    -0.463 OA
BRANCH   7   8
ATOM      8  C   UNL A   1      42.097  27.111  29.118  1.00  0.00     0.313 C 
ATOM      9  O   UNL A   1      42.550  27.314  30.238  1.00  0.00    -0.252 OA
BRANCH   8  10
ATOM     10  C   UNL A   1      42.765  26.203  28.101  1.00  0.00     0.136 C 
BRANCH  10  11
ATOM     11  C   UNL A   1      42.854  26.915  26.719  1.00  0.00     0.082 C 
BRANCH  11  12
ATOM     12  C   UNL A   1      44.138  27.082  25.979  1.00  0.00     0.109 A 
ATOM     13  C   UNL A   1      44.806  24.601  25.458  1.00  0.00     0.073 C 
ATOM     14  C   UNL A   1      44.939  26.072  25.398  1.00  0.00     0.105 A 
ATOM     15  N   UNL A   1      45.916  26.631  24.679  1.00  0.00    -0.055 NA
ATOM     16  O   UNL A   1      45.703  27.999  24.789  1.00  0.00    -0.244 OA
ATOM     17  N   UNL A   1      44.600  28.269  25.585  1.00  0.00    -0.055 NA
ENDBRANCH  11  12
ENDBRANCH  10  11
BRANCH  10  18
ATOM     18  C   UNL A   1      42.196  24.758  27.961  1.00  0.00    -0.019 A 
ATOM     19  C   UNL A   1      41.127  24.548  27.048  1.00  0.00     0.006 A 
ATOM     20  C   UNL A   1      42.668  23.603  28.620  1.00  0.00     0.022 A 
ATOM     21  C   UNL A   1      40.498  23.311  26.883  1.00  0.00     0.000 A 
ATOM     22  C   UNL A   1      42.014  22.363  28.470  1.00  0.00     0.016 A 
ATOM     23  Br  UNL A   1      44.239  23.524  29.689  1.00  0.00    -0.051 Br
ATOM     24  C   UNL A   1      40.925  22.219  27.616  1.00  0.00     0.001 A 
ENDBRANCH  10  18
ENDBRANCH   8  10
ENDBRANCH   7   8
ENDBRANCH   6   7
ENDBRANCH   5   6
ENDBRANCH   4   5
ENDBRANCH   3   4
ENDBRANCH   2   3
ENDBRANCH   1   2
BRANCH   1  25
ATOM     25  C   UNL A   1      35.802  33.535  29.273  1.00  0.00     0.188 C 
BRANCH  25  26
ATOM     26  C   UNL A   1      34.381  33.996  29.647  1.00  0.00     0.188 C 
BRANCH  26  27
ATOM     27  O   UNL A   1      34.022  33.759  31.003  1.00  0.00    -0.376 OA
BRANCH  27  28
ATOM     28  C   UNL A   1      34.841  32.844  31.720  1.00  0.00     0.202 C 
BRANCH  28  29
ATOM     29  C   UNL A   1      34.919  33.094  33.231  1.00  0.00     0.261 C 
BRANCH  29  30
ATOM     30  O   UNL A   1      36.086  32.563  33.880  1.00  0.00    -0.460 OA
BRANCH  30  31
ATOM     31  C   UNL A   1      37.179  33.351  33.947  1.00  0.00     0.338 C 
ATOM     32  O   UNL A   1      37.236  34.520  34.283  1.00  0.00    -0.246 OA
BRANCH  31  33
ATOM     33  C   UNL A   1      38.357  32.501  33.703  1.00  0.00     0.060 A 
ATOM     34  C   UNL A   1      39.613  32.935  34.146  1.00  0.00     0.016 A 
ATOM     35  C   UNL A   1      38.218  31.287  33.027  1.00  0.00     0.016 A 
ATOM     36  C   UNL A   1      40.745  32.165  33.877  1.00  0.00     0.010 A 
ATOM     37  C   UNL A   1      39.354  30.529  32.741  1.00  0.00     0.010 A 
ATOM     38  C   UNL A   1      40.624  30.983  33.135  1.00  0.00    -0.014 A 
BRANCH  38  39
ATOM     39  C   UNL A   1      41.837  30.335  32.584  1.00  0.00     0.031 A 
ATOM     40  C   UNL A   1      42.460  30.930  31.352  1.00  0.00     0.074 A 
ATOM     41  C   UNL A   1      42.379  29.251  33.163  1.00  0.00     0.049 A 
ATOM     42  N   UNL A   1      43.498  30.527  30.666  1.00  0.00    -0.248 NA
ATOM     43  C   UNL A   1      41.822  32.147  30.821  1.00  0.00     0.031 C 
ATOM     44  C   UNL A   1      41.886  28.599  34.374  1.00  0.00     0.029 A 
ATOM     45  N   UNL A   1      43.468  28.502  32.792  1.00  0.00    -0.354 N 
ATOM     46  C   UNL A   1      43.638  31.438  29.628  1.00  0.00     0.074 A 
ATOM     47  C   UNL A   1      42.563  32.398  29.753  1.00  0.00     0.031 C 
ATOM     48  C   UNL A   1      42.666  27.537  34.642  1.00  0.00     0.029 A 
ATOM     49  C   UNL A   1      43.694  27.420  33.608  1.00  0.00     0.049 A 
ATOM     50  H   UNL A   1      44.034  28.719  32.017  1.00  0.00     0.167 HD
ATOM     51  C   UNL A   1      44.583  31.478  28.660  1.00  0.00     0.037 A 
ATOM     52  C   UNL A   1      44.613  26.440  33.512  1.00  0.00     0.037 A 
ATOM     53  C   UNL A   1      45.644  30.518  28.525  1.00  0.00     0.049 A 
ATOM     54  C   UNL A   1      45.606  26.462  32.379  1.00  0.00     0.074 A 
ATOM     55  C   UNL A   1      46.659  30.480  27.585  1.00  0.00     0.029 A 
ATOM     56  N   UNL A   1      45.819  29.418  29.350  1.00  0.00    -0.354 N 
ATOM     57  N   UNL A   1      45.753  27.346  31.421  1.00  0.00    -0.248 NA
ATOM     58  C   UNL A   1      46.563  25.346  32.315  1.00  0.00     0.031 C 
ATOM     59  C   UNL A   1      47.423  29.331  27.815  1.00  0.00     0.029 A 
ATOM     60  C   UNL A   1      46.910  28.679  28.926  1.00  0.00     0.049 A 
ATOM     61  H   UNL A   1      45.252  29.196  30.123  1.00  0.00     0.167 HD
ATOM     62  C   UNL A   1      46.830  26.909  30.659  1.00  0.00     0.074 A 
ATOM     63  C   UNL A   1      47.307  25.687  31.271  1.00  0.00     0.031 C 
ATOM     64  C   UNL A   1      47.375  27.468  29.551  1.00  0.00     0.037 A 
BRANCH  51  65
ATOM     65  C   UNL A   1      44.489  32.588  27.657  1.00  0.00     0.057 A 
ATOM     66  C   UNL A   1      44.974  33.873  27.932  1.00  0.00     0.134 A 
ATOM     67  C   UNL A   1      43.916  32.365  26.399  1.00  0.00     0.134 A 
ATOM     68  F   UNL A   1      45.516  34.155  29.127  1.00  0.00    -0.206 F 
ATOM     69  C   UNL A   1      44.875  34.905  26.996  1.00  0.00     0.040 A 
ATOM     70  C   UNL A   1      43.833  33.383  25.447  1.00  0.00     0.040 A 
ATOM     71  F   UNL A   1      43.431  31.158  26.075  1.00  0.00    -0.206 F 
ATOM     72  C   UNL A   1      44.308  34.658  25.747  1.00  0.00     0.006 A 
ENDBRANCH  51  65
BRANCH  52  73
ATOM     73  C   UNL A   1      44.635  25.340  34.508  1.00  0.00     0.057 A 
ATOM     74  C   UNL A   1      45.274  25.492  35.743  1.00  0.00     0.134 A 
ATOM     75  C   UNL A   1      44.048  24.099  34.234  1.00  0.00     0.134 A 
ATOM     76  F   UNL A   1      45.881  26.648  36.052  1.00  0.00    -0.206 F 
ATOM     77  C   UNL A   1      45.342  24.445  36.665  1.00  0.00     0.040 A 
ATOM     78  C   UNL A   1      44.087  23.051  35.155  1.00  0.00     0.040 A 
ATOM     79  F   UNL A   1      43.428  23.887  33.064  1.00  0.00    -0.206 F 
ATOM     80  C   UNL A   1      44.744  23.222  36.373  1.00  0.00     0.006 A 
ENDBRANCH  52  73
BRANCH  64  81
ATOM     81  C   UNL A   1      48.565  26.784  28.946  1.00  0.00     0.057 A 
ATOM     82  C   UNL A   1      48.426  25.749  28.012  1.00  0.00     0.134 A 
ATOM     83  C   UNL A   1      49.864  27.198  29.265  1.00  0.00     0.134 A 
ATOM     84  F   UNL A   1      47.210  25.299  27.671  1.00  0.00    -0.206 F 
ATOM     85  C   UNL A   1      49.540  25.140  27.430  1.00  0.00     0.040 A 
ATOM     86  C   UNL A   1      50.984  26.612  28.672  1.00  0.00     0.040 A 
ATOM     87  F   UNL A   1      50.066  28.191  30.145  1.00  0.00    -0.206 F 
ATOM     88  C   UNL A   1      50.823  25.576  27.755  1.00  0.00     0.006 A 
ENDBRANCH  64  81
ENDBRANCH  38  39
ENDBRANCH  31  33
ENDBRANCH  30  31
ENDBRANCH  29  30
ENDBRANCH  28  29
ENDBRANCH  27  28
ENDBRANCH  26  27
ENDBRANCH  25  26
ENDBRANCH   1  25
TORSDOF 23
ENDMDL
MODEL 2
REMARK VINA RESULT:      -7.1      1.730      2.353
REMARK SMILES Cc1nonc1C[C@@H](C(=O)OCCOCCOCCOCCOC(=O)c1ccc(-c2c3nc(c(-c4c(F)cccc4F)c4ccc([nH]4)c(-c4c(F)cccc4F)c4nc(c(-c5c(F)cccc5F)c5ccc2[nH]5)C=C4)C=C3)cc1)c1ccccc1Br
REMARK SMILES IDX 17 1 16 2 15 3 14 4 13 5 12 6 11 7 9 8 10 9 8 10 7 11 6 12
REMARK SMILES IDX 1 13 2 14 3 15 4 16 5 17 80 18 81 19 85 20 82 21 84 22 86 23
REMARK SMILES IDX 83 24 18 25 19 26 20 27 21 28 22 29 23 30 24 31 25 32 26 33
REMARK SMILES IDX 27 34 79 35 28 36 78 37 29 38 30 39 31 40 72 41 32 42 77 43
REMARK SMILES IDX 71 44 73 45 33 46 76 47 70 48 69 49 34 51 60 52 43 53 59 54
REMARK SMILES IDX 44 55 47 56 58 57 74 58 45 59 46 60 57 62 75 63 48 64 35 65
REMARK SMILES IDX 36 66 41 67 37 68 38 69 40 70 42 71 39 72 61 73 62 74 67 75
REMARK SMILES IDX 63 76 64 77 66 78 68 79 65 80 49 81 50 82 55 83 51 84 52 85
REMARK SMILES IDX 54 86 56 87 53 88
REMARK H PARENT 73 50 47 61
REMARK Flexibility Score: inf
ROOT
ATOM      1  O   UNL A   1      35.293  33.099  27.699  1.00  0.00    -0.377 OA
ENDROOT
BRANCH   1   2
ATOM      2  C   UNL A   1      35.680  31.750  27.914  1.00  0.00     0.188 C 
BRANCH   2   3
ATOM      3  C   UNL A   1      37.027  31.423  28.589  1.00  0.00     0.188 C 
BRANCH   3   4
ATOM      4  O   UNL A   1      37.223  30.056  28.938  1.00  0.00    -0.376 OA
BRANCH   4   5
ATOM      5  C   UNL A   1      38.112  29.326  28.099  1.00  0.00     0.202 C 
BRANCH   5   6
ATOM      6  C   UNL A   1      38.842  28.189  28.809  1.00  0.00     0.261 C 
BRANCH   6   7
ATOM      7  O   UNL A   1      40.104  27.952  28.167  1.00  0.00    -0.463 OA
BRANCH   7   8
ATOM      8  C   UNL A   1      40.939  27.058  28.743  1.00  0.00     0.313 C 
ATOM      9  O   UNL A   1      41.501  27.208  29.821  1.00  0.00    -0.252 OA
BRANCH   8  10
ATOM     10  C   UNL A   1      41.123  25.828  27.871  1.00  0.00     0.136 C 
BRANCH  10  11
ATOM     11  C   UNL A   1      40.035  24.764  28.201  1.00  0.00     0.082 C 
BRANCH  11  12
ATOM     12  C   UNL A   1      39.422  23.889  27.161  1.00  0.00     0.109 A 
ATOM     13  C   UNL A   1      40.777  21.663  27.439  1.00  0.00     0.073 C 
ATOM     14  C   UNL A   1      39.722  22.536  26.882  1.00  0.00     0.105 A 
ATOM     15  N   UNL A   1      38.844  22.053  26.000  1.00  0.00    -0.055 NA
ATOM     16  O   UNL A   1      37.973  23.105  25.750  1.00  0.00    -0.244 OA
ATOM     17  N   UNL A   1      38.330  24.232  26.476  1.00  0.00    -0.055 NA
ENDBRANCH  11  12
ENDBRANCH  10  11
BRANCH  10  18
ATOM     18  C   UNL A   1      42.547  25.193  27.837  1.00  0.00    -0.019 A 
ATOM     19  C   UNL A   1      42.849  24.181  28.788  1.00  0.00     0.006 A 
ATOM     20  C   UNL A   1      43.574  25.486  26.913  1.00  0.00     0.022 A 
ATOM     21  C   UNL A   1      44.109  23.584  28.891  1.00  0.00     0.000 A 
ATOM     22  C   UNL A   1      44.851  24.900  27.038  1.00  0.00     0.016 A 
ATOM     23  Br  UNL A   1      43.377  26.592  25.380  1.00  0.00    -0.051 Br
ATOM     24  C   UNL A   1      45.122  23.963  28.030  1.00  0.00     0.001 A 
ENDBRANCH  10  18
ENDBRANCH   8  10
ENDBRANCH   7   8
ENDBRANCH   6   7
ENDBRANCH   5   6
ENDBRANCH   4   5
ENDBRANCH   3   4
ENDBRANCH   2   3
ENDBRANCH   1   2
BRANCH   1  25
ATOM     25  C   UNL A   1      35.422  34.042  28.757  1.00  0.00     0.188 C 
BRANCH  25  26
ATOM     26  C   UNL A   1      34.163  34.513  29.511  1.00  0.00     0.188 C 
BRANCH  26  27
ATOM     27  O   UNL A   1      33.901  33.809  30.719  1.00  0.00    -0.376 OA
BRANCH  27  28
ATOM     28  C   UNL A   1      34.966  33.017  31.229  1.00  0.00     0.202 C 
BRANCH  28  29
ATOM     29  C   UNL A   1      34.887  32.721  32.732  1.00  0.00     0.261 C 
BRANCH  29  30
ATOM     30  O   UNL A   1      36.055  32.099  33.296  1.00  0.00    -0.460 OA
BRANCH  30  31
ATOM     31  C   UNL A   1      37.152  32.865  33.465  1.00  0.00     0.338 C 
ATOM     32  O   UNL A   1      37.210  33.996  33.914  1.00  0.00    -0.246 OA
BRANCH  31  33
ATOM     33  C   UNL A   1      38.328  32.030  33.166  1.00  0.00     0.060 A 
ATOM     34  C   UNL A   1      39.506  32.226  33.900  1.00  0.00     0.016 A 
ATOM     35  C   UNL A   1      38.268  31.069  32.157  1.00  0.00     0.016 A 
ATOM     36  C   UNL A   1      40.643  31.478  33.595  1.00  0.00     0.010 A 
ATOM     37  C   UNL A   1      39.412  30.337  31.839  1.00  0.00     0.010 A 
ATOM     38  C   UNL A   1      40.613  30.564  32.534  1.00  0.00    -0.014 A 
BRANCH  38  39
ATOM     39  C   UNL A   1      41.880  30.006  32.009  1.00  0.00     0.031 A 
ATOM     40  C   UNL A   1      42.559  30.730  30.880  1.00  0.00     0.074 A 
ATOM     41  C   UNL A   1      42.422  28.889  32.523  1.00  0.00     0.049 A 
ATOM     42  N   UNL A   1      43.652  30.422  30.232  1.00  0.00    -0.248 NA
ATOM     43  C   UNL A   1      41.914  31.971  30.420  1.00  0.00     0.031 C 
ATOM     44  C   UNL A   1      41.876  28.114  33.635  1.00  0.00     0.029 A 
ATOM     45  N   UNL A   1      43.558  28.209  32.161  1.00  0.00    -0.354 N 
ATOM     46  C   UNL A   1      43.826  31.429  29.292  1.00  0.00     0.074 A 
ATOM     47  C   UNL A   1      42.713  32.341  29.431  1.00  0.00     0.031 C 
ATOM     48  C   UNL A   1      42.674  27.056  33.858  1.00  0.00     0.029 A 
ATOM     49  C   UNL A   1      43.770  27.065  32.889  1.00  0.00     0.049 A 
ATOM     50  H   UNL A   1      44.164  28.514  31.448  1.00  0.00     0.167 HD
ATOM     51  C   UNL A   1      44.829  31.586  28.397  1.00  0.00     0.037 A 
ATOM     52  C   UNL A   1      44.728  26.125  32.767  1.00  0.00     0.037 A 
ATOM     53  C   UNL A   1      45.930  30.674  28.247  1.00  0.00     0.049 A 
ATOM     54  C   UNL A   1      45.790  26.280  31.709  1.00  0.00     0.074 A 
ATOM     55  C   UNL A   1      47.004  30.753  27.378  1.00  0.00     0.029 A 
ATOM     56  N   UNL A   1      46.091  29.508  28.980  1.00  0.00    -0.354 N 
ATOM     57  N   UNL A   1      45.966  27.253  30.847  1.00  0.00    -0.248 NA
ATOM     58  C   UNL A   1      46.787  25.204  31.609  1.00  0.00     0.031 C 
ATOM     59  C   UNL A   1      47.792  29.610  27.554  1.00  0.00     0.029 A 
ATOM     60  C   UNL A   1      47.232  28.844  28.565  1.00  0.00     0.049 A 
ATOM     61  H   UNL A   1      45.484  29.199  29.690  1.00  0.00     0.167 HD
ATOM     62  C   UNL A   1      47.104  26.920  30.122  1.00  0.00     0.074 A 
ATOM     63  C   UNL A   1      47.584  25.661  30.653  1.00  0.00     0.031 C 
ATOM     64  C   UNL A   1      47.699  27.595  29.108  1.00  0.00     0.037 A 
BRANCH  51  65
ATOM     65  C   UNL A   1      44.760  32.780  27.494  1.00  0.00     0.057 A 
ATOM     66  C   UNL A   1      45.335  34.007  27.849  1.00  0.00     0.134 A 
ATOM     67  C   UNL A   1      44.121  32.698  26.252  1.00  0.00     0.134 A 
ATOM     68  F   UNL A   1      45.945  34.155  29.035  1.00  0.00    -0.206 F 
ATOM     69  C   UNL A   1      45.260  35.118  27.007  1.00  0.00     0.040 A 
ATOM     70  C   UNL A   1      44.059  33.796  25.391  1.00  0.00     0.040 A 
ATOM     71  F   UNL A   1      43.548  31.553  25.853  1.00  0.00    -0.206 F 
ATOM     72  C   UNL A   1      44.625  35.011  25.771  1.00  0.00     0.006 A 
ENDBRANCH  51  65
BRANCH  52  73
ATOM     73  C   UNL A   1      44.725  24.939  33.658  1.00  0.00     0.057 A 
ATOM     74  C   UNL A   1      45.343  24.973  34.914  1.00  0.00     0.134 A 
ATOM     75  C   UNL A   1      44.135  23.732  33.263  1.00  0.00     0.134 A 
ATOM     76  F   UNL A   1      45.951  26.091  35.336  1.00  0.00    -0.206 F 
ATOM     77  C   UNL A   1      45.388  23.846  35.738  1.00  0.00     0.040 A 
ATOM     78  C   UNL A   1      44.151  22.605  34.086  1.00  0.00     0.040 A 
ATOM     79  F   UNL A   1      43.534  23.633  32.068  1.00  0.00    -0.206 F 
ATOM     80  C   UNL A   1      44.786  22.659  35.325  1.00  0.00     0.006 A 
ENDBRANCH  52  73
BRANCH  64  81
ATOM     81  C   UNL A   1      48.949  27.005  28.525  1.00  0.00     0.057 A 
ATOM     82  C   UNL A   1      48.913  26.142  27.422  1.00  0.00     0.134 A 
ATOM     83  C   UNL A   1      50.205  27.342  29.042  1.00  0.00     0.134 A 
ATOM     84  F   UNL A   1      47.741  25.772  26.885  1.00  0.00    -0.206 F 
ATOM     85  C   UNL A   1      50.084  25.622  26.866  1.00  0.00     0.040 A 
ATOM     86  C   UNL A   1      51.384  26.848  28.481  1.00  0.00     0.040 A 
ATOM     87  F   UNL A   1      50.310  28.171  30.092  1.00  0.00    -0.206 F 
ATOM     88  C   UNL A   1      51.324  25.981  27.392  1.00  0.00     0.006 A 
ENDBRANCH  64  81
ENDBRANCH  38  39
ENDBRANCH  31  33
ENDBRANCH  30  31
ENDBRANCH  29  30
ENDBRANCH  28  29
ENDBRANCH  27  28
ENDBRANCH  26  27
ENDBRANCH  25  26
ENDBRANCH   1  25
TORSDOF 23
ENDMDL
MODEL 3
REMARK VINA RESULT:      -6.9      5.787      9.651
REMARK SMILES Cc1nonc1C[C@@H](C(=O)OCCOCCOCCOCCOC(=O)c1ccc(-c2c3nc(c(-c4c(F)cccc4F)c4ccc([nH]4)c(-c4c(F)cccc4F)c4nc(c(-c5c(F)cccc5F)c5ccc2[nH]5)C=C4)C=C3)cc1)c1ccccc1Br
REMARK SMILES IDX 17 1 16 2 15 3 14 4 13 5 12 6 11 7 9 8 10 9 8 10 7 11 6 12
REMARK SMILES IDX 1 13 2 14 3 15 4 16 5 17 80 18 81 19 85 20 82 21 84 22 86 23
REMARK SMILES IDX 83 24 18 25 19 26 20 27 21 28 22 29 23 30 24 31 25 32 26 33
REMARK SMILES IDX 27 34 79 35 28 36 78 37 29 38 30 39 31 40 72 41 32 42 77 43
REMARK SMILES IDX 71 44 73 45 33 46 76 47 70 48 69 49 34 51 60 52 43 53 59 54
REMARK SMILES IDX 44 55 47 56 58 57 74 58 45 59 46 60 57 62 75 63 48 64 35 65
REMARK SMILES IDX 36 66 41 67 37 68 38 69 40 70 42 71 39 72 61 73 62 74 67 75
REMARK SMILES IDX 63 76 64 77 66 78 68 79 65 80 49 81 50 82 55 83 51 84 52 85
REMARK SMILES IDX 54 86 56 87 53 88
REMARK H PARENT 73 50 47 61
REMARK Flexibility Score: inf
ROOT
ATOM      1  O   UNL A   1      36.357  31.000  29.232  1.00  0.00    -0.377 OA
ENDROOT
BRANCH   1   2
ATOM      2  C   UNL A   1      35.774  30.886  27.943  1.00  0.00     0.188 C 
BRANCH   2   3
ATOM      3  C   UNL A   1      34.244  30.932  27.771  1.00  0.00     0.188 C 
BRANCH   3   4
ATOM      4  O   UNL A   1      33.698  29.985  26.857  1.00  0.00    -0.376 OA
BRANCH   4   5
ATOM      5  C   UNL A   1      34.323  28.705  26.850  1.00  0.00     0.202 C 
BRANCH   5   6
ATOM      6  C   UNL A   1      33.917  27.825  25.670  1.00  0.00     0.261 C 
BRANCH   6   7
ATOM      7  O   UNL A   1      32.780  28.400  25.010  1.00  0.00    -0.463 OA
BRANCH   7   8
ATOM      8  C   UNL A   1      31.590  27.775  25.159  1.00  0.00     0.313 C 
ATOM      9  O   UNL A   1      31.036  27.557  26.230  1.00  0.00    -0.252 OA
BRANCH   8  10
ATOM     10  C   UNL A   1      31.018  27.340  23.821  1.00  0.00     0.136 C 
BRANCH  10  11
ATOM     11  C   UNL A   1      32.167  27.038  22.815  1.00  0.00     0.082 C 
BRANCH  11  12
ATOM     12  C   UNL A   1      32.652  25.655  22.537  1.00  0.00     0.109 A 
ATOM     13  C   UNL A   1      30.856  24.183  23.751  1.00  0.00     0.073 C 
ATOM     14  C   UNL A   1      32.043  24.435  22.907  1.00  0.00     0.105 A 
ATOM     15  N   UNL A   1      32.686  23.418  22.329  1.00  0.00    -0.055 NA
ATOM     16  O   UNL A   1      33.686  24.012  21.570  1.00  0.00    -0.244 OA
ATOM     17  N   UNL A   1      33.654  25.393  21.696  1.00  0.00    -0.055 NA
ENDBRANCH  11  12
ENDBRANCH  10  11
BRANCH  10  18
ATOM     18  C   UNL A   1      29.932  28.261  23.184  1.00  0.00    -0.019 A 
ATOM     19  C   UNL A   1      30.369  29.365  22.402  1.00  0.00     0.006 A 
ATOM     20  C   UNL A   1      28.534  28.086  23.260  1.00  0.00     0.022 A 
ATOM     21  C   UNL A   1      29.491  30.290  21.833  1.00  0.00     0.000 A 
ATOM     22  C   UNL A   1      27.652  29.038  22.707  1.00  0.00     0.016 A 
ATOM     23  Br  UNL A   1      27.665  26.569  24.006  1.00  0.00    -0.051 Br
ATOM     24  C   UNL A   1      28.127  30.142  22.007  1.00  0.00     0.001 A 
ENDBRANCH  10  18
ENDBRANCH   8  10
ENDBRANCH   7   8
ENDBRANCH   6   7
ENDBRANCH   5   6
ENDBRANCH   4   5
ENDBRANCH   3   4
ENDBRANCH   2   3
ENDBRANCH   1   2
BRANCH   1  25
ATOM     25  C   UNL A   1      36.606  29.825  29.995  1.00  0.00     0.188 C 
BRANCH  25  26
ATOM     26  C   UNL A   1      38.007  29.183  29.965  1.00  0.00     0.188 C 
BRANCH  26  27
ATOM     27  O   UNL A   1      38.227  28.299  28.873  1.00  0.00    -0.376 OA
BRANCH  27  28
ATOM     28  C   UNL A   1      39.496  27.660  28.828  1.00  0.00     0.202 C 
BRANCH  28  29
ATOM     29  C   UNL A   1      39.603  26.508  27.821  1.00  0.00     0.261 C 
BRANCH  29  30
ATOM     30  O   UNL A   1      40.469  25.429  28.214  1.00  0.00    -0.460 OA
BRANCH  30  31
ATOM     31  C   UNL A   1      41.165  24.799  27.246  1.00  0.00     0.338 C 
ATOM     32  O   UNL A   1      40.779  23.911  26.507  1.00  0.00    -0.246 OA
BRANCH  31  33
ATOM     33  C   UNL A   1      42.458  25.491  27.105  1.00  0.00     0.060 A 
ATOM     34  C   UNL A   1      43.214  25.760  28.254  1.00  0.00     0.016 A 
ATOM     35  C   UNL A   1      42.912  25.881  25.844  1.00  0.00     0.016 A 
ATOM     36  C   UNL A   1      44.416  26.459  28.143  1.00  0.00     0.010 A 
ATOM     37  C   UNL A   1      44.103  26.598  25.738  1.00  0.00     0.010 A 
ATOM     38  C   UNL A   1      44.841  26.919  26.890  1.00  0.00    -0.014 A 
BRANCH  38  39
ATOM     39  C   UNL A   1      45.934  27.915  26.807  1.00  0.00     0.031 A 
ATOM     40  C   UNL A   1      45.569  29.372  26.843  1.00  0.00     0.074 A 
ATOM     41  C   UNL A   1      47.221  27.540  26.709  1.00  0.00     0.049 A 
ATOM     42  N   UNL A   1      46.338  30.426  26.751  1.00  0.00    -0.248 NA
ATOM     43  C   UNL A   1      44.138  29.682  27.003  1.00  0.00     0.031 C 
ATOM     44  C   UNL A   1      47.705  26.161  26.693  1.00  0.00     0.029 A 
ATOM     45  N   UNL A   1      48.358  28.300  26.594  1.00  0.00    -0.354 N 
ATOM     46  C   UNL A   1      45.487  31.519  26.844  1.00  0.00     0.074 A 
ATOM     47  C   UNL A   1      44.141  31.006  26.969  1.00  0.00     0.031 C 
ATOM     48  C   UNL A   1      49.043  26.173  26.564  1.00  0.00     0.029 A 
ATOM     49  C   UNL A   1      49.505  27.557  26.461  1.00  0.00     0.049 A 
ATOM     50  H   UNL A   1      48.352  29.284  26.607  1.00  0.00     0.167 HD
ATOM     51  C   UNL A   1      45.799  32.836  26.836  1.00  0.00     0.037 A 
ATOM     52  C   UNL A   1      50.776  27.955  26.258  1.00  0.00     0.037 A 
ATOM     53  C   UNL A   1      47.135  33.351  26.699  1.00  0.00     0.049 A 
ATOM     54  C   UNL A   1      51.089  29.427  26.172  1.00  0.00     0.074 A 
ATOM     55  C   UNL A   1      47.555  34.669  26.693  1.00  0.00     0.029 A 
ATOM     56  N   UNL A   1      48.266  32.567  26.533  1.00  0.00    -0.354 N 
ATOM     57  N   UNL A   1      50.283  30.455  26.296  1.00  0.00    -0.248 NA
ATOM     58  C   UNL A   1      52.491  29.793  25.919  1.00  0.00     0.031 C 
ATOM     59  C   UNL A   1      48.938  34.684  26.478  1.00  0.00     0.029 A 
ATOM     60  C   UNL A   1      49.382  33.374  26.396  1.00  0.00     0.049 A 
ATOM     61  H   UNL A   1      48.274  31.583  26.516  1.00  0.00     0.167 HD
ATOM     62  C   UNL A   1      51.081  31.584  26.160  1.00  0.00     0.074 A 
ATOM     63  C   UNL A   1      52.436  31.117  25.957  1.00  0.00     0.031 C 
ATOM     64  C   UNL A   1      50.725  32.892  26.200  1.00  0.00     0.037 A 
BRANCH  51  65
ATOM     65  C   UNL A   1      44.665  33.809  26.954  1.00  0.00     0.057 A 
ATOM     66  C   UNL A   1      44.006  34.313  25.826  1.00  0.00     0.134 A 
ATOM     67  C   UNL A   1      44.221  34.237  28.210  1.00  0.00     0.134 A 
ATOM     68  F   UNL A   1      44.397  33.956  24.593  1.00  0.00    -0.206 F 
ATOM     69  C   UNL A   1      42.955  35.225  25.942  1.00  0.00     0.040 A 
ATOM     70  C   UNL A   1      43.157  35.131  28.340  1.00  0.00     0.040 A 
ATOM     71  F   UNL A   1      44.812  33.794  29.330  1.00  0.00    -0.206 F 
ATOM     72  C   UNL A   1      42.525  35.631  27.204  1.00  0.00     0.006 A 
ENDBRANCH  51  65
BRANCH  52  73
ATOM     73  C   UNL A   1      51.856  26.949  26.105  1.00  0.00     0.057 A 
ATOM     74  C   UNL A   1      52.133  26.365  24.863  1.00  0.00     0.134 A 
ATOM     75  C   UNL A   1      52.613  26.521  27.202  1.00  0.00     0.134 A 
ATOM     76  F   UNL A   1      51.422  26.712  23.781  1.00  0.00    -0.206 F 
ATOM     77  C   UNL A   1      53.114  25.381  24.720  1.00  0.00     0.040 A 
ATOM     78  C   UNL A   1      53.613  25.556  27.070  1.00  0.00     0.040 A 
ATOM     79  F   UNL A   1      52.390  27.036  28.420  1.00  0.00    -0.206 F 
ATOM     80  C   UNL A   1      53.859  24.978  25.825  1.00  0.00     0.006 A 
ENDBRANCH  52  73
BRANCH  64  81
ATOM     81  C   UNL A   1      51.817  33.910  26.052  1.00  0.00     0.057 A 
ATOM     82  C   UNL A   1      52.490  34.437  27.161  1.00  0.00     0.134 A 
ATOM     83  C   UNL A   1      52.231  34.332  24.783  1.00  0.00     0.134 A 
ATOM     84  F   UNL A   1      52.135  34.083  28.405  1.00  0.00    -0.206 F 
ATOM     85  C   UNL A   1      53.526  35.361  27.012  1.00  0.00     0.040 A 
ATOM     86  C   UNL A   1      53.282  35.237  24.620  1.00  0.00     0.040 A 
ATOM     87  F   UNL A   1      51.634  33.857  23.678  1.00  0.00    -0.206 F 
ATOM     88  C   UNL A   1      53.929  35.758  25.738  1.00  0.00     0.006 A 
ENDBRANCH  64  81
ENDBRANCH  38  39
ENDBRANCH  31  33
ENDBRANCH  30  31
ENDBRANCH  29  30
ENDBRANCH  28  29
ENDBRANCH  27  28
ENDBRANCH  26  27
ENDBRANCH  25  26
ENDBRANCH   1  25
TORSDOF 23
ENDMDL
