MODEL 1
REMARK VINA RESULT:     -10.0      0.000      0.000
REMARK SMILES Cc1cccc(CS[C@@H]2CC[C@]([NH3+])(C(=O)OCCOCCOCCOCCOC(=O)c3ccc(-c4c5nc(c(-c6c(F)cccc6F)c6ccc([nH]6)c(-c6c(F)cccc6F)c6nc(c(-c7c(F)cccc7F)c7ccc4[nH]7)C=C6)C=C5)cc3)C2)c1
REMARK SMILES IDX 21 1 20 2 19 3 18 4 17 5 16 6 14 7 15 8 12 9 9 10 10 11
REMARK SMILES IDX 85 12 11 13 8 14 7 15 6 16 1 17 2 18 3 19 86 20 4 21 5 22
REMARK SMILES IDX 13 23 22 27 23 28 24 29 25 30 26 31 27 32 28 33 29 34 30 35
REMARK SMILES IDX 31 36 32 37 84 38 33 39 83 40 34 41 35 42 36 43 77 44 37 45
REMARK SMILES IDX 82 46 76 47 78 48 38 49 81 50 75 51 74 52 39 54 65 55 48 56
REMARK SMILES IDX 64 57 49 58 52 59 63 60 79 61 50 62 51 63 62 65 80 66 53 67
REMARK SMILES IDX 40 68 41 69 46 70 42 71 43 72 45 73 47 74 44 75 66 76 67 77
REMARK SMILES IDX 72 78 68 79 69 80 71 81 73 82 70 83 54 84 55 85 60 86 56 87
REMARK SMILES IDX 57 88 59 89 61 90 58 91
REMARK H PARENT 13 24 13 25 13 26 78 53 52 64
REMARK Flexibility Score: inf
ROOT
ATOM      1  C   UNL A   1      31.862  31.177  26.321  1.00  0.00     0.188 C 
ENDROOT
BRANCH   1   2
ATOM      2  C   UNL A   1      31.909  29.766  26.917  1.00  0.00     0.188 C 
BRANCH   2   3
ATOM      3  O   UNL A   1      33.182  29.248  27.283  1.00  0.00    -0.376 OA
BRANCH   3   4
ATOM      4  C   UNL A   1      33.986  28.765  26.205  1.00  0.00     0.202 C 
BRANCH   4   5
ATOM      5  C   UNL A   1      33.864  27.270  25.941  1.00  0.00     0.261 C 
BRANCH   5   6
ATOM      6  O   UNL A   1      32.619  27.001  25.272  1.00  0.00    -0.459 OA
BRANCH   6   7
ATOM      7  C   UNL A   1      31.970  25.894  25.697  1.00  0.00     0.368 C 
ATOM      8  O   UNL A   1      31.511  25.753  26.827  1.00  0.00    -0.245 OA
BRANCH   7   9
ATOM      9  C   UNL A   1      31.721  24.892  24.558  1.00  0.00     0.193 C 
ATOM     10  C   UNL A   1      31.780  22.476  24.227  1.00  0.00     0.054 C 
ATOM     11  C   UNL A   1      32.664  23.157  23.176  1.00  0.00     0.022 C 
ATOM     12  C   UNL A   1      31.370  23.554  25.216  1.00  0.00     0.095 C 
ATOM     13  C   UNL A   1      32.949  24.562  23.711  1.00  0.00     0.082 C 
BRANCH  10  14
ATOM     14  S   UNL A   1      32.418  21.018  25.131  1.00  0.00    -0.154 SA
BRANCH  14  15
ATOM     15  C   UNL A   1      33.474  21.771  26.437  1.00  0.00     0.105 C 
BRANCH  15  16
ATOM     16  C   UNL A   1      34.890  22.042  25.989  1.00  0.00    -0.038 A 
ATOM     17  C   UNL A   1      37.954  20.096  24.815  1.00  0.00     0.044 C 
ATOM     18  C   UNL A   1      37.054  21.215  25.233  1.00  0.00    -0.051 A 
ATOM     19  C   UNL A   1      37.588  22.496  25.376  1.00  0.00     0.003 A 
ATOM     20  C   UNL A   1      35.705  20.990  25.549  1.00  0.00     0.008 A 
ATOM     21  C   UNL A   1      36.771  23.559  25.739  1.00  0.00     0.001 A 
ATOM     22  C   UNL A   1      35.425  23.339  26.007  1.00  0.00     0.004 A 
ENDBRANCH  15  16
ENDBRANCH  14  15
ENDBRANCH  10  14
BRANCH   9  23
ATOM     23  N   UNL A   1      30.602  25.327  23.695  1.00  0.00    -0.343 N 
ATOM     24  H   UNL A   1      30.353  26.290  23.921  1.00  0.00     0.345 HD
ATOM     25  H   UNL A   1      29.796  24.722  23.853  1.00  0.00     0.345 HD
ATOM     26  H   UNL A   1      30.885  25.268  22.717  1.00  0.00     0.345 HD
ENDBRANCH   9  23
ENDBRANCH   7   9
ENDBRANCH   6   7
ENDBRANCH   5   6
ENDBRANCH   4   5
ENDBRANCH   3   4
ENDBRANCH   2   3
ENDBRANCH   1   2
BRANCH   1  27
ATOM     27  O   UNL A   1      31.963  32.238  27.265  1.00  0.00    -0.377 OA
BRANCH  27  28
ATOM     28  C   UNL A   1      33.308  32.463  27.675  1.00  0.00     0.188 C 
BRANCH  28  29
ATOM     29  C   UNL A   1      33.606  33.938  27.954  1.00  0.00     0.188 C 
BRANCH  29  30
ATOM     30  O   UNL A   1      32.629  34.670  28.674  1.00  0.00    -0.376 OA
BRANCH  30  31
ATOM     31  C   UNL A   1      32.921  35.946  29.221  1.00  0.00     0.202 C 
BRANCH  31  32
ATOM     32  C   UNL A   1      32.717  36.091  30.731  1.00  0.00     0.261 C 
BRANCH  32  33
ATOM     33  O   UNL A   1      33.981  36.331  31.376  1.00  0.00    -0.460 OA
BRANCH  33  34
ATOM     34  C   UNL A   1      34.259  35.516  32.418  1.00  0.00     0.338 C 
ATOM     35  O   UNL A   1      34.356  35.879  33.597  1.00  0.00    -0.246 OA
BRANCH  34  36
ATOM     36  C   UNL A   1      34.750  34.203  31.922  1.00  0.00     0.060 A 
ATOM     37  C   UNL A   1      34.594  33.064  32.729  1.00  0.00     0.016 A 
ATOM     38  C   UNL A   1      35.669  34.186  30.878  1.00  0.00     0.016 A 
ATOM     39  C   UNL A   1      35.501  32.000  32.621  1.00  0.00     0.010 A 
ATOM     40  C   UNL A   1      36.619  33.181  30.850  1.00  0.00     0.010 A 
ATOM     41  C   UNL A   1      36.594  32.110  31.760  1.00  0.00    -0.014 A 
BRANCH  41  42
ATOM     42  C   UNL A   1      37.854  31.345  31.903  1.00  0.00     0.031 A 
ATOM     43  C   UNL A   1      38.050  30.063  31.139  1.00  0.00     0.074 A 
ATOM     44  C   UNL A   1      38.935  31.965  32.454  1.00  0.00     0.049 A 
ATOM     45  N   UNL A   1      39.149  29.390  31.117  1.00  0.00    -0.248 NA
ATOM     46  C   UNL A   1      37.023  29.415  30.316  1.00  0.00     0.031 C 
ATOM     47  C   UNL A   1      40.342  31.685  32.173  1.00  0.00     0.029 A 
ATOM     48  N   UNL A   1      39.020  33.003  33.391  1.00  0.00    -0.354 N 
ATOM     49  C   UNL A   1      39.108  28.497  30.067  1.00  0.00     0.074 A 
ATOM     50  C   UNL A   1      37.731  28.486  29.658  1.00  0.00     0.031 C 
ATOM     51  C   UNL A   1      41.150  32.410  32.955  1.00  0.00     0.029 A 
ATOM     52  C   UNL A   1      40.309  32.981  33.970  1.00  0.00     0.049 A 
ATOM     53  H   UNL A   1      38.302  33.641  33.608  1.00  0.00     0.167 HD
ATOM     54  C   UNL A   1      40.285  27.983  29.604  1.00  0.00     0.037 A 
ATOM     55  C   UNL A   1      40.473  32.685  35.294  1.00  0.00     0.037 A 
ATOM     56  C   UNL A   1      41.369  28.278  30.540  1.00  0.00     0.049 A 
ATOM     57  C   UNL A   1      41.106  31.320  35.496  1.00  0.00     0.074 A 
ATOM     58  C   UNL A   1      42.496  29.073  30.463  1.00  0.00     0.029 A 
ATOM     59  N   UNL A   1      41.225  27.915  31.880  1.00  0.00    -0.354 N 
ATOM     60  N   UNL A   1      41.060  30.367  34.597  1.00  0.00    -0.248 NA
ATOM     61  C   UNL A   1      41.942  30.952  36.635  1.00  0.00     0.031 C 
ATOM     62  C   UNL A   1      42.872  29.376  31.796  1.00  0.00     0.029 A 
ATOM     63  C   UNL A   1      42.116  28.608  32.670  1.00  0.00     0.049 A 
ATOM     64  H   UNL A   1      40.575  27.255  32.213  1.00  0.00     0.167 HD
ATOM     65  C   UNL A   1      41.913  29.355  34.944  1.00  0.00     0.074 A 
ATOM     66  C   UNL A   1      42.398  29.742  36.259  1.00  0.00     0.031 C 
ATOM     67  C   UNL A   1      42.238  28.328  34.098  1.00  0.00     0.037 A 
BRANCH  54  68
ATOM     68  C   UNL A   1      40.543  27.385  28.230  1.00  0.00     0.057 A 
ATOM     69  C   UNL A   1      40.168  26.051  27.951  1.00  0.00     0.134 A 
ATOM     70  C   UNL A   1      41.270  28.004  27.196  1.00  0.00     0.134 A 
ATOM     71  F   UNL A   1      39.482  25.317  28.839  1.00  0.00    -0.206 F 
ATOM     72  C   UNL A   1      40.495  25.393  26.753  1.00  0.00     0.040 A 
ATOM     73  C   UNL A   1      41.563  27.372  25.974  1.00  0.00     0.040 A 
ATOM     74  F   UNL A   1      41.788  29.230  27.326  1.00  0.00    -0.206 F 
ATOM     75  C   UNL A   1      41.186  26.057  25.753  1.00  0.00     0.006 A 
ENDBRANCH  54  68
BRANCH  55  76
ATOM     76  C   UNL A   1      39.503  33.451  36.124  1.00  0.00     0.057 A 
ATOM     77  C   UNL A   1      38.517  32.653  36.745  1.00  0.00     0.134 A 
ATOM     78  C   UNL A   1      39.904  34.604  36.805  1.00  0.00     0.134 A 
ATOM     79  F   UNL A   1      38.057  31.555  36.123  1.00  0.00    -0.206 F 
ATOM     80  C   UNL A   1      38.156  32.841  38.081  1.00  0.00     0.040 A 
ATOM     81  C   UNL A   1      39.518  34.819  38.137  1.00  0.00     0.040 A 
ATOM     82  F   UNL A   1      40.817  35.428  36.272  1.00  0.00    -0.206 F 
ATOM     83  C   UNL A   1      38.705  33.897  38.799  1.00  0.00     0.006 A 
ENDBRANCH  55  76
BRANCH  67  84
ATOM     84  C   UNL A   1      42.875  27.010  34.497  1.00  0.00     0.057 A 
ATOM     85  C   UNL A   1      44.257  26.794  34.561  1.00  0.00     0.134 A 
ATOM     86  C   UNL A   1      42.088  25.943  35.003  1.00  0.00     0.134 A 
ATOM     87  F   UNL A   1      45.135  27.745  34.217  1.00  0.00    -0.206 F 
ATOM     88  C   UNL A   1      44.811  25.597  35.037  1.00  0.00     0.040 A 
ATOM     89  C   UNL A   1      42.632  24.773  35.537  1.00  0.00     0.040 A 
ATOM     90  F   UNL A   1      40.748  25.989  35.026  1.00  0.00    -0.206 F 
ATOM     91  C   UNL A   1      44.001  24.589  35.542  1.00  0.00     0.006 A 
ENDBRANCH  67  84
ENDBRANCH  41  42
ENDBRANCH  34  36
ENDBRANCH  33  34
ENDBRANCH  32  33
ENDBRANCH  31  32
ENDBRANCH  30  31
ENDBRANCH  29  30
ENDBRANCH  28  29
ENDBRANCH  27  28
ENDBRANCH   1  27
TORSDOF 24
ENDMDL
MODEL 2
REMARK VINA RESULT:     -10.0      1.620      2.132
REMARK SMILES Cc1cccc(CS[C@@H]2CC[C@]([NH3+])(C(=O)OCCOCCOCCOCCOC(=O)c3ccc(-c4c5nc(c(-c6c(F)cccc6F)c6ccc([nH]6)c(-c6c(F)cccc6F)c6nc(c(-c7c(F)cccc7F)c7ccc4[nH]7)C=C6)C=C5)cc3)C2)c1
REMARK SMILES IDX 21 1 20 2 19 3 18 4 17 5 16 6 14 7 15 8 12 9 9 10 10 11
REMARK SMILES IDX 85 12 11 13 8 14 7 15 6 16 1 17 2 18 3 19 86 20 4 21 5 22
REMARK SMILES IDX 13 23 22 27 23 28 24 29 25 30 26 31 27 32 28 33 29 34 30 35
REMARK SMILES IDX 31 36 32 37 84 38 33 39 83 40 34 41 35 42 36 43 77 44 37 45
REMARK SMILES IDX 82 46 76 47 78 48 38 49 81 50 75 51 74 52 39 54 65 55 48 56
REMARK SMILES IDX 64 57 49 58 52 59 63 60 79 61 50 62 51 63 62 65 80 66 53 67
REMARK SMILES IDX 40 68 41 69 46 70 42 71 43 72 45 73 47 74 44 75 66 76 67 77
REMARK SMILES IDX 72 78 68 79 69 80 71 81 73 82 70 83 54 84 55 85 60 86 56 87
REMARK SMILES IDX 57 88 59 89 61 90 58 91
REMARK H PARENT 13 24 13 25 13 26 78 53 52 64
REMARK Flexibility Score: inf
ROOT
ATOM      1  C   UNL A   1      31.434  32.284  26.180  1.00  0.00     0.188 C 
ENDROOT
BRANCH   1   2
ATOM      2  C   UNL A   1      31.654  30.803  26.508  1.00  0.00     0.188 C 
BRANCH   2   3
ATOM      3  O   UNL A   1      32.396  30.026  25.576  1.00  0.00    -0.376 OA
BRANCH   3   4
ATOM      4  C   UNL A   1      31.640  29.072  24.826  1.00  0.00     0.202 C 
BRANCH   4   5
ATOM      5  C   UNL A   1      31.600  27.675  25.432  1.00  0.00     0.261 C 
BRANCH   5   6
ATOM      6  O   UNL A   1      31.517  26.698  24.380  1.00  0.00    -0.459 OA
BRANCH   6   7
ATOM      7  C   UNL A   1      31.422  25.416  24.797  1.00  0.00     0.368 C 
ATOM      8  O   UNL A   1      30.758  25.051  25.763  1.00  0.00    -0.245 OA
BRANCH   7   9
ATOM      9  C   UNL A   1      32.106  24.437  23.829  1.00  0.00     0.193 C 
ATOM     10  C   UNL A   1      33.329  22.330  23.949  1.00  0.00     0.054 C 
ATOM     11  C   UNL A   1      34.169  23.365  23.190  1.00  0.00     0.022 C 
ATOM     12  C   UNL A   1      32.139  23.075  24.528  1.00  0.00     0.095 C 
ATOM     13  C   UNL A   1      33.580  24.731  23.550  1.00  0.00     0.082 C 
BRANCH  10  14
ATOM     14  S   UNL A   1      34.117  21.314  25.251  1.00  0.00    -0.154 SA
BRANCH  14  15
ATOM     15  C   UNL A   1      32.814  20.080  25.659  1.00  0.00     0.105 C 
BRANCH  15  16
ATOM     16  C   UNL A   1      33.051  18.723  25.042  1.00  0.00    -0.038 A 
ATOM     17  C   UNL A   1      32.363  15.053  25.825  1.00  0.00     0.044 C 
ATOM     18  C   UNL A   1      32.849  16.297  25.150  1.00  0.00    -0.051 A 
ATOM     19  C   UNL A   1      33.680  16.182  24.036  1.00  0.00     0.003 A 
ATOM     20  C   UNL A   1      32.544  17.570  25.657  1.00  0.00     0.008 A 
ATOM     21  C   UNL A   1      34.126  17.320  23.375  1.00  0.00     0.001 A 
ATOM     22  C   UNL A   1      33.783  18.579  23.854  1.00  0.00     0.004 A 
ENDBRANCH  15  16
ENDBRANCH  14  15
ENDBRANCH  10  14
BRANCH   9  23
ATOM     23  N   UNL A   1      31.355  24.324  22.560  1.00  0.00    -0.343 N 
ATOM     24  H   UNL A   1      31.986  24.022  21.818  1.00  0.00     0.345 HD
ATOM     25  H   UNL A   1      30.956  25.232  22.319  1.00  0.00     0.345 HD
ATOM     26  H   UNL A   1      30.605  23.641  22.669  1.00  0.00     0.345 HD
ENDBRANCH   9  23
ENDBRANCH   7   9
ENDBRANCH   6   7
ENDBRANCH   5   6
ENDBRANCH   4   5
ENDBRANCH   3   4
ENDBRANCH   2   3
ENDBRANCH   1   2
BRANCH   1  27
ATOM     27  O   UNL A   1      31.756  33.191  27.230  1.00  0.00    -0.377 OA
BRANCH  27  28
ATOM     28  C   UNL A   1      33.143  33.162  27.555  1.00  0.00     0.188 C 
BRANCH  28  29
ATOM     29  C   UNL A   1      33.583  34.368  28.387  1.00  0.00     0.188 C 
BRANCH  29  30
ATOM     30  O   UNL A   1      32.690  34.822  29.391  1.00  0.00    -0.376 OA
BRANCH  30  31
ATOM     31  C   UNL A   1      32.648  36.187  29.775  1.00  0.00     0.202 C 
BRANCH  31  32
ATOM     32  C   UNL A   1      32.591  36.460  31.279  1.00  0.00     0.261 C 
BRANCH  32  33
ATOM     33  O   UNL A   1      33.919  36.673  31.791  1.00  0.00    -0.460 OA
BRANCH  33  34
ATOM     34  C   UNL A   1      34.271  35.880  32.827  1.00  0.00     0.338 C 
ATOM     35  O   UNL A   1      34.456  36.269  33.987  1.00  0.00    -0.246 OA
BRANCH  34  36
ATOM     36  C   UNL A   1      34.718  34.554  32.326  1.00  0.00     0.060 A 
ATOM     37  C   UNL A   1      34.562  33.424  33.144  1.00  0.00     0.016 A 
ATOM     38  C   UNL A   1      35.606  34.511  31.255  1.00  0.00     0.016 A 
ATOM     39  C   UNL A   1      35.442  32.340  33.017  1.00  0.00     0.010 A 
ATOM     40  C   UNL A   1      36.533  33.486  31.206  1.00  0.00     0.010 A 
ATOM     41  C   UNL A   1      36.511  32.421  32.124  1.00  0.00    -0.014 A 
BRANCH  41  42
ATOM     42  C   UNL A   1      37.759  31.629  32.235  1.00  0.00     0.031 A 
ATOM     43  C   UNL A   1      37.909  30.345  31.466  1.00  0.00     0.074 A 
ATOM     44  C   UNL A   1      38.866  32.227  32.758  1.00  0.00     0.049 A 
ATOM     45  N   UNL A   1      38.992  29.648  31.416  1.00  0.00    -0.248 NA
ATOM     46  C   UNL A   1      36.848  29.718  30.669  1.00  0.00     0.031 C 
ATOM     47  C   UNL A   1      40.259  31.918  32.442  1.00  0.00     0.029 A 
ATOM     48  N   UNL A   1      38.996  33.263  33.692  1.00  0.00    -0.354 N 
ATOM     49  C   UNL A   1      38.906  28.757  30.368  1.00  0.00     0.074 A 
ATOM     50  C   UNL A   1      37.520  28.775  29.994  1.00  0.00     0.031 C 
ATOM     51  C   UNL A   1      41.102  32.625  33.203  1.00  0.00     0.029 A 
ATOM     52  C   UNL A   1      40.299  33.214  34.239  1.00  0.00     0.049 A 
ATOM     53  H   UNL A   1      38.298  33.916  33.927  1.00  0.00     0.167 HD
ATOM     54  C   UNL A   1      40.061  28.219  29.875  1.00  0.00     0.037 A 
ATOM     55  C   UNL A   1      40.490  32.913  35.559  1.00  0.00     0.037 A 
ATOM     56  C   UNL A   1      41.174  28.491  30.783  1.00  0.00     0.049 A 
ATOM     57  C   UNL A   1      41.099  31.535  35.744  1.00  0.00     0.074 A 
ATOM     58  C   UNL A   1      42.314  29.262  30.678  1.00  0.00     0.029 A 
ATOM     59  N   UNL A   1      41.056  28.131  32.126  1.00  0.00    -0.354 N 
ATOM     60  N   UNL A   1      41.011  30.584  34.847  1.00  0.00    -0.248 NA
ATOM     61  C   UNL A   1      41.956  31.150  36.862  1.00  0.00     0.031 C 
ATOM     62  C   UNL A   1      42.731  29.557  32.001  1.00  0.00     0.029 A 
ATOM     63  C   UNL A   1      41.980  28.805  32.893  1.00  0.00     0.049 A 
ATOM     64  H   UNL A   1      40.401  27.484  32.476  1.00  0.00     0.167 HD
ATOM     65  C   UNL A   1      41.851  29.555  35.172  1.00  0.00     0.074 A 
ATOM     66  C   UNL A   1      42.377  29.931  36.474  1.00  0.00     0.031 C 
ATOM     67  C   UNL A   1      42.133  28.521  34.319  1.00  0.00     0.037 A 
BRANCH  54  68
ATOM     68  C   UNL A   1      40.270  27.616  28.496  1.00  0.00     0.057 A 
ATOM     69  C   UNL A   1      39.880  26.284  28.231  1.00  0.00     0.134 A 
ATOM     70  C   UNL A   1      40.969  28.228  27.437  1.00  0.00     0.134 A 
ATOM     71  F   UNL A   1      39.218  25.556  29.143  1.00  0.00    -0.206 F 
ATOM     72  C   UNL A   1      40.164  25.622  27.025  1.00  0.00     0.040 A 
ATOM     73  C   UNL A   1      41.218  27.593  26.208  1.00  0.00     0.040 A 
ATOM     74  F   UNL A   1      41.498  29.451  27.548  1.00  0.00    -0.206 F 
ATOM     75  C   UNL A   1      40.827  26.279  26.002  1.00  0.00     0.006 A 
ENDBRANCH  54  68
BRANCH  55  76
ATOM     76  C   UNL A   1      39.557  33.699  36.412  1.00  0.00     0.057 A 
ATOM     77  C   UNL A   1      38.580  32.920  37.070  1.00  0.00     0.134 A 
ATOM     78  C   UNL A   1      39.996  34.852  37.072  1.00  0.00     0.134 A 
ATOM     79  F   UNL A   1      38.085  31.823  36.472  1.00  0.00    -0.206 F 
ATOM     80  C   UNL A   1      38.264  33.122  38.415  1.00  0.00     0.040 A 
ATOM     81  C   UNL A   1      39.655  35.081  38.413  1.00  0.00     0.040 A 
ATOM     82  F   UNL A   1      40.903  35.659  36.504  1.00  0.00    -0.206 F 
ATOM     83  C   UNL A   1      38.851  34.176  39.108  1.00  0.00     0.006 A 
ENDBRANCH  55  76
BRANCH  67  84
ATOM     84  C   UNL A   1      42.753  27.190  34.702  1.00  0.00     0.057 A 
ATOM     85  C   UNL A   1      42.279  26.373  35.735  1.00  0.00     0.134 A 
ATOM     86  C   UNL A   1      43.771  26.604  33.906  1.00  0.00     0.134 A 
ATOM     87  F   UNL A   1      41.251  26.741  36.509  1.00  0.00    -0.206 F 
ATOM     88  C   UNL A   1      42.809  25.100  35.991  1.00  0.00     0.040 A 
ATOM     89  C   UNL A   1      44.262  25.313  34.114  1.00  0.00     0.040 A 
ATOM     90  F   UNL A   1      44.330  27.246  32.870  1.00  0.00    -0.206 F 
ATOM     91  C   UNL A   1      43.791  24.559  35.171  1.00  0.00     0.006 A 
ENDBRANCH  67  84
ENDBRANCH  41  42
ENDBRANCH  34  36
ENDBRANCH  33  34
ENDBRANCH  32  33
ENDBRANCH  31  32
ENDBRANCH  30  31
ENDBRANCH  29  30
ENDBRANCH  28  29
ENDBRANCH  27  28
ENDBRANCH   1  27
TORSDOF 24
ENDMDL
MODEL 3
REMARK VINA RESULT:      -9.3      1.679      2.666
REMARK SMILES Cc1cccc(CS[C@@H]2CC[C@]([NH3+])(C(=O)OCCOCCOCCOCCOC(=O)c3ccc(-c4c5nc(c(-c6c(F)cccc6F)c6ccc([nH]6)c(-c6c(F)cccc6F)c6nc(c(-c7c(F)cccc7F)c7ccc4[nH]7)C=C6)C=C5)cc3)C2)c1
REMARK SMILES IDX 21 1 20 2 19 3 18 4 17 5 16 6 14 7 15 8 12 9 9 10 10 11
REMARK SMILES IDX 85 12 11 13 8 14 7 15 6 16 1 17 2 18 3 19 86 20 4 21 5 22
REMARK SMILES IDX 13 23 22 27 23 28 24 29 25 30 26 31 27 32 28 33 29 34 30 35
REMARK SMILES IDX 31 36 32 37 84 38 33 39 83 40 34 41 35 42 36 43 77 44 37 45
REMARK SMILES IDX 82 46 76 47 78 48 38 49 81 50 75 51 74 52 39 54 65 55 48 56
REMARK SMILES IDX 64 57 49 58 52 59 63 60 79 61 50 62 51 63 62 65 80 66 53 67
REMARK SMILES IDX 40 68 41 69 46 70 42 71 43 72 45 73 47 74 44 75 66 76 67 77
REMARK SMILES IDX 72 78 68 79 69 80 71 81 73 82 70 83 54 84 55 85 60 86 56 87
REMARK SMILES IDX 57 88 59 89 61 90 58 91
REMARK H PARENT 13 24 13 25 13 26 78 53 52 64
REMARK Flexibility Score: inf
ROOT
ATOM      1  C   UNL A   1      32.596  30.796  26.210  1.00  0.00     0.188 C 
ENDROOT
BRANCH   1   2
ATOM      2  C   UNL A   1      31.847  29.464  26.324  1.00  0.00     0.188 C 
BRANCH   2   3
ATOM      3  O   UNL A   1      31.774  28.858  27.608  1.00  0.00    -0.376 OA
BRANCH   3   4
ATOM      4  C   UNL A   1      31.998  27.446  27.639  1.00  0.00     0.202 C 
BRANCH   4   5
ATOM      5  C   UNL A   1      31.508  26.698  26.405  1.00  0.00     0.261 C 
BRANCH   5   6
ATOM      6  O   UNL A   1      32.359  25.564  26.164  1.00  0.00    -0.459 OA
BRANCH   6   7
ATOM      7  C   UNL A   1      31.857  24.376  26.571  1.00  0.00     0.368 C 
ATOM      8  O   UNL A   1      31.591  24.102  27.737  1.00  0.00    -0.245 OA
BRANCH   7   9
ATOM      9  C   UNL A   1      31.499  23.460  25.389  1.00  0.00     0.193 C 
ATOM     10  C   UNL A   1      32.185  23.144  23.070  1.00  0.00     0.054 C 
ATOM     11  C   UNL A   1      30.665  23.337  23.131  1.00  0.00     0.022 C 
ATOM     12  C   UNL A   1      32.718  23.439  24.462  1.00  0.00     0.095 C 
ATOM     13  C   UNL A   1      30.375  23.975  24.490  1.00  0.00     0.082 C 
BRANCH  10  14
ATOM     14  S   UNL A   1      33.159  24.069  21.826  1.00  0.00    -0.154 SA
BRANCH  14  15
ATOM     15  C   UNL A   1      34.040  25.325  22.842  1.00  0.00     0.105 C 
BRANCH  15  16
ATOM     16  C   UNL A   1      33.340  26.662  22.893  1.00  0.00    -0.038 A 
ATOM     17  C   UNL A   1      29.798  28.058  22.655  1.00  0.00     0.044 C 
ATOM     18  C   UNL A   1      31.287  27.968  22.773  1.00  0.00    -0.051 A 
ATOM     19  C   UNL A   1      32.040  29.142  22.751  1.00  0.00     0.003 A 
ATOM     20  C   UNL A   1      31.941  26.728  22.835  1.00  0.00     0.008 A 
ATOM     21  C   UNL A   1      33.421  29.090  22.883  1.00  0.00     0.001 A 
ATOM     22  C   UNL A   1      34.062  27.861  22.990  1.00  0.00     0.004 A 
ENDBRANCH  15  16
ENDBRANCH  14  15
ENDBRANCH  10  14
BRANCH   9  23
ATOM     23  N   UNL A   1      31.202  22.085  25.847  1.00  0.00    -0.343 N 
ATOM     24  H   UNL A   1      30.447  21.695  25.283  1.00  0.00     0.345 HD
ATOM     25  H   UNL A   1      30.918  22.108  26.827  1.00  0.00     0.345 HD
ATOM     26  H   UNL A   1      32.036  21.507  25.747  1.00  0.00     0.345 HD
ENDBRANCH   9  23
ENDBRANCH   7   9
ENDBRANCH   6   7
ENDBRANCH   5   6
ENDBRANCH   4   5
ENDBRANCH   3   4
ENDBRANCH   2   3
ENDBRANCH   1   2
BRANCH   1  27
ATOM     27  O   UNL A   1      32.286  31.755  27.216  1.00  0.00    -0.377 OA
BRANCH  27  28
ATOM     28  C   UNL A   1      33.450  32.204  27.903  1.00  0.00     0.188 C 
BRANCH  28  29
ATOM     29  C   UNL A   1      33.573  33.729  27.928  1.00  0.00     0.188 C 
BRANCH  29  30
ATOM     30  O   UNL A   1      32.587  34.446  28.651  1.00  0.00    -0.376 OA
BRANCH  30  31
ATOM     31  C   UNL A   1      32.762  35.817  28.973  1.00  0.00     0.202 C 
BRANCH  31  32
ATOM     32  C   UNL A   1      32.814  36.156  30.464  1.00  0.00     0.261 C 
BRANCH  32  33
ATOM     33  O   UNL A   1      34.138  35.921  30.976  1.00  0.00    -0.460 OA
BRANCH  33  34
ATOM     34  C   UNL A   1      34.232  34.939  31.901  1.00  0.00     0.338 C 
ATOM     35  O   UNL A   1      34.058  35.092  33.117  1.00  0.00    -0.246 OA
BRANCH  34  36
ATOM     36  C   UNL A   1      34.883  33.741  31.310  1.00  0.00     0.060 A 
ATOM     37  C   UNL A   1      34.706  32.492  31.925  1.00  0.00     0.016 A 
ATOM     38  C   UNL A   1      35.935  33.926  30.417  1.00  0.00     0.016 A 
ATOM     39  C   UNL A   1      35.697  31.506  31.808  1.00  0.00     0.010 A 
ATOM     40  C   UNL A   1      36.953  32.990  30.393  1.00  0.00     0.010 A 
ATOM     41  C   UNL A   1      36.885  31.800  31.138  1.00  0.00    -0.014 A 
BRANCH  41  42
ATOM     42  C   UNL A   1      38.169  31.094  31.358  1.00  0.00     0.031 A 
ATOM     43  C   UNL A   1      38.507  29.871  30.549  1.00  0.00     0.074 A 
ATOM     44  C   UNL A   1      39.158  31.736  32.041  1.00  0.00     0.049 A 
ATOM     45  N   UNL A   1      39.639  29.258  30.595  1.00  0.00    -0.248 NA
ATOM     46  C   UNL A   1      37.598  29.220  29.599  1.00  0.00     0.031 C 
ATOM     47  C   UNL A   1      40.598  31.546  31.880  1.00  0.00     0.029 A 
ATOM     48  N   UNL A   1      39.097  32.721  33.035  1.00  0.00    -0.354 N 
ATOM     49  C   UNL A   1      39.745  28.426  29.500  1.00  0.00     0.074 A 
ATOM     50  C   UNL A   1      38.415  28.369  28.963  1.00  0.00     0.031 C 
ATOM     51  C   UNL A   1      41.289  32.265  32.772  1.00  0.00     0.029 A 
ATOM     52  C   UNL A   1      40.328  32.732  33.732  1.00  0.00     0.049 A 
ATOM     53  H   UNL A   1      38.328  33.308  33.217  1.00  0.00     0.167 HD
ATOM     54  C   UNL A   1      40.987  28.002  29.124  1.00  0.00     0.037 A 
ATOM     55  C   UNL A   1      40.386  32.368  35.048  1.00  0.00     0.037 A 
ATOM     56  C   UNL A   1      41.962  28.298  30.172  1.00  0.00     0.049 A 
ATOM     57  C   UNL A   1      41.075  31.028  35.236  1.00  0.00     0.074 A 
ATOM     58  C   UNL A   1      43.044  29.153  30.244  1.00  0.00     0.029 A 
ATOM     59  N   UNL A   1      41.717  27.851  31.471  1.00  0.00    -0.354 N 
ATOM     60  N   UNL A   1      41.165  30.128  34.287  1.00  0.00    -0.248 NA
ATOM     61  C   UNL A   1      41.823  30.639  36.428  1.00  0.00     0.031 C 
ATOM     62  C   UNL A   1      43.280  29.397  31.621  1.00  0.00     0.029 A 
ATOM     63  C   UNL A   1      42.491  28.542  32.377  1.00  0.00     0.049 A 
ATOM     64  H   UNL A   1      41.079  27.140  31.706  1.00  0.00     0.167 HD
ATOM     65  C   UNL A   1      42.040  29.144  34.659  1.00  0.00     0.074 A 
ATOM     66  C   UNL A   1      42.380  29.478  36.032  1.00  0.00     0.031 C 
ATOM     67  C   UNL A   1      42.499  28.185  33.794  1.00  0.00     0.037 A 
BRANCH  54  68
ATOM     68  C   UNL A   1      41.403  27.499  27.751  1.00  0.00     0.057 A 
ATOM     69  C   UNL A   1      41.443  26.113  27.480  1.00  0.00     0.134 A 
ATOM     70  C   UNL A   1      41.905  28.300  26.707  1.00  0.00     0.134 A 
ATOM     71  F   UNL A   1      41.014  25.213  28.377  1.00  0.00    -0.206 F 
ATOM     72  C   UNL A   1      41.943  25.575  26.282  1.00  0.00     0.040 A 
ATOM     73  C   UNL A   1      42.365  27.777  25.486  1.00  0.00     0.040 A 
ATOM     74  F   UNL A   1      42.033  29.626  26.828  1.00  0.00    -0.206 F 
ATOM     75  C   UNL A   1      42.397  26.408  25.273  1.00  0.00     0.006 A 
ENDBRANCH  54  68
BRANCH  55  76
ATOM     76  C   UNL A   1      39.303  33.033  35.822  1.00  0.00     0.057 A 
ATOM     77  C   UNL A   1      38.323  32.148  36.324  1.00  0.00     0.134 A 
ATOM     78  C   UNL A   1      39.569  34.177  36.581  1.00  0.00     0.134 A 
ATOM     79  F   UNL A   1      37.990  31.052  35.622  1.00  0.00    -0.206 F 
ATOM     80  C   UNL A   1      37.842  32.251  37.630  1.00  0.00     0.040 A 
ATOM     81  C   UNL A   1      39.061  34.307  37.882  1.00  0.00     0.040 A 
ATOM     82  F   UNL A   1      40.466  35.080  36.161  1.00  0.00    -0.206 F 
ATOM     83  C   UNL A   1      38.259  33.306  38.435  1.00  0.00     0.006 A 
ENDBRANCH  55  76
BRANCH  67  84
ATOM     84  C   UNL A   1      43.171  26.881  34.181  1.00  0.00     0.057 A 
ATOM     85  C   UNL A   1      44.542  26.634  34.044  1.00  0.00     0.134 A 
ATOM     86  C   UNL A   1      42.456  25.871  34.876  1.00  0.00     0.134 A 
ATOM     87  F   UNL A   1      45.369  27.537  33.503  1.00  0.00    -0.206 F 
ATOM     88  C   UNL A   1      45.146  25.459  34.512  1.00  0.00     0.040 A 
ATOM     89  C   UNL A   1      43.059  24.725  35.400  1.00  0.00     0.040 A 
ATOM     90  F   UNL A   1      41.138  25.952  35.103  1.00  0.00    -0.206 F 
ATOM     91  C   UNL A   1      44.409  24.508  35.206  1.00  0.00     0.006 A 
ENDBRANCH  67  84
ENDBRANCH  41  42
ENDBRANCH  34  36
ENDBRANCH  33  34
ENDBRANCH  32  33
ENDBRANCH  31  32
ENDBRANCH  30  31
ENDBRANCH  29  30
ENDBRANCH  28  29
ENDBRANCH  27  28
ENDBRANCH   1  27
TORSDOF 24
ENDMDL
