MODEL 1
REMARK VINA RESULT:     -10.4      0.000      0.000
REMARK SMILES O=C(C[C@@H](C[NH+]1CCCCC1)C(=O)OCCOCCOCCOCCOC(=O)c1ccc(-c2c3nc(c(-c4c(F)cccc4F)c4ccc([nH]4)c(-c4c(F)cccc4F)c4nc(c(-c5c(F)cccc5F)c5ccc2[nH]5)C=C4)C=C3)cc1)Nc1ccccc1O
REMARK SMILES IDX 19 1 18 2 17 3 16 4 15 5 14 6 12 7 13 8 4 9 3 10 2 11 1 12
REMARK SMILES IDX 83 13 84 15 85 16 89 17 86 18 88 19 87 20 90 21 5 23 6 24
REMARK SMILES IDX 7 25 11 26 8 28 10 29 9 30 20 31 21 32 22 33 23 34 24 35
REMARK SMILES IDX 25 36 26 37 27 38 28 39 29 40 30 41 82 42 31 43 81 44 32 45
REMARK SMILES IDX 33 46 34 47 75 48 35 49 80 50 74 51 76 52 36 53 79 54 73 55
REMARK SMILES IDX 72 56 37 58 63 59 46 60 62 61 47 62 50 63 61 64 77 65 48 66
REMARK SMILES IDX 49 67 60 69 78 70 51 71 38 72 39 73 44 74 40 75 41 76 43 77
REMARK SMILES IDX 45 78 42 79 64 80 65 81 70 82 66 83 67 84 69 85 71 86 68 87
REMARK SMILES IDX 52 88 53 89 58 90 54 91 55 92 57 93 59 94 56 95
REMARK H PARENT 83 14 90 22 6 27 76 57 50 68
REMARK Flexibility Score: inf
ROOT
ATOM      1  C   UNL A   1      37.308  23.166  25.950  1.00  0.00     0.188 C 
ENDROOT
BRANCH   1   2
ATOM      2  C   UNL A   1      35.838  22.805  26.211  1.00  0.00     0.188 C 
BRANCH   2   3
ATOM      3  O   UNL A   1      34.819  23.433  25.450  1.00  0.00    -0.376 OA
BRANCH   3   4
ATOM      4  C   UNL A   1      34.952  24.806  25.108  1.00  0.00     0.202 C 
BRANCH   4   5
ATOM      5  C   UNL A   1      34.282  25.363  23.842  1.00  0.00     0.261 C 
BRANCH   5   6
ATOM      6  O   UNL A   1      33.587  24.408  23.008  1.00  0.00    -0.463 OA
BRANCH   6   7
ATOM      7  C   UNL A   1      32.355  24.731  22.546  1.00  0.00     0.315 C 
ATOM      8  O   UNL A   1      32.151  25.511  21.622  1.00  0.00    -0.252 OA
BRANCH   7   9
ATOM      9  C   UNL A   1      31.208  24.142  23.380  1.00  0.00     0.163 C 
BRANCH   9  10
ATOM     10  C   UNL A   1      31.563  22.924  24.234  1.00  0.00     0.121 C 
BRANCH  10  11
ATOM     11  C   UNL A   1      32.014  21.607  23.615  1.00  0.00     0.225 C 
ATOM     12  O   UNL A   1      32.010  21.502  22.387  1.00  0.00    -0.275 OA
ATOM     13  N   UNL A   1      32.439  20.621  24.458  1.00  0.00    -0.323 N 
ATOM     14  H   UNL A   1      32.273  20.774  25.416  1.00  0.00     0.170 HD
BRANCH  13  15
ATOM     15  C   UNL A   1      33.090  19.401  24.134  1.00  0.00     0.083 A 
ATOM     16  C   UNL A   1      32.334  18.523  23.340  1.00  0.00     0.030 A 
ATOM     17  C   UNL A   1      34.360  18.976  24.555  1.00  0.00     0.139 A 
ATOM     18  C   UNL A   1      32.834  17.276  22.955  1.00  0.00     0.002 A 
ATOM     19  C   UNL A   1      34.850  17.719  24.186  1.00  0.00     0.048 A 
ATOM     20  C   UNL A   1      34.094  16.873  23.380  1.00  0.00     0.004 A 
BRANCH  17  21
ATOM     21  O   UNL A   1      35.202  19.679  25.367  1.00  0.00    -0.506 OA
ATOM     22  H   UNL A   1      35.968  20.085  25.009  1.00  0.00     0.293 HD
ENDBRANCH  17  21
ENDBRANCH  13  15
ENDBRANCH  10  11
ENDBRANCH   9  10
BRANCH   9  23
ATOM     23  C   UNL A   1      30.453  25.320  24.039  1.00  0.00     0.278 C 
BRANCH  23  24
ATOM     24  N   UNL A   1      31.151  26.468  24.630  1.00  0.00    -0.334 N 
ATOM     25  C   UNL A   1      30.587  27.770  24.279  1.00  0.00     0.262 C 
ATOM     26  C   UNL A   1      31.472  26.322  26.052  1.00  0.00     0.262 C 
ATOM     27  H   UNL A   1      32.060  26.456  24.167  1.00  0.00     0.348 HD
ATOM     28  C   UNL A   1      31.462  28.916  24.783  1.00  0.00     0.062 C 
ATOM     29  C   UNL A   1      32.298  27.471  26.620  1.00  0.00     0.062 C 
ATOM     30  C   UNL A   1      31.664  28.813  26.288  1.00  0.00     0.012 C 
ENDBRANCH  23  24
ENDBRANCH   9  23
ENDBRANCH   7   9
ENDBRANCH   6   7
ENDBRANCH   5   6
ENDBRANCH   4   5
ENDBRANCH   3   4
ENDBRANCH   2   3
ENDBRANCH   1   2
BRANCH   1  31
ATOM     31  O   UNL A   1      38.145  22.108  25.524  1.00  0.00    -0.377 OA
BRANCH  31  32
ATOM     32  C   UNL A   1      39.376  21.934  26.219  1.00  0.00     0.188 C 
BRANCH  32  33
ATOM     33  C   UNL A   1      40.084  20.570  26.110  1.00  0.00     0.188 C 
BRANCH  33  34
ATOM     34  O   UNL A   1      41.332  20.511  26.783  1.00  0.00    -0.376 OA
BRANCH  34  35
ATOM     35  C   UNL A   1      42.516  20.238  26.049  1.00  0.00     0.202 C 
BRANCH  35  36
ATOM     36  C   UNL A   1      43.431  21.406  25.641  1.00  0.00     0.261 C 
BRANCH  36  37
ATOM     37  O   UNL A   1      42.789  22.642  25.286  1.00  0.00    -0.460 OA
BRANCH  37  38
ATOM     38  C   UNL A   1      43.538  23.756  25.175  1.00  0.00     0.338 C 
ATOM     39  O   UNL A   1      44.412  23.986  24.356  1.00  0.00    -0.246 OA
BRANCH  38  40
ATOM     40  C   UNL A   1      42.977  24.751  26.109  1.00  0.00     0.060 A 
ATOM     41  C   UNL A   1      43.476  26.061  26.098  1.00  0.00     0.016 A 
ATOM     42  C   UNL A   1      41.951  24.392  26.985  1.00  0.00     0.016 A 
ATOM     43  C   UNL A   1      42.958  27.013  26.976  1.00  0.00     0.010 A 
ATOM     44  C   UNL A   1      41.454  25.339  27.883  1.00  0.00     0.010 A 
ATOM     45  C   UNL A   1      41.970  26.647  27.898  1.00  0.00    -0.014 A 
BRANCH  45  46
ATOM     46  C   UNL A   1      41.584  27.579  28.983  1.00  0.00     0.031 A 
ATOM     47  C   UNL A   1      42.347  27.528  30.277  1.00  0.00     0.074 A 
ATOM     48  C   UNL A   1      40.573  28.450  28.823  1.00  0.00     0.049 A 
ATOM     49  N   UNL A   1      42.128  28.169  31.396  1.00  0.00    -0.248 NA
ATOM     50  C   UNL A   1      43.511  26.630  30.313  1.00  0.00     0.031 C 
ATOM     51  C   UNL A   1      39.794  28.628  27.599  1.00  0.00     0.029 A 
ATOM     52  N   UNL A   1      40.019  29.340  29.709  1.00  0.00    -0.354 N 
ATOM     53  C   UNL A   1      43.121  27.745  32.270  1.00  0.00     0.074 A 
ATOM     54  C   UNL A   1      43.925  26.774  31.563  1.00  0.00     0.031 C 
ATOM     55  C   UNL A   1      38.847  29.556  27.819  1.00  0.00     0.029 A 
ATOM     56  C   UNL A   1      38.926  30.004  29.209  1.00  0.00     0.049 A 
ATOM     57  H   UNL A   1      40.371  29.488  30.616  1.00  0.00     0.167 HD
ATOM     58  C   UNL A   1      43.341  28.133  33.548  1.00  0.00     0.037 A 
ATOM     59  C   UNL A   1      38.068  30.847  29.816  1.00  0.00     0.037 A 
ATOM     60  C   UNL A   1      42.531  29.095  34.250  1.00  0.00     0.049 A 
ATOM     61  C   UNL A   1      38.276  31.189  31.271  1.00  0.00     0.074 A 
ATOM     62  C   UNL A   1      42.682  29.570  35.541  1.00  0.00     0.029 A 
ATOM     63  N   UNL A   1      41.410  29.717  33.722  1.00  0.00    -0.354 N 
ATOM     64  N   UNL A   1      39.230  30.805  32.084  1.00  0.00    -0.248 NA
ATOM     65  C   UNL A   1      37.283  32.077  31.893  1.00  0.00     0.031 C 
ATOM     66  C   UNL A   1      41.615  30.432  35.815  1.00  0.00     0.029 A 
ATOM     67  C   UNL A   1      40.836  30.543  34.674  1.00  0.00     0.049 A 
ATOM     68  H   UNL A   1      41.071  29.590  32.806  1.00  0.00     0.167 HD
ATOM     69  C   UNL A   1      38.967  31.423  33.302  1.00  0.00     0.074 A 
ATOM     70  C   UNL A   1      37.775  32.222  33.115  1.00  0.00     0.031 C 
ATOM     71  C   UNL A   1      39.649  31.335  34.471  1.00  0.00     0.037 A 
BRANCH  58  72
ATOM     72  C   UNL A   1      44.483  27.494  34.283  1.00  0.00     0.057 A 
ATOM     73  C   UNL A   1      44.337  26.287  34.979  1.00  0.00     0.134 A 
ATOM     74  C   UNL A   1      45.757  28.077  34.262  1.00  0.00     0.134 A 
ATOM     75  F   UNL A   1      43.141  25.684  35.050  1.00  0.00    -0.206 F 
ATOM     76  C   UNL A   1      45.412  25.694  35.645  1.00  0.00     0.040 A 
ATOM     77  C   UNL A   1      46.845  27.480  34.900  1.00  0.00     0.040 A 
ATOM     78  F   UNL A   1      45.968  29.232  33.612  1.00  0.00    -0.206 F 
ATOM     79  C   UNL A   1      46.672  26.287  35.599  1.00  0.00     0.006 A 
ENDBRANCH  58  72
BRANCH  59  80
ATOM     80  C   UNL A   1      36.911  31.404  29.069  1.00  0.00     0.057 A 
ATOM     81  C   UNL A   1      36.900  32.735  28.634  1.00  0.00     0.134 A 
ATOM     82  C   UNL A   1      35.774  30.631  28.802  1.00  0.00     0.134 A 
ATOM     83  F   UNL A   1      37.948  33.534  28.881  1.00  0.00    -0.206 F 
ATOM     84  C   UNL A   1      35.794  33.283  27.980  1.00  0.00     0.040 A 
ATOM     85  C   UNL A   1      34.673  31.157  28.122  1.00  0.00     0.040 A 
ATOM     86  F   UNL A   1      35.718  29.350  29.192  1.00  0.00    -0.206 F 
ATOM     87  C   UNL A   1      34.678  32.490  27.718  1.00  0.00     0.006 A 
ENDBRANCH  59  80
BRANCH  71  88
ATOM     88  C   UNL A   1      39.141  32.143  35.632  1.00  0.00     0.057 A 
ATOM     89  C   UNL A   1      38.296  31.594  36.603  1.00  0.00     0.134 A 
ATOM     90  C   UNL A   1      39.548  33.474  35.807  1.00  0.00     0.134 A 
ATOM     91  F   UNL A   1      37.861  30.330  36.489  1.00  0.00    -0.206 F 
ATOM     92  C   UNL A   1      37.853  32.344  37.695  1.00  0.00     0.040 A 
ATOM     93  C   UNL A   1      39.138  34.223  36.911  1.00  0.00     0.040 A 
ATOM     94  F   UNL A   1      40.366  34.060  34.921  1.00  0.00    -0.206 F 
ATOM     95  C   UNL A   1      38.282  33.660  37.855  1.00  0.00     0.006 A 
ENDBRANCH  71  88
ENDBRANCH  45  46
ENDBRANCH  38  40
ENDBRANCH  37  38
ENDBRANCH  36  37
ENDBRANCH  35  36
ENDBRANCH  34  35
ENDBRANCH  33  34
ENDBRANCH  32  33
ENDBRANCH  31  32
ENDBRANCH   1  31
TORSDOF 26
ENDMDL
MODEL 2
REMARK VINA RESULT:      -9.6      4.355      6.482
REMARK SMILES O=C(C[C@@H](C[NH+]1CCCCC1)C(=O)OCCOCCOCCOCCOC(=O)c1ccc(-c2c3nc(c(-c4c(F)cccc4F)c4ccc([nH]4)c(-c4c(F)cccc4F)c4nc(c(-c5c(F)cccc5F)c5ccc2[nH]5)C=C4)C=C3)cc1)Nc1ccccc1O
REMARK SMILES IDX 19 1 18 2 17 3 16 4 15 5 14 6 12 7 13 8 4 9 3 10 2 11 1 12
REMARK SMILES IDX 83 13 84 15 85 16 89 17 86 18 88 19 87 20 90 21 5 23 6 24
REMARK SMILES IDX 7 25 11 26 8 28 10 29 9 30 20 31 21 32 22 33 23 34 24 35
REMARK SMILES IDX 25 36 26 37 27 38 28 39 29 40 30 41 82 42 31 43 81 44 32 45
REMARK SMILES IDX 33 46 34 47 75 48 35 49 80 50 74 51 76 52 36 53 79 54 73 55
REMARK SMILES IDX 72 56 37 58 63 59 46 60 62 61 47 62 50 63 61 64 77 65 48 66
REMARK SMILES IDX 49 67 60 69 78 70 51 71 38 72 39 73 44 74 40 75 41 76 43 77
REMARK SMILES IDX 45 78 42 79 64 80 65 81 70 82 66 83 67 84 69 85 71 86 68 87
REMARK SMILES IDX 52 88 53 89 58 90 54 91 55 92 57 93 59 94 56 95
REMARK H PARENT 83 14 90 22 6 27 76 57 50 68
REMARK Flexibility Score: inf
ROOT
ATOM      1  C   UNL A   1      39.279  22.790  26.811  1.00  0.00     0.188 C 
ENDROOT
BRANCH   1   2
ATOM      2  C   UNL A   1      38.356  23.792  26.102  1.00  0.00     0.188 C 
BRANCH   2   3
ATOM      3  O   UNL A   1      37.221  23.318  25.398  1.00  0.00    -0.376 OA
BRANCH   3   4
ATOM      4  C   UNL A   1      35.922  23.683  25.844  1.00  0.00     0.202 C 
BRANCH   4   5
ATOM      5  C   UNL A   1      35.002  24.537  24.957  1.00  0.00     0.261 C 
BRANCH   5   6
ATOM      6  O   UNL A   1      34.314  23.845  23.890  1.00  0.00    -0.463 OA
BRANCH   6   7
ATOM      7  C   UNL A   1      33.572  24.574  23.021  1.00  0.00     0.315 C 
ATOM      8  O   UNL A   1      34.010  25.510  22.362  1.00  0.00    -0.252 OA
BRANCH   7   9
ATOM      9  C   UNL A   1      32.078  24.218  23.036  1.00  0.00     0.163 C 
BRANCH   9  10
ATOM     10  C   UNL A   1      31.703  22.945  23.795  1.00  0.00     0.121 C 
BRANCH  10  11
ATOM     11  C   UNL A   1      32.181  21.568  23.350  1.00  0.00     0.225 C 
ATOM     12  O   UNL A   1      32.236  21.326  22.143  1.00  0.00    -0.275 OA
ATOM     13  N   UNL A   1      32.562  20.684  24.318  1.00  0.00    -0.323 N 
ATOM     14  H   UNL A   1      32.350  20.943  25.243  1.00  0.00     0.170 HD
BRANCH  13  15
ATOM     15  C   UNL A   1      33.225  19.438  24.164  1.00  0.00     0.083 A 
ATOM     16  C   UNL A   1      32.466  18.440  23.530  1.00  0.00     0.030 A 
ATOM     17  C   UNL A   1      34.511  19.096  24.613  1.00  0.00     0.139 A 
ATOM     18  C   UNL A   1      32.977  17.156  23.324  1.00  0.00     0.002 A 
ATOM     19  C   UNL A   1      35.013  17.805  24.425  1.00  0.00     0.048 A 
ATOM     20  C   UNL A   1      34.253  16.838  23.773  1.00  0.00     0.004 A 
BRANCH  17  21
ATOM     21  O   UNL A   1      35.360  19.924  25.290  1.00  0.00    -0.506 OA
ATOM     22  H   UNL A   1      35.039  20.446  26.000  1.00  0.00     0.293 HD
ENDBRANCH  17  21
ENDBRANCH  13  15
ENDBRANCH  10  11
ENDBRANCH   9  10
BRANCH   9  23
ATOM     23  C   UNL A   1      31.289  25.517  23.323  1.00  0.00     0.278 C 
BRANCH  23  24
ATOM     24  N   UNL A   1      31.766  26.533  24.268  1.00  0.00    -0.334 N 
ATOM     25  C   UNL A   1      31.362  27.901  23.946  1.00  0.00     0.262 C 
ATOM     26  C   UNL A   1      31.600  26.181  25.679  1.00  0.00     0.262 C 
ATOM     27  H   UNL A   1      32.776  26.531  24.127  1.00  0.00     0.348 HD
ATOM     28  C   UNL A   1      32.036  28.917  24.866  1.00  0.00     0.062 C 
ATOM     29  C   UNL A   1      32.207  27.194  26.645  1.00  0.00     0.062 C 
ATOM     30  C   UNL A   1      31.731  28.603  26.323  1.00  0.00     0.012 C 
ENDBRANCH  23  24
ENDBRANCH   9  23
ENDBRANCH   7   9
ENDBRANCH   6   7
ENDBRANCH   5   6
ENDBRANCH   4   5
ENDBRANCH   3   4
ENDBRANCH   2   3
ENDBRANCH   1   2
BRANCH   1  31
ATOM     31  O   UNL A   1      40.376  22.309  26.057  1.00  0.00    -0.377 OA
BRANCH  31  32
ATOM     32  C   UNL A   1      41.350  21.533  26.749  1.00  0.00     0.188 C 
BRANCH  32  33
ATOM     33  C   UNL A   1      41.239  19.998  26.676  1.00  0.00     0.188 C 
BRANCH  33  34
ATOM     34  O   UNL A   1      41.779  19.434  25.492  1.00  0.00    -0.376 OA
BRANCH  34  35
ATOM     35  C   UNL A   1      42.715  18.370  25.582  1.00  0.00     0.202 C 
BRANCH  35  36
ATOM     36  C   UNL A   1      44.171  18.683  25.967  1.00  0.00     0.261 C 
BRANCH  36  37
ATOM     37  O   UNL A   1      45.138  18.689  24.904  1.00  0.00    -0.460 OA
BRANCH  37  38
ATOM     38  C   UNL A   1      44.967  19.538  23.872  1.00  0.00     0.338 C 
ATOM     39  O   UNL A   1      44.732  19.258  22.709  1.00  0.00    -0.246 OA
BRANCH  38  40
ATOM     40  C   UNL A   1      44.917  20.901  24.437  1.00  0.00     0.060 A 
ATOM     41  C   UNL A   1      44.241  21.910  23.736  1.00  0.00     0.016 A 
ATOM     42  C   UNL A   1      45.526  21.177  25.662  1.00  0.00     0.016 A 
ATOM     43  C   UNL A   1      44.186  23.204  24.254  1.00  0.00     0.010 A 
ATOM     44  C   UNL A   1      45.495  22.479  26.165  1.00  0.00     0.010 A 
ATOM     45  C   UNL A   1      44.844  23.503  25.454  1.00  0.00    -0.014 A 
BRANCH  45  46
ATOM     46  C   UNL A   1      44.991  24.911  25.890  1.00  0.00     0.031 A 
ATOM     47  C   UNL A   1      46.351  25.547  25.814  1.00  0.00     0.074 A 
ATOM     48  C   UNL A   1      43.938  25.610  26.347  1.00  0.00     0.049 A 
ATOM     49  N   UNL A   1      46.741  26.723  26.230  1.00  0.00    -0.248 NA
ATOM     50  C   UNL A   1      47.412  24.744  25.187  1.00  0.00     0.031 C 
ATOM     51  C   UNL A   1      42.562  25.119  26.418  1.00  0.00     0.029 A 
ATOM     52  N   UNL A   1      43.869  26.883  26.854  1.00  0.00    -0.354 N 
ATOM     53  C   UNL A   1      48.094  26.798  25.924  1.00  0.00     0.074 A 
ATOM     54  C   UNL A   1      48.463  25.541  25.312  1.00  0.00     0.031 C 
ATOM     55  C   UNL A   1      41.788  26.075  26.961  1.00  0.00     0.029 A 
ATOM     56  C   UNL A   1      42.620  27.225  27.312  1.00  0.00     0.049 A 
ATOM     57  H   UNL A   1      44.641  27.494  26.886  1.00  0.00     0.167 HD
ATOM     58  C   UNL A   1      48.951  27.826  26.133  1.00  0.00     0.037 A 
ATOM     59  C   UNL A   1      42.209  28.324  27.974  1.00  0.00     0.037 A 
ATOM     60  C   UNL A   1      48.580  29.072  26.751  1.00  0.00     0.049 A 
ATOM     61  C   UNL A   1      43.204  29.414  28.284  1.00  0.00     0.074 A 
ATOM     62  C   UNL A   1      49.368  30.183  26.992  1.00  0.00     0.029 A 
ATOM     63  N   UNL A   1      47.314  29.366  27.237  1.00  0.00    -0.354 N 
ATOM     64  N   UNL A   1      44.475  29.490  27.970  1.00  0.00    -0.248 NA
ATOM     65  C   UNL A   1      42.707  30.569  29.047  1.00  0.00     0.031 C 
ATOM     66  C   UNL A   1      48.597  31.124  27.681  1.00  0.00     0.029 A 
ATOM     67  C   UNL A   1      47.311  30.626  27.812  1.00  0.00     0.049 A 
ATOM     68  H   UNL A   1      46.534  28.767  27.182  1.00  0.00     0.167 HD
ATOM     69  C   UNL A   1      44.922  30.707  28.473  1.00  0.00     0.074 A 
ATOM     70  C   UNL A   1      43.781  31.345  29.096  1.00  0.00     0.031 C 
ATOM     71  C   UNL A   1      46.164  31.248  28.426  1.00  0.00     0.037 A 
BRANCH  58  72
ATOM     72  C   UNL A   1      50.382  27.633  25.723  1.00  0.00     0.057 A 
ATOM     73  C   UNL A   1      50.807  27.813  24.401  1.00  0.00     0.134 A 
ATOM     74  C   UNL A   1      51.355  27.298  26.674  1.00  0.00     0.134 A 
ATOM     75  F   UNL A   1      49.924  28.120  23.438  1.00  0.00    -0.206 F 
ATOM     76  C   UNL A   1      52.144  27.646  24.035  1.00  0.00     0.040 A 
ATOM     77  C   UNL A   1      52.698  27.157  26.327  1.00  0.00     0.040 A 
ATOM     78  F   UNL A   1      51.017  27.114  27.959  1.00  0.00    -0.206 F 
ATOM     79  C   UNL A   1      53.095  27.326  25.001  1.00  0.00     0.006 A 
ENDBRANCH  58  72
BRANCH  59  80
ATOM     80  C   UNL A   1      40.796  28.443  28.421  1.00  0.00     0.057 A 
ATOM     81  C   UNL A   1      39.805  28.949  27.572  1.00  0.00     0.134 A 
ATOM     82  C   UNL A   1      40.410  28.087  29.720  1.00  0.00     0.134 A 
ATOM     83  F   UNL A   1      40.116  29.332  26.325  1.00  0.00    -0.206 F 
ATOM     84  C   UNL A   1      38.487  29.116  28.003  1.00  0.00     0.040 A 
ATOM     85  C   UNL A   1      39.090  28.220  30.154  1.00  0.00     0.040 A 
ATOM     86  F   UNL A   1      41.310  27.597  30.585  1.00  0.00    -0.206 F 
ATOM     87  C   UNL A   1      38.126  28.746  29.296  1.00  0.00     0.006 A 
ENDBRANCH  59  80
BRANCH  71  88
ATOM     88  C   UNL A   1      46.353  32.607  29.040  1.00  0.00     0.057 A 
ATOM     89  C   UNL A   1      46.762  32.769  30.369  1.00  0.00     0.134 A 
ATOM     90  C   UNL A   1      46.174  33.767  28.273  1.00  0.00     0.134 A 
ATOM     91  F   UNL A   1      46.940  31.701  31.161  1.00  0.00    -0.206 F 
ATOM     92  C   UNL A   1      46.963  34.035  30.922  1.00  0.00     0.040 A 
ATOM     93  C   UNL A   1      46.403  35.037  28.806  1.00  0.00     0.040 A 
ATOM     94  F   UNL A   1      45.794  33.685  26.989  1.00  0.00    -0.206 F 
ATOM     95  C   UNL A   1      46.793  35.173  30.136  1.00  0.00     0.006 A 
ENDBRANCH  71  88
ENDBRANCH  45  46
ENDBRANCH  38  40
ENDBRANCH  37  38
ENDBRANCH  36  37
ENDBRANCH  35  36
ENDBRANCH  34  35
ENDBRANCH  33  34
ENDBRANCH  32  33
ENDBRANCH  31  32
ENDBRANCH   1  31
TORSDOF 26
ENDMDL
MODEL 3
REMARK VINA RESULT:      -9.2      6.708      8.807
REMARK SMILES O=C(C[C@@H](C[NH+]1CCCCC1)C(=O)OCCOCCOCCOCCOC(=O)c1ccc(-c2c3nc(c(-c4c(F)cccc4F)c4ccc([nH]4)c(-c4c(F)cccc4F)c4nc(c(-c5c(F)cccc5F)c5ccc2[nH]5)C=C4)C=C3)cc1)Nc1ccccc1O
REMARK SMILES IDX 19 1 18 2 17 3 16 4 15 5 14 6 12 7 13 8 4 9 3 10 2 11 1 12
REMARK SMILES IDX 83 13 84 15 85 16 89 17 86 18 88 19 87 20 90 21 5 23 6 24
REMARK SMILES IDX 7 25 11 26 8 28 10 29 9 30 20 31 21 32 22 33 23 34 24 35
REMARK SMILES IDX 25 36 26 37 27 38 28 39 29 40 30 41 82 42 31 43 81 44 32 45
REMARK SMILES IDX 33 46 34 47 75 48 35 49 80 50 74 51 76 52 36 53 79 54 73 55
REMARK SMILES IDX 72 56 37 58 63 59 46 60 62 61 47 62 50 63 61 64 77 65 48 66
REMARK SMILES IDX 49 67 60 69 78 70 51 71 38 72 39 73 44 74 40 75 41 76 43 77
REMARK SMILES IDX 45 78 42 79 64 80 65 81 70 82 66 83 67 84 69 85 71 86 68 87
REMARK SMILES IDX 52 88 53 89 58 90 54 91 55 92 57 93 59 94 56 95
REMARK H PARENT 83 14 90 22 6 27 76 57 50 68
REMARK Flexibility Score: inf
ROOT
ATOM      1  C   UNL A   1      39.077  22.526  26.552  1.00  0.00     0.188 C 
ENDROOT
BRANCH   1   2
ATOM      2  C   UNL A   1      38.525  23.637  25.646  1.00  0.00     0.188 C 
BRANCH   2   3
ATOM      3  O   UNL A   1      37.161  23.610  25.261  1.00  0.00    -0.376 OA
BRANCH   3   4
ATOM      4  C   UNL A   1      36.172  23.272  26.223  1.00  0.00     0.202 C 
BRANCH   4   5
ATOM      5  C   UNL A   1      34.783  23.930  26.181  1.00  0.00     0.261 C 
BRANCH   5   6
ATOM      6  O   UNL A   1      33.750  23.302  26.973  1.00  0.00    -0.463 OA
BRANCH   6   7
ATOM      7  C   UNL A   1      32.458  23.472  26.599  1.00  0.00     0.315 C 
ATOM      8  O   UNL A   1      31.500  23.319  27.350  1.00  0.00    -0.252 OA
BRANCH   7   9
ATOM      9  C   UNL A   1      32.279  23.736  25.097  1.00  0.00     0.163 C 
BRANCH   9  10
ATOM     10  C   UNL A   1      31.867  22.529  24.253  1.00  0.00     0.121 C 
BRANCH  10  11
ATOM     11  C   UNL A   1      32.741  21.285  24.140  1.00  0.00     0.225 C 
ATOM     12  O   UNL A   1      33.963  21.429  24.075  1.00  0.00    -0.275 OA
ATOM     13  N   UNL A   1      32.121  20.069  24.157  1.00  0.00    -0.323 N 
ATOM     14  H   UNL A   1      31.140  20.087  24.080  1.00  0.00     0.170 HD
BRANCH  13  15
ATOM     15  C   UNL A   1      32.707  18.781  24.271  1.00  0.00     0.083 A 
ATOM     16  C   UNL A   1      33.067  18.187  23.049  1.00  0.00     0.030 A 
ATOM     17  C   UNL A   1      32.913  18.040  25.445  1.00  0.00     0.139 A 
ATOM     18  C   UNL A   1      33.638  16.912  22.999  1.00  0.00     0.002 A 
ATOM     19  C   UNL A   1      33.465  16.756  25.392  1.00  0.00     0.048 A 
ATOM     20  C   UNL A   1      33.836  16.196  24.173  1.00  0.00     0.004 A 
BRANCH  17  21
ATOM     21  O   UNL A   1      32.576  18.443  26.706  1.00  0.00    -0.506 OA
ATOM     22  H   UNL A   1      32.580  19.354  26.923  1.00  0.00     0.293 HD
ENDBRANCH  17  21
ENDBRANCH  13  15
ENDBRANCH  10  11
ENDBRANCH   9  10
BRANCH   9  23
ATOM     23  C   UNL A   1      31.490  25.057  24.943  1.00  0.00     0.278 C 
BRANCH  23  24
ATOM     24  N   UNL A   1      31.952  26.152  24.082  1.00  0.00    -0.334 N 
ATOM     25  C   UNL A   1      31.968  27.465  24.723  1.00  0.00     0.262 C 
ATOM     26  C   UNL A   1      33.160  25.853  23.309  1.00  0.00     0.262 C 
ATOM     27  H   UNL A   1      31.218  26.225  23.378  1.00  0.00     0.348 HD
ATOM     28  C   UNL A   1      32.289  28.575  23.723  1.00  0.00     0.062 C 
ATOM     29  C   UNL A   1      33.558  26.956  22.334  1.00  0.00     0.062 C 
ATOM     30  C   UNL A   1      33.619  28.304  23.034  1.00  0.00     0.012 C 
ENDBRANCH  23  24
ENDBRANCH   9  23
ENDBRANCH   7   9
ENDBRANCH   6   7
ENDBRANCH   5   6
ENDBRANCH   4   5
ENDBRANCH   3   4
ENDBRANCH   2   3
ENDBRANCH   1   2
BRANCH   1  31
ATOM     31  O   UNL A   1      39.888  21.552  25.922  1.00  0.00    -0.377 OA
BRANCH  31  32
ATOM     32  C   UNL A   1      40.336  20.463  26.724  1.00  0.00     0.188 C 
BRANCH  32  33
ATOM     33  C   UNL A   1      41.406  19.523  26.139  1.00  0.00     0.188 C 
BRANCH  33  34
ATOM     34  O   UNL A   1      42.318  20.161  25.259  1.00  0.00    -0.376 OA
BRANCH  34  35
ATOM     35  C   UNL A   1      43.612  20.518  25.723  1.00  0.00     0.202 C 
BRANCH  35  36
ATOM     36  C   UNL A   1      43.949  22.005  25.930  1.00  0.00     0.261 C 
BRANCH  36  37
ATOM     37  O   UNL A   1      42.844  22.922  25.986  1.00  0.00    -0.460 OA
BRANCH  37  38
ATOM     38  C   UNL A   1      42.742  23.756  27.039  1.00  0.00     0.338 C 
ATOM     39  O   UNL A   1      42.085  23.595  28.054  1.00  0.00    -0.246 OA
BRANCH  38  40
ATOM     40  C   UNL A   1      43.733  24.830  26.839  1.00  0.00     0.060 A 
ATOM     41  C   UNL A   1      44.453  25.314  27.940  1.00  0.00     0.016 A 
ATOM     42  C   UNL A   1      43.960  25.349  25.562  1.00  0.00     0.016 A 
ATOM     43  C   UNL A   1      45.393  26.330  27.768  1.00  0.00     0.010 A 
ATOM     44  C   UNL A   1      44.880  26.386  25.397  1.00  0.00     0.010 A 
ATOM     45  C   UNL A   1      45.585  26.897  26.502  1.00  0.00    -0.014 A 
BRANCH  45  46
ATOM     46  C   UNL A   1      46.400  28.125  26.353  1.00  0.00     0.031 A 
ATOM     47  C   UNL A   1      47.881  27.982  26.143  1.00  0.00     0.074 A 
ATOM     48  C   UNL A   1      45.835  29.343  26.406  1.00  0.00     0.049 A 
ATOM     49  N   UNL A   1      48.805  28.905  26.087  1.00  0.00    -0.248 NA
ATOM     50  C   UNL A   1      48.386  26.610  25.977  1.00  0.00     0.031 C 
ATOM     51  C   UNL A   1      44.404  29.608  26.553  1.00  0.00     0.029 A 
ATOM     52  N   UNL A   1      46.406  30.590  26.357  1.00  0.00    -0.354 N 
ATOM     53  C   UNL A   1      50.001  28.227  25.890  1.00  0.00     0.074 A 
ATOM     54  C   UNL A   1      49.690  26.815  25.861  1.00  0.00     0.031 C 
ATOM     55  C   UNL A   1      44.213  30.937  26.604  1.00  0.00     0.029 A 
ATOM     56  C   UNL A   1      45.508  31.613  26.537  1.00  0.00     0.049 A 
ATOM     57  H   UNL A   1      47.368  30.737  26.207  1.00  0.00     0.167 HD
ATOM     58  C   UNL A   1      51.246  28.738  25.743  1.00  0.00     0.037 A 
ATOM     59  C   UNL A   1      45.715  32.937  26.670  1.00  0.00     0.037 A 
ATOM     60  C   UNL A   1      51.550  30.145  25.781  1.00  0.00     0.049 A 
ATOM     61  C   UNL A   1      47.123  33.474  26.603  1.00  0.00     0.074 A 
ATOM     62  C   UNL A   1      52.777  30.766  25.624  1.00  0.00     0.029 A 
ATOM     63  N   UNL A   1      50.618  31.147  26.003  1.00  0.00    -0.354 N 
ATOM     64  N   UNL A   1      48.246  32.831  26.390  1.00  0.00    -0.248 NA
ATOM     65  C   UNL A   1      47.292  34.922  26.799  1.00  0.00     0.031 C 
ATOM     66  C   UNL A   1      52.597  32.139  25.816  1.00  0.00     0.029 A 
ATOM     67  C   UNL A   1      51.249  32.380  26.027  1.00  0.00     0.049 A 
ATOM     68  H   UNL A   1      49.652  31.004  26.127  1.00  0.00     0.167 HD
ATOM     69  C   UNL A   1      49.248  33.796  26.402  1.00  0.00     0.074 A 
ATOM     70  C   UNL A   1      48.597  35.070  26.624  1.00  0.00     0.031 C 
ATOM     71  C   UNL A   1      50.586  33.641  26.247  1.00  0.00     0.037 A 
BRANCH  58  72
ATOM     72  C   UNL A   1      52.379  27.770  25.562  1.00  0.00     0.057 A 
ATOM     73  C   UNL A   1      53.104  27.262  26.648  1.00  0.00     0.134 A 
ATOM     74  C   UNL A   1      52.724  27.311  24.284  1.00  0.00     0.134 A 
ATOM     75  F   UNL A   1      52.834  27.672  27.896  1.00  0.00    -0.206 F 
ATOM     76  C   UNL A   1      54.145  26.350  26.467  1.00  0.00     0.040 A 
ATOM     77  C   UNL A   1      53.743  26.377  24.093  1.00  0.00     0.040 A 
ATOM     78  F   UNL A   1      52.069  27.754  23.200  1.00  0.00    -0.206 F 
ATOM     79  C   UNL A   1      54.461  25.898  25.188  1.00  0.00     0.006 A 
ENDBRANCH  58  72
BRANCH  59  80
ATOM     80  C   UNL A   1      44.570  33.853  26.916  1.00  0.00     0.057 A 
ATOM     81  C   UNL A   1      43.870  34.441  25.855  1.00  0.00     0.134 A 
ATOM     82  C   UNL A   1      44.170  34.189  28.215  1.00  0.00     0.134 A 
ATOM     83  F   UNL A   1      44.220  34.180  24.588  1.00  0.00    -0.206 F 
ATOM     84  C   UNL A   1      42.829  35.346  26.077  1.00  0.00     0.040 A 
ATOM     85  C   UNL A   1      43.112  35.068  28.452  1.00  0.00     0.040 A 
ATOM     86  F   UNL A   1      44.799  33.663  29.276  1.00  0.00    -0.206 F 
ATOM     87  C   UNL A   1      42.444  35.657  27.380  1.00  0.00     0.006 A 
ENDBRANCH  59  80
BRANCH  71  88
ATOM     88  C   UNL A   1      51.435  34.880  26.282  1.00  0.00     0.057 A 
ATOM     89  C   UNL A   1      51.638  35.672  25.146  1.00  0.00     0.134 A 
ATOM     90  C   UNL A   1      52.014  35.314  27.484  1.00  0.00     0.134 A 
ATOM     91  F   UNL A   1      51.122  35.308  23.963  1.00  0.00    -0.206 F 
ATOM     92  C   UNL A   1      52.405  36.838  25.196  1.00  0.00     0.040 A 
ATOM     93  C   UNL A   1      52.756  36.495  27.553  1.00  0.00     0.040 A 
ATOM     94  F   UNL A   1      51.851  34.610  28.614  1.00  0.00    -0.206 F 
ATOM     95  C   UNL A   1      52.958  37.257  26.404  1.00  0.00     0.006 A 
ENDBRANCH  71  88
ENDBRANCH  45  46
ENDBRANCH  38  40
ENDBRANCH  37  38
ENDBRANCH  36  37
ENDBRANCH  35  36
ENDBRANCH  34  35
ENDBRANCH  33  34
ENDBRANCH  32  33
ENDBRANCH  31  32
ENDBRANCH   1  31
TORSDOF 26
ENDMDL
