MODEL 1
REMARK VINA RESULT:     -10.5      0.000      0.000
REMARK SMILES O=C(OCCOCCOCCOCCOC(=O)[C@@H]1[C@@H](C(=O)Nc2ccc(F)c(F)c2)[C@H]2CC[C@@H]1O2)c1ccc(-c2c3nc(c(-c4c(F)cccc4F)c4ccc([nH]4)c(-c4c(F)cccc4F)c4nc(c(-c5c(F)cccc5F)c5ccc2[nH]5)C=C4)C=C3)cc1
REMARK SMILES IDX 9 1 8 2 7 3 6 4 5 5 4 6 3 7 2 8 1 9 36 10 37 11 89 12 38 13
REMARK SMILES IDX 88 14 39 15 40 16 41 17 82 18 42 19 87 20 81 21 83 22 43 23
REMARK SMILES IDX 86 24 80 25 79 26 44 28 70 29 53 30 69 31 54 32 57 33 68 34
REMARK SMILES IDX 84 35 55 36 56 37 67 39 85 40 58 41 45 42 46 43 51 44 47 45
REMARK SMILES IDX 48 46 50 47 52 48 49 49 71 50 72 51 77 52 73 53 74 54 76 55
REMARK SMILES IDX 78 56 75 57 59 58 60 59 65 60 61 61 62 62 64 63 66 64 63 65
REMARK SMILES IDX 10 66 11 67 12 68 13 69 14 70 15 71 16 72 17 73 18 74 19 75
REMARK SMILES IDX 34 76 31 77 33 78 35 79 32 80 20 81 21 82 22 83 23 85 24 86
REMARK SMILES IDX 30 87 25 88 28 89 26 90 29 91 27 92
REMARK H PARENT 83 27 57 38 22 84
REMARK Flexibility Score: inf
ROOT
ATOM      1  O   UNL A   1      34.955  21.885  24.992  1.00  0.00    -0.377 OA
ENDROOT
BRANCH   1   2
ATOM      2  C   UNL A   1      36.089  22.014  25.821  1.00  0.00     0.188 C 
BRANCH   2   3
ATOM      3  C   UNL A   1      37.353  22.279  25.034  1.00  0.00     0.188 C 
BRANCH   3   4
ATOM      4  O   UNL A   1      38.446  21.385  25.248  1.00  0.00    -0.376 OA
BRANCH   4   5
ATOM      5  C   UNL A   1      38.299  19.980  25.086  1.00  0.00     0.202 C 
BRANCH   5   6
ATOM      6  C   UNL A   1      39.330  19.073  25.751  1.00  0.00     0.261 C 
BRANCH   6   7
ATOM      7  O   UNL A   1      40.680  19.401  25.412  1.00  0.00    -0.460 OA
BRANCH   7   8
ATOM      8  C   UNL A   1      41.630  19.890  26.251  1.00  0.00     0.338 C 
ATOM      9  O   UNL A   1      42.348  19.091  26.848  1.00  0.00    -0.246 OA
BRANCH   8  10
ATOM     10  C   UNL A   1      41.686  21.337  26.661  1.00  0.00     0.060 A 
ATOM     11  C   UNL A   1      41.339  22.426  25.858  1.00  0.00     0.016 A 
ATOM     12  C   UNL A   1      42.040  21.597  28.002  1.00  0.00     0.016 A 
ATOM     13  C   UNL A   1      41.249  23.710  26.373  1.00  0.00     0.010 A 
ATOM     14  C   UNL A   1      42.058  22.902  28.503  1.00  0.00     0.010 A 
ATOM     15  C   UNL A   1      41.675  23.958  27.672  1.00  0.00    -0.014 A 
BRANCH  15  16
ATOM     16  C   UNL A   1      42.049  25.353  27.947  1.00  0.00     0.031 A 
ATOM     17  C   UNL A   1      43.379  25.792  27.405  1.00  0.00     0.074 A 
ATOM     18  C   UNL A   1      41.157  26.221  28.446  1.00  0.00     0.049 A 
ATOM     19  N   UNL A   1      43.938  26.969  27.418  1.00  0.00    -0.248 NA
ATOM     20  C   UNL A   1      44.169  24.760  26.703  1.00  0.00     0.031 C 
ATOM     21  C   UNL A   1      39.779  25.899  28.819  1.00  0.00     0.029 A 
ATOM     22  N   UNL A   1      41.271  27.562  28.691  1.00  0.00    -0.354 N 
ATOM     23  C   UNL A   1      45.135  26.817  26.730  1.00  0.00     0.074 A 
ATOM     24  C   UNL A   1      45.226  25.443  26.305  1.00  0.00     0.031 C 
ATOM     25  C   UNL A   1      39.179  27.018  29.265  1.00  0.00     0.029 A 
ATOM     26  C   UNL A   1      40.144  28.113  29.247  1.00  0.00     0.049 A 
ATOM     27  H   UNL A   1      42.083  28.080  28.490  1.00  0.00     0.167 HD
ATOM     28  C   UNL A   1      46.086  27.746  26.495  1.00  0.00     0.037 A 
ATOM     29  C   UNL A   1      39.950  29.360  29.716  1.00  0.00     0.037 A 
ATOM     30  C   UNL A   1      45.988  29.092  26.983  1.00  0.00     0.049 A 
ATOM     31  C   UNL A   1      41.090  30.340  29.591  1.00  0.00     0.074 A 
ATOM     32  C   UNL A   1      46.918  30.108  26.919  1.00  0.00     0.029 A 
ATOM     33  N   UNL A   1      44.878  29.593  27.652  1.00  0.00    -0.354 N 
ATOM     34  N   UNL A   1      42.257  30.181  29.007  1.00  0.00    -0.248 NA
ATOM     35  C   UNL A   1      40.898  31.663  30.195  1.00  0.00     0.031 C 
ATOM     36  C   UNL A   1      46.392  31.209  27.603  1.00  0.00     0.029 A 
ATOM     37  C   UNL A   1      45.109  30.899  28.035  1.00  0.00     0.049 A 
ATOM     38  H   UNL A   1      44.048  29.091  27.826  1.00  0.00     0.167 HD
ATOM     39  C   UNL A   1      42.929  31.386  29.154  1.00  0.00     0.074 A 
ATOM     40  C   UNL A   1      42.030  32.272  29.869  1.00  0.00     0.031 C 
ATOM     41  C   UNL A   1      44.174  31.739  28.743  1.00  0.00     0.037 A 
BRANCH  28  42
ATOM     42  C   UNL A   1      47.327  27.279  25.795  1.00  0.00     0.057 A 
ATOM     43  C   UNL A   1      48.441  26.786  26.488  1.00  0.00     0.134 A 
ATOM     44  C   UNL A   1      47.440  27.413  24.406  1.00  0.00     0.134 A 
ATOM     45  F   UNL A   1      48.417  26.675  27.825  1.00  0.00    -0.206 F 
ATOM     46  C   UNL A   1      49.631  26.471  25.828  1.00  0.00     0.040 A 
ATOM     47  C   UNL A   1      48.615  27.079  23.732  1.00  0.00     0.040 A 
ATOM     48  F   UNL A   1      46.419  27.897  23.684  1.00  0.00    -0.206 F 
ATOM     49  C   UNL A   1      49.719  26.617  24.445  1.00  0.00     0.006 A 
ENDBRANCH  28  42
BRANCH  29  50
ATOM     50  C   UNL A   1      38.681  29.723  30.403  1.00  0.00     0.057 A 
ATOM     51  C   UNL A   1      37.597  30.276  29.714  1.00  0.00     0.134 A 
ATOM     52  C   UNL A   1      38.537  29.552  31.787  1.00  0.00     0.134 A 
ATOM     53  F   UNL A   1      37.675  30.491  28.392  1.00  0.00    -0.206 F 
ATOM     54  C   UNL A   1      36.427  30.662  30.374  1.00  0.00     0.040 A 
ATOM     55  C   UNL A   1      37.364  29.907  32.456  1.00  0.00     0.040 A 
ATOM     56  F   UNL A   1      39.538  29.034  32.515  1.00  0.00    -0.206 F 
ATOM     57  C   UNL A   1      36.306  30.472  31.750  1.00  0.00     0.006 A 
ENDBRANCH  29  50
BRANCH  41  58
ATOM     58  C   UNL A   1      44.611  33.143  29.027  1.00  0.00     0.057 A 
ATOM     59  C   UNL A   1      44.358  34.191  28.135  1.00  0.00     0.134 A 
ATOM     60  C   UNL A   1      45.230  33.456  30.244  1.00  0.00     0.134 A 
ATOM     61  F   UNL A   1      43.776  33.951  26.949  1.00  0.00    -0.206 F 
ATOM     62  C   UNL A   1      44.722  35.503  28.435  1.00  0.00     0.040 A 
ATOM     63  C   UNL A   1      45.569  34.767  30.569  1.00  0.00     0.040 A 
ATOM     64  F   UNL A   1      45.486  32.496  31.145  1.00  0.00    -0.206 F 
ATOM     65  C   UNL A   1      45.322  35.795  29.660  1.00  0.00     0.006 A 
ENDBRANCH  41  58
ENDBRANCH  15  16
ENDBRANCH   8  10
ENDBRANCH   7   8
ENDBRANCH   6   7
ENDBRANCH   5   6
ENDBRANCH   4   5
ENDBRANCH   3   4
ENDBRANCH   2   3
ENDBRANCH   1   2
BRANCH   1  66
ATOM     66  C   UNL A   1      34.266  20.661  25.134  1.00  0.00     0.188 C 
BRANCH  66  67
ATOM     67  C   UNL A   1      32.737  20.720  24.971  1.00  0.00     0.188 C 
BRANCH  67  68
ATOM     68  O   UNL A   1      32.151  21.053  23.722  1.00  0.00    -0.376 OA
BRANCH  68  69
ATOM     69  C   UNL A   1      31.872  22.407  23.432  1.00  0.00     0.202 C 
BRANCH  69  70
ATOM     70  C   UNL A   1      32.814  23.127  22.443  1.00  0.00     0.261 C 
BRANCH  70  71
ATOM     71  O   UNL A   1      32.762  24.575  22.379  1.00  0.00    -0.463 OA
BRANCH  71  72
ATOM     72  C   UNL A   1      33.509  25.261  23.287  1.00  0.00     0.312 C 
ATOM     73  O   UNL A   1      34.657  24.927  23.572  1.00  0.00    -0.252 OA
BRANCH  72  74
ATOM     74  C   UNL A   1      32.730  26.422  23.965  1.00  0.00     0.143 C 
ATOM     75  C   UNL A   1      31.311  26.132  24.536  1.00  0.00     0.124 C 
ATOM     76  C   UNL A   1      32.392  27.379  22.803  1.00  0.00     0.133 C 
ATOM     77  C   UNL A   1      30.414  26.934  23.546  1.00  0.00     0.132 C 
ATOM     78  C   UNL A   1      31.934  28.736  23.328  1.00  0.00     0.036 C 
ATOM     79  O   UNL A   1      31.154  26.808  22.318  1.00  0.00    -0.373 OA
ATOM     80  C   UNL A   1      30.492  28.451  23.722  1.00  0.00     0.035 C 
BRANCH  75  81
ATOM     81  C   UNL A   1      30.789  26.422  25.962  1.00  0.00     0.231 C 
ATOM     82  O   UNL A   1      29.901  25.693  26.437  1.00  0.00    -0.274 OA
ATOM     83  N   UNL A   1      31.345  27.211  26.913  1.00  0.00    -0.326 N 
ATOM     84  H   UNL A   1      30.989  26.997  27.805  1.00  0.00     0.169 HD
BRANCH  83  85
ATOM     85  C   UNL A   1      32.280  28.243  26.979  1.00  0.00     0.044 A 
ATOM     86  C   UNL A   1      33.653  28.048  27.010  1.00  0.00     0.029 A 
ATOM     87  C   UNL A   1      31.781  29.554  26.964  1.00  0.00     0.068 A 
ATOM     88  C   UNL A   1      34.523  29.133  27.165  1.00  0.00     0.044 A 
ATOM     89  C   UNL A   1      32.649  30.633  27.122  1.00  0.00     0.160 A 
ATOM     90  C   UNL A   1      34.013  30.420  27.248  1.00  0.00     0.158 A 
ATOM     91  F   UNL A   1      32.145  31.870  27.212  1.00  0.00    -0.204 F 
ATOM     92  F   UNL A   1      34.845  31.450  27.452  1.00  0.00    -0.204 F 
ENDBRANCH  83  85
ENDBRANCH  75  81
ENDBRANCH  72  74
ENDBRANCH  71  72
ENDBRANCH  70  71
ENDBRANCH  69  70
ENDBRANCH  68  69
ENDBRANCH  67  68
ENDBRANCH  66  67
ENDBRANCH   1  66
TORSDOF 22
ENDMDL
MODEL 2
REMARK VINA RESULT:     -10.3      3.042      8.125
REMARK SMILES O=C(OCCOCCOCCOCCOC(=O)[C@@H]1[C@@H](C(=O)Nc2ccc(F)c(F)c2)[C@H]2CC[C@@H]1O2)c1ccc(-c2c3nc(c(-c4c(F)cccc4F)c4ccc([nH]4)c(-c4c(F)cccc4F)c4nc(c(-c5c(F)cccc5F)c5ccc2[nH]5)C=C4)C=C3)cc1
REMARK SMILES IDX 9 1 8 2 7 3 6 4 5 5 4 6 3 7 2 8 1 9 36 10 37 11 89 12 38 13
REMARK SMILES IDX 88 14 39 15 40 16 41 17 82 18 42 19 87 20 81 21 83 22 43 23
REMARK SMILES IDX 86 24 80 25 79 26 44 28 70 29 53 30 69 31 54 32 57 33 68 34
REMARK SMILES IDX 84 35 55 36 56 37 67 39 85 40 58 41 45 42 46 43 51 44 47 45
REMARK SMILES IDX 48 46 50 47 52 48 49 49 71 50 72 51 77 52 73 53 74 54 76 55
REMARK SMILES IDX 78 56 75 57 59 58 60 59 65 60 61 61 62 62 64 63 66 64 63 65
REMARK SMILES IDX 10 66 11 67 12 68 13 69 14 70 15 71 16 72 17 73 18 74 19 75
REMARK SMILES IDX 34 76 31 77 33 78 35 79 32 80 20 81 21 82 22 83 23 85 24 86
REMARK SMILES IDX 30 87 25 88 28 89 26 90 29 91 27 92
REMARK H PARENT 83 27 57 38 22 84
REMARK Flexibility Score: inf
ROOT
ATOM      1  O   UNL A   1      33.793  28.545  24.367  1.00  0.00    -0.377 OA
ENDROOT
BRANCH   1   2
ATOM      2  C   UNL A   1      32.827  29.422  24.902  1.00  0.00     0.188 C 
BRANCH   2   3
ATOM      3  C   UNL A   1      32.414  29.041  26.306  1.00  0.00     0.188 C 
BRANCH   3   4
ATOM      4  O   UNL A   1      33.182  29.592  27.377  1.00  0.00    -0.376 OA
BRANCH   4   5
ATOM      5  C   UNL A   1      34.260  30.485  27.134  1.00  0.00     0.202 C 
BRANCH   5   6
ATOM      6  C   UNL A   1      34.454  31.650  28.101  1.00  0.00     0.261 C 
BRANCH   6   7
ATOM      7  O   UNL A   1      34.867  31.242  29.408  1.00  0.00    -0.460 OA
BRANCH   7   8
ATOM      8  C   UNL A   1      36.077  31.468  29.983  1.00  0.00     0.338 C 
ATOM      9  O   UNL A   1      36.228  32.496  30.640  1.00  0.00    -0.246 OA
BRANCH   8  10
ATOM     10  C   UNL A   1      37.296  30.649  29.659  1.00  0.00     0.060 A 
ATOM     11  C   UNL A   1      38.110  29.996  30.587  1.00  0.00     0.016 A 
ATOM     12  C   UNL A   1      37.583  30.464  28.290  1.00  0.00     0.016 A 
ATOM     13  C   UNL A   1      39.107  29.118  30.190  1.00  0.00     0.010 A 
ATOM     14  C   UNL A   1      38.656  29.666  27.879  1.00  0.00     0.010 A 
ATOM     15  C   UNL A   1      39.426  29.008  28.842  1.00  0.00    -0.014 A 
BRANCH  15  16
ATOM     16  C   UNL A   1      40.780  28.509  28.562  1.00  0.00     0.031 A 
ATOM     17  C   UNL A   1      41.899  29.475  28.824  1.00  0.00     0.074 A 
ATOM     18  C   UNL A   1      40.999  27.210  28.312  1.00  0.00     0.049 A 
ATOM     19  N   UNL A   1      43.188  29.299  28.749  1.00  0.00    -0.248 NA
ATOM     20  C   UNL A   1      41.503  30.821  29.286  1.00  0.00     0.031 C 
ATOM     21  C   UNL A   1      39.966  26.177  28.231  1.00  0.00     0.029 A 
ATOM     22  N   UNL A   1      42.171  26.533  28.115  1.00  0.00    -0.354 N 
ATOM     23  C   UNL A   1      43.750  30.504  29.153  1.00  0.00     0.074 A 
ATOM     24  C   UNL A   1      42.672  31.403  29.479  1.00  0.00     0.031 C 
ATOM     25  C   UNL A   1      40.555  24.993  27.982  1.00  0.00     0.029 A 
ATOM     26  C   UNL A   1      41.993  25.200  27.845  1.00  0.00     0.049 A 
ATOM     27  H   UNL A   1      43.056  26.962  28.161  1.00  0.00     0.167 HD
ATOM     28  C   UNL A   1      45.057  30.833  29.222  1.00  0.00     0.037 A 
ATOM     29  C   UNL A   1      42.906  24.275  27.492  1.00  0.00     0.037 A 
ATOM     30  C   UNL A   1      46.102  29.930  28.835  1.00  0.00     0.049 A 
ATOM     31  C   UNL A   1      44.348  24.709  27.416  1.00  0.00     0.074 A 
ATOM     32  C   UNL A   1      47.459  30.160  28.747  1.00  0.00     0.029 A 
ATOM     33  N   UNL A   1      45.883  28.613  28.448  1.00  0.00    -0.354 N 
ATOM     34  N   UNL A   1      44.880  25.871  27.724  1.00  0.00    -0.248 NA
ATOM     35  C   UNL A   1      45.316  23.716  26.934  1.00  0.00     0.031 C 
ATOM     36  C   UNL A   1      48.055  28.997  28.248  1.00  0.00     0.029 A 
ATOM     37  C   UNL A   1      47.078  28.023  28.090  1.00  0.00     0.049 A 
ATOM     38  H   UNL A   1      45.005  28.167  28.433  1.00  0.00     0.167 HD
ATOM     39  C   UNL A   1      46.243  25.744  27.495  1.00  0.00     0.074 A 
ATOM     40  C   UNL A   1      46.457  24.384  27.037  1.00  0.00     0.031 C 
ATOM     41  C   UNL A   1      47.234  26.660  27.644  1.00  0.00     0.037 A 
BRANCH  28  42
ATOM     42  C   UNL A   1      45.377  32.245  29.612  1.00  0.00     0.057 A 
ATOM     43  C   UNL A   1      45.422  33.291  28.681  1.00  0.00     0.134 A 
ATOM     44  C   UNL A   1      45.737  32.542  30.933  1.00  0.00     0.134 A 
ATOM     45  F   UNL A   1      45.133  33.066  27.390  1.00  0.00    -0.206 F 
ATOM     46  C   UNL A   1      45.841  34.573  29.043  1.00  0.00     0.040 A 
ATOM     47  C   UNL A   1      46.134  33.825  31.311  1.00  0.00     0.040 A 
ATOM     48  F   UNL A   1      45.736  31.583  31.870  1.00  0.00    -0.206 F 
ATOM     49  C   UNL A   1      46.197  34.843  30.363  1.00  0.00     0.006 A 
ENDBRANCH  28  42
BRANCH  29  50
ATOM     50  C   UNL A   1      42.484  22.899  27.115  1.00  0.00     0.057 A 
ATOM     51  C   UNL A   1      42.206  21.920  28.074  1.00  0.00     0.134 A 
ATOM     52  C   UNL A   1      42.381  22.520  25.769  1.00  0.00     0.134 A 
ATOM     53  F   UNL A   1      42.309  22.205  29.381  1.00  0.00    -0.206 F 
ATOM     54  C   UNL A   1      41.860  20.615  27.712  1.00  0.00     0.040 A 
ATOM     55  C   UNL A   1      42.009  21.228  25.392  1.00  0.00     0.040 A 
ATOM     56  F   UNL A   1      42.640  23.404  24.793  1.00  0.00    -0.206 F 
ATOM     57  C   UNL A   1      41.755  20.267  26.366  1.00  0.00     0.006 A 
ENDBRANCH  29  50
BRANCH  41  58
ATOM     58  C   UNL A   1      48.630  26.206  27.342  1.00  0.00     0.057 A 
ATOM     59  C   UNL A   1      49.187  26.331  26.065  1.00  0.00     0.134 A 
ATOM     60  C   UNL A   1      49.445  25.706  28.365  1.00  0.00     0.134 A 
ATOM     61  F   UNL A   1      48.451  26.795  25.042  1.00  0.00    -0.206 F 
ATOM     62  C   UNL A   1      50.505  25.955  25.810  1.00  0.00     0.040 A 
ATOM     63  C   UNL A   1      50.773  25.357  28.129  1.00  0.00     0.040 A 
ATOM     64  F   UNL A   1      48.971  25.576  29.613  1.00  0.00    -0.206 F 
ATOM     65  C   UNL A   1      51.305  25.475  26.846  1.00  0.00     0.006 A 
ENDBRANCH  41  58
ENDBRANCH  15  16
ENDBRANCH   8  10
ENDBRANCH   7   8
ENDBRANCH   6   7
ENDBRANCH   5   6
ENDBRANCH   4   5
ENDBRANCH   3   4
ENDBRANCH   2   3
ENDBRANCH   1   2
BRANCH   1  66
ATOM     66  C   UNL A   1      33.790  28.464  22.958  1.00  0.00     0.188 C 
BRANCH  66  67
ATOM     67  C   UNL A   1      33.242  27.159  22.354  1.00  0.00     0.188 C 
BRANCH  67  68
ATOM     68  O   UNL A   1      32.598  26.194  23.171  1.00  0.00    -0.376 OA
BRANCH  68  69
ATOM     69  C   UNL A   1      31.220  26.334  23.446  1.00  0.00     0.202 C 
BRANCH  69  70
ATOM     70  C   UNL A   1      30.725  25.875  24.834  1.00  0.00     0.261 C 
BRANCH  70  71
ATOM     71  O   UNL A   1      30.709  24.452  25.119  1.00  0.00    -0.463 OA
BRANCH  71  72
ATOM     72  C   UNL A   1      31.559  24.006  26.083  1.00  0.00     0.312 C 
ATOM     73  O   UNL A   1      31.422  24.310  27.265  1.00  0.00    -0.252 OA
BRANCH  72  74
ATOM     74  C   UNL A   1      32.739  23.168  25.515  1.00  0.00     0.143 C 
ATOM     75  C   UNL A   1      32.697  22.745  24.017  1.00  0.00     0.124 C 
ATOM     76  C   UNL A   1      32.602  21.800  26.214  1.00  0.00     0.133 C 
ATOM     77  C   UNL A   1      32.478  21.207  24.141  1.00  0.00     0.132 C 
ATOM     78  C   UNL A   1      33.869  20.969  26.042  1.00  0.00     0.036 C 
ATOM     79  O   UNL A   1      31.674  21.125  25.333  1.00  0.00    -0.373 OA
ATOM     80  C   UNL A   1      33.708  20.439  24.625  1.00  0.00     0.035 C 
BRANCH  75  81
ATOM     81  C   UNL A   1      33.786  22.966  22.942  1.00  0.00     0.231 C 
ATOM     82  O   UNL A   1      33.438  23.227  21.778  1.00  0.00    -0.274 OA
ATOM     83  N   UNL A   1      35.111  23.183  23.125  1.00  0.00    -0.326 N 
ATOM     84  H   UNL A   1      35.519  23.578  22.322  1.00  0.00     0.169 HD
BRANCH  83  85
ATOM     85  C   UNL A   1      36.056  23.002  24.133  1.00  0.00     0.044 A 
ATOM     86  C   UNL A   1      36.298  23.918  25.146  1.00  0.00     0.029 A 
ATOM     87  C   UNL A   1      36.762  21.790  24.131  1.00  0.00     0.068 A 
ATOM     88  C   UNL A   1      37.326  23.702  26.071  1.00  0.00     0.044 A 
ATOM     89  C   UNL A   1      37.788  21.579  25.051  1.00  0.00     0.160 A 
ATOM     90  C   UNL A   1      38.085  22.543  26.001  1.00  0.00     0.158 A 
ATOM     91  F   UNL A   1      38.522  20.461  24.968  1.00  0.00    -0.204 F 
ATOM     92  F   UNL A   1      39.103  22.367  26.853  1.00  0.00    -0.204 F 
ENDBRANCH  83  85
ENDBRANCH  75  81
ENDBRANCH  72  74
ENDBRANCH  71  72
ENDBRANCH  70  71
ENDBRANCH  69  70
ENDBRANCH  68  69
ENDBRANCH  67  68
ENDBRANCH  66  67
ENDBRANCH   1  66
TORSDOF 22
ENDMDL
MODEL 3
REMARK VINA RESULT:     -10.3      2.681      7.926
REMARK SMILES O=C(OCCOCCOCCOCCOC(=O)[C@@H]1[C@@H](C(=O)Nc2ccc(F)c(F)c2)[C@H]2CC[C@@H]1O2)c1ccc(-c2c3nc(c(-c4c(F)cccc4F)c4ccc([nH]4)c(-c4c(F)cccc4F)c4nc(c(-c5c(F)cccc5F)c5ccc2[nH]5)C=C4)C=C3)cc1
REMARK SMILES IDX 9 1 8 2 7 3 6 4 5 5 4 6 3 7 2 8 1 9 36 10 37 11 89 12 38 13
REMARK SMILES IDX 88 14 39 15 40 16 41 17 82 18 42 19 87 20 81 21 83 22 43 23
REMARK SMILES IDX 86 24 80 25 79 26 44 28 70 29 53 30 69 31 54 32 57 33 68 34
REMARK SMILES IDX 84 35 55 36 56 37 67 39 85 40 58 41 45 42 46 43 51 44 47 45
REMARK SMILES IDX 48 46 50 47 52 48 49 49 71 50 72 51 77 52 73 53 74 54 76 55
REMARK SMILES IDX 78 56 75 57 59 58 60 59 65 60 61 61 62 62 64 63 66 64 63 65
REMARK SMILES IDX 10 66 11 67 12 68 13 69 14 70 15 71 16 72 17 73 18 74 19 75
REMARK SMILES IDX 34 76 31 77 33 78 35 79 32 80 20 81 21 82 22 83 23 85 24 86
REMARK SMILES IDX 30 87 25 88 28 89 26 90 29 91 27 92
REMARK H PARENT 83 27 57 38 22 84
REMARK Flexibility Score: inf
ROOT
ATOM      1  O   UNL A   1      33.763  29.891  26.470  1.00  0.00    -0.377 OA
ENDROOT
BRANCH   1   2
ATOM      2  C   UNL A   1      34.518  30.141  27.634  1.00  0.00     0.188 C 
BRANCH   2   3
ATOM      3  C   UNL A   1      34.655  31.618  27.929  1.00  0.00     0.188 C 
BRANCH   3   4
ATOM      4  O   UNL A   1      34.160  32.072  29.190  1.00  0.00    -0.376 OA
BRANCH   4   5
ATOM      5  C   UNL A   1      34.584  33.307  29.752  1.00  0.00     0.202 C 
BRANCH   5   6
ATOM      6  C   UNL A   1      34.727  33.389  31.269  1.00  0.00     0.261 C 
BRANCH   6   7
ATOM      7  O   UNL A   1      35.023  32.131  31.882  1.00  0.00    -0.460 OA
BRANCH   7   8
ATOM      8  C   UNL A   1      36.149  31.810  32.572  1.00  0.00     0.338 C 
ATOM      9  O   UNL A   1      36.279  32.248  33.713  1.00  0.00    -0.246 OA
BRANCH   8  10
ATOM     10  C   UNL A   1      37.338  31.154  31.925  1.00  0.00     0.060 A 
ATOM     11  C   UNL A   1      38.496  30.733  32.585  1.00  0.00     0.016 A 
ATOM     12  C   UNL A   1      37.228  30.868  30.549  1.00  0.00     0.016 A 
ATOM     13  C   UNL A   1      39.465  29.977  31.943  1.00  0.00     0.010 A 
ATOM     14  C   UNL A   1      38.250  30.200  29.865  1.00  0.00     0.010 A 
ATOM     15  C   UNL A   1      39.377  29.772  30.572  1.00  0.00    -0.014 A 
BRANCH  15  16
ATOM     16  C   UNL A   1      40.649  29.455  29.909  1.00  0.00     0.031 A 
ATOM     17  C   UNL A   1      40.755  28.076  29.322  1.00  0.00     0.074 A 
ATOM     18  C   UNL A   1      41.552  30.412  29.653  1.00  0.00     0.049 A 
ATOM     19  N   UNL A   1      41.709  27.540  28.616  1.00  0.00    -0.248 NA
ATOM     20  C   UNL A   1      39.588  27.193  29.522  1.00  0.00     0.031 C 
ATOM     21  C   UNL A   1      41.424  31.820  30.031  1.00  0.00     0.029 A 
ATOM     22  N   UNL A   1      42.742  30.349  28.981  1.00  0.00    -0.354 N 
ATOM     23  C   UNL A   1      41.259  26.267  28.291  1.00  0.00     0.074 A 
ATOM     24  C   UNL A   1      39.946  26.106  28.864  1.00  0.00     0.031 C 
ATOM     25  C   UNL A   1      42.510  32.486  29.597  1.00  0.00     0.029 A 
ATOM     26  C   UNL A   1      43.418  31.542  28.953  1.00  0.00     0.049 A 
ATOM     27  H   UNL A   1      43.080  29.526  28.559  1.00  0.00     0.167 HD
ATOM     28  C   UNL A   1      41.900  25.309  27.589  1.00  0.00     0.037 A 
ATOM     29  C   UNL A   1      44.653  31.809  28.486  1.00  0.00     0.037 A 
ATOM     30  C   UNL A   1      43.230  25.485  27.080  1.00  0.00     0.049 A 
ATOM     31  C   UNL A   1      45.420  30.677  27.851  1.00  0.00     0.074 A 
ATOM     32  C   UNL A   1      44.046  24.569  26.450  1.00  0.00     0.029 A 
ATOM     33  N   UNL A   1      43.943  26.674  27.172  1.00  0.00    -0.354 N 
ATOM     34  N   UNL A   1      45.028  29.446  27.606  1.00  0.00    -0.248 NA
ATOM     35  C   UNL A   1      46.800  30.959  27.437  1.00  0.00     0.031 C 
ATOM     36  C   UNL A   1      45.277  25.189  26.214  1.00  0.00     0.029 A 
ATOM     37  C   UNL A   1      45.204  26.510  26.637  1.00  0.00     0.049 A 
ATOM     38  H   UNL A   1      43.599  27.511  27.561  1.00  0.00     0.167 HD
ATOM     39  C   UNL A   1      46.101  28.814  26.992  1.00  0.00     0.074 A 
ATOM     40  C   UNL A   1      47.155  29.806  26.888  1.00  0.00     0.031 C 
ATOM     41  C   UNL A   1      46.216  27.535  26.554  1.00  0.00     0.037 A 
BRANCH  28  42
ATOM     42  C   UNL A   1      41.205  23.987  27.462  1.00  0.00     0.057 A 
ATOM     43  C   UNL A   1      41.633  22.842  28.149  1.00  0.00     0.134 A 
ATOM     44  C   UNL A   1      40.143  23.838  26.561  1.00  0.00     0.134 A 
ATOM     45  F   UNL A   1      42.675  22.905  28.993  1.00  0.00    -0.206 F 
ATOM     46  C   UNL A   1      41.048  21.594  27.923  1.00  0.00     0.040 A 
ATOM     47  C   UNL A   1      39.535  22.601  26.345  1.00  0.00     0.040 A 
ATOM     48  F   UNL A   1      39.697  24.887  25.855  1.00  0.00    -0.206 F 
ATOM     49  C   UNL A   1      39.995  21.472  27.019  1.00  0.00     0.006 A 
ENDBRANCH  28  42
BRANCH  29  50
ATOM     50  C   UNL A   1      45.258  33.156  28.669  1.00  0.00     0.057 A 
ATOM     51  C   UNL A   1      45.115  34.168  27.715  1.00  0.00     0.134 A 
ATOM     52  C   UNL A   1      46.029  33.452  29.802  1.00  0.00     0.134 A 
ATOM     53  F   UNL A   1      44.411  33.947  26.594  1.00  0.00    -0.206 F 
ATOM     54  C   UNL A   1      45.729  35.415  27.869  1.00  0.00     0.040 A 
ATOM     55  C   UNL A   1      46.625  34.701  29.983  1.00  0.00     0.040 A 
ATOM     56  F   UNL A   1      46.216  32.527  30.757  1.00  0.00    -0.206 F 
ATOM     57  C   UNL A   1      46.483  35.686  29.010  1.00  0.00     0.006 A 
ENDBRANCH  29  50
BRANCH  41  58
ATOM     58  C   UNL A   1      47.507  27.155  25.896  1.00  0.00     0.057 A 
ATOM     59  C   UNL A   1      47.746  27.401  24.539  1.00  0.00     0.134 A 
ATOM     60  C   UNL A   1      48.548  26.603  26.653  1.00  0.00     0.134 A 
ATOM     61  F   UNL A   1      46.783  27.920  23.761  1.00  0.00    -0.206 F 
ATOM     62  C   UNL A   1      48.972  27.092  23.952  1.00  0.00     0.040 A 
ATOM     63  C   UNL A   1      49.788  26.319  26.085  1.00  0.00     0.040 A 
ATOM     64  F   UNL A   1      48.383  26.358  27.962  1.00  0.00    -0.206 F 
ATOM     65  C   UNL A   1      50.001  26.558  24.728  1.00  0.00     0.006 A 
ENDBRANCH  41  58
ENDBRANCH  15  16
ENDBRANCH   8  10
ENDBRANCH   7   8
ENDBRANCH   6   7
ENDBRANCH   5   6
ENDBRANCH   4   5
ENDBRANCH   3   4
ENDBRANCH   2   3
ENDBRANCH   1   2
BRANCH   1  66
ATOM     66  C   UNL A   1      32.408  29.577  26.712  1.00  0.00     0.188 C 
BRANCH  66  67
ATOM     67  C   UNL A   1      32.141  28.496  27.773  1.00  0.00     0.188 C 
BRANCH  67  68
ATOM     68  O   UNL A   1      31.423  27.316  27.445  1.00  0.00    -0.376 OA
BRANCH  68  69
ATOM     69  C   UNL A   1      31.069  27.079  26.098  1.00  0.00     0.202 C 
BRANCH  69  70
ATOM     70  C   UNL A   1      30.068  25.938  25.821  1.00  0.00     0.261 C 
BRANCH  70  71
ATOM     71  O   UNL A   1      30.596  24.626  25.497  1.00  0.00    -0.463 OA
BRANCH  71  72
ATOM     72  C   UNL A   1      31.753  24.257  26.112  1.00  0.00     0.312 C 
ATOM     73  O   UNL A   1      31.783  23.904  27.288  1.00  0.00    -0.252 OA
BRANCH  72  74
ATOM     74  C   UNL A   1      33.004  24.420  25.204  1.00  0.00     0.143 C 
ATOM     75  C   UNL A   1      33.109  23.546  23.919  1.00  0.00     0.124 C 
ATOM     76  C   UNL A   1      34.161  23.846  26.048  1.00  0.00     0.133 C 
ATOM     77  C   UNL A   1      34.276  22.586  24.298  1.00  0.00     0.132 C 
ATOM     78  C   UNL A   1      35.513  24.237  25.460  1.00  0.00     0.036 C 
ATOM     79  O   UNL A   1      34.081  22.440  25.717  1.00  0.00    -0.373 OA
ATOM     80  C   UNL A   1      35.653  23.251  24.310  1.00  0.00     0.035 C 
BRANCH  75  81
ATOM     81  C   UNL A   1      33.363  24.023  22.470  1.00  0.00     0.231 C 
ATOM     82  O   UNL A   1      33.780  23.205  21.632  1.00  0.00    -0.274 OA
ATOM     83  N   UNL A   1      32.945  25.169  21.881  1.00  0.00    -0.326 N 
ATOM     84  H   UNL A   1      32.981  25.097  20.900  1.00  0.00     0.169 HD
BRANCH  83  85
ATOM     85  C   UNL A   1      32.477  26.420  22.276  1.00  0.00     0.044 A 
ATOM     86  C   UNL A   1      33.295  27.462  22.691  1.00  0.00     0.029 A 
ATOM     87  C   UNL A   1      31.093  26.635  22.198  1.00  0.00     0.068 A 
ATOM     88  C   UNL A   1      32.742  28.660  23.155  1.00  0.00     0.044 A 
ATOM     89  C   UNL A   1      30.544  27.828  22.665  1.00  0.00     0.160 A 
ATOM     90  C   UNL A   1      31.364  28.826  23.166  1.00  0.00     0.158 A 
ATOM     91  F   UNL A   1      29.212  27.973  22.682  1.00  0.00    -0.204 F 
ATOM     92  F   UNL A   1      30.837  29.952  23.664  1.00  0.00    -0.204 F 
ENDBRANCH  83  85
ENDBRANCH  75  81
ENDBRANCH  72  74
ENDBRANCH  71  72
ENDBRANCH  70  71
ENDBRANCH  69  70
ENDBRANCH  68  69
ENDBRANCH  67  68
ENDBRANCH  66  67
ENDBRANCH   1  66
TORSDOF 22
ENDMDL
