MODEL 1
REMARK VINA RESULT:      -9.4      0.000      0.000
REMARK SMILES Cc1ccc(S(=O)(=O)n2cc(C(=O)C(=O)NCC(=O)NCC(=O)OCCOCCOCCOCCOC(=O)c3ccc(-c4c5nc(c(-c6c(F)cccc6F)c6ccc([nH]6)c(-c6c(F)cccc6F)c6nc(c(-c7c(F)cccc7F)c7ccc4[nH]7)C=C6)C=C5)cc3)c3ccccc32)cc1
REMARK SMILES IDX 28 1 27 2 26 3 25 4 24 5 22 6 23 7 21 8 20 9 18 10 19 11
REMARK SMILES IDX 17 13 16 14 14 15 15 16 12 18 13 19 11 20 9 21 10 22 98 23
REMARK SMILES IDX 93 24 97 25 94 26 96 27 95 28 6 29 7 30 8 31 5 32 1 33 2 34
REMARK SMILES IDX 3 35 100 36 4 37 99 38 29 39 30 40 31 41 32 42 33 43 34 44
REMARK SMILES IDX 35 45 36 46 37 47 38 48 39 49 40 50 92 51 41 52 91 53 42 54
REMARK SMILES IDX 43 55 44 56 85 57 45 58 90 59 84 60 86 61 46 62 89 63 83 64
REMARK SMILES IDX 82 65 47 67 73 68 56 69 72 70 57 71 60 72 71 73 87 74 58 75
REMARK SMILES IDX 59 76 70 78 88 79 61 80 48 81 49 82 54 83 50 84 51 85 53 86
REMARK SMILES IDX 55 87 52 88 74 89 75 90 80 91 76 92 77 93 79 94 81 95 78 96
REMARK SMILES IDX 62 97 63 98 68 99 64 100 65 101 67 102 69 103 66 104
REMARK H PARENT 20 12 16 17 86 66 60 77
REMARK Flexibility Score: inf
ROOT
ATOM      1  C   UNL A   1      38.025  28.578  29.673  1.00  0.00     0.188 C 
ENDROOT
BRANCH   1   2
ATOM      2  O   UNL A   1      39.330  28.206  29.262  1.00  0.00    -0.376 OA
BRANCH   2   3
ATOM      3  C   UNL A   1      39.508  26.819  28.933  1.00  0.00     0.202 C 
BRANCH   3   4
ATOM      4  C   UNL A   1      40.409  26.489  27.733  1.00  0.00     0.261 C 
BRANCH   4   5
ATOM      5  O   UNL A   1      39.664  25.761  26.729  1.00  0.00    -0.462 OA
BRANCH   5   6
ATOM      6  C   UNL A   1      39.579  24.419  26.898  1.00  0.00     0.325 C 
ATOM      7  O   UNL A   1      40.469  23.717  27.363  1.00  0.00    -0.250 OA
BRANCH   6   8
ATOM      8  C   UNL A   1      38.166  23.881  26.606  1.00  0.00     0.238 C 
BRANCH   8   9
ATOM      9  N   UNL A   1      37.765  23.589  25.227  1.00  0.00    -0.344 N 
ATOM     10  C   UNL A   1      36.584  23.114  24.747  1.00  0.00     0.239 C 
ATOM     11  O   UNL A   1      36.371  23.147  23.534  1.00  0.00    -0.273 OA
ATOM     12  H   UNL A   1      38.453  23.761  24.546  1.00  0.00     0.164 HD
BRANCH  10  13
ATOM     13  C   UNL A   1      35.614  22.441  25.698  1.00  0.00     0.216 C 
BRANCH  13  14
ATOM     14  N   UNL A   1      35.208  21.188  25.079  1.00  0.00    -0.340 N 
ATOM     15  C   UNL A   1      33.964  20.708  24.745  1.00  0.00     0.292 C 
ATOM     16  O   UNL A   1      33.875  19.593  24.245  1.00  0.00    -0.265 OA
ATOM     17  H   UNL A   1      35.951  20.581  24.862  1.00  0.00     0.164 HD
BRANCH  15  18
ATOM     18  C   UNL A   1      32.695  21.554  24.998  1.00  0.00     0.252 C 
ATOM     19  O   UNL A   1      31.691  20.982  25.413  1.00  0.00    -0.283 OA
BRANCH  18  20
ATOM     20  C   UNL A   1      32.670  22.997  24.729  1.00  0.00     0.054 A 
ATOM     21  N   UNL A   1      32.513  25.210  24.990  1.00  0.00    -0.240 N 
ATOM     22  C   UNL A   1      32.357  24.003  25.621  1.00  0.00     0.117 A 
ATOM     23  C   UNL A   1      32.699  25.025  23.634  1.00  0.00     0.065 A 
ATOM     24  C   UNL A   1      32.861  23.643  23.457  1.00  0.00     0.012 A 
ATOM     25  C   UNL A   1      32.704  25.919  22.548  1.00  0.00     0.028 A 
ATOM     26  C   UNL A   1      33.118  23.161  22.154  1.00  0.00     0.011 A 
ATOM     27  C   UNL A   1      32.888  25.398  21.265  1.00  0.00     0.002 A 
ATOM     28  C   UNL A   1      33.113  24.042  21.069  1.00  0.00     0.001 A 
BRANCH  21  29
ATOM     29  S   UNL A   1      32.155  26.704  25.730  1.00  0.00     0.268 S 
ATOM     30  O   UNL A   1      33.349  27.504  25.637  1.00  0.00    -0.201 OA
ATOM     31  O   UNL A   1      31.506  26.389  26.998  1.00  0.00    -0.201 OA
BRANCH  29  32
ATOM     32  C   UNL A   1      30.914  27.473  24.730  1.00  0.00     0.088 A 
ATOM     33  C   UNL A   1      28.134  29.466  22.146  1.00  0.00     0.044 C 
ATOM     34  C   UNL A   1      29.092  28.774  23.068  1.00  0.00    -0.051 A 
ATOM     35  C   UNL A   1      30.217  29.456  23.549  1.00  0.00     0.005 A 
ATOM     36  C   UNL A   1      28.874  27.446  23.452  1.00  0.00     0.005 A 
ATOM     37  C   UNL A   1      31.131  28.808  24.376  1.00  0.00     0.022 A 
ATOM     38  C   UNL A   1      29.777  26.796  24.290  1.00  0.00     0.022 A 
ENDBRANCH  29  32
ENDBRANCH  21  29
ENDBRANCH  18  20
ENDBRANCH  15  18
ENDBRANCH  13  14
ENDBRANCH  10  13
ENDBRANCH   8   9
ENDBRANCH   6   8
ENDBRANCH   5   6
ENDBRANCH   4   5
ENDBRANCH   3   4
ENDBRANCH   2   3
ENDBRANCH   1   2
BRANCH   1  39
ATOM     39  C   UNL A   1      37.486  29.923  29.200  1.00  0.00     0.188 C 
BRANCH  39  40
ATOM     40  O   UNL A   1      36.274  29.912  28.440  1.00  0.00    -0.377 OA
BRANCH  40  41
ATOM     41  C   UNL A   1      35.739  31.146  27.980  1.00  0.00     0.188 C 
BRANCH  41  42
ATOM     42  C   UNL A   1      36.401  32.409  28.522  1.00  0.00     0.188 C 
BRANCH  42  43
ATOM     43  O   UNL A   1      35.500  33.443  28.881  1.00  0.00    -0.376 OA
BRANCH  43  44
ATOM     44  C   UNL A   1      34.418  33.121  29.756  1.00  0.00     0.202 C 
BRANCH  44  45
ATOM     45  C   UNL A   1      34.759  32.458  31.097  1.00  0.00     0.261 C 
BRANCH  45  46
ATOM     46  O   UNL A   1      35.521  33.368  31.906  1.00  0.00    -0.460 OA
BRANCH  46  47
ATOM     47  C   UNL A   1      36.236  32.785  32.902  1.00  0.00     0.338 C 
ATOM     48  O   UNL A   1      35.819  32.538  34.022  1.00  0.00    -0.246 OA
BRANCH  47  49
ATOM     49  C   UNL A   1      37.680  32.771  32.535  1.00  0.00     0.060 A 
ATOM     50  C   UNL A   1      38.588  32.150  33.405  1.00  0.00     0.016 A 
ATOM     51  C   UNL A   1      38.140  33.684  31.590  1.00  0.00     0.016 A 
ATOM     52  C   UNL A   1      39.900  32.629  33.499  1.00  0.00     0.010 A 
ATOM     53  C   UNL A   1      39.396  34.229  31.767  1.00  0.00     0.010 A 
ATOM     54  C   UNL A   1      40.253  33.765  32.775  1.00  0.00    -0.014 A 
BRANCH  54  55
ATOM     55  C   UNL A   1      41.348  34.682  33.133  1.00  0.00     0.031 A 
ATOM     56  C   UNL A   1      41.232  35.488  34.383  1.00  0.00     0.074 A 
ATOM     57  C   UNL A   1      42.552  34.541  32.517  1.00  0.00     0.049 A 
ATOM     58  N   UNL A   1      42.197  36.161  34.896  1.00  0.00    -0.248 NA
ATOM     59  C   UNL A   1      40.017  35.587  35.188  1.00  0.00     0.031 C 
ATOM     60  C   UNL A   1      43.867  34.935  33.016  1.00  0.00     0.029 A 
ATOM     61  N   UNL A   1      42.870  34.012  31.277  1.00  0.00    -0.354 N 
ATOM     62  C   UNL A   1      41.847  36.594  36.153  1.00  0.00     0.074 A 
ATOM     63  C   UNL A   1      40.459  36.232  36.277  1.00  0.00     0.031 C 
ATOM     64  C   UNL A   1      44.815  34.754  32.085  1.00  0.00     0.029 A 
ATOM     65  C   UNL A   1      44.121  34.491  30.852  1.00  0.00     0.049 A 
ATOM     66  H   UNL A   1      42.301  33.391  30.767  1.00  0.00     0.167 HD
ATOM     67  C   UNL A   1      42.830  37.137  36.933  1.00  0.00     0.037 A 
ATOM     68  C   UNL A   1      44.163  35.363  29.794  1.00  0.00     0.037 A 
ATOM     69  C   UNL A   1      43.993  37.482  36.094  1.00  0.00     0.049 A 
ATOM     70  C   UNL A   1      44.328  36.817  30.247  1.00  0.00     0.074 A 
ATOM     71  C   UNL A   1      45.303  37.051  35.982  1.00  0.00     0.029 A 
ATOM     72  N   UNL A   1      43.763  38.259  34.959  1.00  0.00    -0.354 N 
ATOM     73  N   UNL A   1      44.339  37.174  31.511  1.00  0.00    -0.248 NA
ATOM     74  C   UNL A   1      44.516  37.974  29.382  1.00  0.00     0.031 C 
ATOM     75  C   UNL A   1      45.747  37.399  34.668  1.00  0.00     0.029 A 
ATOM     76  C   UNL A   1      44.823  38.241  34.082  1.00  0.00     0.049 A 
ATOM     77  H   UNL A   1      42.932  38.764  34.803  1.00  0.00     0.167 HD
ATOM     78  C   UNL A   1      44.604  38.500  31.659  1.00  0.00     0.074 A 
ATOM     79  C   UNL A   1      44.624  38.976  30.281  1.00  0.00     0.031 C 
ATOM     80  C   UNL A   1      44.799  39.085  32.887  1.00  0.00     0.037 A 
BRANCH  67  81
ATOM     81  C   UNL A   1      42.810  37.268  38.448  1.00  0.00     0.057 A 
ATOM     82  C   UNL A   1      43.327  38.421  39.076  1.00  0.00     0.134 A 
ATOM     83  C   UNL A   1      42.408  36.266  39.357  1.00  0.00     0.134 A 
ATOM     84  F   UNL A   1      43.773  39.463  38.362  1.00  0.00    -0.206 F 
ATOM     85  C   UNL A   1      43.438  38.562  40.471  1.00  0.00     0.040 A 
ATOM     86  C   UNL A   1      42.478  36.408  40.754  1.00  0.00     0.040 A 
ATOM     87  F   UNL A   1      41.974  35.069  38.955  1.00  0.00    -0.206 F 
ATOM     88  C   UNL A   1      43.005  37.555  41.319  1.00  0.00     0.006 A 
ENDBRANCH  67  81
BRANCH  68  89
ATOM     89  C   UNL A   1      43.447  34.736  28.633  1.00  0.00     0.057 A 
ATOM     90  C   UNL A   1      42.287  35.449  28.242  1.00  0.00     0.134 A 
ATOM     91  C   UNL A   1      44.177  34.130  27.603  1.00  0.00     0.134 A 
ATOM     92  F   UNL A   1      41.500  36.005  29.179  1.00  0.00    -0.206 F 
ATOM     93  C   UNL A   1      42.074  35.834  26.913  1.00  0.00     0.040 A 
ATOM     94  C   UNL A   1      43.929  34.463  26.258  1.00  0.00     0.040 A 
ATOM     95  F   UNL A   1      45.267  33.401  27.879  1.00  0.00    -0.206 F 
ATOM     96  C   UNL A   1      42.939  35.387  25.922  1.00  0.00     0.006 A 
ENDBRANCH  68  89
BRANCH  80  97
ATOM     97  C   UNL A   1      44.977  40.572  33.085  1.00  0.00     0.057 A 
ATOM     98  C   UNL A   1      46.211  41.168  33.352  1.00  0.00     0.134 A 
ATOM     99  C   UNL A   1      43.886  41.473  33.027  1.00  0.00     0.134 A 
ATOM    100  F   UNL A   1      47.285  40.431  33.675  1.00  0.00    -0.206 F 
ATOM    101  C   UNL A   1      46.389  42.556  33.319  1.00  0.00     0.040 A 
ATOM    102  C   UNL A   1      44.040  42.856  33.057  1.00  0.00     0.040 A 
ATOM    103  F   UNL A   1      42.615  41.073  32.906  1.00  0.00    -0.206 F 
ATOM    104  C   UNL A   1      45.305  43.405  33.139  1.00  0.00     0.006 A 
ENDBRANCH  80  97
ENDBRANCH  54  55
ENDBRANCH  47  49
ENDBRANCH  46  47
ENDBRANCH  45  46
ENDBRANCH  44  45
ENDBRANCH  43  44
ENDBRANCH  42  43
ENDBRANCH  41  42
ENDBRANCH  40  41
ENDBRANCH  39  40
ENDBRANCH   1  39
TORSDOF 27
ENDMDL
MODEL 2
REMARK VINA RESULT:      -9.4      7.209     13.098
REMARK SMILES Cc1ccc(S(=O)(=O)n2cc(C(=O)C(=O)NCC(=O)NCC(=O)OCCOCCOCCOCCOC(=O)c3ccc(-c4c5nc(c(-c6c(F)cccc6F)c6ccc([nH]6)c(-c6c(F)cccc6F)c6nc(c(-c7c(F)cccc7F)c7ccc4[nH]7)C=C6)C=C5)cc3)c3ccccc32)cc1
REMARK SMILES IDX 28 1 27 2 26 3 25 4 24 5 22 6 23 7 21 8 20 9 18 10 19 11
REMARK SMILES IDX 17 13 16 14 14 15 15 16 12 18 13 19 11 20 9 21 10 22 98 23
REMARK SMILES IDX 93 24 97 25 94 26 96 27 95 28 6 29 7 30 8 31 5 32 1 33 2 34
REMARK SMILES IDX 3 35 100 36 4 37 99 38 29 39 30 40 31 41 32 42 33 43 34 44
REMARK SMILES IDX 35 45 36 46 37 47 38 48 39 49 40 50 92 51 41 52 91 53 42 54
REMARK SMILES IDX 43 55 44 56 85 57 45 58 90 59 84 60 86 61 46 62 89 63 83 64
REMARK SMILES IDX 82 65 47 67 73 68 56 69 72 70 57 71 60 72 71 73 87 74 58 75
REMARK SMILES IDX 59 76 70 78 88 79 61 80 48 81 49 82 54 83 50 84 51 85 53 86
REMARK SMILES IDX 55 87 52 88 74 89 75 90 80 91 76 92 77 93 79 94 81 95 78 96
REMARK SMILES IDX 62 97 63 98 68 99 64 100 65 101 67 102 69 103 66 104
REMARK H PARENT 20 12 16 17 86 66 60 77
REMARK Flexibility Score: inf
ROOT
ATOM      1  C   UNL A   1      43.556  18.556  25.326  1.00  0.00     0.188 C 
ENDROOT
BRANCH   1   2
ATOM      2  O   UNL A   1      44.898  18.199  25.615  1.00  0.00    -0.376 OA
BRANCH   2   3
ATOM      3  C   UNL A   1      45.906  19.034  25.024  1.00  0.00     0.202 C 
BRANCH   3   4
ATOM      4  C   UNL A   1      45.743  20.554  25.182  1.00  0.00     0.261 C 
BRANCH   4   5
ATOM      5  O   UNL A   1      45.120  21.119  24.005  1.00  0.00    -0.462 OA
BRANCH   5   6
ATOM      6  C   UNL A   1      44.525  22.327  24.159  1.00  0.00     0.325 C 
ATOM      7  O   UNL A   1      43.317  22.503  24.253  1.00  0.00    -0.250 OA
BRANCH   6   8
ATOM      8  C   UNL A   1      45.547  23.457  24.387  1.00  0.00     0.238 C 
BRANCH   8   9
ATOM      9  N   UNL A   1      45.205  24.589  25.252  1.00  0.00    -0.344 N 
ATOM     10  C   UNL A   1      45.808  25.802  25.376  1.00  0.00     0.239 C 
ATOM     11  O   UNL A   1      45.234  26.699  25.996  1.00  0.00    -0.273 OA
ATOM     12  H   UNL A   1      44.421  24.452  25.830  1.00  0.00     0.164 HD
BRANCH  10  13
ATOM     13  C   UNL A   1      47.223  25.983  24.859  1.00  0.00     0.216 C 
BRANCH  13  14
ATOM     14  N   UNL A   1      47.698  27.266  25.356  1.00  0.00    -0.340 N 
ATOM     15  C   UNL A   1      48.972  27.734  25.572  1.00  0.00     0.292 C 
ATOM     16  O   UNL A   1      49.118  28.862  26.026  1.00  0.00    -0.265 OA
ATOM     17  H   UNL A   1      46.985  27.908  25.574  1.00  0.00     0.164 HD
BRANCH  15  18
ATOM     18  C   UNL A   1      50.202  26.854  25.252  1.00  0.00     0.252 C 
ATOM     19  O   UNL A   1      50.544  26.015  26.082  1.00  0.00    -0.283 OA
BRANCH  18  20
ATOM     20  C   UNL A   1      50.965  27.024  24.010  1.00  0.00     0.054 A 
ATOM     21  N   UNL A   1      52.643  27.312  22.563  1.00  0.00    -0.240 N 
ATOM     22  C   UNL A   1      52.315  27.293  23.894  1.00  0.00     0.117 A 
ATOM     23  C   UNL A   1      51.502  27.291  21.784  1.00  0.00     0.065 A 
ATOM     24  C   UNL A   1      50.441  27.050  22.670  1.00  0.00     0.012 A 
ATOM     25  C   UNL A   1      51.290  27.496  20.409  1.00  0.00     0.028 A 
ATOM     26  C   UNL A   1      49.138  26.928  22.136  1.00  0.00     0.011 A 
ATOM     27  C   UNL A   1      49.980  27.442  19.927  1.00  0.00     0.002 A 
ATOM     28  C   UNL A   1      48.919  27.142  20.773  1.00  0.00     0.001 A 
BRANCH  21  29
ATOM     29  S   UNL A   1      54.206  27.684  21.992  1.00  0.00     0.268 S 
ATOM     30  O   UNL A   1      54.517  26.703  20.983  1.00  0.00    -0.201 OA
ATOM     31  O   UNL A   1      55.034  27.899  23.173  1.00  0.00    -0.201 OA
BRANCH  29  32
ATOM     32  C   UNL A   1      54.086  29.257  21.191  1.00  0.00     0.088 A 
ATOM     33  C   UNL A   1      53.875  33.197  19.515  1.00  0.00     0.044 C 
ATOM     34  C   UNL A   1      53.929  31.814  20.089  1.00  0.00    -0.051 A 
ATOM     35  C   UNL A   1      53.406  31.564  21.365  1.00  0.00     0.005 A 
ATOM     36  C   UNL A   1      54.502  30.765  19.361  1.00  0.00     0.005 A 
ATOM     37  C   UNL A   1      53.487  30.289  21.919  1.00  0.00     0.022 A 
ATOM     38  C   UNL A   1      54.573  29.484  19.904  1.00  0.00     0.022 A 
ENDBRANCH  29  32
ENDBRANCH  21  29
ENDBRANCH  18  20
ENDBRANCH  15  18
ENDBRANCH  13  14
ENDBRANCH  10  13
ENDBRANCH   8   9
ENDBRANCH   6   8
ENDBRANCH   5   6
ENDBRANCH   4   5
ENDBRANCH   3   4
ENDBRANCH   2   3
ENDBRANCH   1   2
BRANCH   1  39
ATOM     39  C   UNL A   1      42.628  18.846  26.500  1.00  0.00     0.188 C 
BRANCH  39  40
ATOM     40  O   UNL A   1      42.311  20.216  26.762  1.00  0.00    -0.377 OA
BRANCH  40  41
ATOM     41  C   UNL A   1      40.963  20.648  26.634  1.00  0.00     0.188 C 
BRANCH  41  42
ATOM     42  C   UNL A   1      40.750  22.155  26.519  1.00  0.00     0.188 C 
BRANCH  42  43
ATOM     43  O   UNL A   1      39.570  22.634  27.142  1.00  0.00    -0.376 OA
BRANCH  43  44
ATOM     44  C   UNL A   1      39.567  23.973  27.641  1.00  0.00     0.202 C 
BRANCH  44  45
ATOM     45  C   UNL A   1      39.819  25.107  26.639  1.00  0.00     0.261 C 
BRANCH  45  46
ATOM     46  O   UNL A   1      40.529  26.175  27.287  1.00  0.00    -0.460 OA
BRANCH  46  47
ATOM     47  C   UNL A   1      41.117  27.063  26.445  1.00  0.00     0.338 C 
ATOM     48  O   UNL A   1      41.961  26.791  25.607  1.00  0.00    -0.246 OA
BRANCH  47  49
ATOM     49  C   UNL A   1      40.814  28.451  26.895  1.00  0.00     0.060 A 
ATOM     50  C   UNL A   1      41.797  29.156  27.605  1.00  0.00     0.016 A 
ATOM     51  C   UNL A   1      39.484  28.858  26.963  1.00  0.00     0.016 A 
ATOM     52  C   UNL A   1      41.417  30.097  28.570  1.00  0.00     0.010 A 
ATOM     53  C   UNL A   1      39.110  29.697  27.993  1.00  0.00     0.010 A 
ATOM     54  C   UNL A   1      40.065  30.255  28.857  1.00  0.00    -0.014 A 
BRANCH  54  55
ATOM     55  C   UNL A   1      39.530  30.761  30.132  1.00  0.00     0.031 A 
ATOM     56  C   UNL A   1      38.722  32.014  30.127  1.00  0.00     0.074 A 
ATOM     57  C   UNL A   1      39.503  29.931  31.209  1.00  0.00     0.049 A 
ATOM     58  N   UNL A   1      38.043  32.436  31.132  1.00  0.00    -0.248 NA
ATOM     59  C   UNL A   1      38.580  32.897  28.972  1.00  0.00     0.031 C 
ATOM     60  C   UNL A   1      38.609  29.989  32.364  1.00  0.00     0.029 A 
ATOM     61  N   UNL A   1      40.289  28.835  31.518  1.00  0.00    -0.354 N 
ATOM     62  C   UNL A   1      37.230  33.474  30.743  1.00  0.00     0.074 A 
ATOM     63  C   UNL A   1      37.625  33.742  29.385  1.00  0.00     0.031 C 
ATOM     64  C   UNL A   1      38.953  29.082  33.290  1.00  0.00     0.029 A 
ATOM     65  C   UNL A   1      40.244  28.579  32.900  1.00  0.00     0.049 A 
ATOM     66  H   UNL A   1      40.808  28.311  30.865  1.00  0.00     0.167 HD
ATOM     67  C   UNL A   1      36.280  33.901  31.629  1.00  0.00     0.037 A 
ATOM     68  C   UNL A   1      41.370  28.811  33.647  1.00  0.00     0.037 A 
ATOM     69  C   UNL A   1      36.592  33.385  32.976  1.00  0.00     0.049 A 
ATOM     70  C   UNL A   1      41.300  30.141  34.404  1.00  0.00     0.074 A 
ATOM     71  C   UNL A   1      36.005  32.501  33.864  1.00  0.00     0.029 A 
ATOM     72  N   UNL A   1      37.877  33.606  33.469  1.00  0.00    -0.354 N 
ATOM     73  N   UNL A   1      40.304  30.986  34.272  1.00  0.00    -0.248 NA
ATOM     74  C   UNL A   1      42.275  30.638  35.367  1.00  0.00     0.031 C 
ATOM     75  C   UNL A   1      37.039  32.043  34.740  1.00  0.00     0.029 A 
ATOM     76  C   UNL A   1      38.168  32.814  34.557  1.00  0.00     0.049 A 
ATOM     77  H   UNL A   1      38.506  34.256  33.081  1.00  0.00     0.167 HD
ATOM     78  C   UNL A   1      40.418  32.040  35.125  1.00  0.00     0.074 A 
ATOM     79  C   UNL A   1      41.724  31.814  35.734  1.00  0.00     0.031 C 
ATOM     80  C   UNL A   1      39.435  32.988  35.269  1.00  0.00     0.037 A 
BRANCH  67  81
ATOM     81  C   UNL A   1      35.019  34.683  31.292  1.00  0.00     0.057 A 
ATOM     82  C   UNL A   1      34.471  35.593  32.220  1.00  0.00     0.134 A 
ATOM     83  C   UNL A   1      34.228  34.514  30.136  1.00  0.00     0.134 A 
ATOM     84  F   UNL A   1      35.082  35.858  33.383  1.00  0.00    -0.206 F 
ATOM     85  C   UNL A   1      33.253  36.268  32.019  1.00  0.00     0.040 A 
ATOM     86  C   UNL A   1      33.028  35.210  29.904  1.00  0.00     0.040 A 
ATOM     87  F   UNL A   1      34.535  33.631  29.182  1.00  0.00    -0.206 F 
ATOM     88  C   UNL A   1      32.528  36.084  30.852  1.00  0.00     0.006 A 
ENDBRANCH  67  81
BRANCH  68  89
ATOM     89  C   UNL A   1      42.511  28.050  33.035  1.00  0.00     0.057 A 
ATOM     90  C   UNL A   1      43.467  28.886  32.407  1.00  0.00     0.134 A 
ATOM     91  C   UNL A   1      43.011  26.907  33.670  1.00  0.00     0.134 A 
ATOM     92  F   UNL A   1      43.057  29.968  31.724  1.00  0.00    -0.206 F 
ATOM     93  C   UNL A   1      44.833  28.787  32.697  1.00  0.00     0.040 A 
ATOM     94  C   UNL A   1      44.390  26.768  33.912  1.00  0.00     0.040 A 
ATOM     95  F   UNL A   1      42.180  26.035  34.257  1.00  0.00    -0.206 F 
ATOM     96  C   UNL A   1      45.289  27.755  33.507  1.00  0.00     0.006 A 
ENDBRANCH  68  89
BRANCH  80  97
ATOM     97  C   UNL A   1      39.587  34.227  36.119  1.00  0.00     0.057 A 
ATOM     98  C   UNL A   1      39.009  34.366  37.383  1.00  0.00     0.134 A 
ATOM     99  C   UNL A   1      40.324  35.353  35.680  1.00  0.00     0.134 A 
ATOM    100  F   UNL A   1      38.092  33.495  37.829  1.00  0.00    -0.206 F 
ATOM    101  C   UNL A   1      39.337  35.425  38.238  1.00  0.00     0.040 A 
ATOM    102  C   UNL A   1      40.606  36.444  36.497  1.00  0.00     0.040 A 
ATOM    103  F   UNL A   1      40.842  35.451  34.450  1.00  0.00    -0.206 F 
ATOM    104  C   UNL A   1      40.164  36.454  37.806  1.00  0.00     0.006 A 
ENDBRANCH  80  97
ENDBRANCH  54  55
ENDBRANCH  47  49
ENDBRANCH  46  47
ENDBRANCH  45  46
ENDBRANCH  44  45
ENDBRANCH  43  44
ENDBRANCH  42  43
ENDBRANCH  41  42
ENDBRANCH  40  41
ENDBRANCH  39  40
ENDBRANCH   1  39
TORSDOF 27
ENDMDL
MODEL 3
REMARK VINA RESULT:      -9.4      6.554     11.767
REMARK SMILES Cc1ccc(S(=O)(=O)n2cc(C(=O)C(=O)NCC(=O)NCC(=O)OCCOCCOCCOCCOC(=O)c3ccc(-c4c5nc(c(-c6c(F)cccc6F)c6ccc([nH]6)c(-c6c(F)cccc6F)c6nc(c(-c7c(F)cccc7F)c7ccc4[nH]7)C=C6)C=C5)cc3)c3ccccc32)cc1
REMARK SMILES IDX 28 1 27 2 26 3 25 4 24 5 22 6 23 7 21 8 20 9 18 10 19 11
REMARK SMILES IDX 17 13 16 14 14 15 15 16 12 18 13 19 11 20 9 21 10 22 98 23
REMARK SMILES IDX 93 24 97 25 94 26 96 27 95 28 6 29 7 30 8 31 5 32 1 33 2 34
REMARK SMILES IDX 3 35 100 36 4 37 99 38 29 39 30 40 31 41 32 42 33 43 34 44
REMARK SMILES IDX 35 45 36 46 37 47 38 48 39 49 40 50 92 51 41 52 91 53 42 54
REMARK SMILES IDX 43 55 44 56 85 57 45 58 90 59 84 60 86 61 46 62 89 63 83 64
REMARK SMILES IDX 82 65 47 67 73 68 56 69 72 70 57 71 60 72 71 73 87 74 58 75
REMARK SMILES IDX 59 76 70 78 88 79 61 80 48 81 49 82 54 83 50 84 51 85 53 86
REMARK SMILES IDX 55 87 52 88 74 89 75 90 80 91 76 92 77 93 79 94 81 95 78 96
REMARK SMILES IDX 62 97 63 98 68 99 64 100 65 101 67 102 69 103 66 104
REMARK H PARENT 20 12 16 17 86 66 60 77
REMARK Flexibility Score: inf
ROOT
ATOM      1  C   UNL A   1      43.444  18.478  25.302  1.00  0.00     0.188 C 
ENDROOT
BRANCH   1   2
ATOM      2  O   UNL A   1      44.836  18.453  25.570  1.00  0.00    -0.376 OA
BRANCH   2   3
ATOM      3  C   UNL A   1      45.651  19.264  24.709  1.00  0.00     0.202 C 
BRANCH   3   4
ATOM      4  C   UNL A   1      46.082  20.641  25.239  1.00  0.00     0.261 C 
BRANCH   4   5
ATOM      5  O   UNL A   1      45.179  21.668  24.764  1.00  0.00    -0.462 OA
BRANCH   5   6
ATOM      6  C   UNL A   1      44.775  22.583  25.678  1.00  0.00     0.325 C 
ATOM      7  O   UNL A   1      44.106  22.328  26.672  1.00  0.00    -0.250 OA
BRANCH   6   8
ATOM      8  C   UNL A   1      45.400  23.969  25.432  1.00  0.00     0.238 C 
BRANCH   8   9
ATOM      9  N   UNL A   1      46.737  24.271  25.952  1.00  0.00    -0.344 N 
ATOM     10  C   UNL A   1      47.157  24.422  27.237  1.00  0.00     0.239 C 
ATOM     11  O   UNL A   1      48.366  24.452  27.475  1.00  0.00    -0.273 OA
ATOM     12  H   UNL A   1      47.436  24.381  25.268  1.00  0.00     0.164 HD
BRANCH  10  13
ATOM     13  C   UNL A   1      46.133  24.677  28.326  1.00  0.00     0.216 C 
BRANCH  13  14
ATOM     14  N   UNL A   1      46.357  26.029  28.814  1.00  0.00    -0.340 N 
ATOM     15  C   UNL A   1      45.890  26.673  29.935  1.00  0.00     0.292 C 
ATOM     16  O   UNL A   1      46.205  27.842  30.120  1.00  0.00    -0.265 OA
ATOM     17  H   UNL A   1      46.943  26.577  28.244  1.00  0.00     0.164 HD
BRANCH  15  18
ATOM     18  C   UNL A   1      44.978  25.940  30.946  1.00  0.00     0.252 C 
ATOM     19  O   UNL A   1      43.853  25.611  30.578  1.00  0.00    -0.283 OA
BRANCH  18  20
ATOM     20  C   UNL A   1      45.421  25.661  32.317  1.00  0.00     0.054 A 
ATOM     21  N   UNL A   1      46.477  25.789  34.282  1.00  0.00    -0.240 N 
ATOM     22  C   UNL A   1      46.421  26.309  33.015  1.00  0.00     0.117 A 
ATOM     23  C   UNL A   1      45.693  24.655  34.373  1.00  0.00     0.065 A 
ATOM     24  C   UNL A   1      44.975  24.591  33.170  1.00  0.00     0.012 A 
ATOM     25  C   UNL A   1      45.570  23.665  35.365  1.00  0.00     0.028 A 
ATOM     26  C   UNL A   1      44.044  23.541  33.001  1.00  0.00     0.011 A 
ATOM     27  C   UNL A   1      44.695  22.602  35.133  1.00  0.00     0.002 A 
ATOM     28  C   UNL A   1      43.926  22.549  33.977  1.00  0.00     0.001 A 
BRANCH  21  29
ATOM     29  S   UNL A   1      47.633  26.270  35.439  1.00  0.00     0.268 S 
ATOM     30  O   UNL A   1      48.076  27.585  35.053  1.00  0.00    -0.201 OA
ATOM     31  O   UNL A   1      48.542  25.142  35.605  1.00  0.00    -0.201 OA
BRANCH  29  32
ATOM     32  C   UNL A   1      46.769  26.426  36.976  1.00  0.00     0.088 A 
ATOM     33  C   UNL A   1      44.928  26.928  40.815  1.00  0.00     0.044 C 
ATOM     34  C   UNL A   1      45.562  26.731  39.471  1.00  0.00    -0.051 A 
ATOM     35  C   UNL A   1      46.880  26.267  39.379  1.00  0.00     0.005 A 
ATOM     36  C   UNL A   1      44.846  27.010  38.301  1.00  0.00     0.005 A 
ATOM     37  C   UNL A   1      47.487  26.118  38.134  1.00  0.00     0.022 A 
ATOM     38  C   UNL A   1      45.442  26.849  37.053  1.00  0.00     0.022 A 
ENDBRANCH  29  32
ENDBRANCH  21  29
ENDBRANCH  18  20
ENDBRANCH  15  18
ENDBRANCH  13  14
ENDBRANCH  10  13
ENDBRANCH   8   9
ENDBRANCH   6   8
ENDBRANCH   5   6
ENDBRANCH   4   5
ENDBRANCH   3   4
ENDBRANCH   2   3
ENDBRANCH   1   2
BRANCH   1  39
ATOM     39  C   UNL A   1      42.576  19.414  26.133  1.00  0.00     0.188 C 
BRANCH  39  40
ATOM     40  O   UNL A   1      41.188  19.495  25.794  1.00  0.00    -0.377 OA
BRANCH  40  41
ATOM     41  C   UNL A   1      40.339  20.337  26.562  1.00  0.00     0.188 C 
BRANCH  41  42
ATOM     42  C   UNL A   1      40.575  21.838  26.420  1.00  0.00     0.188 C 
BRANCH  42  43
ATOM     43  O   UNL A   1      40.035  22.624  27.469  1.00  0.00    -0.376 OA
BRANCH  43  44
ATOM     44  C   UNL A   1      40.528  23.954  27.640  1.00  0.00     0.202 C 
BRANCH  44  45
ATOM     45  C   UNL A   1      39.534  25.109  27.466  1.00  0.00     0.261 C 
BRANCH  45  46
ATOM     46  O   UNL A   1      40.224  26.363  27.597  1.00  0.00    -0.460 OA
BRANCH  46  47
ATOM     47  C   UNL A   1      39.532  27.329  28.255  1.00  0.00     0.338 C 
ATOM     48  O   UNL A   1      38.880  28.216  27.728  1.00  0.00    -0.246 OA
BRANCH  47  49
ATOM     49  C   UNL A   1      39.930  27.336  29.690  1.00  0.00     0.060 A 
ATOM     50  C   UNL A   1      38.925  27.283  30.666  1.00  0.00     0.016 A 
ATOM     51  C   UNL A   1      41.202  27.789  30.030  1.00  0.00     0.016 A 
ATOM     52  C   UNL A   1      39.119  27.915  31.900  1.00  0.00     0.010 A 
ATOM     53  C   UNL A   1      41.348  28.509  31.199  1.00  0.00     0.010 A 
ATOM     54  C   UNL A   1      40.284  28.650  32.102  1.00  0.00    -0.014 A 
BRANCH  54  55
ATOM     55  C   UNL A   1      40.421  29.760  33.059  1.00  0.00     0.031 A 
ATOM     56  C   UNL A   1      41.243  29.555  34.287  1.00  0.00     0.074 A 
ATOM     57  C   UNL A   1      40.083  31.016  32.662  1.00  0.00     0.049 A 
ATOM     58  N   UNL A   1      41.597  30.499  35.081  1.00  0.00    -0.248 NA
ATOM     59  C   UNL A   1      41.768  28.262  34.717  1.00  0.00     0.031 C 
ATOM     60  C   UNL A   1      40.580  32.287  33.185  1.00  0.00     0.029 A 
ATOM     61  N   UNL A   1      39.194  31.442  31.689  1.00  0.00    -0.354 N 
ATOM     62  C   UNL A   1      42.533  30.031  35.973  1.00  0.00     0.074 A 
ATOM     63  C   UNL A   1      42.584  28.616  35.721  1.00  0.00     0.031 C 
ATOM     64  C   UNL A   1      39.932  33.325  32.636  1.00  0.00     0.029 A 
ATOM     65  C   UNL A   1      38.804  32.769  31.936  1.00  0.00     0.049 A 
ATOM     66  H   UNL A   1      38.880  30.893  30.934  1.00  0.00     0.167 HD
ATOM     67  C   UNL A   1      43.182  30.951  36.750  1.00  0.00     0.037 A 
ATOM     68  C   UNL A   1      37.512  33.009  32.333  1.00  0.00     0.037 A 
ATOM     69  C   UNL A   1      42.450  32.232  36.716  1.00  0.00     0.049 A 
ATOM     70  C   UNL A   1      37.402  33.229  33.845  1.00  0.00     0.074 A 
ATOM     71  C   UNL A   1      42.699  33.508  36.244  1.00  0.00     0.029 A 
ATOM     72  N   UNL A   1      41.087  32.203  37.002  1.00  0.00    -0.354 N 
ATOM     73  N   UNL A   1      38.424  33.112  34.660  1.00  0.00    -0.248 NA
ATOM     74  C   UNL A   1      36.199  33.611  34.575  1.00  0.00     0.031 C 
ATOM     75  C   UNL A   1      41.429  34.135  36.047  1.00  0.00     0.029 A 
ATOM     76  C   UNL A   1      40.443  33.359  36.622  1.00  0.00     0.049 A 
ATOM     77  H   UNL A   1      40.634  31.440  37.429  1.00  0.00     0.167 HD
ATOM     78  C   UNL A   1      38.097  33.459  35.934  1.00  0.00     0.074 A 
ATOM     79  C   UNL A   1      36.659  33.685  35.842  1.00  0.00     0.031 C 
ATOM     80  C   UNL A   1      39.027  33.546  36.942  1.00  0.00     0.037 A 
BRANCH  67  81
ATOM     81  C   UNL A   1      44.516  30.755  37.454  1.00  0.00     0.057 A 
ATOM     82  C   UNL A   1      45.656  30.347  36.730  1.00  0.00     0.134 A 
ATOM     83  C   UNL A   1      44.733  30.834  38.846  1.00  0.00     0.134 A 
ATOM     84  F   UNL A   1      45.622  30.201  35.399  1.00  0.00    -0.206 F 
ATOM     85  C   UNL A   1      46.891  30.044  37.332  1.00  0.00     0.040 A 
ATOM     86  C   UNL A   1      45.972  30.571  39.458  1.00  0.00     0.040 A 
ATOM     87  F   UNL A   1      43.753  31.118  39.708  1.00  0.00    -0.206 F 
ATOM     88  C   UNL A   1      47.056  30.164  38.703  1.00  0.00     0.006 A 
ENDBRANCH  67  81
BRANCH  68  89
ATOM     89  C   UNL A   1      36.585  32.393  31.325  1.00  0.00     0.057 A 
ATOM     90  C   UNL A   1      36.705  32.966  30.034  1.00  0.00     0.134 A 
ATOM     91  C   UNL A   1      36.312  31.021  31.370  1.00  0.00     0.134 A 
ATOM     92  F   UNL A   1      36.904  34.289  29.910  1.00  0.00    -0.206 F 
ATOM     93  C   UNL A   1      36.898  32.176  28.895  1.00  0.00     0.040 A 
ATOM     94  C   UNL A   1      36.443  30.227  30.215  1.00  0.00     0.040 A 
ATOM     95  F   UNL A   1      36.142  30.398  32.544  1.00  0.00    -0.206 F 
ATOM     96  C   UNL A   1      36.829  30.793  28.999  1.00  0.00     0.006 A 
ENDBRANCH  68  89
BRANCH  80  97
ATOM     97  C   UNL A   1      38.672  33.814  38.386  1.00  0.00     0.057 A 
ATOM     98  C   UNL A   1      38.000  32.895  39.194  1.00  0.00     0.134 A 
ATOM     99  C   UNL A   1      38.990  35.038  39.022  1.00  0.00     0.134 A 
ATOM    100  F   UNL A   1      37.424  31.801  38.673  1.00  0.00    -0.206 F 
ATOM    101  C   UNL A   1      37.873  33.074  40.576  1.00  0.00     0.040 A 
ATOM    102  C   UNL A   1      38.811  35.256  40.385  1.00  0.00     0.040 A 
ATOM    103  F   UNL A   1      39.521  36.082  38.373  1.00  0.00    -0.206 F 
ATOM    104  C   UNL A   1      38.308  34.245  41.182  1.00  0.00     0.006 A 
ENDBRANCH  80  97
ENDBRANCH  54  55
ENDBRANCH  47  49
ENDBRANCH  46  47
ENDBRANCH  45  46
ENDBRANCH  44  45
ENDBRANCH  43  44
ENDBRANCH  42  43
ENDBRANCH  41  42
ENDBRANCH  40  41
ENDBRANCH  39  40
ENDBRANCH   1  39
TORSDOF 27
ENDMDL
