MODEL 1
REMARK VINA RESULT:      -9.6      0.000      0.000
REMARK SMILES CC(C)(C)OC(=O)N1CCC(c2c(C(=O)OCCOCCOCCOCCOC(=O)c3ccc(-c4c5nc(c(-c6c(F)cccc6F)c6ccc([nH]6)c(-c6c(F)cccc6F)c6nc(c(-c7c(F)cccc7F)c7ccc4[nH]7)C=C6)C=C5)cc3)cnn2-c2ccccc2)CC1
REMARK SMILES IDX 21 1 20 2 19 3 18 4 17 5 16 6 14 7 15 8 13 9 12 10 87 11
REMARK SMILES IDX 85 12 86 13 11 14 6 15 7 16 8 17 9 18 95 19 10 20 94 21 5 22
REMARK SMILES IDX 2 23 1 24 3 25 4 26 88 27 89 28 93 29 90 30 92 31 91 32
REMARK SMILES IDX 22 33 23 34 24 35 25 36 26 37 27 38 28 39 29 40 30 41 31 42
REMARK SMILES IDX 32 43 84 44 33 45 83 46 34 47 35 48 36 49 77 50 37 51 82 52
REMARK SMILES IDX 76 53 78 54 38 55 81 56 75 57 74 58 39 60 65 61 48 62 64 63
REMARK SMILES IDX 49 64 52 65 63 66 79 67 50 68 51 69 62 71 80 72 53 73 40 74
REMARK SMILES IDX 41 75 46 76 42 77 43 78 45 79 47 80 44 81 66 82 67 83 72 84
REMARK SMILES IDX 68 85 69 86 71 87 73 88 70 89 54 90 55 91 60 92 56 93 57 94
REMARK SMILES IDX 59 95 61 96 58 97
REMARK H PARENT 78 59 52 70
REMARK Flexibility Score: inf
ROOT
ATOM      1  C   UNL A   1      42.213  19.074  25.879  1.00  0.00     0.188 C 
ENDROOT
BRANCH   1   2
ATOM      2  C   UNL A   1      40.895  19.710  26.388  1.00  0.00     0.188 C 
BRANCH   2   3
ATOM      3  O   UNL A   1      40.900  21.114  26.288  1.00  0.00    -0.376 OA
BRANCH   3   4
ATOM      4  C   UNL A   1      39.714  21.780  25.931  1.00  0.00     0.202 C 
BRANCH   4   5
ATOM      5  C   UNL A   1      38.421  20.981  25.710  1.00  0.00     0.261 C 
BRANCH   5   6
ATOM      6  O   UNL A   1      37.640  21.252  24.536  1.00  0.00    -0.460 OA
BRANCH   6   7
ATOM      7  C   UNL A   1      36.951  22.420  24.441  1.00  0.00     0.341 C 
ATOM      8  O   UNL A   1      37.395  23.448  23.923  1.00  0.00    -0.246 OA
BRANCH   7   9
ATOM      9  C   UNL A   1      35.591  22.275  24.935  1.00  0.00     0.102 A 
ATOM     10  C   UNL A   1      34.479  23.128  24.807  1.00  0.00     0.062 A 
ATOM     11  N   UNL A   1      33.459  22.479  25.507  1.00  0.00    -0.237 N 
ATOM     12  C   UNL A   1      35.093  21.126  25.581  1.00  0.00     0.151 A 
ATOM     13  N   UNL A   1      33.837  21.268  25.978  1.00  0.00    -0.175 NA
BRANCH  10  14
ATOM     14  C   UNL A   1      34.361  24.408  23.978  1.00  0.00     0.043 C 
ATOM     15  C   UNL A   1      31.707  26.939  22.231  1.00  0.00     0.410 C 
ATOM     16  O   UNL A   1      30.903  26.234  21.632  1.00  0.00    -0.224 OA
ATOM     17  N   UNL A   1      32.985  26.499  22.529  1.00  0.00    -0.308 N 
ATOM     18  C   UNL A   1      33.442  25.309  21.852  1.00  0.00     0.124 C 
ATOM     19  C   UNL A   1      33.812  26.926  23.659  1.00  0.00     0.124 C 
ATOM     20  C   UNL A   1      33.362  24.168  22.838  1.00  0.00     0.032 C 
ATOM     21  C   UNL A   1      34.033  25.756  24.663  1.00  0.00     0.032 C 
BRANCH  15  22
ATOM     22  O   UNL A   1      31.464  28.225  22.599  1.00  0.00    -0.444 OA
BRANCH  22  23
ATOM     23  C   UNL A   1      30.558  28.467  23.715  1.00  0.00     0.106 C 
ATOM     24  C   UNL A   1      29.380  29.258  23.127  1.00  0.00     0.056 C 
ATOM     25  C   UNL A   1      31.244  29.326  24.786  1.00  0.00     0.056 C 
ATOM     26  C   UNL A   1      29.982  27.171  24.319  1.00  0.00     0.056 C 
ENDBRANCH  22  23
ENDBRANCH  15  22
ENDBRANCH  10  14
BRANCH  11  27
ATOM     27  C   UNL A   1      32.243  23.004  25.977  1.00  0.00     0.065 A 
ATOM     28  C   UNL A   1      32.253  24.317  26.461  1.00  0.00     0.028 A 
ATOM     29  C   UNL A   1      31.063  22.258  25.933  1.00  0.00     0.028 A 
ATOM     30  C   UNL A   1      31.052  24.926  26.808  1.00  0.00     0.002 A 
ATOM     31  C   UNL A   1      29.864  22.879  26.284  1.00  0.00     0.002 A 
ATOM     32  C   UNL A   1      29.858  24.214  26.699  1.00  0.00     0.000 A 
ENDBRANCH  11  27
ENDBRANCH   7   9
ENDBRANCH   6   7
ENDBRANCH   5   6
ENDBRANCH   4   5
ENDBRANCH   3   4
ENDBRANCH   2   3
ENDBRANCH   1   2
BRANCH   1  33
ATOM     33  O   UNL A   1      43.104  19.772  25.018  1.00  0.00    -0.377 OA
BRANCH  33  34
ATOM     34  C   UNL A   1      44.368  19.213  24.702  1.00  0.00     0.188 C 
BRANCH  34  35
ATOM     35  C   UNL A   1      45.650  19.838  25.304  1.00  0.00     0.188 C 
BRANCH  35  36
ATOM     36  O   UNL A   1      46.160  20.984  24.651  1.00  0.00    -0.376 OA
BRANCH  36  37
ATOM     37  C   UNL A   1      45.867  22.325  24.992  1.00  0.00     0.202 C 
BRANCH  37  38
ATOM     38  C   UNL A   1      45.035  22.703  26.210  1.00  0.00     0.261 C 
BRANCH  38  39
ATOM     39  O   UNL A   1      43.726  23.123  25.918  1.00  0.00    -0.460 OA
BRANCH  39  40
ATOM     40  C   UNL A   1      43.638  24.397  25.515  1.00  0.00     0.338 C 
ATOM     41  O   UNL A   1      44.270  24.948  24.622  1.00  0.00    -0.246 OA
BRANCH  40  42
ATOM     42  C   UNL A   1      42.732  25.082  26.426  1.00  0.00     0.060 A 
ATOM     43  C   UNL A   1      41.878  26.022  25.855  1.00  0.00     0.016 A 
ATOM     44  C   UNL A   1      43.065  25.073  27.789  1.00  0.00     0.016 A 
ATOM     45  C   UNL A   1      41.589  27.135  26.599  1.00  0.00     0.010 A 
ATOM     46  C   UNL A   1      42.805  26.197  28.517  1.00  0.00     0.010 A 
ATOM     47  C   UNL A   1      42.162  27.247  27.873  1.00  0.00    -0.014 A 
BRANCH  47  48
ATOM     48  C   UNL A   1      41.993  28.489  28.576  1.00  0.00     0.031 A 
ATOM     49  C   UNL A   1      43.117  29.408  28.325  1.00  0.00     0.074 A 
ATOM     50  C   UNL A   1      40.891  28.763  29.295  1.00  0.00     0.049 A 
ATOM     51  N   UNL A   1      44.058  29.722  29.148  1.00  0.00    -0.248 NA
ATOM     52  C   UNL A   1      43.352  29.839  26.937  1.00  0.00     0.031 C 
ATOM     53  C   UNL A   1      39.633  28.017  29.365  1.00  0.00     0.029 A 
ATOM     54  N   UNL A   1      40.642  29.853  30.064  1.00  0.00    -0.354 N 
ATOM     55  C   UNL A   1      44.878  30.588  28.440  1.00  0.00     0.074 A 
ATOM     56  C   UNL A   1      44.535  30.441  27.051  1.00  0.00     0.031 C 
ATOM     57  C   UNL A   1      38.688  28.792  29.948  1.00  0.00     0.029 A 
ATOM     58  C   UNL A   1      39.308  30.023  30.408  1.00  0.00     0.049 A 
ATOM     59  H   UNL A   1      41.351  30.472  30.355  1.00  0.00     0.167 HD
ATOM     60  C   UNL A   1      45.556  31.572  29.084  1.00  0.00     0.037 A 
ATOM     61  C   UNL A   1      38.778  31.146  30.956  1.00  0.00     0.037 A 
ATOM     62  C   UNL A   1      45.641  31.305  30.499  1.00  0.00     0.049 A 
ATOM     63  C   UNL A   1      39.904  31.928  31.534  1.00  0.00     0.074 A 
ATOM     64  C   UNL A   1      46.186  30.292  31.264  1.00  0.00     0.029 A 
ATOM     65  N   UNL A   1      44.754  31.963  31.316  1.00  0.00    -0.354 N 
ATOM     66  N   UNL A   1      40.586  31.548  32.579  1.00  0.00    -0.248 NA
ATOM     67  C   UNL A   1      40.575  32.888  30.670  1.00  0.00     0.031 C 
ATOM     68  C   UNL A   1      45.277  30.111  32.346  1.00  0.00     0.029 A 
ATOM     69  C   UNL A   1      44.262  31.061  32.224  1.00  0.00     0.049 A 
ATOM     70  H   UNL A   1      44.513  32.915  31.259  1.00  0.00     0.167 HD
ATOM     71  C   UNL A   1      41.904  31.865  32.275  1.00  0.00     0.074 A 
ATOM     72  C   UNL A   1      41.824  32.763  31.126  1.00  0.00     0.031 C 
ATOM     73  C   UNL A   1      42.936  31.136  32.794  1.00  0.00     0.037 A 
BRANCH  60  74
ATOM     74  C   UNL A   1      45.757  32.946  28.505  1.00  0.00     0.057 A 
ATOM     75  C   UNL A   1      47.044  33.505  28.520  1.00  0.00     0.134 A 
ATOM     76  C   UNL A   1      44.712  33.847  28.206  1.00  0.00     0.134 A 
ATOM     77  F   UNL A   1      48.116  32.754  28.816  1.00  0.00    -0.206 F 
ATOM     78  C   UNL A   1      47.267  34.871  28.316  1.00  0.00     0.040 A 
ATOM     79  C   UNL A   1      44.929  35.200  27.945  1.00  0.00     0.040 A 
ATOM     80  F   UNL A   1      43.421  33.501  28.252  1.00  0.00    -0.206 F 
ATOM     81  C   UNL A   1      46.206  35.724  28.032  1.00  0.00     0.006 A 
ENDBRANCH  60  74
BRANCH  61  82
ATOM     82  C   UNL A   1      37.447  31.753  30.720  1.00  0.00     0.057 A 
ATOM     83  C   UNL A   1      37.035  32.107  29.426  1.00  0.00     0.134 A 
ATOM     84  C   UNL A   1      36.442  31.733  31.703  1.00  0.00     0.134 A 
ATOM     85  F   UNL A   1      37.911  32.114  28.412  1.00  0.00    -0.206 F 
ATOM     86  C   UNL A   1      35.697  32.392  29.122  1.00  0.00     0.040 A 
ATOM     87  C   UNL A   1      35.105  32.023  31.413  1.00  0.00     0.040 A 
ATOM     88  F   UNL A   1      36.705  31.342  32.957  1.00  0.00    -0.206 F 
ATOM     89  C   UNL A   1      34.724  32.338  30.115  1.00  0.00     0.006 A 
ENDBRANCH  61  82
BRANCH  73  90
ATOM     90  C   UNL A   1      42.621  30.169  33.902  1.00  0.00     0.057 A 
ATOM     91  C   UNL A   1      42.552  30.514  35.262  1.00  0.00     0.134 A 
ATOM     92  C   UNL A   1      42.227  28.870  33.561  1.00  0.00     0.134 A 
ATOM     93  F   UNL A   1      42.816  31.760  35.675  1.00  0.00    -0.206 F 
ATOM     94  C   UNL A   1      42.149  29.595  36.237  1.00  0.00     0.040 A 
ATOM     95  C   UNL A   1      41.789  27.954  34.520  1.00  0.00     0.040 A 
ATOM     96  F   UNL A   1      42.214  28.485  32.275  1.00  0.00    -0.206 F 
ATOM     97  C   UNL A   1      41.759  28.312  35.865  1.00  0.00     0.006 A 
ENDBRANCH  73  90
ENDBRANCH  47  48
ENDBRANCH  40  42
ENDBRANCH  39  40
ENDBRANCH  38  39
ENDBRANCH  37  38
ENDBRANCH  36  37
ENDBRANCH  35  36
ENDBRANCH  34  35
ENDBRANCH  33  34
ENDBRANCH   1  33
TORSDOF 24
ENDMDL
MODEL 2
REMARK VINA RESULT:      -9.3      2.633      7.396
REMARK SMILES CC(C)(C)OC(=O)N1CCC(c2c(C(=O)OCCOCCOCCOCCOC(=O)c3ccc(-c4c5nc(c(-c6c(F)cccc6F)c6ccc([nH]6)c(-c6c(F)cccc6F)c6nc(c(-c7c(F)cccc7F)c7ccc4[nH]7)C=C6)C=C5)cc3)cnn2-c2ccccc2)CC1
REMARK SMILES IDX 21 1 20 2 19 3 18 4 17 5 16 6 14 7 15 8 13 9 12 10 87 11
REMARK SMILES IDX 85 12 86 13 11 14 6 15 7 16 8 17 9 18 95 19 10 20 94 21 5 22
REMARK SMILES IDX 2 23 1 24 3 25 4 26 88 27 89 28 93 29 90 30 92 31 91 32
REMARK SMILES IDX 22 33 23 34 24 35 25 36 26 37 27 38 28 39 29 40 30 41 31 42
REMARK SMILES IDX 32 43 84 44 33 45 83 46 34 47 35 48 36 49 77 50 37 51 82 52
REMARK SMILES IDX 76 53 78 54 38 55 81 56 75 57 74 58 39 60 65 61 48 62 64 63
REMARK SMILES IDX 49 64 52 65 63 66 79 67 50 68 51 69 62 71 80 72 53 73 40 74
REMARK SMILES IDX 41 75 46 76 42 77 43 78 45 79 47 80 44 81 66 82 67 83 72 84
REMARK SMILES IDX 68 85 69 86 71 87 73 88 70 89 54 90 55 91 60 92 56 93 57 94
REMARK SMILES IDX 59 95 61 96 58 97
REMARK H PARENT 78 59 52 70
REMARK Flexibility Score: inf
ROOT
ATOM      1  C   UNL A   1      37.538  22.528  25.411  1.00  0.00     0.188 C 
ENDROOT
BRANCH   1   2
ATOM      2  C   UNL A   1      36.295  23.223  26.023  1.00  0.00     0.188 C 
BRANCH   2   3
ATOM      3  O   UNL A   1      35.269  22.313  26.339  1.00  0.00    -0.376 OA
BRANCH   3   4
ATOM      4  C   UNL A   1      33.999  22.485  25.760  1.00  0.00     0.202 C 
BRANCH   4   5
ATOM      5  C   UNL A   1      33.134  23.694  26.149  1.00  0.00     0.261 C 
BRANCH   5   6
ATOM      6  O   UNL A   1      32.496  24.444  25.105  1.00  0.00    -0.460 OA
BRANCH   6   7
ATOM      7  C   UNL A   1      33.197  25.398  24.436  1.00  0.00     0.341 C 
ATOM      8  O   UNL A   1      34.428  25.481  24.434  1.00  0.00    -0.246 OA
BRANCH   7   9
ATOM      9  C   UNL A   1      32.319  26.244  23.645  1.00  0.00     0.102 A 
ATOM     10  C   UNL A   1      31.639  27.427  23.992  1.00  0.00     0.062 A 
ATOM     11  N   UNL A   1      30.931  27.773  22.839  1.00  0.00    -0.237 N 
ATOM     12  C   UNL A   1      32.066  26.072  22.270  1.00  0.00     0.151 A 
ATOM     13  N   UNL A   1      31.190  26.947  21.799  1.00  0.00    -0.175 NA
BRANCH  10  14
ATOM     14  C   UNL A   1      31.748  28.235  25.286  1.00  0.00     0.043 C 
ATOM     15  C   UNL A   1      34.153  30.762  27.369  1.00  0.00     0.410 C 
ATOM     16  O   UNL A   1      35.276  30.270  27.340  1.00  0.00    -0.224 OA
ATOM     17  N   UNL A   1      33.014  29.993  27.203  1.00  0.00    -0.308 N 
ATOM     18  C   UNL A   1      33.171  28.562  27.298  1.00  0.00     0.124 C 
ATOM     19  C   UNL A   1      31.733  30.442  26.655  1.00  0.00     0.124 C 
ATOM     20  C   UNL A   1      33.140  28.008  25.893  1.00  0.00     0.032 C 
ATOM     21  C   UNL A   1      31.436  29.750  25.292  1.00  0.00     0.032 C 
BRANCH  15  22
ATOM     22  O   UNL A   1      33.904  32.072  27.631  1.00  0.00    -0.444 OA
BRANCH  22  23
ATOM     23  C   UNL A   1      34.690  32.733  28.666  1.00  0.00     0.106 C 
ATOM     24  C   UNL A   1      35.985  33.187  27.975  1.00  0.00     0.056 C 
ATOM     25  C   UNL A   1      35.047  31.744  29.782  1.00  0.00     0.056 C 
ATOM     26  C   UNL A   1      34.008  33.995  29.230  1.00  0.00     0.056 C 
ENDBRANCH  22  23
ENDBRANCH  15  22
ENDBRANCH  10  14
BRANCH  11  27
ATOM     27  C   UNL A   1      29.854  28.666  22.702  1.00  0.00     0.065 A 
ATOM     28  C   UNL A   1      30.088  29.854  22.001  1.00  0.00     0.028 A 
ATOM     29  C   UNL A   1      28.591  28.366  23.217  1.00  0.00     0.028 A 
ATOM     30  C   UNL A   1      29.023  30.703  21.722  1.00  0.00     0.002 A 
ATOM     31  C   UNL A   1      27.529  29.225  22.931  1.00  0.00     0.002 A 
ATOM     32  C   UNL A   1      27.742  30.377  22.169  1.00  0.00     0.000 A 
ENDBRANCH  11  27
ENDBRANCH   7   9
ENDBRANCH   6   7
ENDBRANCH   5   6
ENDBRANCH   4   5
ENDBRANCH   3   4
ENDBRANCH   2   3
ENDBRANCH   1   2
BRANCH   1  33
ATOM     33  O   UNL A   1      38.473  21.815  26.212  1.00  0.00    -0.377 OA
BRANCH  33  34
ATOM     34  C   UNL A   1      39.501  21.058  25.595  1.00  0.00     0.188 C 
BRANCH  34  35
ATOM     35  C   UNL A   1      40.699  20.566  26.443  1.00  0.00     0.188 C 
BRANCH  35  36
ATOM     36  O   UNL A   1      41.831  21.414  26.485  1.00  0.00    -0.376 OA
BRANCH  36  37
ATOM     37  C   UNL A   1      41.816  22.793  26.794  1.00  0.00     0.202 C 
BRANCH  37  38
ATOM     38  C   UNL A   1      40.867  23.398  27.821  1.00  0.00     0.261 C 
BRANCH  38  39
ATOM     39  O   UNL A   1      41.190  24.707  28.217  1.00  0.00    -0.460 OA
BRANCH  39  40
ATOM     40  C   UNL A   1      40.808  25.650  27.347  1.00  0.00     0.338 C 
ATOM     41  O   UNL A   1      39.966  25.560  26.462  1.00  0.00    -0.246 OA
BRANCH  40  42
ATOM     42  C   UNL A   1      41.676  26.803  27.542  1.00  0.00     0.060 A 
ATOM     43  C   UNL A   1      42.686  26.660  28.490  1.00  0.00     0.016 A 
ATOM     44  C   UNL A   1      41.195  28.048  27.113  1.00  0.00     0.016 A 
ATOM     45  C   UNL A   1      43.011  27.769  29.228  1.00  0.00     0.010 A 
ATOM     46  C   UNL A   1      41.493  29.143  27.870  1.00  0.00     0.010 A 
ATOM     47  C   UNL A   1      42.315  28.958  28.975  1.00  0.00    -0.014 A 
BRANCH  47  48
ATOM     48  C   UNL A   1      42.538  30.066  29.864  1.00  0.00     0.031 A 
ATOM     49  C   UNL A   1      41.307  30.441  30.579  1.00  0.00     0.074 A 
ATOM     50  C   UNL A   1      43.756  30.606  30.045  1.00  0.00     0.049 A 
ATOM     51  N   UNL A   1      40.579  31.484  30.373  1.00  0.00    -0.248 NA
ATOM     52  C   UNL A   1      40.689  29.430  31.454  1.00  0.00     0.031 C 
ATOM     53  C   UNL A   1      45.055  30.116  29.579  1.00  0.00     0.029 A 
ATOM     54  N   UNL A   1      44.087  31.693  30.786  1.00  0.00    -0.354 N 
ATOM     55  C   UNL A   1      39.529  31.372  31.272  1.00  0.00     0.074 A 
ATOM     56  C   UNL A   1      39.522  30.010  31.733  1.00  0.00     0.031 C 
ATOM     57  C   UNL A   1      46.040  30.774  30.237  1.00  0.00     0.029 A 
ATOM     58  C   UNL A   1      45.443  31.813  31.059  1.00  0.00     0.049 A 
ATOM     59  H   UNL A   1      43.421  32.346  31.102  1.00  0.00     0.167 HD
ATOM     60  C   UNL A   1      38.947  32.484  31.789  1.00  0.00     0.037 A 
ATOM     61  C   UNL A   1      45.987  32.663  31.967  1.00  0.00     0.037 A 
ATOM     62  C   UNL A   1      39.247  33.648  30.992  1.00  0.00     0.049 A 
ATOM     63  C   UNL A   1      44.976  33.719  32.242  1.00  0.00     0.074 A 
ATOM     64  C   UNL A   1      39.011  34.013  29.682  1.00  0.00     0.029 A 
ATOM     65  N   UNL A   1      40.247  34.475  31.444  1.00  0.00    -0.354 N 
ATOM     66  N   UNL A   1      44.619  34.622  31.372  1.00  0.00    -0.248 NA
ATOM     67  C   UNL A   1      44.021  33.478  33.315  1.00  0.00     0.031 C 
ATOM     68  C   UNL A   1      40.177  34.725  29.276  1.00  0.00     0.029 A 
ATOM     69  C   UNL A   1      41.035  34.815  30.374  1.00  0.00     0.049 A 
ATOM     70  H   UNL A   1      40.375  34.774  32.373  1.00  0.00     0.167 HD
ATOM     71  C   UNL A   1      43.243  34.738  31.526  1.00  0.00     0.074 A 
ATOM     72  C   UNL A   1      42.945  34.073  32.792  1.00  0.00     0.031 C 
ATOM     73  C   UNL A   1      42.449  35.096  30.475  1.00  0.00     0.037 A 
BRANCH  60  74
ATOM     74  C   UNL A   1      38.478  32.577  33.216  1.00  0.00     0.057 A 
ATOM     75  C   UNL A   1      37.177  33.038  33.472  1.00  0.00     0.134 A 
ATOM     76  C   UNL A   1      39.328  32.517  34.341  1.00  0.00     0.134 A 
ATOM     77  F   UNL A   1      36.285  33.164  32.478  1.00  0.00    -0.206 F 
ATOM     78  C   UNL A   1      36.774  33.466  34.741  1.00  0.00     0.040 A 
ATOM     79  C   UNL A   1      38.918  32.888  35.622  1.00  0.00     0.040 A 
ATOM     80  F   UNL A   1      40.624  32.199  34.254  1.00  0.00    -0.206 F 
ATOM     81  C   UNL A   1      37.647  33.396  35.820  1.00  0.00     0.006 A 
ENDBRANCH  60  74
BRANCH  61  82
ATOM     82  C   UNL A   1      47.152  32.448  32.857  1.00  0.00     0.057 A 
ATOM     83  C   UNL A   1      47.106  31.497  33.888  1.00  0.00     0.134 A 
ATOM     84  C   UNL A   1      48.425  32.953  32.541  1.00  0.00     0.134 A 
ATOM     85  F   UNL A   1      45.944  30.926  34.234  1.00  0.00    -0.206 F 
ATOM     86  C   UNL A   1      48.262  31.051  34.543  1.00  0.00     0.040 A 
ATOM     87  C   UNL A   1      49.585  32.521  33.193  1.00  0.00     0.040 A 
ATOM     88  F   UNL A   1      48.599  33.812  31.527  1.00  0.00    -0.206 F 
ATOM     89  C   UNL A   1      49.509  31.555  34.188  1.00  0.00     0.006 A 
ENDBRANCH  61  82
BRANCH  73  90
ATOM     90  C   UNL A   1      43.123  35.620  29.236  1.00  0.00     0.057 A 
ATOM     91  C   UNL A   1      43.521  36.954  29.053  1.00  0.00     0.134 A 
ATOM     92  C   UNL A   1      43.516  34.704  28.253  1.00  0.00     0.134 A 
ATOM     93  F   UNL A   1      43.276  37.885  29.983  1.00  0.00    -0.206 F 
ATOM     94  C   UNL A   1      44.241  37.361  27.924  1.00  0.00     0.040 A 
ATOM     95  C   UNL A   1      44.265  35.091  27.140  1.00  0.00     0.040 A 
ATOM     96  F   UNL A   1      43.219  33.402  28.388  1.00  0.00    -0.206 F 
ATOM     97  C   UNL A   1      44.621  36.425  26.967  1.00  0.00     0.006 A 
ENDBRANCH  73  90
ENDBRANCH  47  48
ENDBRANCH  40  42
ENDBRANCH  39  40
ENDBRANCH  38  39
ENDBRANCH  37  38
ENDBRANCH  36  37
ENDBRANCH  35  36
ENDBRANCH  34  35
ENDBRANCH  33  34
ENDBRANCH   1  33
TORSDOF 24
ENDMDL
MODEL 3
REMARK VINA RESULT:      -9.2      2.508      4.695
REMARK SMILES CC(C)(C)OC(=O)N1CCC(c2c(C(=O)OCCOCCOCCOCCOC(=O)c3ccc(-c4c5nc(c(-c6c(F)cccc6F)c6ccc([nH]6)c(-c6c(F)cccc6F)c6nc(c(-c7c(F)cccc7F)c7ccc4[nH]7)C=C6)C=C5)cc3)cnn2-c2ccccc2)CC1
REMARK SMILES IDX 21 1 20 2 19 3 18 4 17 5 16 6 14 7 15 8 13 9 12 10 87 11
REMARK SMILES IDX 85 12 86 13 11 14 6 15 7 16 8 17 9 18 95 19 10 20 94 21 5 22
REMARK SMILES IDX 2 23 1 24 3 25 4 26 88 27 89 28 93 29 90 30 92 31 91 32
REMARK SMILES IDX 22 33 23 34 24 35 25 36 26 37 27 38 28 39 29 40 30 41 31 42
REMARK SMILES IDX 32 43 84 44 33 45 83 46 34 47 35 48 36 49 77 50 37 51 82 52
REMARK SMILES IDX 76 53 78 54 38 55 81 56 75 57 74 58 39 60 65 61 48 62 64 63
REMARK SMILES IDX 49 64 52 65 63 66 79 67 50 68 51 69 62 71 80 72 53 73 40 74
REMARK SMILES IDX 41 75 46 76 42 77 43 78 45 79 47 80 44 81 66 82 67 83 72 84
REMARK SMILES IDX 68 85 69 86 71 87 73 88 70 89 54 90 55 91 60 92 56 93 57 94
REMARK SMILES IDX 59 95 61 96 58 97
REMARK H PARENT 78 59 52 70
REMARK Flexibility Score: inf
ROOT
ATOM      1  C   UNL A   1      37.797  22.608  25.510  1.00  0.00     0.188 C 
ENDROOT
BRANCH   1   2
ATOM      2  C   UNL A   1      36.547  23.418  25.939  1.00  0.00     0.188 C 
BRANCH   2   3
ATOM      3  O   UNL A   1      35.520  22.597  26.441  1.00  0.00    -0.376 OA
BRANCH   3   4
ATOM      4  C   UNL A   1      34.281  22.564  25.777  1.00  0.00     0.202 C 
BRANCH   4   5
ATOM      5  C   UNL A   1      33.237  23.660  26.041  1.00  0.00     0.261 C 
BRANCH   5   6
ATOM      6  O   UNL A   1      32.662  24.344  24.918  1.00  0.00    -0.460 OA
BRANCH   6   7
ATOM      7  C   UNL A   1      33.309  25.410  24.376  1.00  0.00     0.341 C 
ATOM      8  O   UNL A   1      34.525  25.602  24.463  1.00  0.00    -0.246 OA
BRANCH   7   9
ATOM      9  C   UNL A   1      32.404  26.239  23.597  1.00  0.00     0.102 A 
ATOM     10  C   UNL A   1      31.702  27.406  23.954  1.00  0.00     0.062 A 
ATOM     11  N   UNL A   1      30.975  27.740  22.810  1.00  0.00    -0.237 N 
ATOM     12  C   UNL A   1      32.139  26.065  22.224  1.00  0.00     0.151 A 
ATOM     13  N   UNL A   1      31.239  26.921  21.765  1.00  0.00    -0.175 NA
BRANCH  10  14
ATOM     14  C   UNL A   1      31.809  28.213  25.250  1.00  0.00     0.043 C 
ATOM     15  C   UNL A   1      34.202  30.752  27.331  1.00  0.00     0.410 C 
ATOM     16  O   UNL A   1      35.328  30.267  27.299  1.00  0.00    -0.224 OA
ATOM     17  N   UNL A   1      33.067  29.977  27.166  1.00  0.00    -0.308 N 
ATOM     18  C   UNL A   1      33.234  28.546  27.260  1.00  0.00     0.124 C 
ATOM     19  C   UNL A   1      31.783  30.419  26.621  1.00  0.00     0.124 C 
ATOM     20  C   UNL A   1      33.203  27.994  25.854  1.00  0.00     0.032 C 
ATOM     21  C   UNL A   1      31.487  29.726  25.257  1.00  0.00     0.032 C 
BRANCH  15  22
ATOM     22  O   UNL A   1      33.945  32.061  27.595  1.00  0.00    -0.444 OA
BRANCH  22  23
ATOM     23  C   UNL A   1      34.743  32.731  28.615  1.00  0.00     0.106 C 
ATOM     24  C   UNL A   1      34.951  31.690  29.726  1.00  0.00     0.056 C 
ATOM     25  C   UNL A   1      33.977  33.926  29.196  1.00  0.00     0.056 C 
ATOM     26  C   UNL A   1      36.139  33.148  28.113  1.00  0.00     0.056 C 
ENDBRANCH  22  23
ENDBRANCH  15  22
ENDBRANCH  10  14
BRANCH  11  27
ATOM     27  C   UNL A   1      29.876  28.609  22.688  1.00  0.00     0.065 A 
ATOM     28  C   UNL A   1      30.077  29.805  21.990  1.00  0.00     0.028 A 
ATOM     29  C   UNL A   1      28.626  28.279  23.214  1.00  0.00     0.028 A 
ATOM     30  C   UNL A   1      28.991  30.631  21.725  1.00  0.00     0.002 A 
ATOM     31  C   UNL A   1      27.542  29.116  22.943  1.00  0.00     0.002 A 
ATOM     32  C   UNL A   1      27.722  30.276  22.184  1.00  0.00     0.000 A 
ENDBRANCH  11  27
ENDBRANCH   7   9
ENDBRANCH   6   7
ENDBRANCH   5   6
ENDBRANCH   4   5
ENDBRANCH   3   4
ENDBRANCH   2   3
ENDBRANCH   1   2
BRANCH   1  33
ATOM     33  O   UNL A   1      38.660  21.995  26.459  1.00  0.00    -0.377 OA
BRANCH  33  34
ATOM     34  C   UNL A   1      39.817  21.303  26.021  1.00  0.00     0.188 C 
BRANCH  34  35
ATOM     35  C   UNL A   1      40.833  20.777  27.065  1.00  0.00     0.188 C 
BRANCH  35  36
ATOM     36  O   UNL A   1      41.799  21.702  27.525  1.00  0.00    -0.376 OA
BRANCH  36  37
ATOM     37  C   UNL A   1      41.613  23.098  27.642  1.00  0.00     0.202 C 
BRANCH  37  38
ATOM     38  C   UNL A   1      42.337  24.104  26.757  1.00  0.00     0.261 C 
BRANCH  38  39
ATOM     39  O   UNL A   1      42.390  25.409  27.275  1.00  0.00    -0.460 OA
BRANCH  39  40
ATOM     40  C   UNL A   1      43.315  25.581  28.227  1.00  0.00     0.338 C 
ATOM     41  O   UNL A   1      44.453  25.128  28.261  1.00  0.00    -0.246 OA
BRANCH  40  42
ATOM     42  C   UNL A   1      42.689  26.314  29.318  1.00  0.00     0.060 A 
ATOM     43  C   UNL A   1      41.466  26.917  29.034  1.00  0.00     0.016 A 
ATOM     44  C   UNL A   1      43.513  26.711  30.381  1.00  0.00     0.016 A 
ATOM     45  C   UNL A   1      41.207  28.118  29.640  1.00  0.00     0.010 A 
ATOM     46  C   UNL A   1      43.272  27.924  30.957  1.00  0.00     0.010 A 
ATOM     47  C   UNL A   1      42.179  28.649  30.499  1.00  0.00    -0.014 A 
BRANCH  47  48
ATOM     48  C   UNL A   1      41.977  29.983  30.995  1.00  0.00     0.031 A 
ATOM     49  C   UNL A   1      42.838  30.953  30.297  1.00  0.00     0.074 A 
ATOM     50  C   UNL A   1      41.048  30.271  31.922  1.00  0.00     0.049 A 
ATOM     51  N   UNL A   1      43.882  31.543  30.771  1.00  0.00    -0.248 NA
ATOM     52  C   UNL A   1      42.659  31.106  28.844  1.00  0.00     0.031 C 
ATOM     53  C   UNL A   1      39.986  29.414  32.454  1.00  0.00     0.029 A 
ATOM     54  N   UNL A   1      40.811  31.462  32.528  1.00  0.00    -0.354 N 
ATOM     55  C   UNL A   1      44.353  32.330  29.731  1.00  0.00     0.074 A 
ATOM     56  C   UNL A   1      43.717  31.853  28.532  1.00  0.00     0.031 C 
ATOM     57  C   UNL A   1      39.092  30.179  33.125  1.00  0.00     0.029 A 
ATOM     58  C   UNL A   1      39.588  31.543  33.181  1.00  0.00     0.049 A 
ATOM     59  H   UNL A   1      41.454  32.207  32.508  1.00  0.00     0.167 HD
ATOM     60  C   UNL A   1      44.990  33.500  29.990  1.00  0.00     0.037 A 
ATOM     61  C   UNL A   1      39.024  32.686  33.646  1.00  0.00     0.037 A 
ATOM     62  C   UNL A   1      45.454  33.549  31.355  1.00  0.00     0.049 A 
ATOM     63  C   UNL A   1      40.108  33.699  33.759  1.00  0.00     0.074 A 
ATOM     64  C   UNL A   1      46.327  32.791  32.111  1.00  0.00     0.029 A 
ATOM     65  N   UNL A   1      44.689  34.255  32.252  1.00  0.00    -0.354 N 
ATOM     66  N   UNL A   1      41.073  33.630  34.633  1.00  0.00    -0.248 NA
ATOM     67  C   UNL A   1      40.382  34.527  32.593  1.00  0.00     0.031 C 
ATOM     68  C   UNL A   1      45.746  32.737  33.411  1.00  0.00     0.029 A 
ATOM     69  C   UNL A   1      44.587  33.514  33.401  1.00  0.00     0.049 A 
ATOM     70  H   UNL A   1      44.286  35.140  32.097  1.00  0.00     0.167 HD
ATOM     71  C   UNL A   1      42.208  34.028  33.939  1.00  0.00     0.074 A 
ATOM     72  C   UNL A   1      41.707  34.648  32.714  1.00  0.00     0.031 C 
ATOM     73  C   UNL A   1      43.441  33.552  34.282  1.00  0.00     0.037 A 
BRANCH  60  74
ATOM     74  C   UNL A   1      44.814  34.734  29.149  1.00  0.00     0.057 A 
ATOM     75  C   UNL A   1      45.956  35.411  28.692  1.00  0.00     0.134 A 
ATOM     76  C   UNL A   1      43.601  35.443  29.016  1.00  0.00     0.134 A 
ATOM     77  F   UNL A   1      47.171  34.850  28.789  1.00  0.00    -0.206 F 
ATOM     78  C   UNL A   1      45.901  36.718  28.199  1.00  0.00     0.040 A 
ATOM     79  C   UNL A   1      43.528  36.727  28.472  1.00  0.00     0.040 A 
ATOM     80  F   UNL A   1      42.438  34.988  29.495  1.00  0.00    -0.206 F 
ATOM     81  C   UNL A   1      44.684  37.382  28.092  1.00  0.00     0.006 A 
ENDBRANCH  60  74
BRANCH  61  82
ATOM     82  C   UNL A   1      37.593  33.069  33.673  1.00  0.00     0.057 A 
ATOM     83  C   UNL A   1      36.944  33.352  34.885  1.00  0.00     0.134 A 
ATOM     84  C   UNL A   1      36.909  33.451  32.506  1.00  0.00     0.134 A 
ATOM     85  F   UNL A   1      37.534  33.065  36.054  1.00  0.00    -0.206 F 
ATOM     86  C   UNL A   1      35.704  34.003  34.934  1.00  0.00     0.040 A 
ATOM     87  C   UNL A   1      35.668  34.095  32.541  1.00  0.00     0.040 A 
ATOM     88  F   UNL A   1      37.462  33.296  31.295  1.00  0.00    -0.206 F 
ATOM     89  C   UNL A   1      35.067  34.388  33.759  1.00  0.00     0.006 A 
ENDBRANCH  61  82
BRANCH  73  90
ATOM     90  C   UNL A   1      43.566  32.810  35.585  1.00  0.00     0.057 A 
ATOM     91  C   UNL A   1      43.754  33.425  36.833  1.00  0.00     0.134 A 
ATOM     92  C   UNL A   1      43.339  31.429  35.589  1.00  0.00     0.134 A 
ATOM     93  F   UNL A   1      43.882  34.753  36.940  1.00  0.00    -0.206 F 
ATOM     94  C   UNL A   1      43.756  32.690  38.024  1.00  0.00     0.040 A 
ATOM     95  C   UNL A   1      43.303  30.690  36.774  1.00  0.00     0.040 A 
ATOM     96  F   UNL A   1      43.097  30.781  34.438  1.00  0.00    -0.206 F 
ATOM     97  C   UNL A   1      43.522  31.318  37.996  1.00  0.00     0.006 A 
ENDBRANCH  73  90
ENDBRANCH  47  48
ENDBRANCH  40  42
ENDBRANCH  39  40
ENDBRANCH  38  39
ENDBRANCH  37  38
ENDBRANCH  36  37
ENDBRANCH  35  36
ENDBRANCH  34  35
ENDBRANCH  33  34
ENDBRANCH   1  33
TORSDOF 24
ENDMDL
