MODEL 1
REMARK VINA RESULT:      -8.9      0.000      0.000
REMARK SMILES CC(C)C[C@H](C)NS(=O)(=O)c1cc(C(=O)OCCOCCOCCOCCOC(=O)c2ccc(-c3c4nc(c(-c5c(F)cccc5F)c5ccc([nH]5)c(-c5c(F)cccc5F)c5nc(c(-c6c(F)cccc6F)c6ccc3[nH]6)C=C5)C=C4)cc2)ccc1Cl
REMARK SMILES IDX 20 1 19 2 18 3 17 4 16 5 14 6 15 7 13 8 11 9 12 10 87 11
REMARK SMILES IDX 86 12 88 13 85 14 8 15 9 16 10 17 7 18 5 20 6 21 4 22 2 23
REMARK SMILES IDX 1 24 3 25 21 26 22 27 23 28 24 29 25 30 26 31 27 32 28 33
REMARK SMILES IDX 29 34 30 35 31 36 32 37 84 38 33 39 83 40 34 41 35 42 36 43
REMARK SMILES IDX 77 44 37 45 82 46 76 47 78 48 38 49 81 50 75 51 74 52 39 54
REMARK SMILES IDX 65 55 48 56 64 57 49 58 52 59 63 60 79 61 50 62 51 63 62 65
REMARK SMILES IDX 80 66 53 67 40 68 41 69 46 70 42 71 43 72 45 73 47 74 44 75
REMARK SMILES IDX 66 76 67 77 72 78 68 79 69 80 71 81 73 82 70 83 54 84 55 85
REMARK SMILES IDX 60 86 56 87 57 88 59 89 61 90 58 91
REMARK H PARENT 7 19 78 53 52 64
REMARK Flexibility Score: inf
ROOT
ATOM      1  C   UNL A   1      33.234  30.043  26.375  1.00  0.00     0.188 C 
ENDROOT
BRANCH   1   2
ATOM      2  O   UNL A   1      34.297  29.176  26.718  1.00  0.00    -0.376 OA
BRANCH   2   3
ATOM      3  C   UNL A   1      34.199  27.789  26.463  1.00  0.00     0.202 C 
BRANCH   3   4
ATOM      4  C   UNL A   1      32.964  26.949  26.843  1.00  0.00     0.261 C 
BRANCH   4   5
ATOM      5  O   UNL A   1      32.943  25.567  26.473  1.00  0.00    -0.460 OA
BRANCH   5   6
ATOM      6  C   UNL A   1      31.752  24.943  26.527  1.00  0.00     0.338 C 
ATOM      7  O   UNL A   1      31.422  24.062  27.301  1.00  0.00    -0.246 OA
BRANCH   6   8
ATOM      8  C   UNL A   1      30.805  25.664  25.642  1.00  0.00     0.061 A 
ATOM      9  C   UNL A   1      30.523  27.201  23.772  1.00  0.00     0.101 A 
ATOM     10  C   UNL A   1      31.343  26.437  24.606  1.00  0.00     0.039 A 
ATOM     11  C   UNL A   1      29.138  27.128  23.932  1.00  0.00     0.061 A 
ATOM     12  C   UNL A   1      28.596  26.289  24.922  1.00  0.00     0.023 A 
ATOM     13  Cl  UNL A   1      28.017  28.004  22.957  1.00  0.00    -0.083 Cl
ATOM     14  C   UNL A   1      29.425  25.560  25.783  1.00  0.00     0.017 A 
BRANCH   9  15
ATOM     15  S   UNL A   1      31.235  28.279  22.562  1.00  0.00     0.242 S 
ATOM     16  O   UNL A   1      32.024  29.291  23.222  1.00  0.00    -0.207 OA
ATOM     17  O   UNL A   1      30.165  28.635  21.654  1.00  0.00    -0.207 OA
BRANCH  15  18
ATOM     18  N   UNL A   1      32.278  27.368  21.612  1.00  0.00    -0.208 NA
ATOM     19  H   UNL A   1      32.052  27.638  20.655  1.00  0.00     0.141 HD
BRANCH  18  20
ATOM     20  C   UNL A   1      32.436  25.899  21.552  1.00  0.00     0.067 C 
ATOM     21  C   UNL A   1      32.512  25.527  20.063  1.00  0.00     0.025 C 
BRANCH  20  22
ATOM     22  C   UNL A   1      33.633  25.315  22.311  1.00  0.00     0.022 C 
BRANCH  22  23
ATOM     23  C   UNL A   1      33.530  23.819  22.696  1.00  0.00    -0.016 C 
ATOM     24  C   UNL A   1      34.408  23.423  23.884  1.00  0.00     0.007 C 
ATOM     25  C   UNL A   1      32.076  23.465  23.012  1.00  0.00     0.007 C 
ENDBRANCH  22  23
ENDBRANCH  20  22
ENDBRANCH  18  20
ENDBRANCH  15  18
ENDBRANCH   9  15
ENDBRANCH   6   8
ENDBRANCH   5   6
ENDBRANCH   4   5
ENDBRANCH   3   4
ENDBRANCH   2   3
ENDBRANCH   1   2
BRANCH   1  26
ATOM     26  C   UNL A   1      32.863  31.023  27.508  1.00  0.00     0.188 C 
BRANCH  26  27
ATOM     27  O   UNL A   1      33.948  31.700  28.121  1.00  0.00    -0.377 OA
BRANCH  27  28
ATOM     28  C   UNL A   1      34.165  33.080  27.827  1.00  0.00     0.188 C 
BRANCH  28  29
ATOM     29  C   UNL A   1      35.504  33.805  28.121  1.00  0.00     0.188 C 
BRANCH  29  30
ATOM     30  O   UNL A   1      35.954  33.732  29.462  1.00  0.00    -0.376 OA
BRANCH  30  31
ATOM     31  C   UNL A   1      35.149  34.304  30.477  1.00  0.00     0.202 C 
BRANCH  31  32
ATOM     32  C   UNL A   1      34.398  33.327  31.391  1.00  0.00     0.261 C 
BRANCH  32  33
ATOM     33  O   UNL A   1      34.955  32.006  31.481  1.00  0.00    -0.460 OA
BRANCH  33  34
ATOM     34  C   UNL A   1      35.935  31.821  32.387  1.00  0.00     0.338 C 
ATOM     35  O   UNL A   1      35.884  32.044  33.587  1.00  0.00    -0.246 OA
BRANCH  34  36
ATOM     36  C   UNL A   1      37.043  31.108  31.723  1.00  0.00     0.060 A 
ATOM     37  C   UNL A   1      38.171  30.763  32.477  1.00  0.00     0.016 A 
ATOM     38  C   UNL A   1      36.972  30.786  30.364  1.00  0.00     0.016 A 
ATOM     39  C   UNL A   1      39.256  30.141  31.864  1.00  0.00     0.010 A 
ATOM     40  C   UNL A   1      38.069  30.181  29.746  1.00  0.00     0.010 A 
ATOM     41  C   UNL A   1      39.232  29.899  30.484  1.00  0.00    -0.014 A 
BRANCH  41  42
ATOM     42  C   UNL A   1      40.503  29.568  29.795  1.00  0.00     0.031 A 
ATOM     43  C   UNL A   1      40.666  28.180  29.234  1.00  0.00     0.074 A 
ATOM     44  C   UNL A   1      41.463  30.489  29.608  1.00  0.00     0.049 A 
ATOM     45  N   UNL A   1      41.667  27.661  28.569  1.00  0.00    -0.248 NA
ATOM     46  C   UNL A   1      39.545  27.251  29.456  1.00  0.00     0.031 C 
ATOM     47  C   UNL A   1      41.407  31.875  30.067  1.00  0.00     0.029 A 
ATOM     48  N   UNL A   1      42.675  30.390  28.974  1.00  0.00    -0.354 N 
ATOM     49  C   UNL A   1      41.298  26.350  28.296  1.00  0.00     0.074 A 
ATOM     50  C   UNL A   1      40.001  26.139  28.902  1.00  0.00     0.031 C 
ATOM     51  C   UNL A   1      42.541  32.499  29.701  1.00  0.00     0.029 A 
ATOM     52  C   UNL A   1      43.409  31.550  29.006  1.00  0.00     0.049 A 
ATOM     53  H   UNL A   1      42.990  29.566  28.538  1.00  0.00     0.167 HD
ATOM     54  C   UNL A   1      41.969  25.409  27.592  1.00  0.00     0.037 A 
ATOM     55  C   UNL A   1      44.646  31.808  28.538  1.00  0.00     0.037 A 
ATOM     56  C   UNL A   1      43.262  25.618  26.995  1.00  0.00     0.049 A 
ATOM     57  C   UNL A   1      45.405  30.722  27.817  1.00  0.00     0.074 A 
ATOM     58  C   UNL A   1      44.022  24.733  26.251  1.00  0.00     0.029 A 
ATOM     59  N   UNL A   1      43.992  26.795  27.084  1.00  0.00    -0.354 N 
ATOM     60  N   UNL A   1      45.036  29.495  27.537  1.00  0.00    -0.248 NA
ATOM     61  C   UNL A   1      46.751  31.067  27.337  1.00  0.00     0.031 C 
ATOM     62  C   UNL A   1      45.238  25.353  25.943  1.00  0.00     0.029 A 
ATOM     63  C   UNL A   1      45.206  26.648  26.433  1.00  0.00     0.049 A 
ATOM     64  H   UNL A   1      43.691  27.612  27.541  1.00  0.00     0.167 HD
ATOM     65  C   UNL A   1      46.088  28.933  26.823  1.00  0.00     0.074 A 
ATOM     66  C   UNL A   1      47.100  29.961  26.695  1.00  0.00     0.031 C 
ATOM     67  C   UNL A   1      46.207  27.680  26.315  1.00  0.00     0.037 A 
BRANCH  54  68
ATOM     68  C   UNL A   1      41.328  24.057  27.464  1.00  0.00     0.057 A 
ATOM     69  C   UNL A   1      41.791  22.942  28.176  1.00  0.00     0.134 A 
ATOM     70  C   UNL A   1      40.225  23.869  26.622  1.00  0.00     0.134 A 
ATOM     71  F   UNL A   1      42.856  23.045  28.986  1.00  0.00    -0.206 F 
ATOM     72  C   UNL A   1      41.200  21.685  28.032  1.00  0.00     0.040 A 
ATOM     73  C   UNL A   1      39.606  22.626  26.494  1.00  0.00     0.040 A 
ATOM     74  F   UNL A   1      39.728  24.894  25.912  1.00  0.00    -0.206 F 
ATOM     75  C   UNL A   1      40.098  21.526  27.193  1.00  0.00     0.006 A 
ENDBRANCH  54  68
BRANCH  55  76
ATOM     76  C   UNL A   1      45.255  33.149  28.736  1.00  0.00     0.057 A 
ATOM     77  C   UNL A   1      46.105  33.413  29.816  1.00  0.00     0.134 A 
ATOM     78  C   UNL A   1      44.974  34.209  27.864  1.00  0.00     0.134 A 
ATOM     79  F   UNL A   1      46.393  32.447  30.700  1.00  0.00    -0.206 F 
ATOM     80  C   UNL A   1      46.635  34.686  30.036  1.00  0.00     0.040 A 
ATOM     81  C   UNL A   1      45.520  35.479  28.055  1.00  0.00     0.040 A 
ATOM     82  F   UNL A   1      44.167  34.023  26.809  1.00  0.00    -0.206 F 
ATOM     83  C   UNL A   1      46.347  35.722  29.149  1.00  0.00     0.006 A 
ENDBRANCH  55  76
BRANCH  67  84
ATOM     84  C   UNL A   1      47.457  27.368  25.539  1.00  0.00     0.057 A 
ATOM     85  C   UNL A   1      47.581  27.659  24.173  1.00  0.00     0.134 A 
ATOM     86  C   UNL A   1      48.559  26.775  26.171  1.00  0.00     0.134 A 
ATOM     87  F   UNL A   1      46.563  28.220  23.502  1.00  0.00    -0.206 F 
ATOM     88  C   UNL A   1      48.734  27.331  23.457  1.00  0.00     0.040 A 
ATOM     89  C   UNL A   1      49.730  26.475  25.474  1.00  0.00     0.040 A 
ATOM     90  F   UNL A   1      48.518  26.482  27.480  1.00  0.00    -0.206 F 
ATOM     91  C   UNL A   1      49.815  26.740  24.110  1.00  0.00     0.006 A 
ENDBRANCH  67  84
ENDBRANCH  41  42
ENDBRANCH  34  36
ENDBRANCH  33  34
ENDBRANCH  32  33
ENDBRANCH  31  32
ENDBRANCH  30  31
ENDBRANCH  29  30
ENDBRANCH  28  29
ENDBRANCH  27  28
ENDBRANCH  26  27
ENDBRANCH   1  26
TORSDOF 25
ENDMDL
MODEL 2
REMARK VINA RESULT:      -8.8      5.005      8.573
REMARK SMILES CC(C)C[C@H](C)NS(=O)(=O)c1cc(C(=O)OCCOCCOCCOCCOC(=O)c2ccc(-c3c4nc(c(-c5c(F)cccc5F)c5ccc([nH]5)c(-c5c(F)cccc5F)c5nc(c(-c6c(F)cccc6F)c6ccc3[nH]6)C=C5)C=C4)cc2)ccc1Cl
REMARK SMILES IDX 20 1 19 2 18 3 17 4 16 5 14 6 15 7 13 8 11 9 12 10 87 11
REMARK SMILES IDX 86 12 88 13 85 14 8 15 9 16 10 17 7 18 5 20 6 21 4 22 2 23
REMARK SMILES IDX 1 24 3 25 21 26 22 27 23 28 24 29 25 30 26 31 27 32 28 33
REMARK SMILES IDX 29 34 30 35 31 36 32 37 84 38 33 39 83 40 34 41 35 42 36 43
REMARK SMILES IDX 77 44 37 45 82 46 76 47 78 48 38 49 81 50 75 51 74 52 39 54
REMARK SMILES IDX 65 55 48 56 64 57 49 58 52 59 63 60 79 61 50 62 51 63 62 65
REMARK SMILES IDX 80 66 53 67 40 68 41 69 46 70 42 71 43 72 45 73 47 74 44 75
REMARK SMILES IDX 66 76 67 77 72 78 68 79 69 80 71 81 73 82 70 83 54 84 55 85
REMARK SMILES IDX 60 86 56 87 57 88 59 89 61 90 58 91
REMARK H PARENT 7 19 78 53 52 64
REMARK Flexibility Score: inf
ROOT
ATOM      1  C   UNL A   1      34.918  32.269  29.959  1.00  0.00     0.188 C 
ENDROOT
BRANCH   1   2
ATOM      2  O   UNL A   1      35.123  31.917  28.604  1.00  0.00    -0.376 OA
BRANCH   2   3
ATOM      3  C   UNL A   1      36.218  31.103  28.235  1.00  0.00     0.202 C 
BRANCH   3   4
ATOM      4  C   UNL A   1      36.564  29.782  28.951  1.00  0.00     0.261 C 
BRANCH   4   5
ATOM      5  O   UNL A   1      37.423  28.854  28.283  1.00  0.00    -0.460 OA
BRANCH   5   6
ATOM      6  C   UNL A   1      38.457  28.365  28.993  1.00  0.00     0.338 C 
ATOM      7  O   UNL A   1      38.425  27.939  30.134  1.00  0.00    -0.246 OA
BRANCH   6   8
ATOM      8  C   UNL A   1      39.615  28.202  28.081  1.00  0.00     0.061 A 
ATOM      9  C   UNL A   1      41.571  26.879  27.480  1.00  0.00     0.101 A 
ATOM     10  C   UNL A   1      40.424  27.072  28.252  1.00  0.00     0.039 A 
ATOM     11  C   UNL A   1      41.870  27.797  26.470  1.00  0.00     0.061 A 
ATOM     12  C   UNL A   1      41.013  28.889  26.248  1.00  0.00     0.023 A 
ATOM     13  Cl  UNL A   1      43.244  27.664  25.436  1.00  0.00    -0.083 Cl
ATOM     14  C   UNL A   1      39.888  29.100  27.054  1.00  0.00     0.017 A 
BRANCH   9  15
ATOM     15  S   UNL A   1      42.653  25.517  27.810  1.00  0.00     0.242 S 
ATOM     16  O   UNL A   1      41.950  24.519  28.579  1.00  0.00    -0.207 OA
ATOM     17  O   UNL A   1      43.897  26.090  28.281  1.00  0.00    -0.207 OA
BRANCH  15  18
ATOM     18  N   UNL A   1      43.065  24.821  26.339  1.00  0.00    -0.208 NA
ATOM     19  H   UNL A   1      42.173  24.686  25.862  1.00  0.00     0.141 HD
BRANCH  18  20
ATOM     20  C   UNL A   1      43.813  23.572  26.079  1.00  0.00     0.067 C 
ATOM     21  C   UNL A   1      42.798  22.560  25.526  1.00  0.00     0.025 C 
BRANCH  20  22
ATOM     22  C   UNL A   1      45.019  23.688  25.140  1.00  0.00     0.022 C 
BRANCH  22  23
ATOM     23  C   UNL A   1      46.284  24.351  25.736  1.00  0.00    -0.016 C 
ATOM     24  C   UNL A   1      46.312  25.874  25.592  1.00  0.00     0.007 C 
ATOM     25  C   UNL A   1      46.410  23.988  27.217  1.00  0.00     0.007 C 
ENDBRANCH  22  23
ENDBRANCH  20  22
ENDBRANCH  18  20
ENDBRANCH  15  18
ENDBRANCH   9  15
ENDBRANCH   6   8
ENDBRANCH   5   6
ENDBRANCH   4   5
ENDBRANCH   3   4
ENDBRANCH   2   3
ENDBRANCH   1   2
BRANCH   1  26
ATOM     26  C   UNL A   1      34.442  33.724  30.140  1.00  0.00     0.188 C 
BRANCH  26  27
ATOM     27  O   UNL A   1      33.839  34.029  31.387  1.00  0.00    -0.377 OA
BRANCH  27  28
ATOM     28  C   UNL A   1      33.638  35.394  31.751  1.00  0.00     0.188 C 
BRANCH  28  29
ATOM     29  C   UNL A   1      34.625  36.184  32.650  1.00  0.00     0.188 C 
BRANCH  29  30
ATOM     30  O   UNL A   1      34.689  35.760  34.000  1.00  0.00    -0.376 OA
BRANCH  30  31
ATOM     31  C   UNL A   1      35.179  34.462  34.279  1.00  0.00     0.202 C 
BRANCH  31  32
ATOM     32  C   UNL A   1      36.702  34.275  34.219  1.00  0.00     0.261 C 
BRANCH  32  33
ATOM     33  O   UNL A   1      37.166  33.245  33.332  1.00  0.00    -0.460 OA
BRANCH  33  34
ATOM     34  C   UNL A   1      37.827  33.647  32.228  1.00  0.00     0.338 C 
ATOM     35  O   UNL A   1      37.652  34.679  31.597  1.00  0.00    -0.246 OA
BRANCH  34  36
ATOM     36  C   UNL A   1      38.951  32.719  32.005  1.00  0.00     0.060 A 
ATOM     37  C   UNL A   1      40.032  32.743  32.896  1.00  0.00     0.016 A 
ATOM     38  C   UNL A   1      38.943  31.834  30.923  1.00  0.00     0.016 A 
ATOM     39  C   UNL A   1      41.133  31.919  32.677  1.00  0.00     0.010 A 
ATOM     40  C   UNL A   1      40.058  31.023  30.693  1.00  0.00     0.010 A 
ATOM     41  C   UNL A   1      41.175  31.097  31.544  1.00  0.00    -0.014 A 
BRANCH  41  42
ATOM     42  C   UNL A   1      42.472  30.501  31.141  1.00  0.00     0.031 A 
ATOM     43  C   UNL A   1      43.360  31.291  30.216  1.00  0.00     0.074 A 
ATOM     44  C   UNL A   1      42.889  29.323  31.633  1.00  0.00     0.049 A 
ATOM     45  N   UNL A   1      44.546  30.999  29.746  1.00  0.00    -0.248 NA
ATOM     46  C   UNL A   1      42.835  32.589  29.759  1.00  0.00     0.031 C 
ATOM     47  C   UNL A   1      42.140  28.483  32.565  1.00  0.00     0.029 A 
ATOM     48  N   UNL A   1      44.054  28.632  31.414  1.00  0.00    -0.354 N 
ATOM     49  C   UNL A   1      44.906  32.072  28.940  1.00  0.00     0.074 A 
ATOM     50  C   UNL A   1      43.798  33.001  28.950  1.00  0.00     0.031 C 
ATOM     51  C   UNL A   1      42.866  27.384  32.837  1.00  0.00     0.029 A 
ATOM     52  C   UNL A   1      44.115  27.433  32.080  1.00  0.00     0.049 A 
ATOM     53  H   UNL A   1      44.776  28.964  30.835  1.00  0.00     0.167 HD
ATOM     54  C   UNL A   1      46.061  32.273  28.263  1.00  0.00     0.037 A 
ATOM     55  C   UNL A   1      45.068  26.480  32.065  1.00  0.00     0.037 A 
ATOM     56  C   UNL A   1      47.160  31.345  28.248  1.00  0.00     0.049 A 
ATOM     57  C   UNL A   1      46.316  26.695  31.247  1.00  0.00     0.074 A 
ATOM     58  C   UNL A   1      48.379  31.460  27.604  1.00  0.00     0.029 A 
ATOM     59  N   UNL A   1      47.169  30.120  28.902  1.00  0.00    -0.354 N 
ATOM     60  N   UNL A   1      46.661  27.725  30.512  1.00  0.00    -0.248 NA
ATOM     61  C   UNL A   1      47.313  25.615  31.269  1.00  0.00     0.031 C 
ATOM     62  C   UNL A   1      49.100  30.280  27.816  1.00  0.00     0.029 A 
ATOM     63  C   UNL A   1      48.360  29.459  28.652  1.00  0.00     0.049 A 
ATOM     64  H   UNL A   1      46.437  29.774  29.461  1.00  0.00     0.167 HD
ATOM     65  C   UNL A   1      47.925  27.431  30.012  1.00  0.00     0.074 A 
ATOM     66  C   UNL A   1      48.292  26.136  30.544  1.00  0.00     0.031 C 
ATOM     67  C   UNL A   1      48.713  28.167  29.187  1.00  0.00     0.037 A 
BRANCH  54  68
ATOM     68  C   UNL A   1      46.173  33.533  27.453  1.00  0.00     0.057 A 
ATOM     69  C   UNL A   1      45.649  33.636  26.157  1.00  0.00     0.134 A 
ATOM     70  C   UNL A   1      46.807  34.665  27.982  1.00  0.00     0.134 A 
ATOM     71  F   UNL A   1      45.046  32.584  25.581  1.00  0.00    -0.206 F 
ATOM     72  C   UNL A   1      45.779  34.806  25.406  1.00  0.00     0.040 A 
ATOM     73  C   UNL A   1      46.915  35.850  27.254  1.00  0.00     0.040 A 
ATOM     74  F   UNL A   1      47.329  34.638  29.217  1.00  0.00    -0.206 F 
ATOM     75  C   UNL A   1      46.408  35.920  25.958  1.00  0.00     0.006 A 
ENDBRANCH  54  68
BRANCH  55  76
ATOM     76  C   UNL A   1      44.884  25.229  32.845  1.00  0.00     0.057 A 
ATOM     77  C   UNL A   1      44.320  24.085  32.268  1.00  0.00     0.134 A 
ATOM     78  C   UNL A   1      45.241  25.157  34.198  1.00  0.00     0.134 A 
ATOM     79  F   UNL A   1      43.934  24.096  30.984  1.00  0.00    -0.206 F 
ATOM     80  C   UNL A   1      44.095  22.925  33.013  1.00  0.00     0.040 A 
ATOM     81  C   UNL A   1      45.050  23.995  34.946  1.00  0.00     0.040 A 
ATOM     82  F   UNL A   1      45.786  26.218  34.811  1.00  0.00    -0.206 F 
ATOM     83  C   UNL A   1      44.467  22.877  34.355  1.00  0.00     0.006 A 
ENDBRANCH  55  76
BRANCH  67  84
ATOM     84  C   UNL A   1      50.066  27.606  28.848  1.00  0.00     0.057 A 
ATOM     85  C   UNL A   1      50.282  26.809  27.715  1.00  0.00     0.134 A 
ATOM     86  C   UNL A   1      51.174  27.875  29.664  1.00  0.00     0.134 A 
ATOM     87  F   UNL A   1      49.266  26.504  26.893  1.00  0.00    -0.206 F 
ATOM     88  C   UNL A   1      51.537  26.265  27.432  1.00  0.00     0.040 A 
ATOM     89  C   UNL A   1      52.440  27.366  29.371  1.00  0.00     0.040 A 
ATOM     90  F   UNL A   1      51.045  28.643  30.756  1.00  0.00    -0.206 F 
ATOM     91  C   UNL A   1      52.622  26.547  28.261  1.00  0.00     0.006 A 
ENDBRANCH  67  84
ENDBRANCH  41  42
ENDBRANCH  34  36
ENDBRANCH  33  34
ENDBRANCH  32  33
ENDBRANCH  31  32
ENDBRANCH  30  31
ENDBRANCH  29  30
ENDBRANCH  28  29
ENDBRANCH  27  28
ENDBRANCH  26  27
ENDBRANCH   1  26
TORSDOF 25
ENDMDL
MODEL 3
REMARK VINA RESULT:      -8.4     10.555     17.385
REMARK SMILES CC(C)C[C@H](C)NS(=O)(=O)c1cc(C(=O)OCCOCCOCCOCCOC(=O)c2ccc(-c3c4nc(c(-c5c(F)cccc5F)c5ccc([nH]5)c(-c5c(F)cccc5F)c5nc(c(-c6c(F)cccc6F)c6ccc3[nH]6)C=C5)C=C4)cc2)ccc1Cl
REMARK SMILES IDX 20 1 19 2 18 3 17 4 16 5 14 6 15 7 13 8 11 9 12 10 87 11
REMARK SMILES IDX 86 12 88 13 85 14 8 15 9 16 10 17 7 18 5 20 6 21 4 22 2 23
REMARK SMILES IDX 1 24 3 25 21 26 22 27 23 28 24 29 25 30 26 31 27 32 28 33
REMARK SMILES IDX 29 34 30 35 31 36 32 37 84 38 33 39 83 40 34 41 35 42 36 43
REMARK SMILES IDX 77 44 37 45 82 46 76 47 78 48 38 49 81 50 75 51 74 52 39 54
REMARK SMILES IDX 65 55 48 56 64 57 49 58 52 59 63 60 79 61 50 62 51 63 62 65
REMARK SMILES IDX 80 66 53 67 40 68 41 69 46 70 42 71 43 72 45 73 47 74 44 75
REMARK SMILES IDX 66 76 67 77 72 78 68 79 69 80 71 81 73 82 70 83 54 84 55 85
REMARK SMILES IDX 60 86 56 87 57 88 59 89 61 90 58 91
REMARK H PARENT 7 19 78 53 52 64
REMARK Flexibility Score: inf
ROOT
ATOM      1  C   UNL A   1      42.399  42.684  21.179  1.00  0.00     0.188 C 
ENDROOT
BRANCH   1   2
ATOM      2  O   UNL A   1      42.335  43.483  20.014  1.00  0.00    -0.376 OA
BRANCH   2   3
ATOM      3  C   UNL A   1      41.231  43.381  19.136  1.00  0.00     0.202 C 
BRANCH   3   4
ATOM      4  C   UNL A   1      40.739  44.553  18.264  1.00  0.00     0.261 C 
BRANCH   4   5
ATOM      5  O   UNL A   1      41.254  44.671  16.934  1.00  0.00    -0.460 OA
BRANCH   5   6
ATOM      6  C   UNL A   1      42.588  44.799  16.810  1.00  0.00     0.338 C 
ATOM      7  O   UNL A   1      43.365  43.966  16.379  1.00  0.00    -0.246 OA
BRANCH   6   8
ATOM      8  C   UNL A   1      42.947  46.216  17.057  1.00  0.00     0.061 A 
ATOM      9  C   UNL A   1      44.444  47.779  18.177  1.00  0.00     0.101 A 
ATOM     10  C   UNL A   1      44.078  46.474  17.840  1.00  0.00     0.039 A 
ATOM     11  C   UNL A   1      43.707  48.845  17.657  1.00  0.00     0.061 A 
ATOM     12  C   UNL A   1      42.618  48.586  16.807  1.00  0.00     0.023 A 
ATOM     13  Cl  UNL A   1      44.065  50.501  17.980  1.00  0.00    -0.083 Cl
ATOM     14  C   UNL A   1      42.230  47.274  16.509  1.00  0.00     0.017 A 
BRANCH   9  15
ATOM     15  S   UNL A   1      45.795  48.072  19.283  1.00  0.00     0.242 S 
ATOM     16  O   UNL A   1      45.336  48.846  20.411  1.00  0.00    -0.207 OA
ATOM     17  O   UNL A   1      46.901  48.522  18.464  1.00  0.00    -0.207 OA
BRANCH  15  18
ATOM     18  N   UNL A   1      46.311  46.585  19.869  1.00  0.00    -0.208 NA
ATOM     19  H   UNL A   1      45.766  45.902  19.345  1.00  0.00     0.141 HD
BRANCH  18  20
ATOM     20  C   UNL A   1      46.298  46.079  21.259  1.00  0.00     0.067 C 
ATOM     21  C   UNL A   1      44.889  45.519  21.508  1.00  0.00     0.025 C 
BRANCH  20  22
ATOM     22  C   UNL A   1      47.360  45.030  21.608  1.00  0.00     0.022 C 
BRANCH  22  23
ATOM     23  C   UNL A   1      47.167  43.631  20.976  1.00  0.00    -0.016 C 
ATOM     24  C   UNL A   1      48.241  43.260  19.951  1.00  0.00     0.007 C 
ATOM     25  C   UNL A   1      47.138  42.567  22.074  1.00  0.00     0.007 C 
ENDBRANCH  22  23
ENDBRANCH  20  22
ENDBRANCH  18  20
ENDBRANCH  15  18
ENDBRANCH   9  15
ENDBRANCH   6   8
ENDBRANCH   5   6
ENDBRANCH   4   5
ENDBRANCH   3   4
ENDBRANCH   2   3
ENDBRANCH   1   2
BRANCH   1  26
ATOM     26  C   UNL A   1      41.968  43.438  22.454  1.00  0.00     0.188 C 
BRANCH  26  27
ATOM     27  O   UNL A   1      42.737  43.179  23.617  1.00  0.00    -0.377 OA
BRANCH  27  28
ATOM     28  C   UNL A   1      42.476  42.001  24.378  1.00  0.00     0.188 C 
BRANCH  28  29
ATOM     29  C   UNL A   1      43.264  41.633  25.662  1.00  0.00     0.188 C 
BRANCH  29  30
ATOM     30  O   UNL A   1      44.075  40.475  25.567  1.00  0.00    -0.376 OA
BRANCH  30  31
ATOM     31  C   UNL A   1      45.469  40.608  25.771  1.00  0.00     0.202 C 
BRANCH  31  32
ATOM     32  C   UNL A   1      46.306  39.325  25.661  1.00  0.00     0.261 C 
BRANCH  32  33
ATOM     33  O   UNL A   1      46.352  38.511  26.844  1.00  0.00    -0.460 OA
BRANCH  33  34
ATOM     34  C   UNL A   1      46.127  37.192  26.682  1.00  0.00     0.338 C 
ATOM     35  O   UNL A   1      46.631  36.454  25.848  1.00  0.00    -0.246 OA
BRANCH  34  36
ATOM     36  C   UNL A   1      45.307  36.726  27.815  1.00  0.00     0.060 A 
ATOM     37  C   UNL A   1      44.208  37.497  28.214  1.00  0.00     0.016 A 
ATOM     38  C   UNL A   1      45.622  35.539  28.484  1.00  0.00     0.016 A 
ATOM     39  C   UNL A   1      43.450  37.111  29.317  1.00  0.00     0.010 A 
ATOM     40  C   UNL A   1      44.874  35.165  29.603  1.00  0.00     0.010 A 
ATOM     41  C   UNL A   1      43.815  35.974  30.051  1.00  0.00    -0.014 A 
BRANCH  41  42
ATOM     42  C   UNL A   1      43.229  35.776  31.399  1.00  0.00     0.031 A 
ATOM     43  C   UNL A   1      43.837  36.524  32.555  1.00  0.00     0.074 A 
ATOM     44  C   UNL A   1      42.143  35.007  31.588  1.00  0.00     0.049 A 
ATOM     45  N   UNL A   1      43.487  36.540  33.815  1.00  0.00    -0.248 NA
ATOM     46  C   UNL A   1      45.000  37.372  32.243  1.00  0.00     0.031 C 
ATOM     47  C   UNL A   1      41.441  34.263  30.545  1.00  0.00     0.029 A 
ATOM     48  N   UNL A   1      41.442  34.730  32.734  1.00  0.00    -0.354 N 
ATOM     49  C   UNL A   1      44.385  37.393  34.445  1.00  0.00     0.074 A 
ATOM     50  C   UNL A   1      45.321  37.843  33.438  1.00  0.00     0.031 C 
ATOM     51  C   UNL A   1      40.405  33.610  31.102  1.00  0.00     0.029 A 
ATOM     52  C   UNL A   1      40.390  33.869  32.540  1.00  0.00     0.049 A 
ATOM     53  H   UNL A   1      41.671  35.111  33.612  1.00  0.00     0.167 HD
ATOM     54  C   UNL A   1      44.421  37.779  35.742  1.00  0.00     0.037 A 
ATOM     55  C   UNL A   1      39.525  33.343  33.429  1.00  0.00     0.037 A 
ATOM     56  C   UNL A   1      43.494  37.325  36.745  1.00  0.00     0.049 A 
ATOM     57  C   UNL A   1      39.627  33.734  34.882  1.00  0.00     0.074 A 
ATOM     58  C   UNL A   1      43.437  37.666  38.084  1.00  0.00     0.029 A 
ATOM     59  N   UNL A   1      42.467  36.420  36.519  1.00  0.00    -0.354 N 
ATOM     60  N   UNL A   1      40.460  34.564  35.463  1.00  0.00    -0.248 NA
ATOM     61  C   UNL A   1      38.657  33.119  35.800  1.00  0.00     0.031 C 
ATOM     62  C   UNL A   1      42.415  36.921  38.682  1.00  0.00     0.029 A 
ATOM     63  C   UNL A   1      41.788  36.170  37.701  1.00  0.00     0.049 A 
ATOM     64  H   UNL A   1      42.251  36.018  35.647  1.00  0.00     0.167 HD
ATOM     65  C   UNL A   1      40.095  34.596  36.804  1.00  0.00     0.074 A 
ATOM     66  C   UNL A   1      38.953  33.717  36.944  1.00  0.00     0.031 C 
ATOM     67  C   UNL A   1      40.653  35.290  37.828  1.00  0.00     0.037 A 
BRANCH  54  68
ATOM     68  C   UNL A   1      45.524  38.713  36.152  1.00  0.00     0.057 A 
ATOM     69  C   UNL A   1      45.431  40.100  35.973  1.00  0.00     0.134 A 
ATOM     70  C   UNL A   1      46.693  38.217  36.743  1.00  0.00     0.134 A 
ATOM     71  F   UNL A   1      44.348  40.642  35.396  1.00  0.00    -0.206 F 
ATOM     72  C   UNL A   1      46.473  40.956  36.338  1.00  0.00     0.040 A 
ATOM     73  C   UNL A   1      47.726  39.064  37.142  1.00  0.00     0.040 A 
ATOM     74  F   UNL A   1      46.848  36.900  36.946  1.00  0.00    -0.206 F 
ATOM     75  C   UNL A   1      47.623  40.438  36.932  1.00  0.00     0.006 A 
ENDBRANCH  54  68
BRANCH  55  76
ATOM     76  C   UNL A   1      38.483  32.383  32.978  1.00  0.00     0.057 A 
ATOM     77  C   UNL A   1      37.204  32.814  32.608  1.00  0.00     0.134 A 
ATOM     78  C   UNL A   1      38.735  31.006  32.937  1.00  0.00     0.134 A 
ATOM     79  F   UNL A   1      36.893  34.118  32.650  1.00  0.00    -0.206 F 
ATOM     80  C   UNL A   1      36.206  31.911  32.237  1.00  0.00     0.040 A 
ATOM     81  C   UNL A   1      37.756  30.093  32.540  1.00  0.00     0.040 A 
ATOM     82  F   UNL A   1      39.940  30.527  33.279  1.00  0.00    -0.206 F 
ATOM     83  C   UNL A   1      36.484  30.546  32.196  1.00  0.00     0.006 A 
ENDBRANCH  55  76
BRANCH  67  84
ATOM     84  C   UNL A   1      40.006  35.160  39.180  1.00  0.00     0.057 A 
ATOM     85  C   UNL A   1      40.243  34.062  40.019  1.00  0.00     0.134 A 
ATOM     86  C   UNL A   1      39.138  36.154  39.653  1.00  0.00     0.134 A 
ATOM     87  F   UNL A   1      41.056  33.069  39.627  1.00  0.00    -0.206 F 
ATOM     88  C   UNL A   1      39.608  33.937  41.256  1.00  0.00     0.040 A 
ATOM     89  C   UNL A   1      38.526  36.057  40.903  1.00  0.00     0.040 A 
ATOM     90  F   UNL A   1      38.877  37.241  38.911  1.00  0.00    -0.206 F 
ATOM     91  C   UNL A   1      38.749  34.940  41.703  1.00  0.00     0.006 A 
ENDBRANCH  67  84
ENDBRANCH  41  42
ENDBRANCH  34  36
ENDBRANCH  33  34
ENDBRANCH  32  33
ENDBRANCH  31  32
ENDBRANCH  30  31
ENDBRANCH  29  30
ENDBRANCH  28  29
ENDBRANCH  27  28
ENDBRANCH  26  27
ENDBRANCH   1  26
TORSDOF 25
ENDMDL
