MODEL 1
REMARK VINA RESULT:      -9.6      0.000      0.000
REMARK SMILES CCc1cc(C(=O)N[C@@H]2C=C[C@H](C(=O)OCCOCCOCCOCCOC(=O)c3ccc(-c4c5nc(c(-c6c(F)cccc6F)c6ccc([nH]6)c(-c6c(F)cccc6F)c6nc(c(-c7c(F)cccc7F)c7ccc4[nH]7)C=C6)C=C5)cc3)C2)n(C)n1
REMARK SMILES IDX 20 1 19 2 18 3 17 4 16 5 15 6 13 7 14 8 12 9 9 10 10 11
REMARK SMILES IDX 84 12 11 13 8 14 6 15 7 16 5 18 3 19 4 20 87 21 85 22 86 23
REMARK SMILES IDX 2 24 1 25 21 26 22 27 23 28 24 29 25 30 26 31 27 32 28 33
REMARK SMILES IDX 29 34 30 35 31 36 83 37 32 38 82 39 33 40 34 41 35 42 76 43
REMARK SMILES IDX 36 44 81 45 75 46 77 47 37 48 80 49 74 50 73 51 38 53 64 54
REMARK SMILES IDX 47 55 63 56 48 57 51 58 62 59 78 60 49 61 50 62 61 64 79 65
REMARK SMILES IDX 52 66 39 67 40 68 45 69 41 70 42 71 44 72 46 73 43 74 65 75
REMARK SMILES IDX 66 76 71 77 67 78 68 79 70 80 72 81 69 82 53 83 54 84 59 85
REMARK SMILES IDX 55 86 56 87 58 88 60 89 57 90
REMARK H PARENT 8 17 77 52 51 63
REMARK Flexibility Score: inf
ROOT
ATOM      1  C   UNL A   1      35.766  31.476  28.035  1.00  0.00     0.188 C 
ENDROOT
BRANCH   1   2
ATOM      2  C   UNL A   1      34.582  30.589  27.599  1.00  0.00     0.188 C 
BRANCH   2   3
ATOM      3  O   UNL A   1      33.612  31.304  26.860  1.00  0.00    -0.376 OA
BRANCH   3   4
ATOM      4  C   UNL A   1      32.261  30.885  26.871  1.00  0.00     0.202 C 
BRANCH   4   5
ATOM      5  C   UNL A   1      31.742  29.739  25.982  1.00  0.00     0.261 C 
BRANCH   5   6
ATOM      6  O   UNL A   1      32.723  29.042  25.215  1.00  0.00    -0.463 OA
BRANCH   6   7
ATOM      7  C   UNL A   1      32.274  28.153  24.292  1.00  0.00     0.312 C 
ATOM      8  O   UNL A   1      32.831  27.915  23.229  1.00  0.00    -0.252 OA
BRANCH   7   9
ATOM      9  C   UNL A   1      31.032  27.439  24.819  1.00  0.00     0.124 C 
ATOM     10  C   UNL A   1      30.706  25.394  23.507  1.00  0.00     0.106 C 
ATOM     11  C   UNL A   1      29.709  26.461  23.152  1.00  0.00    -0.006 C 
ATOM     12  C   UNL A   1      31.239  25.924  24.832  1.00  0.00     0.048 C 
ATOM     13  C   UNL A   1      29.876  27.573  23.880  1.00  0.00    -0.014 C 
BRANCH  10  14
ATOM     14  N   UNL A   1      31.658  25.283  22.426  1.00  0.00    -0.344 N 
ATOM     15  C   UNL A   1      32.697  24.456  22.097  1.00  0.00     0.270 C 
ATOM     16  O   UNL A   1      33.169  24.651  20.972  1.00  0.00    -0.268 OA
ATOM     17  H   UNL A   1      31.522  25.984  21.748  1.00  0.00     0.164 HD
BRANCH  15  18
ATOM     18  C   UNL A   1      33.315  23.498  22.990  1.00  0.00     0.126 A 
ATOM     19  C   UNL A   1      34.746  22.626  24.493  1.00  0.00     0.063 A 
ATOM     20  C   UNL A   1      34.456  23.778  23.739  1.00  0.00     0.059 A 
ATOM     21  N   UNL A   1      33.846  21.672  24.248  1.00  0.00    -0.178 NA
ATOM     22  N   UNL A   1      33.082  22.173  23.255  1.00  0.00    -0.263 N 
ATOM     23  C   UNL A   1      32.201  21.231  22.611  1.00  0.00     0.174 C 
BRANCH  19  24
ATOM     24  C   UNL A   1      35.850  22.428  25.481  1.00  0.00     0.055 C 
ATOM     25  C   UNL A   1      36.719  23.661  25.689  1.00  0.00     0.011 C 
ENDBRANCH  19  24
ENDBRANCH  15  18
ENDBRANCH  10  14
ENDBRANCH   7   9
ENDBRANCH   6   7
ENDBRANCH   5   6
ENDBRANCH   4   5
ENDBRANCH   3   4
ENDBRANCH   2   3
ENDBRANCH   1   2
BRANCH   1  26
ATOM     26  O   UNL A   1      35.690  32.847  27.678  1.00  0.00    -0.377 OA
BRANCH  26  27
ATOM     27  C   UNL A   1      35.578  33.835  28.703  1.00  0.00     0.188 C 
BRANCH  27  28
ATOM     28  C   UNL A   1      34.272  34.090  29.495  1.00  0.00     0.188 C 
BRANCH  28  29
ATOM     29  O   UNL A   1      34.142  33.337  30.689  1.00  0.00    -0.376 OA
BRANCH  29  30
ATOM     30  C   UNL A   1      34.600  33.938  31.887  1.00  0.00     0.202 C 
BRANCH  30  31
ATOM     31  C   UNL A   1      34.983  32.961  33.006  1.00  0.00     0.261 C 
BRANCH  31  32
ATOM     32  O   UNL A   1      35.824  31.864  32.616  1.00  0.00    -0.460 OA
BRANCH  32  33
ATOM     33  C   UNL A   1      36.965  31.666  33.310  1.00  0.00     0.338 C 
ATOM     34  O   UNL A   1      37.135  31.786  34.510  1.00  0.00    -0.246 OA
BRANCH  33  35
ATOM     35  C   UNL A   1      37.952  31.094  32.372  1.00  0.00     0.060 A 
ATOM     36  C   UNL A   1      39.011  30.315  32.865  1.00  0.00     0.016 A 
ATOM     37  C   UNL A   1      37.808  31.307  31.000  1.00  0.00     0.016 A 
ATOM     38  C   UNL A   1      39.947  29.770  31.982  1.00  0.00     0.010 A 
ATOM     39  C   UNL A   1      38.756  30.782  30.124  1.00  0.00     0.010 A 
ATOM     40  C   UNL A   1      39.846  30.038  30.612  1.00  0.00    -0.014 A 
BRANCH  40  41
ATOM     41  C   UNL A   1      40.975  29.758  29.694  1.00  0.00     0.031 A 
ATOM     42  C   UNL A   1      41.075  28.376  29.115  1.00  0.00     0.074 A 
ATOM     43  C   UNL A   1      41.923  30.674  29.430  1.00  0.00     0.049 A 
ATOM     44  N   UNL A   1      42.053  27.816  28.454  1.00  0.00    -0.248 NA
ATOM     45  C   UNL A   1      39.911  27.500  29.330  1.00  0.00     0.031 C 
ATOM     46  C   UNL A   1      41.915  32.060  29.889  1.00  0.00     0.029 A 
ATOM     47  N   UNL A   1      43.100  30.553  28.732  1.00  0.00    -0.354 N 
ATOM     48  C   UNL A   1      41.634  26.517  28.197  1.00  0.00     0.074 A 
ATOM     49  C   UNL A   1      40.323  26.365  28.789  1.00  0.00     0.031 C 
ATOM     50  C   UNL A   1      43.052  32.655  29.484  1.00  0.00     0.029 A 
ATOM     51  C   UNL A   1      43.886  31.679  28.784  1.00  0.00     0.049 A 
ATOM     52  H   UNL A   1      43.355  29.738  28.241  1.00  0.00     0.167 HD
ATOM     53  C   UNL A   1      42.287  25.537  27.531  1.00  0.00     0.037 A 
ATOM     54  C   UNL A   1      45.147  31.878  28.353  1.00  0.00     0.037 A 
ATOM     55  C   UNL A   1      43.593  25.694  26.950  1.00  0.00     0.049 A 
ATOM     56  C   UNL A   1      45.892  30.749  27.684  1.00  0.00     0.074 A 
ATOM     57  C   UNL A   1      44.334  24.768  26.237  1.00  0.00     0.029 A 
ATOM     58  N   UNL A   1      44.356  26.848  27.028  1.00  0.00    -0.354 N 
ATOM     59  N   UNL A   1      45.487  29.527  27.429  1.00  0.00    -0.248 NA
ATOM     60  C   UNL A   1      47.269  31.023  27.247  1.00  0.00     0.031 C 
ATOM     61  C   UNL A   1      45.571  25.344  25.936  1.00  0.00     0.029 A 
ATOM     62  C   UNL A   1      45.573  26.650  26.400  1.00  0.00     0.049 A 
ATOM     63  H   UNL A   1      44.075  27.684  27.465  1.00  0.00     0.167 HD
ATOM     64  C   UNL A   1      46.540  28.903  26.768  1.00  0.00     0.074 A 
ATOM     65  C   UNL A   1      47.605  29.878  26.666  1.00  0.00     0.031 C 
ATOM     66  C   UNL A   1      46.613  27.640  26.282  1.00  0.00     0.037 A 
BRANCH  53  67
ATOM     67  C   UNL A   1      41.614  24.199  27.439  1.00  0.00     0.057 A 
ATOM     68  C   UNL A   1      40.541  23.962  26.570  1.00  0.00     0.134 A 
ATOM     69  C   UNL A   1      42.060  23.127  28.223  1.00  0.00     0.134 A 
ATOM     70  F   UNL A   1      40.055  24.950  25.804  1.00  0.00    -0.206 F 
ATOM     71  C   UNL A   1      39.916  22.715  26.508  1.00  0.00     0.040 A 
ATOM     72  C   UNL A   1      41.464  21.868  28.145  1.00  0.00     0.040 A 
ATOM     73  F   UNL A   1      43.085  23.284  29.073  1.00  0.00    -0.206 F 
ATOM     74  C   UNL A   1      40.383  21.662  27.292  1.00  0.00     0.006 A 
ENDBRANCH  53  67
BRANCH  54  75
ATOM     75  C   UNL A   1      45.805  33.194  28.566  1.00  0.00     0.057 A 
ATOM     76  C   UNL A   1      46.514  33.467  29.741  1.00  0.00     0.134 A 
ATOM     77  C   UNL A   1      45.728  34.213  27.609  1.00  0.00     0.134 A 
ATOM     78  F   UNL A   1      46.601  32.542  30.708  1.00  0.00    -0.206 F 
ATOM     79  C   UNL A   1      47.114  34.709  29.963  1.00  0.00     0.040 A 
ATOM     80  C   UNL A   1      46.346  35.450  27.805  1.00  0.00     0.040 A 
ATOM     81  F   UNL A   1      45.062  34.017  26.461  1.00  0.00    -0.206 F 
ATOM     82  C   UNL A   1      47.036  35.702  28.989  1.00  0.00     0.006 A 
ENDBRANCH  54  75
BRANCH  66  83
ATOM     83  C   UNL A   1      47.853  27.241  25.533  1.00  0.00     0.057 A 
ATOM     84  C   UNL A   1      47.980  27.421  24.152  1.00  0.00     0.134 A 
ATOM     85  C   UNL A   1      48.972  26.767  26.231  1.00  0.00     0.134 A 
ATOM     86  F   UNL A   1      46.943  27.864  23.424  1.00  0.00    -0.206 F 
ATOM     87  C   UNL A   1      49.177  27.140  23.489  1.00  0.00     0.040 A 
ATOM     88  C   UNL A   1      50.181  26.508  25.584  1.00  0.00     0.040 A 
ATOM     89  F   UNL A   1      48.920  26.583  27.559  1.00  0.00    -0.206 F 
ATOM     90  C   UNL A   1      50.285  26.694  24.208  1.00  0.00     0.006 A 
ENDBRANCH  66  83
ENDBRANCH  40  41
ENDBRANCH  33  35
ENDBRANCH  32  33
ENDBRANCH  31  32
ENDBRANCH  30  31
ENDBRANCH  29  30
ENDBRANCH  28  29
ENDBRANCH  27  28
ENDBRANCH  26  27
ENDBRANCH   1  26
TORSDOF 23
ENDMDL
MODEL 2
REMARK VINA RESULT:      -9.6      4.653      9.985
REMARK SMILES CCc1cc(C(=O)N[C@@H]2C=C[C@H](C(=O)OCCOCCOCCOCCOC(=O)c3ccc(-c4c5nc(c(-c6c(F)cccc6F)c6ccc([nH]6)c(-c6c(F)cccc6F)c6nc(c(-c7c(F)cccc7F)c7ccc4[nH]7)C=C6)C=C5)cc3)C2)n(C)n1
REMARK SMILES IDX 20 1 19 2 18 3 17 4 16 5 15 6 13 7 14 8 12 9 9 10 10 11
REMARK SMILES IDX 84 12 11 13 8 14 6 15 7 16 5 18 3 19 4 20 87 21 85 22 86 23
REMARK SMILES IDX 2 24 1 25 21 26 22 27 23 28 24 29 25 30 26 31 27 32 28 33
REMARK SMILES IDX 29 34 30 35 31 36 83 37 32 38 82 39 33 40 34 41 35 42 76 43
REMARK SMILES IDX 36 44 81 45 75 46 77 47 37 48 80 49 74 50 73 51 38 53 64 54
REMARK SMILES IDX 47 55 63 56 48 57 51 58 62 59 78 60 49 61 50 62 61 64 79 65
REMARK SMILES IDX 52 66 39 67 40 68 45 69 41 70 42 71 44 72 46 73 43 74 65 75
REMARK SMILES IDX 66 76 71 77 67 78 68 79 70 80 72 81 69 82 53 83 54 84 59 85
REMARK SMILES IDX 55 86 56 87 58 88 60 89 57 90
REMARK H PARENT 8 17 77 52 51 63
REMARK Flexibility Score: inf
ROOT
ATOM      1  C   UNL A   1      36.541  21.774  24.595  1.00  0.00     0.188 C 
ENDROOT
BRANCH   1   2
ATOM      2  C   UNL A   1      36.349  23.218  25.097  1.00  0.00     0.188 C 
BRANCH   2   3
ATOM      3  O   UNL A   1      35.761  23.273  26.382  1.00  0.00    -0.376 OA
BRANCH   3   4
ATOM      4  C   UNL A   1      34.355  23.322  26.517  1.00  0.00     0.202 C 
BRANCH   4   5
ATOM      5  C   UNL A   1      33.445  22.133  26.157  1.00  0.00     0.261 C 
BRANCH   5   6
ATOM      6  O   UNL A   1      33.007  22.062  24.800  1.00  0.00    -0.463 OA
BRANCH   6   7
ATOM      7  C   UNL A   1      32.572  23.213  24.225  1.00  0.00     0.312 C 
ATOM      8  O   UNL A   1      33.278  23.978  23.584  1.00  0.00    -0.252 OA
BRANCH   7   9
ATOM      9  C   UNL A   1      31.065  23.355  24.425  1.00  0.00     0.124 C 
ATOM     10  C   UNL A   1      30.382  25.550  23.571  1.00  0.00     0.106 C 
ATOM     11  C   UNL A   1      30.383  25.500  25.074  1.00  0.00    -0.006 C 
ATOM     12  C   UNL A   1      30.423  24.065  23.232  1.00  0.00     0.048 C 
ATOM     13  C   UNL A   1      30.741  24.296  25.540  1.00  0.00    -0.014 C 
BRANCH  10  14
ATOM     14  N   UNL A   1      31.511  26.342  23.141  1.00  0.00    -0.344 N 
ATOM     15  C   UNL A   1      31.828  27.672  23.086  1.00  0.00     0.270 C 
ATOM     16  O   UNL A   1      32.997  27.904  22.761  1.00  0.00    -0.268 OA
ATOM     17  H   UNL A   1      32.242  25.779  22.800  1.00  0.00     0.164 HD
BRANCH  15  18
ATOM     18  C   UNL A   1      30.892  28.761  23.265  1.00  0.00     0.126 A 
ATOM     19  C   UNL A   1      29.208  30.193  22.841  1.00  0.00     0.063 A 
ATOM     20  C   UNL A   1      29.940  29.115  22.311  1.00  0.00     0.059 A 
ATOM     21  N   UNL A   1      29.656  30.507  24.057  1.00  0.00    -0.178 NA
ATOM     22  N   UNL A   1      30.741  29.723  24.232  1.00  0.00    -0.263 N 
ATOM     23  C   UNL A   1      31.578  30.058  25.356  1.00  0.00     0.174 C 
BRANCH  19  24
ATOM     24  C   UNL A   1      28.053  30.912  22.221  1.00  0.00     0.055 C 
ATOM     25  C   UNL A   1      28.389  32.318  21.742  1.00  0.00     0.011 C 
ENDBRANCH  19  24
ENDBRANCH  15  18
ENDBRANCH  10  14
ENDBRANCH   7   9
ENDBRANCH   6   7
ENDBRANCH   5   6
ENDBRANCH   4   5
ENDBRANCH   3   4
ENDBRANCH   2   3
ENDBRANCH   1   2
BRANCH   1  26
ATOM     26  O   UNL A   1      37.875  21.292  24.557  1.00  0.00    -0.377 OA
BRANCH  26  27
ATOM     27  C   UNL A   1      38.553  21.005  25.781  1.00  0.00     0.188 C 
BRANCH  27  28
ATOM     28  C   UNL A   1      40.001  21.469  26.077  1.00  0.00     0.188 C 
BRANCH  28  29
ATOM     29  O   UNL A   1      40.718  20.643  26.978  1.00  0.00    -0.376 OA
BRANCH  29  30
ATOM     30  C   UNL A   1      41.965  20.134  26.539  1.00  0.00     0.202 C 
BRANCH  30  31
ATOM     31  C   UNL A   1      42.819  21.109  25.721  1.00  0.00     0.261 C 
BRANCH  31  32
ATOM     32  O   UNL A   1      42.291  22.438  25.582  1.00  0.00    -0.460 OA
BRANCH  32  33
ATOM     33  C   UNL A   1      43.170  23.458  25.479  1.00  0.00     0.338 C 
ATOM     34  O   UNL A   1      44.135  23.535  24.739  1.00  0.00    -0.246 OA
BRANCH  33  35
ATOM     35  C   UNL A   1      42.651  24.566  26.306  1.00  0.00     0.060 A 
ATOM     36  C   UNL A   1      43.168  25.860  26.139  1.00  0.00     0.016 A 
ATOM     37  C   UNL A   1      41.630  24.324  27.226  1.00  0.00     0.016 A 
ATOM     38  C   UNL A   1      42.680  26.913  26.917  1.00  0.00     0.010 A 
ATOM     39  C   UNL A   1      41.161  25.371  28.017  1.00  0.00     0.010 A 
ATOM     40  C   UNL A   1      41.704  26.662  27.890  1.00  0.00    -0.014 A 
BRANCH  40  41
ATOM     41  C   UNL A   1      41.398  27.663  28.939  1.00  0.00     0.031 A 
ATOM     42  C   UNL A   1      42.176  27.587  30.222  1.00  0.00     0.074 A 
ATOM     43  C   UNL A   1      40.418  28.571  28.793  1.00  0.00     0.049 A 
ATOM     44  N   UNL A   1      41.978  28.204  31.356  1.00  0.00    -0.248 NA
ATOM     45  C   UNL A   1      43.330  26.672  30.224  1.00  0.00     0.031 C 
ATOM     46  C   UNL A   1      39.626  28.778  27.584  1.00  0.00     0.029 A 
ATOM     47  N   UNL A   1      39.903  29.468  29.696  1.00  0.00    -0.354 N 
ATOM     48  C   UNL A   1      42.964  27.732  32.214  1.00  0.00     0.074 A 
ATOM     49  C   UNL A   1      43.747  26.767  31.476  1.00  0.00     0.031 C 
ATOM     50  C   UNL A   1      38.701  29.724  27.830  1.00  0.00     0.029 A 
ATOM     51  C   UNL A   1      38.806  30.150  29.226  1.00  0.00     0.049 A 
ATOM     52  H   UNL A   1      40.283  29.610  30.593  1.00  0.00     0.167 HD
ATOM     53  C   UNL A   1      43.191  28.073  33.503  1.00  0.00     0.037 A 
ATOM     54  C   UNL A   1      37.962  30.984  29.865  1.00  0.00     0.037 A 
ATOM     55  C   UNL A   1      42.405  29.030  34.232  1.00  0.00     0.049 A 
ATOM     56  C   UNL A   1      38.183  31.290  31.326  1.00  0.00     0.074 A 
ATOM     57  C   UNL A   1      42.565  29.461  35.537  1.00  0.00     0.029 A 
ATOM     58  N   UNL A   1      41.301  29.694  33.720  1.00  0.00    -0.354 N 
ATOM     59  N   UNL A   1      39.124  30.856  32.129  1.00  0.00    -0.248 NA
ATOM     60  C   UNL A   1      37.222  32.198  31.971  1.00  0.00     0.031 C 
ATOM     61  C   UNL A   1      41.521  30.340  35.834  1.00  0.00     0.029 A 
ATOM     62  C   UNL A   1      40.752  30.511  34.693  1.00  0.00     0.049 A 
ATOM     63  H   UNL A   1      40.958  29.600  32.803  1.00  0.00     0.167 HD
ATOM     64  C   UNL A   1      38.895  31.467  33.357  1.00  0.00     0.074 A 
ATOM     65  C   UNL A   1      37.721  32.298  33.197  1.00  0.00     0.031 C 
ATOM     66  C   UNL A   1      39.598  31.355  34.510  1.00  0.00     0.037 A 
BRANCH  53  67
ATOM     67  C   UNL A   1      44.308  27.368  34.216  1.00  0.00     0.057 A 
ATOM     68  C   UNL A   1      44.117  26.151  34.883  1.00  0.00     0.134 A 
ATOM     69  C   UNL A   1      45.600  27.911  34.221  1.00  0.00     0.134 A 
ATOM     70  F   UNL A   1      42.901  25.585  34.931  1.00  0.00    -0.206 F 
ATOM     71  C   UNL A   1      45.163  25.517  35.556  1.00  0.00     0.040 A 
ATOM     72  C   UNL A   1      46.660  27.270  34.862  1.00  0.00     0.040 A 
ATOM     73  F   UNL A   1      45.853  29.072  33.598  1.00  0.00    -0.206 F 
ATOM     74  C   UNL A   1      46.440  26.073  35.539  1.00  0.00     0.006 A 
ENDBRANCH  53  67
BRANCH  54  75
ATOM     75  C   UNL A   1      36.807  31.572  29.137  1.00  0.00     0.057 A 
ATOM     76  C   UNL A   1      35.682  30.802  28.822  1.00  0.00     0.134 A 
ATOM     77  C   UNL A   1      36.805  32.910  28.726  1.00  0.00     0.134 A 
ATOM     78  F   UNL A   1      35.634  29.506  29.163  1.00  0.00    -0.206 F 
ATOM     79  C   UNL A   1      34.602  31.337  28.115  1.00  0.00     0.040 A 
ATOM     80  C   UNL A   1      35.722  33.466  28.043  1.00  0.00     0.040 A 
ATOM     81  F   UNL A   1      37.854  33.703  28.995  1.00  0.00    -0.206 F 
ATOM     82  C   UNL A   1      34.618  32.676  27.731  1.00  0.00     0.006 A 
ENDBRANCH  54  75
BRANCH  66  83
ATOM     83  C   UNL A   1      39.174  32.195  35.681  1.00  0.00     0.057 A 
ATOM     84  C   UNL A   1      39.490  33.555  35.777  1.00  0.00     0.134 A 
ATOM     85  C   UNL A   1      38.348  31.650  36.673  1.00  0.00     0.134 A 
ATOM     86  F   UNL A   1      40.284  34.136  34.865  1.00  0.00    -0.206 F 
ATOM     87  C   UNL A   1      39.001  34.343  36.821  1.00  0.00     0.040 A 
ATOM     88  C   UNL A   1      37.831  32.433  37.706  1.00  0.00     0.040 A 
ATOM     89  F   UNL A   1      37.998  30.355  36.633  1.00  0.00    -0.206 F 
ATOM     90  C   UNL A   1      38.158  33.784  37.782  1.00  0.00     0.006 A 
ENDBRANCH  66  83
ENDBRANCH  40  41
ENDBRANCH  33  35
ENDBRANCH  32  33
ENDBRANCH  31  32
ENDBRANCH  30  31
ENDBRANCH  29  30
ENDBRANCH  28  29
ENDBRANCH  27  28
ENDBRANCH  26  27
ENDBRANCH   1  26
TORSDOF 23
ENDMDL
MODEL 3
REMARK VINA RESULT:      -9.4      3.934      7.257
REMARK SMILES CCc1cc(C(=O)N[C@@H]2C=C[C@H](C(=O)OCCOCCOCCOCCOC(=O)c3ccc(-c4c5nc(c(-c6c(F)cccc6F)c6ccc([nH]6)c(-c6c(F)cccc6F)c6nc(c(-c7c(F)cccc7F)c7ccc4[nH]7)C=C6)C=C5)cc3)C2)n(C)n1
REMARK SMILES IDX 20 1 19 2 18 3 17 4 16 5 15 6 13 7 14 8 12 9 9 10 10 11
REMARK SMILES IDX 84 12 11 13 8 14 6 15 7 16 5 18 3 19 4 20 87 21 85 22 86 23
REMARK SMILES IDX 2 24 1 25 21 26 22 27 23 28 24 29 25 30 26 31 27 32 28 33
REMARK SMILES IDX 29 34 30 35 31 36 83 37 32 38 82 39 33 40 34 41 35 42 76 43
REMARK SMILES IDX 36 44 81 45 75 46 77 47 37 48 80 49 74 50 73 51 38 53 64 54
REMARK SMILES IDX 47 55 63 56 48 57 51 58 62 59 78 60 49 61 50 62 61 64 79 65
REMARK SMILES IDX 52 66 39 67 40 68 45 69 41 70 42 71 44 72 46 73 43 74 65 75
REMARK SMILES IDX 66 76 71 77 67 78 68 79 70 80 72 81 69 82 53 83 54 84 59 85
REMARK SMILES IDX 55 86 56 87 58 88 60 89 57 90
REMARK H PARENT 8 17 77 52 51 63
REMARK Flexibility Score: inf
ROOT
ATOM      1  C   UNL A   1      33.374  25.714  22.210  1.00  0.00     0.188 C 
ENDROOT
BRANCH   1   2
ATOM      2  C   UNL A   1      32.002  25.277  21.659  1.00  0.00     0.188 C 
BRANCH   2   3
ATOM      3  O   UNL A   1      31.025  25.152  22.673  1.00  0.00    -0.376 OA
BRANCH   3   4
ATOM      4  C   UNL A   1      31.076  24.067  23.578  1.00  0.00     0.202 C 
BRANCH   4   5
ATOM      5  C   UNL A   1      31.264  24.260  25.094  1.00  0.00     0.261 C 
BRANCH   5   6
ATOM      6  O   UNL A   1      32.415  23.642  25.671  1.00  0.00    -0.463 OA
BRANCH   6   7
ATOM      7  C   UNL A   1      33.464  24.446  25.980  1.00  0.00     0.312 C 
ATOM      8  O   UNL A   1      33.519  25.643  25.731  1.00  0.00    -0.252 OA
BRANCH   7   9
ATOM      9  C   UNL A   1      34.514  23.654  26.756  1.00  0.00     0.124 C 
ATOM     10  C   UNL A   1      34.746  21.452  25.702  1.00  0.00     0.106 C 
ATOM     11  C   UNL A   1      34.004  21.382  27.008  1.00  0.00    -0.006 C 
ATOM     12  C   UNL A   1      35.386  22.831  25.806  1.00  0.00     0.048 C 
ATOM     13  C   UNL A   1      33.891  22.582  27.591  1.00  0.00    -0.014 C 
BRANCH  10  14
ATOM     14  N   UNL A   1      33.798  21.258  24.629  1.00  0.00    -0.344 N 
ATOM     15  C   UNL A   1      33.122  20.204  24.079  1.00  0.00     0.270 C 
ATOM     16  O   UNL A   1      32.280  20.524  23.233  1.00  0.00    -0.268 OA
ATOM     17  H   UNL A   1      33.582  22.106  24.178  1.00  0.00     0.164 HD
BRANCH  15  18
ATOM     18  C   UNL A   1      33.404  18.808  24.333  1.00  0.00     0.126 A 
ATOM     19  C   UNL A   1      33.058  16.624  24.760  1.00  0.00     0.063 A 
ATOM     20  C   UNL A   1      32.411  17.861  24.582  1.00  0.00     0.059 A 
ATOM     21  N   UNL A   1      34.378  16.767  24.630  1.00  0.00    -0.178 NA
ATOM     22  N   UNL A   1      34.565  18.098  24.503  1.00  0.00    -0.263 N 
ATOM     23  C   UNL A   1      35.928  18.550  24.622  1.00  0.00     0.174 C 
BRANCH  19  24
ATOM     24  C   UNL A   1      32.435  15.290  25.018  1.00  0.00     0.055 C 
ATOM     25  C   UNL A   1      32.502  14.850  26.474  1.00  0.00     0.011 C 
ENDBRANCH  19  24
ENDBRANCH  15  18
ENDBRANCH  10  14
ENDBRANCH   7   9
ENDBRANCH   6   7
ENDBRANCH   5   6
ENDBRANCH   4   5
ENDBRANCH   3   4
ENDBRANCH   2   3
ENDBRANCH   1   2
BRANCH   1  26
ATOM     26  O   UNL A   1      33.932  26.891  21.649  1.00  0.00    -0.377 OA
BRANCH  26  27
ATOM     27  C   UNL A   1      33.761  28.140  22.321  1.00  0.00     0.188 C 
BRANCH  27  28
ATOM     28  C   UNL A   1      33.129  28.264  23.730  1.00  0.00     0.188 C 
BRANCH  28  29
ATOM     29  O   UNL A   1      32.231  29.349  23.886  1.00  0.00    -0.376 OA
BRANCH  29  30
ATOM     30  C   UNL A   1      31.423  29.360  25.049  1.00  0.00     0.202 C 
BRANCH  30  31
ATOM     31  C   UNL A   1      31.496  30.642  25.886  1.00  0.00     0.261 C 
BRANCH  31  32
ATOM     32  O   UNL A   1      32.445  30.631  26.965  1.00  0.00    -0.460 OA
BRANCH  32  33
ATOM     33  C   UNL A   1      33.069  31.790  27.268  1.00  0.00     0.338 C 
ATOM     34  O   UNL A   1      32.596  32.913  27.260  1.00  0.00    -0.246 OA
BRANCH  33  35
ATOM     35  C   UNL A   1      34.404  31.441  27.794  1.00  0.00     0.060 A 
ATOM     36  C   UNL A   1      34.727  30.098  28.040  1.00  0.00     0.016 A 
ATOM     37  C   UNL A   1      35.345  32.448  28.016  1.00  0.00     0.016 A 
ATOM     38  C   UNL A   1      35.989  29.762  28.537  1.00  0.00     0.010 A 
ATOM     39  C   UNL A   1      36.595  32.113  28.533  1.00  0.00     0.010 A 
ATOM     40  C   UNL A   1      36.912  30.774  28.826  1.00  0.00    -0.014 A 
BRANCH  40  41
ATOM     41  C   UNL A   1      38.117  30.497  29.643  1.00  0.00     0.031 A 
ATOM     42  C   UNL A   1      39.138  29.550  29.078  1.00  0.00     0.074 A 
ATOM     43  C   UNL A   1      38.278  31.012  30.874  1.00  0.00     0.049 A 
ATOM     44  N   UNL A   1      40.168  28.992  29.656  1.00  0.00    -0.248 NA
ATOM     45  C   UNL A   1      38.955  29.170  27.667  1.00  0.00     0.031 C 
ATOM     46  C   UNL A   1      37.388  31.977  31.513  1.00  0.00     0.029 A 
ATOM     47  N   UNL A   1      39.242  30.759  31.819  1.00  0.00    -0.354 N 
ATOM     48  C   UNL A   1      40.741  28.175  28.688  1.00  0.00     0.074 A 
ATOM     49  C   UNL A   1      39.934  28.296  27.494  1.00  0.00     0.031 C 
ATOM     50  C   UNL A   1      37.832  32.212  32.762  1.00  0.00     0.029 A 
ATOM     51  C   UNL A   1      39.004  31.378  33.023  1.00  0.00     0.049 A 
ATOM     52  H   UNL A   1      40.027  30.189  31.651  1.00  0.00     0.167 HD
ATOM     53  C   UNL A   1      41.838  27.392  28.789  1.00  0.00     0.037 A 
ATOM     54  C   UNL A   1      39.636  31.248  34.206  1.00  0.00     0.037 A 
ATOM     55  C   UNL A   1      42.633  27.273  29.982  1.00  0.00     0.049 A 
ATOM     56  C   UNL A   1      40.811  30.308  34.323  1.00  0.00     0.074 A 
ATOM     57  C   UNL A   1      43.777  26.521  30.182  1.00  0.00     0.029 A 
ATOM     58  N   UNL A   1      42.356  27.914  31.179  1.00  0.00    -0.354 N 
ATOM     59  N   UNL A   1      41.358  29.550  33.403  1.00  0.00    -0.248 NA
ATOM     60  C   UNL A   1      41.452  30.201  35.642  1.00  0.00     0.031 C 
ATOM     61  C   UNL A   1      44.157  26.660  31.519  1.00  0.00     0.029 A 
ATOM     62  C   UNL A   1      43.292  27.553  32.132  1.00  0.00     0.049 A 
ATOM     63  H   UNL A   1      41.606  28.533  31.330  1.00  0.00     0.167 HD
ATOM     64  C   UNL A   1      42.429  28.911  34.019  1.00  0.00     0.074 A 
ATOM     65  C   UNL A   1      42.451  29.364  35.394  1.00  0.00     0.031 C 
ATOM     66  C   UNL A   1      43.317  28.034  33.491  1.00  0.00     0.037 A 
BRANCH  53  67
ATOM     67  C   UNL A   1      42.213  26.570  27.591  1.00  0.00     0.057 A 
ATOM     68  C   UNL A   1      41.747  25.261  27.410  1.00  0.00     0.134 A 
ATOM     69  C   UNL A   1      43.041  27.104  26.596  1.00  0.00     0.134 A 
ATOM     70  F   UNL A   1      40.964  24.683  28.334  1.00  0.00    -0.206 F 
ATOM     71  C   UNL A   1      42.118  24.503  26.298  1.00  0.00     0.040 A 
ATOM     72  C   UNL A   1      43.392  26.368  25.464  1.00  0.00     0.040 A 
ATOM     73  F   UNL A   1      43.519  28.353  26.705  1.00  0.00    -0.206 F 
ATOM     74  C   UNL A   1      42.937  25.060  25.317  1.00  0.00     0.006 A 
ENDBRANCH  53  67
BRANCH  54  75
ATOM     75  C   UNL A   1      39.157  32.008  35.390  1.00  0.00     0.057 A 
ATOM     76  C   UNL A   1      38.255  31.440  36.298  1.00  0.00     0.134 A 
ATOM     77  C   UNL A   1      39.575  33.321  35.636  1.00  0.00     0.134 A 
ATOM     78  F   UNL A   1      37.795  30.196  36.103  1.00  0.00    -0.206 F 
ATOM     79  C   UNL A   1      37.778  32.154  37.399  1.00  0.00     0.040 A 
ATOM     80  C   UNL A   1      39.128  34.037  36.748  1.00  0.00     0.040 A 
ATOM     81  F   UNL A   1      40.438  33.925  34.805  1.00  0.00    -0.206 F 
ATOM     82  C   UNL A   1      38.221  33.454  37.631  1.00  0.00     0.006 A 
ENDBRANCH  54  75
BRANCH  66  83
ATOM     83  C   UNL A   1      44.437  27.548  34.366  1.00  0.00     0.057 A 
ATOM     84  C   UNL A   1      45.607  28.290  34.561  1.00  0.00     0.134 A 
ATOM     85  C   UNL A   1      44.288  26.366  35.104  1.00  0.00     0.134 A 
ATOM     86  F   UNL A   1      45.816  29.425  33.879  1.00  0.00    -0.206 F 
ATOM     87  C   UNL A   1      46.592  27.870  35.458  1.00  0.00     0.040 A 
ATOM     88  C   UNL A   1      45.253  25.951  36.023  1.00  0.00     0.040 A 
ATOM     89  F   UNL A   1      43.184  25.614  34.972  1.00  0.00    -0.206 F 
ATOM     90  C   UNL A   1      46.410  26.704  36.201  1.00  0.00     0.006 A 
ENDBRANCH  66  83
ENDBRANCH  40  41
ENDBRANCH  33  35
ENDBRANCH  32  33
ENDBRANCH  31  32
ENDBRANCH  30  31
ENDBRANCH  29  30
ENDBRANCH  28  29
ENDBRANCH  27  28
ENDBRANCH  26  27
ENDBRANCH   1  26
TORSDOF 23
ENDMDL
