MODEL 1
REMARK VINA RESULT:     -10.4      0.000      0.000
REMARK SMILES C[C@@H](C(=O)OCCOCCOCCOCCOC(=O)c1ccc(-c2c3nc(c(-c4c(F)cccc4F)c4ccc([nH]4)c(-c4c(F)cccc4F)c4nc(c(-c5c(F)cccc5F)c5ccc2[nH]5)C=C4)C=C3)cc1)c1ccc(Cc2ccsc2)cc1F
REMARK SMILES IDX 10 1 9 2 8 3 7 4 6 5 5 6 3 7 4 8 2 9 1 10 74 11 75 12 85 13
REMARK SMILES IDX 76 14 84 15 86 16 77 17 78 18 79 19 80 20 83 21 81 22 82 23
REMARK SMILES IDX 11 24 12 25 13 26 14 27 15 28 16 29 17 30 18 31 19 32 20 33
REMARK SMILES IDX 21 34 73 35 22 36 72 37 23 38 24 39 25 40 66 41 26 42 71 43
REMARK SMILES IDX 65 44 67 45 27 46 70 47 64 48 63 49 28 51 54 52 37 53 53 54
REMARK SMILES IDX 38 55 41 56 52 57 68 58 39 59 40 60 51 62 69 63 42 64 29 65
REMARK SMILES IDX 30 66 35 67 31 68 32 69 34 70 36 71 33 72 55 73 56 74 61 75
REMARK SMILES IDX 57 76 58 77 60 78 62 79 59 80 43 81 44 82 49 83 45 84 46 85
REMARK SMILES IDX 48 86 50 87 47 88
REMARK H PARENT 67 50 41 61
REMARK Flexibility Score: inf
ROOT
ATOM      1  C   UNL A   1      41.881  21.193  26.057  1.00  0.00     0.188 C 
ENDROOT
BRANCH   1   2
ATOM      2  C   UNL A   1      40.671  22.145  26.107  1.00  0.00     0.188 C 
BRANCH   2   3
ATOM      3  O   UNL A   1      39.410  21.649  26.519  1.00  0.00    -0.376 OA
BRANCH   3   4
ATOM      4  C   UNL A   1      38.310  21.687  25.623  1.00  0.00     0.202 C 
BRANCH   4   5
ATOM      5  C   UNL A   1      37.091  22.618  25.821  1.00  0.00     0.261 C 
BRANCH   5   6
ATOM      6  O   UNL A   1      36.958  23.761  24.953  1.00  0.00    -0.463 OA
BRANCH   6   7
ATOM      7  C   UNL A   1      36.212  23.591  23.829  1.00  0.00     0.313 C 
ATOM      8  O   UNL A   1      36.691  23.262  22.748  1.00  0.00    -0.252 OA
BRANCH   7   9
ATOM      9  C   UNL A   1      34.700  23.834  24.025  1.00  0.00     0.129 C 
ATOM     10  C   UNL A   1      34.236  24.734  25.180  1.00  0.00     0.025 C 
BRANCH   9  11
ATOM     11  C   UNL A   1      33.938  22.511  23.960  1.00  0.00     0.002 A 
ATOM     12  C   UNL A   1      34.183  21.441  24.837  1.00  0.00     0.008 A 
ATOM     13  C   UNL A   1      33.023  22.291  22.930  1.00  0.00     0.127 A 
ATOM     14  C   UNL A   1      33.591  20.187  24.642  1.00  0.00     0.004 A 
ATOM     15  C   UNL A   1      32.409  21.050  22.740  1.00  0.00     0.043 A 
ATOM     16  F   UNL A   1      32.706  23.296  22.099  1.00  0.00    -0.207 F 
ATOM     17  C   UNL A   1      32.701  19.970  23.585  1.00  0.00    -0.041 A 
BRANCH  17  18
ATOM     18  C   UNL A   1      32.019  18.636  23.411  1.00  0.00     0.072 C 
BRANCH  18  19
ATOM     19  C   UNL A   1      32.771  17.598  24.196  1.00  0.00    -0.033 A 
ATOM     20  C   UNL A   1      32.274  16.883  25.341  1.00  0.00     0.015 A 
ATOM     21  C   UNL A   1      34.023  17.120  23.847  1.00  0.00     0.068 A 
ATOM     22  C   UNL A   1      33.146  15.918  25.796  1.00  0.00     0.065 A 
ATOM     23  S   UNL A   1      34.572  15.855  24.860  1.00  0.00    -0.152 S 
ENDBRANCH  18  19
ENDBRANCH  17  18
ENDBRANCH   9  11
ENDBRANCH   7   9
ENDBRANCH   6   7
ENDBRANCH   5   6
ENDBRANCH   4   5
ENDBRANCH   3   4
ENDBRANCH   2   3
ENDBRANCH   1   2
BRANCH   1  24
ATOM     24  O   UNL A   1      41.602  19.863  26.440  1.00  0.00    -0.377 OA
BRANCH  24  25
ATOM     25  C   UNL A   1      42.622  18.910  26.190  1.00  0.00     0.188 C 
BRANCH  25  26
ATOM     26  C   UNL A   1      43.613  19.179  25.040  1.00  0.00     0.188 C 
BRANCH  26  27
ATOM     27  O   UNL A   1      44.886  19.655  25.466  1.00  0.00    -0.376 OA
BRANCH  27  28
ATOM     28  C   UNL A   1      45.411  20.837  24.879  1.00  0.00     0.202 C 
BRANCH  28  29
ATOM     29  C   UNL A   1      45.730  22.011  25.820  1.00  0.00     0.261 C 
BRANCH  29  30
ATOM     30  O   UNL A   1      44.650  22.912  26.104  1.00  0.00    -0.460 OA
BRANCH  30  31
ATOM     31  C   UNL A   1      44.739  24.174  25.625  1.00  0.00     0.338 C 
ATOM     32  O   UNL A   1      45.237  24.530  24.581  1.00  0.00    -0.246 OA
BRANCH  31  33
ATOM     33  C   UNL A   1      43.927  25.040  26.512  1.00  0.00     0.060 A 
ATOM     34  C   UNL A   1      44.035  26.430  26.376  1.00  0.00     0.016 A 
ATOM     35  C   UNL A   1      43.054  24.485  27.449  1.00  0.00     0.016 A 
ATOM     36  C   UNL A   1      43.292  27.272  27.203  1.00  0.00     0.010 A 
ATOM     37  C   UNL A   1      42.331  25.329  28.297  1.00  0.00     0.010 A 
ATOM     38  C   UNL A   1      42.475  26.725  28.201  1.00  0.00    -0.014 A 
BRANCH  38  39
ATOM     39  C   UNL A   1      41.952  27.599  29.277  1.00  0.00     0.031 A 
ATOM     40  C   UNL A   1      42.657  27.579  30.607  1.00  0.00     0.074 A 
ATOM     41  C   UNL A   1      40.898  28.410  29.081  1.00  0.00     0.049 A 
ATOM     42  N   UNL A   1      42.364  28.208  31.715  1.00  0.00    -0.248 NA
ATOM     43  C   UNL A   1      43.856  26.729  30.694  1.00  0.00     0.031 C 
ATOM     44  C   UNL A   1      40.165  28.558  27.826  1.00  0.00     0.029 A 
ATOM     45  N   UNL A   1      40.257  29.259  29.950  1.00  0.00    -0.354 N 
ATOM     46  C   UNL A   1      43.333  27.821  32.633  1.00  0.00     0.074 A 
ATOM     47  C   UNL A   1      44.205  26.882  31.963  1.00  0.00     0.031 C 
ATOM     48  C   UNL A   1      39.164  29.439  28.010  1.00  0.00     0.029 A 
ATOM     49  C   UNL A   1      39.167  29.886  29.401  1.00  0.00     0.049 A 
ATOM     50  H   UNL A   1      40.553  29.404  30.878  1.00  0.00     0.167 HD
ATOM     51  C   UNL A   1      43.485  28.218  33.918  1.00  0.00     0.037 A 
ATOM     52  C   UNL A   1      38.261  30.707  29.971  1.00  0.00     0.037 A 
ATOM     53  C   UNL A   1      42.615  29.151  34.581  1.00  0.00     0.049 A 
ATOM     54  C   UNL A   1      38.403  31.066  31.429  1.00  0.00     0.074 A 
ATOM     55  C   UNL A   1      42.696  29.632  35.875  1.00  0.00     0.029 A 
ATOM     56  N   UNL A   1      41.497  29.735  34.005  1.00  0.00    -0.354 N 
ATOM     57  N   UNL A   1      39.336  30.717  32.283  1.00  0.00    -0.248 NA
ATOM     58  C   UNL A   1      37.365  31.936  32.002  1.00  0.00     0.031 C 
ATOM     59  C   UNL A   1      41.590  30.458  36.103  1.00  0.00     0.029 A 
ATOM     60  C   UNL A   1      40.860  30.546  34.929  1.00  0.00     0.049 A 
ATOM     61  H   UNL A   1      41.201  29.593  33.076  1.00  0.00     0.167 HD
ATOM     62  C   UNL A   1      39.018  31.353  33.479  1.00  0.00     0.074 A 
ATOM     63  C   UNL A   1      37.813  32.117  33.235  1.00  0.00     0.031 C 
ATOM     64  C   UNL A   1      39.666  31.311  34.669  1.00  0.00     0.037 A 
BRANCH  51  65
ATOM     65  C   UNL A   1      44.615  27.613  34.700  1.00  0.00     0.057 A 
ATOM     66  C   UNL A   1      44.470  26.415  35.414  1.00  0.00     0.134 A 
ATOM     67  C   UNL A   1      45.874  28.226  34.717  1.00  0.00     0.134 A 
ATOM     68  F   UNL A   1      43.286  25.786  35.455  1.00  0.00    -0.206 F 
ATOM     69  C   UNL A   1      45.532  25.863  36.134  1.00  0.00     0.040 A 
ATOM     70  C   UNL A   1      46.950  27.667  35.407  1.00  0.00     0.040 A 
ATOM     71  F   UNL A   1      46.081  29.373  34.054  1.00  0.00    -0.206 F 
ATOM     72  C   UNL A   1      46.779  26.485  36.124  1.00  0.00     0.006 A 
ENDBRANCH  51  65
BRANCH  52  73
ATOM     73  C   UNL A   1      37.125  31.238  29.174  1.00  0.00     0.057 A 
ATOM     74  C   UNL A   1      37.125  32.555  28.695  1.00  0.00     0.134 A 
ATOM     75  C   UNL A   1      35.994  30.458  28.904  1.00  0.00     0.134 A 
ATOM     76  F   UNL A   1      38.167  33.362  28.942  1.00  0.00    -0.206 F 
ATOM     77  C   UNL A   1      36.035  33.082  27.999  1.00  0.00     0.040 A 
ATOM     78  C   UNL A   1      34.909  30.964  28.184  1.00  0.00     0.040 A 
ATOM     79  F   UNL A   1      35.926  29.190  29.336  1.00  0.00    -0.206 F 
ATOM     80  C   UNL A   1      34.925  32.283  27.738  1.00  0.00     0.006 A 
ENDBRANCH  52  73
BRANCH  64  81
ATOM     81  C   UNL A   1      39.119  32.152  35.788  1.00  0.00     0.057 A 
ATOM     82  C   UNL A   1      38.268  31.626  36.769  1.00  0.00     0.134 A 
ATOM     83  C   UNL A   1      39.488  33.498  35.910  1.00  0.00     0.134 A 
ATOM     84  F   UNL A   1      37.867  30.347  36.708  1.00  0.00    -0.206 F 
ATOM     85  C   UNL A   1      37.784  32.416  37.814  1.00  0.00     0.040 A 
ATOM     86  C   UNL A   1      39.038  34.288  36.968  1.00  0.00     0.040 A 
ATOM     87  F   UNL A   1      40.311  34.062  35.013  1.00  0.00    -0.206 F 
ATOM     88  C   UNL A   1      38.176  33.748  37.920  1.00  0.00     0.006 A 
ENDBRANCH  64  81
ENDBRANCH  38  39
ENDBRANCH  31  33
ENDBRANCH  30  31
ENDBRANCH  29  30
ENDBRANCH  28  29
ENDBRANCH  27  28
ENDBRANCH  26  27
ENDBRANCH  25  26
ENDBRANCH  24  25
ENDBRANCH   1  24
TORSDOF 23
ENDMDL
MODEL 2
REMARK VINA RESULT:     -10.2      4.588      9.800
REMARK SMILES C[C@@H](C(=O)OCCOCCOCCOCCOC(=O)c1ccc(-c2c3nc(c(-c4c(F)cccc4F)c4ccc([nH]4)c(-c4c(F)cccc4F)c4nc(c(-c5c(F)cccc5F)c5ccc2[nH]5)C=C4)C=C3)cc1)c1ccc(Cc2ccsc2)cc1F
REMARK SMILES IDX 10 1 9 2 8 3 7 4 6 5 5 6 3 7 4 8 2 9 1 10 74 11 75 12 85 13
REMARK SMILES IDX 76 14 84 15 86 16 77 17 78 18 79 19 80 20 83 21 81 22 82 23
REMARK SMILES IDX 11 24 12 25 13 26 14 27 15 28 16 29 17 30 18 31 19 32 20 33
REMARK SMILES IDX 21 34 73 35 22 36 72 37 23 38 24 39 25 40 66 41 26 42 71 43
REMARK SMILES IDX 65 44 67 45 27 46 70 47 64 48 63 49 28 51 54 52 37 53 53 54
REMARK SMILES IDX 38 55 41 56 52 57 68 58 39 59 40 60 51 62 69 63 42 64 29 65
REMARK SMILES IDX 30 66 35 67 31 68 32 69 34 70 36 71 33 72 55 73 56 74 61 75
REMARK SMILES IDX 57 76 58 77 60 78 62 79 59 80 43 81 44 82 49 83 45 84 46 85
REMARK SMILES IDX 48 86 50 87 47 88
REMARK H PARENT 67 50 41 61
REMARK Flexibility Score: inf
ROOT
ATOM      1  C   UNL A   1      32.197  29.572  26.820  1.00  0.00     0.188 C 
ENDROOT
BRANCH   1   2
ATOM      2  C   UNL A   1      32.057  28.278  27.644  1.00  0.00     0.188 C 
BRANCH   2   3
ATOM      3  O   UNL A   1      31.027  27.359  27.332  1.00  0.00    -0.376 OA
BRANCH   3   4
ATOM      4  C   UNL A   1      31.094  26.604  26.131  1.00  0.00     0.202 C 
BRANCH   4   5
ATOM      5  C   UNL A   1      31.515  25.117  26.091  1.00  0.00     0.261 C 
BRANCH   5   6
ATOM      6  O   UNL A   1      32.530  24.721  25.147  1.00  0.00    -0.463 OA
BRANCH   6   7
ATOM      7  C   UNL A   1      33.809  25.076  25.442  1.00  0.00     0.313 C 
ATOM      8  O   UNL A   1      34.227  26.226  25.348  1.00  0.00    -0.252 OA
BRANCH   7   9
ATOM      9  C   UNL A   1      34.700  23.909  25.921  1.00  0.00     0.129 C 
ATOM     10  C   UNL A   1      36.226  24.051  25.822  1.00  0.00     0.025 C 
BRANCH   9  11
ATOM     11  C   UNL A   1      34.188  22.586  25.354  1.00  0.00     0.002 A 
ATOM     12  C   UNL A   1      33.910  22.391  23.992  1.00  0.00     0.008 A 
ATOM     13  C   UNL A   1      33.879  21.538  26.223  1.00  0.00     0.127 A 
ATOM     14  C   UNL A   1      33.282  21.226  23.534  1.00  0.00     0.004 A 
ATOM     15  C   UNL A   1      33.274  20.361  25.773  1.00  0.00     0.043 A 
ATOM     16  F   UNL A   1      34.179  21.645  27.525  1.00  0.00    -0.207 F 
ATOM     17  C   UNL A   1      32.946  20.196  24.420  1.00  0.00    -0.041 A 
BRANCH  17  18
ATOM     18  C   UNL A   1      32.324  18.918  23.917  1.00  0.00     0.072 C 
BRANCH  18  19
ATOM     19  C   UNL A   1      33.046  17.750  24.528  1.00  0.00    -0.033 A 
ATOM     20  C   UNL A   1      32.453  16.724  25.343  1.00  0.00     0.015 A 
ATOM     21  C   UNL A   1      34.380  17.456  24.294  1.00  0.00     0.068 A 
ATOM     22  C   UNL A   1      33.338  15.722  25.680  1.00  0.00     0.065 A 
ATOM     23  S   UNL A   1      34.890  15.997  25.028  1.00  0.00    -0.152 S 
ENDBRANCH  18  19
ENDBRANCH  17  18
ENDBRANCH   9  11
ENDBRANCH   7   9
ENDBRANCH   6   7
ENDBRANCH   5   6
ENDBRANCH   4   5
ENDBRANCH   3   4
ENDBRANCH   2   3
ENDBRANCH   1   2
BRANCH   1  24
ATOM     24  O   UNL A   1      33.317  30.365  27.151  1.00  0.00    -0.377 OA
BRANCH  24  25
ATOM     25  C   UNL A   1      33.071  31.747  27.353  1.00  0.00     0.188 C 
BRANCH  25  26
ATOM     26  C   UNL A   1      34.186  32.607  27.981  1.00  0.00     0.188 C 
BRANCH  26  27
ATOM     27  O   UNL A   1      34.247  32.535  29.402  1.00  0.00    -0.376 OA
BRANCH  27  28
ATOM     28  C   UNL A   1      34.266  33.741  30.152  1.00  0.00     0.202 C 
BRANCH  28  29
ATOM     29  C   UNL A   1      34.628  33.639  31.643  1.00  0.00     0.261 C 
BRANCH  29  30
ATOM     30  O   UNL A   1      34.981  32.336  32.127  1.00  0.00    -0.460 OA
BRANCH  30  31
ATOM     31  C   UNL A   1      36.091  32.226  32.891  1.00  0.00     0.338 C 
ATOM     32  O   UNL A   1      36.217  32.534  34.054  1.00  0.00    -0.246 OA
BRANCH  31  33
ATOM     33  C   UNL A   1      37.090  31.459  32.109  1.00  0.00     0.060 A 
ATOM     34  C   UNL A   1      38.034  30.686  32.797  1.00  0.00     0.016 A 
ATOM     35  C   UNL A   1      37.078  31.486  30.713  1.00  0.00     0.016 A 
ATOM     36  C   UNL A   1      38.992  29.961  32.089  1.00  0.00     0.010 A 
ATOM     37  C   UNL A   1      38.057  30.783  30.006  1.00  0.00     0.010 A 
ATOM     38  C   UNL A   1      39.040  30.047  30.692  1.00  0.00    -0.014 A 
BRANCH  38  39
ATOM     39  C   UNL A   1      40.237  29.557  29.970  1.00  0.00     0.031 A 
ATOM     40  C   UNL A   1      41.375  30.519  29.755  1.00  0.00     0.074 A 
ATOM     41  C   UNL A   1      40.332  28.288  29.537  1.00  0.00     0.049 A 
ATOM     42  N   UNL A   1      42.500  30.349  29.111  1.00  0.00    -0.248 NA
ATOM     43  C   UNL A   1      41.215  31.858  30.347  1.00  0.00     0.031 C 
ATOM     44  C   UNL A   1      39.323  27.250  29.730  1.00  0.00     0.029 A 
ATOM     45  N   UNL A   1      41.332  27.663  28.834  1.00  0.00    -0.354 N 
ATOM     46  C   UNL A   1      43.175  31.560  29.211  1.00  0.00     0.074 A 
ATOM     47  C   UNL A   1      42.323  32.464  29.951  1.00  0.00     0.031 C 
ATOM     48  C   UNL A   1      39.752  26.115  29.147  1.00  0.00     0.029 A 
ATOM     49  C   UNL A   1      41.046  26.360  28.511  1.00  0.00     0.049 A 
ATOM     50  H   UNL A   1      42.175  28.107  28.585  1.00  0.00     0.167 HD
ATOM     51  C   UNL A   1      44.399  31.886  28.734  1.00  0.00     0.037 A 
ATOM     52  C   UNL A   1      41.740  25.478  27.765  1.00  0.00     0.037 A 
ATOM     53  C   UNL A   1      45.243  30.984  27.998  1.00  0.00     0.049 A 
ATOM     54  C   UNL A   1      43.063  25.894  27.171  1.00  0.00     0.074 A 
ATOM     55  C   UNL A   1      46.508  31.212  27.488  1.00  0.00     0.029 A 
ATOM     56  N   UNL A   1      44.901  29.684  27.657  1.00  0.00    -0.354 N 
ATOM     57  N   UNL A   1      43.707  27.030  27.291  1.00  0.00    -0.248 NA
ATOM     58  C   UNL A   1      43.757  24.900  26.337  1.00  0.00     0.031 C 
ATOM     59  C   UNL A   1      46.906  30.072  26.783  1.00  0.00     0.029 A 
ATOM     60  C   UNL A   1      45.917  29.109  26.913  1.00  0.00     0.049 A 
ATOM     61  H   UNL A   1      44.059  29.237  27.906  1.00  0.00     0.167 HD
ATOM     62  C   UNL A   1      44.893  26.876  26.581  1.00  0.00     0.074 A 
ATOM     63  C   UNL A   1      44.884  25.532  26.044  1.00  0.00     0.031 C 
ATOM     64  C   UNL A   1      45.900  27.765  26.394  1.00  0.00     0.037 A 
BRANCH  51  65
ATOM     65  C   UNL A   1      44.879  33.290  28.961  1.00  0.00     0.057 A 
ATOM     66  C   UNL A   1      44.577  34.335  28.078  1.00  0.00     0.134 A 
ATOM     67  C   UNL A   1      45.635  33.605  30.098  1.00  0.00     0.134 A 
ATOM     68  F   UNL A   1      43.873  34.099  26.960  1.00  0.00    -0.206 F 
ATOM     69  C   UNL A   1      45.028  35.636  28.305  1.00  0.00     0.040 A 
ATOM     70  C   UNL A   1      46.065  34.908  30.352  1.00  0.00     0.040 A 
ATOM     71  F   UNL A   1      45.959  32.653  30.986  1.00  0.00    -0.206 F 
ATOM     72  C   UNL A   1      45.767  35.927  29.451  1.00  0.00     0.006 A 
ENDBRANCH  51  65
BRANCH  52  73
ATOM     73  C   UNL A   1      41.201  24.116  27.517  1.00  0.00     0.057 A 
ATOM     74  C   UNL A   1      40.157  23.901  26.608  1.00  0.00     0.134 A 
ATOM     75  C   UNL A   1      41.686  23.000  28.211  1.00  0.00     0.134 A 
ATOM     76  F   UNL A   1      39.630  24.932  25.930  1.00  0.00    -0.206 F 
ATOM     77  C   UNL A   1      39.601  22.635  26.414  1.00  0.00     0.040 A 
ATOM     78  C   UNL A   1      41.159  21.723  28.006  1.00  0.00     0.040 A 
ATOM     79  F   UNL A   1      42.682  23.135  29.099  1.00  0.00    -0.206 F 
ATOM     80  C   UNL A   1      40.107  21.540  27.112  1.00  0.00     0.006 A 
ENDBRANCH  52  73
BRANCH  64  81
ATOM     81  C   UNL A   1      47.101  27.300  25.619  1.00  0.00     0.057 A 
ATOM     82  C   UNL A   1      47.280  27.608  24.264  1.00  0.00     0.134 A 
ATOM     83  C   UNL A   1      48.117  26.572  26.253  1.00  0.00     0.134 A 
ATOM     84  F   UNL A   1      46.342  28.293  23.593  1.00  0.00    -0.206 F 
ATOM     85  C   UNL A   1      48.411  27.186  23.563  1.00  0.00     0.040 A 
ATOM     86  C   UNL A   1      49.267  26.173  25.572  1.00  0.00     0.040 A 
ATOM     87  F   UNL A   1      48.017  26.254  27.552  1.00  0.00    -0.206 F 
ATOM     88  C   UNL A   1      49.412  26.474  24.219  1.00  0.00     0.006 A 
ENDBRANCH  64  81
ENDBRANCH  38  39
ENDBRANCH  31  33
ENDBRANCH  30  31
ENDBRANCH  29  30
ENDBRANCH  28  29
ENDBRANCH  27  28
ENDBRANCH  26  27
ENDBRANCH  25  26
ENDBRANCH  24  25
ENDBRANCH   1  24
TORSDOF 23
ENDMDL
MODEL 3
REMARK VINA RESULT:      -9.9      5.082     10.306
REMARK SMILES C[C@@H](C(=O)OCCOCCOCCOCCOC(=O)c1ccc(-c2c3nc(c(-c4c(F)cccc4F)c4ccc([nH]4)c(-c4c(F)cccc4F)c4nc(c(-c5c(F)cccc5F)c5ccc2[nH]5)C=C4)C=C3)cc1)c1ccc(Cc2ccsc2)cc1F
REMARK SMILES IDX 10 1 9 2 8 3 7 4 6 5 5 6 3 7 4 8 2 9 1 10 74 11 75 12 85 13
REMARK SMILES IDX 76 14 84 15 86 16 77 17 78 18 79 19 80 20 83 21 81 22 82 23
REMARK SMILES IDX 11 24 12 25 13 26 14 27 15 28 16 29 17 30 18 31 19 32 20 33
REMARK SMILES IDX 21 34 73 35 22 36 72 37 23 38 24 39 25 40 66 41 26 42 71 43
REMARK SMILES IDX 65 44 67 45 27 46 70 47 64 48 63 49 28 51 54 52 37 53 53 54
REMARK SMILES IDX 38 55 41 56 52 57 68 58 39 59 40 60 51 62 69 63 42 64 29 65
REMARK SMILES IDX 30 66 35 67 31 68 32 69 34 70 36 71 33 72 55 73 56 74 61 75
REMARK SMILES IDX 57 76 58 77 60 78 62 79 59 80 43 81 44 82 49 83 45 84 46 85
REMARK SMILES IDX 48 86 50 87 47 88
REMARK H PARENT 67 50 41 61
REMARK Flexibility Score: inf
ROOT
ATOM      1  C   UNL A   1      31.966  27.992  27.450  1.00  0.00     0.188 C 
ENDROOT
BRANCH   1   2
ATOM      2  C   UNL A   1      31.334  26.963  26.494  1.00  0.00     0.188 C 
BRANCH   2   3
ATOM      3  O   UNL A   1      31.978  25.719  26.282  1.00  0.00    -0.376 OA
BRANCH   3   4
ATOM      4  C   UNL A   1      31.205  24.534  26.168  1.00  0.00     0.202 C 
BRANCH   4   5
ATOM      5  C   UNL A   1      31.580  23.211  26.874  1.00  0.00     0.261 C 
BRANCH   5   6
ATOM      6  O   UNL A   1      31.991  22.095  26.059  1.00  0.00    -0.463 OA
BRANCH   6   7
ATOM      7  C   UNL A   1      33.261  21.644  26.236  1.00  0.00     0.313 C 
ATOM      8  O   UNL A   1      33.723  21.349  27.334  1.00  0.00    -0.252 OA
BRANCH   7   9
ATOM      9  C   UNL A   1      34.081  21.519  24.933  1.00  0.00     0.129 C 
ATOM     10  C   UNL A   1      35.490  20.911  24.997  1.00  0.00     0.025 C 
BRANCH   9  11
ATOM     11  C   UNL A   1      34.036  22.832  24.152  1.00  0.00     0.002 A 
ATOM     12  C   UNL A   1      34.611  24.024  24.622  1.00  0.00     0.008 A 
ATOM     13  C   UNL A   1      33.310  22.902  22.963  1.00  0.00     0.127 A 
ATOM     14  C   UNL A   1      34.403  25.243  23.965  1.00  0.00     0.004 A 
ATOM     15  C   UNL A   1      33.116  24.109  22.286  1.00  0.00     0.043 A 
ATOM     16  F   UNL A   1      32.789  21.783  22.437  1.00  0.00    -0.207 F 
ATOM     17  C   UNL A   1      33.645  25.305  22.790  1.00  0.00    -0.041 A 
BRANCH  17  18
ATOM     18  C   UNL A   1      33.471  26.609  22.052  1.00  0.00     0.072 C 
BRANCH  18  19
ATOM     19  C   UNL A   1      32.287  27.338  22.621  1.00  0.00    -0.033 A 
ATOM     20  C   UNL A   1      32.320  28.621  23.272  1.00  0.00     0.015 A 
ATOM     21  C   UNL A   1      30.977  26.904  22.498  1.00  0.00     0.068 A 
ATOM     22  C   UNL A   1      31.067  29.091  23.602  1.00  0.00     0.065 A 
ATOM     23  S   UNL A   1      29.835  28.005  23.140  1.00  0.00    -0.152 S 
ENDBRANCH  18  19
ENDBRANCH  17  18
ENDBRANCH   9  11
ENDBRANCH   7   9
ENDBRANCH   6   7
ENDBRANCH   5   6
ENDBRANCH   4   5
ENDBRANCH   3   4
ENDBRANCH   2   3
ENDBRANCH   1   2
BRANCH   1  24
ATOM     24  O   UNL A   1      31.498  29.314  27.287  1.00  0.00    -0.377 OA
BRANCH  24  25
ATOM     25  C   UNL A   1      32.446  30.263  26.825  1.00  0.00     0.188 C 
BRANCH  25  26
ATOM     26  C   UNL A   1      33.937  30.022  27.134  1.00  0.00     0.188 C 
BRANCH  26  27
ATOM     27  O   UNL A   1      34.709  31.213  27.249  1.00  0.00    -0.376 OA
BRANCH  27  28
ATOM     28  C   UNL A   1      34.192  32.298  28.005  1.00  0.00     0.202 C 
BRANCH  28  29
ATOM     29  C   UNL A   1      34.692  32.452  29.451  1.00  0.00     0.261 C 
BRANCH  29  30
ATOM     30  O   UNL A   1      35.566  31.423  29.938  1.00  0.00    -0.460 OA
BRANCH  30  31
ATOM     31  C   UNL A   1      36.632  31.800  30.680  1.00  0.00     0.338 C 
ATOM     32  O   UNL A   1      36.635  32.536  31.641  1.00  0.00    -0.246 OA
BRANCH  31  33
ATOM     33  C   UNL A   1      37.787  30.984  30.238  1.00  0.00     0.060 A 
ATOM     34  C   UNL A   1      38.630  30.430  31.211  1.00  0.00     0.016 A 
ATOM     35  C   UNL A   1      38.020  30.750  28.882  1.00  0.00     0.016 A 
ATOM     36  C   UNL A   1      39.731  29.665  30.826  1.00  0.00     0.010 A 
ATOM     37  C   UNL A   1      39.140  30.008  28.497  1.00  0.00     0.010 A 
ATOM     38  C   UNL A   1      40.019  29.493  29.467  1.00  0.00    -0.014 A 
BRANCH  38  39
ATOM     39  C   UNL A   1      41.347  28.974  29.061  1.00  0.00     0.031 A 
ATOM     40  C   UNL A   1      42.505  29.936  29.043  1.00  0.00     0.074 A 
ATOM     41  C   UNL A   1      41.534  27.682  28.742  1.00  0.00     0.049 A 
ATOM     42  N   UNL A   1      43.745  29.740  28.678  1.00  0.00    -0.248 NA
ATOM     43  C   UNL A   1      42.219  31.306  29.498  1.00  0.00     0.031 C 
ATOM     44  C   UNL A   1      40.506  26.645  28.771  1.00  0.00     0.029 A 
ATOM     45  N   UNL A   1      42.665  27.027  28.320  1.00  0.00    -0.354 N 
ATOM     46  C   UNL A   1      44.382  30.963  28.847  1.00  0.00     0.074 A 
ATOM     47  C   UNL A   1      43.388  31.901  29.320  1.00  0.00     0.031 C 
ATOM     48  C   UNL A   1      41.053  25.481  28.372  1.00  0.00     0.029 A 
ATOM     49  C   UNL A   1      42.455  25.702  28.026  1.00  0.00     0.049 A 
ATOM     50  H   UNL A   1      43.542  27.466  28.237  1.00  0.00     0.167 HD
ATOM     51  C   UNL A   1      45.682  31.275  28.634  1.00  0.00     0.037 A 
ATOM     52  C   UNL A   1      43.298  24.785  27.510  1.00  0.00     0.037 A 
ATOM     53  C   UNL A   1      46.668  30.339  28.163  1.00  0.00     0.049 A 
ATOM     54  C   UNL A   1      44.720  25.180  27.199  1.00  0.00     0.074 A 
ATOM     55  C   UNL A   1      48.015  30.551  27.933  1.00  0.00     0.029 A 
ATOM     56  N   UNL A   1      46.409  29.017  27.838  1.00  0.00    -0.354 N 
ATOM     57  N   UNL A   1      45.322  26.330  27.386  1.00  0.00    -0.248 NA
ATOM     58  C   UNL A   1      45.581  24.145  26.606  1.00  0.00     0.031 C 
ATOM     59  C   UNL A   1      48.558  29.375  27.408  1.00  0.00     0.029 A 
ATOM     60  C   UNL A   1      47.564  28.409  27.377  1.00  0.00     0.049 A 
ATOM     61  H   UNL A   1      45.532  28.575  27.922  1.00  0.00     0.167 HD
ATOM     62  C   UNL A   1      46.637  26.147  26.969  1.00  0.00     0.074 A 
ATOM     63  C   UNL A   1      46.746  24.772  26.531  1.00  0.00     0.031 C 
ATOM     64  C   UNL A   1      47.661  27.035  26.954  1.00  0.00     0.037 A 
BRANCH  51  65
ATOM     65  C   UNL A   1      46.102  32.696  28.872  1.00  0.00     0.057 A 
ATOM     66  C   UNL A   1      46.594  33.132  30.110  1.00  0.00     0.134 A 
ATOM     67  C   UNL A   1      46.036  33.638  27.837  1.00  0.00     0.134 A 
ATOM     68  F   UNL A   1      46.666  32.286  31.150  1.00  0.00    -0.206 F 
ATOM     69  C   UNL A   1      46.983  34.457  30.315  1.00  0.00     0.040 A 
ATOM     70  C   UNL A   1      46.451  34.957  28.021  1.00  0.00     0.040 A 
ATOM     71  F   UNL A   1      45.576  33.288  26.627  1.00  0.00    -0.206 F 
ATOM     72  C   UNL A   1      46.921  35.372  29.266  1.00  0.00     0.006 A 
ENDBRANCH  51  65
BRANCH  52  73
ATOM     73  C   UNL A   1      42.825  23.403  27.236  1.00  0.00     0.057 A 
ATOM     74  C   UNL A   1      42.513  22.985  25.936  1.00  0.00     0.134 A 
ATOM     75  C   UNL A   1      42.634  22.477  28.270  1.00  0.00     0.134 A 
ATOM     76  F   UNL A   1      42.649  23.832  24.905  1.00  0.00    -0.206 F 
ATOM     77  C   UNL A   1      42.009  21.709  25.676  1.00  0.00     0.040 A 
ATOM     78  C   UNL A   1      42.158  21.188  28.021  1.00  0.00     0.040 A 
ATOM     79  F   UNL A   1      42.910  22.813  29.539  1.00  0.00    -0.206 F 
ATOM     80  C   UNL A   1      41.835  20.805  26.722  1.00  0.00     0.006 A 
ENDBRANCH  52  73
BRANCH  64  81
ATOM     81  C   UNL A   1      49.004  26.538  26.496  1.00  0.00     0.057 A 
ATOM     82  C   UNL A   1      49.480  26.763  25.197  1.00  0.00     0.134 A 
ATOM     83  C   UNL A   1      49.853  25.866  27.386  1.00  0.00     0.134 A 
ATOM     84  F   UNL A   1      48.715  27.391  24.292  1.00  0.00    -0.206 F 
ATOM     85  C   UNL A   1      50.738  26.312  24.794  1.00  0.00     0.040 A 
ATOM     86  C   UNL A   1      51.125  25.440  27.004  1.00  0.00     0.040 A 
ATOM     87  F   UNL A   1      49.467  25.629  28.648  1.00  0.00    -0.206 F 
ATOM     88  C   UNL A   1      51.568  25.656  25.701  1.00  0.00     0.006 A 
ENDBRANCH  64  81
ENDBRANCH  38  39
ENDBRANCH  31  33
ENDBRANCH  30  31
ENDBRANCH  29  30
ENDBRANCH  28  29
ENDBRANCH  27  28
ENDBRANCH  26  27
ENDBRANCH  25  26
ENDBRANCH  24  25
ENDBRANCH   1  24
TORSDOF 23
ENDMDL
