MODEL 1
REMARK VINA RESULT:      -8.9      0.000      0.000
REMARK SMILES CCC[N@@H+](CC1CC[NH2+]CC1)[C@@H](CC)C(=O)OCCOCCOCCOCCOC(=O)c1ccc(-c2c3nc(c(-c4c(F)cccc4F)c4ccc([nH]4)c(-c4c(F)cccc4F)c4nc(c(-c5c(F)cccc5F)c5ccc2[nH]5)C=C4)C=C3)cc1
REMARK SMILES IDX 22 1 21 2 20 3 19 4 18 5 17 6 15 7 16 8 12 9 4 10 3 12 2 13
REMARK SMILES IDX 1 14 5 15 6 16 7 17 11 18 8 19 10 20 9 21 13 24 14 25 23 26
REMARK SMILES IDX 24 27 25 28 26 29 27 30 28 31 29 32 30 33 31 34 32 35 33 36
REMARK SMILES IDX 85 37 34 38 84 39 35 40 36 41 37 42 78 43 38 44 83 45 77 46
REMARK SMILES IDX 79 47 39 48 82 49 76 50 75 51 40 53 66 54 49 55 65 56 50 57
REMARK SMILES IDX 53 58 64 59 80 60 51 61 52 62 63 64 81 65 54 66 41 67 42 68
REMARK SMILES IDX 47 69 43 70 44 71 46 72 48 73 45 74 67 75 68 76 73 77 69 78
REMARK SMILES IDX 70 79 72 80 74 81 71 82 55 83 56 84 61 85 57 86 58 87 60 88
REMARK SMILES IDX 62 89 59 90
REMARK H PARENT 4 11 9 22 9 23 79 52 53 63
REMARK Flexibility Score: inf
ROOT
ATOM      1  C   UNL A   1      35.545  32.447  27.913  1.00  0.00     0.188 C 
ENDROOT
BRANCH   1   2
ATOM      2  C   UNL A   1      34.961  31.055  28.218  1.00  0.00     0.188 C 
BRANCH   2   3
ATOM      3  O   UNL A   1      34.059  30.415  27.338  1.00  0.00    -0.376 OA
BRANCH   3   4
ATOM      4  C   UNL A   1      34.405  29.231  26.632  1.00  0.00     0.202 C 
BRANCH   4   5
ATOM      5  C   UNL A   1      33.365  28.387  25.898  1.00  0.00     0.261 C 
BRANCH   5   6
ATOM      6  O   UNL A   1      33.406  26.996  26.237  1.00  0.00    -0.459 OA
BRANCH   6   7
ATOM      7  C   UNL A   1      32.222  26.338  26.181  1.00  0.00     0.364 C 
ATOM      8  O   UNL A   1      31.448  26.234  27.132  1.00  0.00    -0.245 OA
BRANCH   7   9
ATOM      9  C   UNL A   1      31.982  25.607  24.855  1.00  0.00     0.294 C 
BRANCH   9  10
ATOM     10  N   UNL A   1      32.527  24.218  24.810  1.00  0.00    -0.323 N 
ATOM     11  H   UNL A   1      32.357  23.977  25.785  1.00  0.00     0.348 HD
BRANCH  10  12
ATOM     12  C   UNL A   1      31.827  23.112  24.133  1.00  0.00     0.262 C 
BRANCH  12  13
ATOM     13  C   UNL A   1      31.794  21.636  24.575  1.00  0.00     0.058 C 
ATOM     14  C   UNL A   1      32.646  20.607  23.874  1.00  0.00     0.010 C 
ENDBRANCH  12  13
ENDBRANCH  10  12
BRANCH  10  15
ATOM     15  C   UNL A   1      33.978  24.208  24.396  1.00  0.00     0.266 C 
BRANCH  15  16
ATOM     16  C   UNL A   1      35.066  24.176  25.523  1.00  0.00     0.055 C 
ATOM     17  C   UNL A   1      36.385  23.516  25.063  1.00  0.00     0.071 C 
ATOM     18  C   UNL A   1      34.647  23.459  26.817  1.00  0.00     0.071 C 
ATOM     19  C   UNL A   1      36.337  21.986  25.022  1.00  0.00     0.261 C 
ATOM     20  C   UNL A   1      34.520  21.952  26.619  1.00  0.00     0.261 C 
ATOM     21  N   UNL A   1      35.820  21.400  26.257  1.00  0.00    -0.346 N 
ATOM     22  H   UNL A   1      36.480  21.587  27.013  1.00  0.00     0.346 HD
ATOM     23  H   UNL A   1      35.707  20.397  26.107  1.00  0.00     0.346 HD
ENDBRANCH  15  16
ENDBRANCH  10  15
ENDBRANCH   9  10
BRANCH   9  24
ATOM     24  C   UNL A   1      30.600  26.108  24.373  1.00  0.00     0.074 C 
ATOM     25  C   UNL A   1      30.485  27.305  23.458  1.00  0.00     0.011 C 
ENDBRANCH   9  24
ENDBRANCH   7   9
ENDBRANCH   6   7
ENDBRANCH   5   6
ENDBRANCH   4   5
ENDBRANCH   3   4
ENDBRANCH   2   3
ENDBRANCH   1   2
BRANCH   1  26
ATOM     26  O   UNL A   1      34.953  33.633  28.394  1.00  0.00    -0.377 OA
BRANCH  26  27
ATOM     27  C   UNL A   1      34.065  33.607  29.493  1.00  0.00     0.188 C 
BRANCH  27  28
ATOM     28  C   UNL A   1      33.814  34.854  30.359  1.00  0.00     0.188 C 
BRANCH  28  29
ATOM     29  O   UNL A   1      33.638  34.604  31.743  1.00  0.00    -0.376 OA
BRANCH  29  30
ATOM     30  C   UNL A   1      34.339  35.455  32.640  1.00  0.00     0.202 C 
BRANCH  30  31
ATOM     31  C   UNL A   1      35.654  34.908  33.220  1.00  0.00     0.261 C 
BRANCH  31  32
ATOM     32  O   UNL A   1      36.222  33.785  32.526  1.00  0.00    -0.460 OA
BRANCH  32  33
ATOM     33  C   UNL A   1      36.720  32.791  33.292  1.00  0.00     0.338 C 
ATOM     34  O   UNL A   1      36.442  32.541  34.448  1.00  0.00    -0.246 OA
BRANCH  33  35
ATOM     35  C   UNL A   1      37.553  31.921  32.439  1.00  0.00     0.060 A 
ATOM     36  C   UNL A   1      38.657  31.285  33.019  1.00  0.00     0.016 A 
ATOM     37  C   UNL A   1      37.276  31.766  31.079  1.00  0.00     0.016 A 
ATOM     38  C   UNL A   1      39.526  30.543  32.223  1.00  0.00     0.010 A 
ATOM     39  C   UNL A   1      38.160  31.037  30.278  1.00  0.00     0.010 A 
ATOM     40  C   UNL A   1      39.315  30.466  30.840  1.00  0.00    -0.014 A 
BRANCH  40  41
ATOM     41  C   UNL A   1      40.426  29.984  29.983  1.00  0.00     0.031 A 
ATOM     42  C   UNL A   1      41.571  30.921  29.704  1.00  0.00     0.074 A 
ATOM     43  C   UNL A   1      40.469  28.716  29.538  1.00  0.00     0.049 A 
ATOM     44  N   UNL A   1      42.687  30.705  29.055  1.00  0.00    -0.248 NA
ATOM     45  C   UNL A   1      41.442  32.288  30.236  1.00  0.00     0.031 C 
ATOM     46  C   UNL A   1      39.443  27.703  29.772  1.00  0.00     0.029 A 
ATOM     47  N   UNL A   1      41.428  28.066  28.803  1.00  0.00    -0.354 N 
ATOM     48  C   UNL A   1      43.391  31.903  29.107  1.00  0.00     0.074 A 
ATOM     49  C   UNL A   1      42.561  32.853  29.812  1.00  0.00     0.031 C 
ATOM     50  C   UNL A   1      39.833  26.552  29.195  1.00  0.00     0.029 A 
ATOM     51  C   UNL A   1      41.121  26.755  28.536  1.00  0.00     0.049 A 
ATOM     52  H   UNL A   1      42.258  28.499  28.497  1.00  0.00     0.167 HD
ATOM     53  C   UNL A   1      44.626  32.182  28.626  1.00  0.00     0.037 A 
ATOM     54  C   UNL A   1      41.804  25.829  27.836  1.00  0.00     0.037 A 
ATOM     55  C   UNL A   1      45.450  31.239  27.916  1.00  0.00     0.049 A 
ATOM     56  C   UNL A   1      43.148  26.183  27.252  1.00  0.00     0.074 A 
ATOM     57  C   UNL A   1      46.717  31.425  27.390  1.00  0.00     0.029 A 
ATOM     58  N   UNL A   1      45.084  29.934  27.625  1.00  0.00    -0.354 N 
ATOM     59  N   UNL A   1      43.817  27.309  27.330  1.00  0.00    -0.248 NA
ATOM     60  C   UNL A   1      43.836  25.130  26.492  1.00  0.00     0.031 C 
ATOM     61  C   UNL A   1      47.095  30.248  26.734  1.00  0.00     0.029 A 
ATOM     62  C   UNL A   1      46.091  29.309  26.906  1.00  0.00     0.049 A 
ATOM     63  H   UNL A   1      44.233  29.513  27.888  1.00  0.00     0.167 HD
ATOM     64  C   UNL A   1      45.017  27.087  26.663  1.00  0.00     0.074 A 
ATOM     65  C   UNL A   1      44.989  25.716  26.201  1.00  0.00     0.031 C 
ATOM     66  C   UNL A   1      46.051  27.941  26.454  1.00  0.00     0.037 A 
BRANCH  53  67
ATOM     67  C   UNL A   1      45.144  33.577  28.829  1.00  0.00     0.057 A 
ATOM     68  C   UNL A   1      45.971  33.912  29.910  1.00  0.00     0.134 A 
ATOM     69  C   UNL A   1      44.825  34.595  27.922  1.00  0.00     0.134 A 
ATOM     70  F   UNL A   1      46.300  32.989  30.827  1.00  0.00    -0.206 F 
ATOM     71  C   UNL A   1      46.439  35.215  30.096  1.00  0.00     0.040 A 
ATOM     72  C   UNL A   1      45.311  35.894  28.080  1.00  0.00     0.040 A 
ATOM     73  F   UNL A   1      44.040  34.343  26.864  1.00  0.00    -0.206 F 
ATOM     74  C   UNL A   1      46.115  36.209  29.174  1.00  0.00     0.006 A 
ENDBRANCH  53  67
BRANCH  54  75
ATOM     75  C   UNL A   1      41.237  24.468  27.647  1.00  0.00     0.057 A 
ATOM     76  C   UNL A   1      41.727  23.368  28.361  1.00  0.00     0.134 A 
ATOM     77  C   UNL A   1      40.213  24.231  26.723  1.00  0.00     0.134 A 
ATOM     78  F   UNL A   1      42.726  23.525  29.243  1.00  0.00    -0.206 F 
ATOM     79  C   UNL A   1      41.234  22.079  28.148  1.00  0.00     0.040 A 
ATOM     80  C   UNL A   1      39.690  22.953  26.521  1.00  0.00     0.040 A 
ATOM     81  F   UNL A   1      39.700  25.242  26.007  1.00  0.00    -0.206 F 
ATOM     82  C   UNL A   1      40.208  21.870  27.228  1.00  0.00     0.006 A 
ENDBRANCH  54  75
BRANCH  66  83
ATOM     83  C   UNL A   1      47.255  27.398  25.735  1.00  0.00     0.057 A 
ATOM     84  C   UNL A   1      47.405  27.502  24.346  1.00  0.00     0.134 A 
ATOM     85  C   UNL A   1      48.286  26.770  26.449  1.00  0.00     0.134 A 
ATOM     86  F   UNL A   1      46.453  28.083  23.600  1.00  0.00    -0.206 F 
ATOM     87  C   UNL A   1      48.514  26.964  23.689  1.00  0.00     0.040 A 
ATOM     88  C   UNL A   1      49.413  26.259  25.807  1.00  0.00     0.040 A 
ATOM     89  F   UNL A   1      48.215  26.649  27.783  1.00  0.00    -0.206 F 
ATOM     90  C   UNL A   1      49.524  26.343  24.421  1.00  0.00     0.006 A 
ENDBRANCH  66  83
ENDBRANCH  40  41
ENDBRANCH  33  35
ENDBRANCH  32  33
ENDBRANCH  31  32
ENDBRANCH  30  31
ENDBRANCH  29  30
ENDBRANCH  28  29
ENDBRANCH  27  28
ENDBRANCH  26  27
ENDBRANCH   1  26
TORSDOF 26
ENDMDL
MODEL 2
REMARK VINA RESULT:      -7.5      1.397      2.240
REMARK SMILES CCC[N@@H+](CC1CC[NH2+]CC1)[C@@H](CC)C(=O)OCCOCCOCCOCCOC(=O)c1ccc(-c2c3nc(c(-c4c(F)cccc4F)c4ccc([nH]4)c(-c4c(F)cccc4F)c4nc(c(-c5c(F)cccc5F)c5ccc2[nH]5)C=C4)C=C3)cc1
REMARK SMILES IDX 22 1 21 2 20 3 19 4 18 5 17 6 15 7 16 8 12 9 4 10 3 12 2 13
REMARK SMILES IDX 1 14 5 15 6 16 7 17 11 18 8 19 10 20 9 21 13 24 14 25 23 26
REMARK SMILES IDX 24 27 25 28 26 29 27 30 28 31 29 32 30 33 31 34 32 35 33 36
REMARK SMILES IDX 85 37 34 38 84 39 35 40 36 41 37 42 78 43 38 44 83 45 77 46
REMARK SMILES IDX 79 47 39 48 82 49 76 50 75 51 40 53 66 54 49 55 65 56 50 57
REMARK SMILES IDX 53 58 64 59 80 60 51 61 52 62 63 64 81 65 54 66 41 67 42 68
REMARK SMILES IDX 47 69 43 70 44 71 46 72 48 73 45 74 67 75 68 76 73 77 69 78
REMARK SMILES IDX 70 79 72 80 74 81 71 82 55 83 56 84 61 85 57 86 58 87 60 88
REMARK SMILES IDX 62 89 59 90
REMARK H PARENT 4 11 9 22 9 23 79 52 53 63
REMARK Flexibility Score: inf
ROOT
ATOM      1  C   UNL A   1      35.338  30.981  27.546  1.00  0.00     0.188 C 
ENDROOT
BRANCH   1   2
ATOM      2  C   UNL A   1      35.231  29.446  27.590  1.00  0.00     0.188 C 
BRANCH   2   3
ATOM      3  O   UNL A   1      34.344  28.737  26.747  1.00  0.00    -0.376 OA
BRANCH   3   4
ATOM      4  C   UNL A   1      32.961  29.052  26.671  1.00  0.00     0.202 C 
BRANCH   4   5
ATOM      5  C   UNL A   1      31.901  27.995  26.369  1.00  0.00     0.261 C 
BRANCH   5   6
ATOM      6  O   UNL A   1      32.336  26.983  25.453  1.00  0.00    -0.459 OA
BRANCH   6   7
ATOM      7  C   UNL A   1      31.376  26.136  25.006  1.00  0.00     0.364 C 
ATOM      8  O   UNL A   1      30.261  26.498  24.632  1.00  0.00    -0.245 OA
BRANCH   7   9
ATOM      9  C   UNL A   1      31.749  24.654  25.134  1.00  0.00     0.294 C 
BRANCH   9  10
ATOM     10  N   UNL A   1      32.960  24.255  24.359  1.00  0.00    -0.323 N 
ATOM     11  H   UNL A   1      32.761  23.256  24.307  1.00  0.00     0.348 HD
BRANCH  10  12
ATOM     12  C   UNL A   1      33.128  24.570  22.929  1.00  0.00     0.262 C 
BRANCH  12  13
ATOM     13  C   UNL A   1      33.612  25.905  22.332  1.00  0.00     0.058 C 
ATOM     14  C   UNL A   1      32.621  26.943  21.871  1.00  0.00     0.010 C 
ENDBRANCH  12  13
ENDBRANCH  10  12
BRANCH  10  15
ATOM     15  C   UNL A   1      34.229  24.613  25.093  1.00  0.00     0.266 C 
BRANCH  15  16
ATOM     16  C   UNL A   1      34.797  23.582  26.128  1.00  0.00     0.055 C 
ATOM     17  C   UNL A   1      36.341  23.557  26.161  1.00  0.00     0.071 C 
ATOM     18  C   UNL A   1      34.340  22.128  25.923  1.00  0.00     0.071 C 
ATOM     19  C   UNL A   1      36.979  22.789  25.000  1.00  0.00     0.261 C 
ATOM     20  C   UNL A   1      34.951  21.510  24.670  1.00  0.00     0.261 C 
ATOM     21  N   UNL A   1      36.402  21.459  24.813  1.00  0.00    -0.346 N 
ATOM     22  H   UNL A   1      36.633  20.882  25.622  1.00  0.00     0.346 HD
ATOM     23  H   UNL A   1      36.790  21.065  23.956  1.00  0.00     0.346 HD
ENDBRANCH  15  16
ENDBRANCH  10  15
ENDBRANCH   9  10
BRANCH   9  24
ATOM     24  C   UNL A   1      31.378  24.280  26.589  1.00  0.00     0.074 C 
ATOM     25  C   UNL A   1      30.317  23.242  26.876  1.00  0.00     0.011 C 
ENDBRANCH   9  24
ENDBRANCH   7   9
ENDBRANCH   6   7
ENDBRANCH   5   6
ENDBRANCH   4   5
ENDBRANCH   3   4
ENDBRANCH   2   3
ENDBRANCH   1   2
BRANCH   1  26
ATOM     26  O   UNL A   1      34.686  31.808  28.485  1.00  0.00    -0.377 OA
BRANCH  26  27
ATOM     27  C   UNL A   1      34.915  31.653  29.871  1.00  0.00     0.188 C 
BRANCH  27  28
ATOM     28  C   UNL A   1      34.798  32.837  30.847  1.00  0.00     0.188 C 
BRANCH  28  29
ATOM     29  O   UNL A   1      35.226  32.575  32.172  1.00  0.00    -0.376 OA
BRANCH  29  30
ATOM     30  C   UNL A   1      34.769  33.467  33.180  1.00  0.00     0.202 C 
BRANCH  30  31
ATOM     31  C   UNL A   1      35.752  34.563  33.623  1.00  0.00     0.261 C 
BRANCH  31  32
ATOM     32  O   UNL A   1      36.885  34.771  32.763  1.00  0.00    -0.460 OA
BRANCH  32  33
ATOM     33  C   UNL A   1      38.099  34.515  33.293  1.00  0.00     0.338 C 
ATOM     34  O   UNL A   1      38.525  34.878  34.372  1.00  0.00    -0.246 OA
BRANCH  33  35
ATOM     35  C   UNL A   1      38.797  33.557  32.414  1.00  0.00     0.060 A 
ATOM     36  C   UNL A   1      39.757  32.712  32.983  1.00  0.00     0.016 A 
ATOM     37  C   UNL A   1      38.540  33.520  31.041  1.00  0.00     0.016 A 
ATOM     38  C   UNL A   1      40.510  31.870  32.169  1.00  0.00     0.010 A 
ATOM     39  C   UNL A   1      39.311  32.688  30.222  1.00  0.00     0.010 A 
ATOM     40  C   UNL A   1      40.332  31.898  30.778  1.00  0.00    -0.014 A 
BRANCH  40  41
ATOM     41  C   UNL A   1      41.370  31.274  29.922  1.00  0.00     0.031 A 
ATOM     42  C   UNL A   1      42.594  32.082  29.580  1.00  0.00     0.074 A 
ATOM     43  C   UNL A   1      41.279  29.991  29.534  1.00  0.00     0.049 A 
ATOM     44  N   UNL A   1      43.667  31.730  28.919  1.00  0.00    -0.248 NA
ATOM     45  C   UNL A   1      42.611  33.476  30.052  1.00  0.00     0.031 C 
ATOM     46  C   UNL A   1      40.166  29.093  29.833  1.00  0.00     0.029 A 
ATOM     47  N   UNL A   1      42.153  29.218  28.811  1.00  0.00    -0.354 N 
ATOM     48  C   UNL A   1      44.486  32.854  28.903  1.00  0.00     0.074 A 
ATOM     49  C   UNL A   1      43.769  33.910  29.581  1.00  0.00     0.031 C 
ATOM     50  C   UNL A   1      40.428  27.886  29.302  1.00  0.00     0.029 A 
ATOM     51  C   UNL A   1      41.714  27.933  28.609  1.00  0.00     0.049 A 
ATOM     52  H   UNL A   1      43.013  29.554  28.469  1.00  0.00     0.167 HD
ATOM     53  C   UNL A   1      45.729  32.990  28.386  1.00  0.00     0.037 A 
ATOM     54  C   UNL A   1      42.287  26.916  27.938  1.00  0.00     0.037 A 
ATOM     55  C   UNL A   1      46.441  31.942  27.703  1.00  0.00     0.049 A 
ATOM     56  C   UNL A   1      43.645  27.112  27.312  1.00  0.00     0.074 A 
ATOM     57  C   UNL A   1      47.707  31.980  27.144  1.00  0.00     0.029 A 
ATOM     58  N   UNL A   1      45.943  30.667  27.478  1.00  0.00    -0.354 N 
ATOM     59  N   UNL A   1      44.421  28.169  27.326  1.00  0.00    -0.248 NA
ATOM     60  C   UNL A   1      44.209  25.964  26.587  1.00  0.00     0.031 C 
ATOM     61  C   UNL A   1      47.953  30.745  26.534  1.00  0.00     0.029 A 
ATOM     62  C   UNL A   1      46.867  29.917  26.768  1.00  0.00     0.049 A 
ATOM     63  H   UNL A   1      45.062  30.344  27.776  1.00  0.00     0.167 HD
ATOM     64  C   UNL A   1      45.578  27.803  26.646  1.00  0.00     0.074 A 
ATOM     65  C   UNL A   1      45.405  26.422  26.247  1.00  0.00     0.031 C 
ATOM     66  C   UNL A   1      46.684  28.541  26.379  1.00  0.00     0.037 A 
BRANCH  53  67
ATOM     67  C   UNL A   1      46.385  34.335  28.516  1.00  0.00     0.057 A 
ATOM     68  C   UNL A   1      46.200  35.347  27.564  1.00  0.00     0.134 A 
ATOM     69  C   UNL A   1      47.201  34.627  29.615  1.00  0.00     0.134 A 
ATOM     70  F   UNL A   1      45.445  35.128  26.475  1.00  0.00    -0.206 F 
ATOM     71  C   UNL A   1      46.823  36.591  27.688  1.00  0.00     0.040 A 
ATOM     72  C   UNL A   1      47.805  35.877  29.767  1.00  0.00     0.040 A 
ATOM     73  F   UNL A   1      47.420  33.705  30.565  1.00  0.00    -0.206 F 
ATOM     74  C   UNL A   1      47.622  36.860  28.797  1.00  0.00     0.006 A 
ENDBRANCH  53  67
BRANCH  54  75
ATOM     75  C   UNL A   1      41.586  25.610  27.821  1.00  0.00     0.057 A 
ATOM     76  C   UNL A   1      41.959  24.510  28.602  1.00  0.00     0.134 A 
ATOM     77  C   UNL A   1      40.548  25.424  26.902  1.00  0.00     0.134 A 
ATOM     78  F   UNL A   1      42.965  24.617  29.484  1.00  0.00    -0.206 F 
ATOM     79  C   UNL A   1      41.339  23.267  28.458  1.00  0.00     0.040 A 
ATOM     80  C   UNL A   1      39.900  24.195  26.767  1.00  0.00     0.040 A 
ATOM     81  F   UNL A   1      40.142  26.438  26.124  1.00  0.00    -0.206 F 
ATOM     82  C   UNL A   1      40.302  23.109  27.541  1.00  0.00     0.006 A 
ENDBRANCH  54  75
BRANCH  66  83
ATOM     83  C   UNL A   1      47.812  27.853  25.661  1.00  0.00     0.057 A 
ATOM     84  C   UNL A   1      48.897  27.287  26.344  1.00  0.00     0.134 A 
ATOM     85  C   UNL A   1      47.805  27.745  24.263  1.00  0.00     0.134 A 
ATOM     86  F   UNL A   1      48.972  27.360  27.681  1.00  0.00    -0.206 F 
ATOM     87  C   UNL A   1      49.954  26.680  25.661  1.00  0.00     0.040 A 
ATOM     88  C   UNL A   1      48.838  27.112  23.572  1.00  0.00     0.040 A 
ATOM     89  F   UNL A   1      46.790  28.251  23.547  1.00  0.00    -0.206 F 
ATOM     90  C   UNL A   1      49.923  26.588  24.270  1.00  0.00     0.006 A 
ENDBRANCH  66  83
ENDBRANCH  40  41
ENDBRANCH  33  35
ENDBRANCH  32  33
ENDBRANCH  31  32
ENDBRANCH  30  31
ENDBRANCH  29  30
ENDBRANCH  28  29
ENDBRANCH  27  28
ENDBRANCH  26  27
ENDBRANCH   1  26
TORSDOF 26
ENDMDL
MODEL 3
REMARK VINA RESULT:      -7.2      7.524     14.152
REMARK SMILES CCC[N@@H+](CC1CC[NH2+]CC1)[C@@H](CC)C(=O)OCCOCCOCCOCCOC(=O)c1ccc(-c2c3nc(c(-c4c(F)cccc4F)c4ccc([nH]4)c(-c4c(F)cccc4F)c4nc(c(-c5c(F)cccc5F)c5ccc2[nH]5)C=C4)C=C3)cc1
REMARK SMILES IDX 22 1 21 2 20 3 19 4 18 5 17 6 15 7 16 8 12 9 4 10 3 12 2 13
REMARK SMILES IDX 1 14 5 15 6 16 7 17 11 18 8 19 10 20 9 21 13 24 14 25 23 26
REMARK SMILES IDX 24 27 25 28 26 29 27 30 28 31 29 32 30 33 31 34 32 35 33 36
REMARK SMILES IDX 85 37 34 38 84 39 35 40 36 41 37 42 78 43 38 44 83 45 77 46
REMARK SMILES IDX 79 47 39 48 82 49 76 50 75 51 40 53 66 54 49 55 65 56 50 57
REMARK SMILES IDX 53 58 64 59 80 60 51 61 52 62 63 64 81 65 54 66 41 67 42 68
REMARK SMILES IDX 47 69 43 70 44 71 46 72 48 73 45 74 67 75 68 76 73 77 69 78
REMARK SMILES IDX 70 79 72 80 74 81 71 82 55 83 56 84 61 85 57 86 58 87 60 88
REMARK SMILES IDX 62 89 59 90
REMARK H PARENT 4 11 9 22 9 23 79 52 53 63
REMARK Flexibility Score: inf
ROOT
ATOM      1  C   UNL A   1      46.812  41.795  26.490  1.00  0.00     0.188 C 
ENDROOT
BRANCH   1   2
ATOM      2  C   UNL A   1      46.061  41.072  25.358  1.00  0.00     0.188 C 
BRANCH   2   3
ATOM      3  O   UNL A   1      46.040  41.574  24.036  1.00  0.00    -0.376 OA
BRANCH   3   4
ATOM      4  C   UNL A   1      46.291  42.942  23.745  1.00  0.00     0.202 C 
BRANCH   4   5
ATOM      5  C   UNL A   1      45.275  44.040  24.050  1.00  0.00     0.261 C 
BRANCH   5   6
ATOM      6  O   UNL A   1      44.865  44.787  22.899  1.00  0.00    -0.459 OA
BRANCH   6   7
ATOM      7  C   UNL A   1      44.493  44.055  21.820  1.00  0.00     0.364 C 
ATOM      8  O   UNL A   1      43.815  43.030  21.887  1.00  0.00    -0.245 OA
BRANCH   7   9
ATOM      9  C   UNL A   1      45.108  44.538  20.501  1.00  0.00     0.294 C 
BRANCH   9  10
ATOM     10  N   UNL A   1      45.493  45.980  20.493  1.00  0.00    -0.323 N 
ATOM     11  H   UNL A   1      45.405  46.146  21.494  1.00  0.00     0.348 HD
BRANCH  10  12
ATOM     12  C   UNL A   1      46.877  46.430  20.265  1.00  0.00     0.262 C 
BRANCH  12  13
ATOM     13  C   UNL A   1      47.936  46.732  21.342  1.00  0.00     0.058 C 
ATOM     14  C   UNL A   1      48.206  45.745  22.450  1.00  0.00     0.010 C 
ENDBRANCH  12  13
ENDBRANCH  10  12
BRANCH  10  15
ATOM     15  C   UNL A   1      44.562  46.794  19.628  1.00  0.00     0.266 C 
BRANCH  15  16
ATOM     16  C   UNL A   1      44.095  46.179  18.265  1.00  0.00     0.055 C 
ATOM     17  C   UNL A   1      44.968  46.631  17.074  1.00  0.00     0.071 C 
ATOM     18  C   UNL A   1      42.637  46.478  17.877  1.00  0.00     0.071 C 
ATOM     19  C   UNL A   1      44.661  48.046  16.575  1.00  0.00     0.261 C 
ATOM     20  C   UNL A   1      42.433  47.945  17.514  1.00  0.00     0.261 C 
ATOM     21  N   UNL A   1      43.236  48.270  16.341  1.00  0.00    -0.346 N 
ATOM     22  H   UNL A   1      42.933  47.685  15.562  1.00  0.00     0.346 HD
ATOM     23  H   UNL A   1      43.102  49.259  16.131  1.00  0.00     0.346 HD
ENDBRANCH  15  16
ENDBRANCH  10  15
ENDBRANCH   9  10
BRANCH   9  24
ATOM     24  C   UNL A   1      45.918  43.328  19.979  1.00  0.00     0.074 C 
ATOM     25  C   UNL A   1      47.405  43.436  19.738  1.00  0.00     0.011 C 
ENDBRANCH   9  24
ENDBRANCH   7   9
ENDBRANCH   6   7
ENDBRANCH   5   6
ENDBRANCH   4   5
ENDBRANCH   3   4
ENDBRANCH   2   3
ENDBRANCH   1   2
BRANCH   1  26
ATOM     26  O   UNL A   1      46.195  42.775  27.296  1.00  0.00    -0.377 OA
BRANCH  26  27
ATOM     27  C   UNL A   1      44.810  42.722  27.570  1.00  0.00     0.188 C 
BRANCH  27  28
ATOM     28  C   UNL A   1      44.186  41.557  28.358  1.00  0.00     0.188 C 
BRANCH  28  29
ATOM     29  O   UNL A   1      43.222  40.796  27.651  1.00  0.00    -0.376 OA
BRANCH  29  30
ATOM     30  C   UNL A   1      42.273  40.082  28.433  1.00  0.00     0.202 C 
BRANCH  30  31
ATOM     31  C   UNL A   1      42.397  38.550  28.433  1.00  0.00     0.261 C 
BRANCH  31  32
ATOM     32  O   UNL A   1      43.701  38.029  28.127  1.00  0.00    -0.460 OA
BRANCH  32  33
ATOM     33  C   UNL A   1      44.412  37.537  29.164  1.00  0.00     0.338 C 
ATOM     34  O   UNL A   1      44.796  38.139  30.147  1.00  0.00    -0.246 OA
BRANCH  33  35
ATOM     35  C   UNL A   1      44.514  36.073  29.003  1.00  0.00     0.060 A 
ATOM     36  C   UNL A   1      44.173  35.516  27.765  1.00  0.00     0.016 A 
ATOM     37  C   UNL A   1      44.900  35.257  30.068  1.00  0.00     0.016 A 
ATOM     38  C   UNL A   1      44.154  34.133  27.608  1.00  0.00     0.010 A 
ATOM     39  C   UNL A   1      44.862  33.867  29.915  1.00  0.00     0.010 A 
ATOM     40  C   UNL A   1      44.440  33.301  28.700  1.00  0.00    -0.014 A 
BRANCH  40  41
ATOM     41  C   UNL A   1      44.070  31.867  28.609  1.00  0.00     0.031 A 
ATOM     42  C   UNL A   1      42.743  31.435  29.174  1.00  0.00     0.074 A 
ATOM     43  C   UNL A   1      44.847  30.984  27.960  1.00  0.00     0.049 A 
ATOM     44  N   UNL A   1      42.167  30.261  29.143  1.00  0.00    -0.248 NA
ATOM     45  C   UNL A   1      41.956  32.472  29.863  1.00  0.00     0.031 C 
ATOM     46  C   UNL A   1      46.134  31.285  27.337  1.00  0.00     0.029 A 
ATOM     47  N   UNL A   1      44.652  29.649  27.707  1.00  0.00    -0.354 N 
ATOM     48  C   UNL A   1      40.951  30.420  29.800  1.00  0.00     0.074 A 
ATOM     49  C   UNL A   1      40.892  31.791  30.256  1.00  0.00     0.031 C 
ATOM     50  C   UNL A   1      46.612  30.164  26.767  1.00  0.00     0.029 A 
ATOM     51  C   UNL A   1      45.676  29.066  27.003  1.00  0.00     0.049 A 
ATOM     52  H   UNL A   1      43.853  29.156  28.004  1.00  0.00     0.167 HD
ATOM     53  C   UNL A   1      39.966  29.512  29.992  1.00  0.00     0.037 A 
ATOM     54  C   UNL A   1      45.838  27.792  26.599  1.00  0.00     0.037 A 
ATOM     55  C   UNL A   1      40.027  28.145  29.546  1.00  0.00     0.049 A 
ATOM     56  C   UNL A   1      44.755  26.782  26.884  1.00  0.00     0.074 A 
ATOM     57  C   UNL A   1      39.079  27.147  29.690  1.00  0.00     0.029 A 
ATOM     58  N   UNL A   1      41.102  27.581  28.877  1.00  0.00    -0.354 N 
ATOM     59  N   UNL A   1      43.599  26.949  27.481  1.00  0.00    -0.248 NA
ATOM     60  C   UNL A   1      44.998  25.407  26.424  1.00  0.00     0.031 C 
ATOM     61  C   UNL A   1      39.603  25.965  29.155  1.00  0.00     0.029 A 
ATOM     62  C   UNL A   1      40.851  26.242  28.620  1.00  0.00     0.049 A 
ATOM     63  H   UNL A   1      41.924  28.060  28.622  1.00  0.00     0.167 HD
ATOM     64  C   UNL A   1      42.964  25.712  27.436  1.00  0.00     0.074 A 
ATOM     65  C   UNL A   1      43.857  24.811  26.740  1.00  0.00     0.031 C 
ATOM     66  C   UNL A   1      41.749  25.356  27.923  1.00  0.00     0.037 A 
BRANCH  53  67
ATOM     67  C   UNL A   1      38.748  29.967  30.744  1.00  0.00     0.057 A 
ATOM     68  C   UNL A   1      37.675  30.604  30.105  1.00  0.00     0.134 A 
ATOM     69  C   UNL A   1      38.640  29.751  32.123  1.00  0.00     0.134 A 
ATOM     70  F   UNL A   1      37.721  30.859  28.788  1.00  0.00    -0.206 F 
ATOM     71  C   UNL A   1      36.552  31.033  30.816  1.00  0.00     0.040 A 
ATOM     72  C   UNL A   1      37.509  30.148  32.839  1.00  0.00     0.040 A 
ATOM     73  F   UNL A   1      39.629  29.146  32.797  1.00  0.00    -0.206 F 
ATOM     74  C   UNL A   1      36.464  30.797  32.186  1.00  0.00     0.006 A 
ENDBRANCH  53  67
BRANCH  54  75
ATOM     75  C   UNL A   1      47.071  27.389  25.876  1.00  0.00     0.057 A 
ATOM     76  C   UNL A   1      48.178  26.867  26.555  1.00  0.00     0.134 A 
ATOM     77  C   UNL A   1      47.183  27.547  24.489  1.00  0.00     0.134 A 
ATOM     78  F   UNL A   1      48.144  26.716  27.887  1.00  0.00    -0.206 F 
ATOM     79  C   UNL A   1      49.359  26.538  25.885  1.00  0.00     0.040 A 
ATOM     80  C   UNL A   1      48.346  27.195  23.803  1.00  0.00     0.040 A 
ATOM     81  F   UNL A   1      46.158  28.041  23.779  1.00  0.00    -0.206 F 
ATOM     82  C   UNL A   1      49.443  26.697  24.503  1.00  0.00     0.006 A 
ENDBRANCH  54  75
BRANCH  66  83
ATOM     83  C   UNL A   1      41.298  23.943  27.677  1.00  0.00     0.057 A 
ATOM     84  C   UNL A   1      41.827  22.855  28.385  1.00  0.00     0.134 A 
ATOM     85  C   UNL A   1      40.309  23.669  26.722  1.00  0.00     0.134 A 
ATOM     86  F   UNL A   1      42.783  23.044  29.308  1.00  0.00    -0.206 F 
ATOM     87  C   UNL A   1      41.422  21.545  28.121  1.00  0.00     0.040 A 
ATOM     88  C   UNL A   1      39.872  22.367  26.474  1.00  0.00     0.040 A 
ATOM     89  F   UNL A   1      39.748  24.663  26.018  1.00  0.00    -0.206 F 
ATOM     90  C   UNL A   1      40.438  21.299  27.165  1.00  0.00     0.006 A 
ENDBRANCH  66  83
ENDBRANCH  40  41
ENDBRANCH  33  35
ENDBRANCH  32  33
ENDBRANCH  31  32
ENDBRANCH  30  31
ENDBRANCH  29  30
ENDBRANCH  28  29
ENDBRANCH  27  28
ENDBRANCH  26  27
ENDBRANCH   1  26
TORSDOF 26
ENDMDL
