MODEL 1
REMARK VINA RESULT:      -9.3      0.000      0.000
REMARK SMILES CC[C@@H](C(=O)OCCOCCOCCOCCOC(=O)c1ccc(-c2c3nc(c(-c4c(F)cccc4F)c4ccc([nH]4)c(-c4c(F)cccc4F)c4nc(c(-c5c(F)cccc5F)c5ccc2[nH]5)C=C4)C=C3)cc1)N1C(=O)/C(=C/C(C)=C/c2ccccc2)SC1=S
REMARK SMILES IDX 11 1 10 2 9 3 8 4 7 5 6 6 4 7 5 8 3 9 2 10 1 11 75 12 76 13
REMARK SMILES IDX 90 14 77 15 78 16 89 17 91 18 79 19 80 20 81 21 82 22 83 23
REMARK SMILES IDX 84 24 88 25 85 26 87 27 86 28 12 29 13 30 14 31 15 32 16 33
REMARK SMILES IDX 17 34 18 35 19 36 20 37 21 38 22 39 74 40 23 41 73 42 24 43
REMARK SMILES IDX 25 44 26 45 67 46 27 47 72 48 66 49 68 50 28 51 71 52 65 53
REMARK SMILES IDX 64 54 29 56 55 57 38 58 54 59 39 60 42 61 53 62 69 63 40 64
REMARK SMILES IDX 41 65 52 67 70 68 43 69 30 70 31 71 36 72 32 73 33 74 35 75
REMARK SMILES IDX 37 76 34 77 56 78 57 79 62 80 58 81 59 82 61 83 63 84 60 85
REMARK SMILES IDX 44 86 45 87 50 88 46 89 47 90 49 91 51 92 48 93
REMARK H PARENT 68 55 42 66
REMARK Flexibility Score: inf
ROOT
ATOM      1  C   UNL A   1      33.581  27.412  26.222  1.00  0.00     0.188 C 
ENDROOT
BRANCH   1   2
ATOM      2  C   UNL A   1      33.902  26.110  25.469  1.00  0.00     0.188 C 
BRANCH   2   3
ATOM      3  O   UNL A   1      33.586  24.920  26.187  1.00  0.00    -0.376 OA
BRANCH   3   4
ATOM      4  C   UNL A   1      34.654  24.000  26.381  1.00  0.00     0.202 C 
BRANCH   4   5
ATOM      5  C   UNL A   1      34.352  22.862  27.355  1.00  0.00     0.261 C 
BRANCH   5   6
ATOM      6  O   UNL A   1      33.259  22.081  26.846  1.00  0.00    -0.462 OA
BRANCH   6   7
ATOM      7  C   UNL A   1      33.499  21.315  25.757  1.00  0.00     0.329 C 
ATOM      8  O   UNL A   1      34.592  20.844  25.466  1.00  0.00    -0.250 OA
BRANCH   7   9
ATOM      9  C   UNL A   1      32.275  21.265  24.827  1.00  0.00     0.201 C 
BRANCH   9  10
ATOM     10  C   UNL A   1      32.482  20.054  23.855  1.00  0.00     0.034 C 
ATOM     11  C   UNL A   1      32.579  18.655  24.456  1.00  0.00     0.007 C 
ENDBRANCH   9  10
BRANCH   9  12
ATOM     12  N   UNL A   1      31.945  22.523  24.067  1.00  0.00    -0.278 N 
ATOM     13  C   UNL A   1      30.912  23.336  24.539  1.00  0.00     0.266 C 
ATOM     14  C   UNL A   1      32.795  23.203  23.217  1.00  0.00     0.149 C 
ATOM     15  O   UNL A   1      30.209  23.122  25.518  1.00  0.00    -0.268 OA
ATOM     16  C   UNL A   1      30.848  24.631  23.789  1.00  0.00     0.080 C 
ATOM     17  S   UNL A   1      31.921  24.532  22.464  1.00  0.00    -0.054 SA
ATOM     18  S   UNL A   1      34.414  22.972  22.889  1.00  0.00    -0.052 S 
ATOM     19  C   UNL A   1      30.137  25.672  24.252  1.00  0.00     0.024 C 
BRANCH  19  20
ATOM     20  C   UNL A   1      29.994  27.059  23.787  1.00  0.00    -0.049 C 
ATOM     21  C   UNL A   1      31.310  27.786  23.609  1.00  0.00     0.044 C 
ATOM     22  C   UNL A   1      28.817  27.633  23.465  1.00  0.00     0.011 C 
BRANCH  22  23
ATOM     23  C   UNL A   1      28.593  28.980  22.921  1.00  0.00    -0.025 A 
ATOM     24  C   UNL A   1      29.456  29.464  21.930  1.00  0.00     0.008 A 
ATOM     25  C   UNL A   1      27.620  29.830  23.456  1.00  0.00     0.008 A 
ATOM     26  C   UNL A   1      29.346  30.781  21.479  1.00  0.00     0.001 A 
ATOM     27  C   UNL A   1      27.511  31.148  23.004  1.00  0.00     0.001 A 
ATOM     28  C   UNL A   1      28.375  31.623  22.019  1.00  0.00     0.000 A 
ENDBRANCH  22  23
ENDBRANCH  19  20
ENDBRANCH   9  12
ENDBRANCH   7   9
ENDBRANCH   6   7
ENDBRANCH   5   6
ENDBRANCH   4   5
ENDBRANCH   3   4
ENDBRANCH   2   3
ENDBRANCH   1   2
BRANCH   1  29
ATOM     29  O   UNL A   1      34.065  28.634  25.685  1.00  0.00    -0.377 OA
BRANCH  29  30
ATOM     30  C   UNL A   1      33.306  29.825  25.876  1.00  0.00     0.188 C 
BRANCH  30  31
ATOM     31  C   UNL A   1      33.198  30.488  27.267  1.00  0.00     0.188 C 
BRANCH  31  32
ATOM     32  O   UNL A   1      33.498  31.877  27.296  1.00  0.00    -0.376 OA
BRANCH  32  33
ATOM     33  C   UNL A   1      32.603  32.706  28.024  1.00  0.00     0.202 C 
BRANCH  33  34
ATOM     34  C   UNL A   1      32.674  34.193  27.654  1.00  0.00     0.261 C 
BRANCH  34  35
ATOM     35  O   UNL A   1      33.616  34.964  28.417  1.00  0.00    -0.460 OA
BRANCH  35  36
ATOM     36  C   UNL A   1      33.706  34.706  29.739  1.00  0.00     0.338 C 
ATOM     37  O   UNL A   1      32.895  34.971  30.609  1.00  0.00    -0.246 OA
BRANCH  36  38
ATOM     38  C   UNL A   1      34.902  33.873  29.948  1.00  0.00     0.060 A 
ATOM     39  C   UNL A   1      34.851  32.832  30.885  1.00  0.00     0.016 A 
ATOM     40  C   UNL A   1      36.068  34.127  29.223  1.00  0.00     0.016 A 
ATOM     41  C   UNL A   1      35.989  32.064  31.128  1.00  0.00     0.010 A 
ATOM     42  C   UNL A   1      37.211  33.373  29.484  1.00  0.00     0.010 A 
ATOM     43  C   UNL A   1      37.185  32.363  30.462  1.00  0.00    -0.014 A 
BRANCH  43  44
ATOM     44  C   UNL A   1      38.459  31.777  30.935  1.00  0.00     0.031 A 
ATOM     45  C   UNL A   1      38.994  30.574  30.211  1.00  0.00     0.074 A 
ATOM     46  C   UNL A   1      39.124  32.295  31.982  1.00  0.00     0.049 A 
ATOM     47  N   UNL A   1      40.048  29.846  30.474  1.00  0.00    -0.248 NA
ATOM     48  C   UNL A   1      38.233  30.131  29.031  1.00  0.00     0.031 C 
ATOM     49  C   UNL A   1      38.725  33.476  32.740  1.00  0.00     0.029 A 
ATOM     50  N   UNL A   1      40.277  31.871  32.593  1.00  0.00    -0.354 N 
ATOM     51  C   UNL A   1      40.074  28.859  29.496  1.00  0.00     0.074 A 
ATOM     52  C   UNL A   1      38.917  29.063  28.652  1.00  0.00     0.031 C 
ATOM     53  C   UNL A   1      39.613  33.676  33.731  1.00  0.00     0.029 A 
ATOM     54  C   UNL A   1      40.621  32.618  33.692  1.00  0.00     0.049 A 
ATOM     55  H   UNL A   1      40.807  31.105  32.275  1.00  0.00     0.167 HD
ATOM     56  C   UNL A   1      40.983  27.875  29.315  1.00  0.00     0.037 A 
ATOM     57  C   UNL A   1      41.624  32.447  34.576  1.00  0.00     0.037 A 
ATOM     58  C   UNL A   1      42.127  27.666  30.160  1.00  0.00     0.049 A 
ATOM     59  C   UNL A   1      42.581  31.297  34.398  1.00  0.00     0.074 A 
ATOM     60  C   UNL A   1      43.115  26.703  30.052  1.00  0.00     0.029 A 
ATOM     61  N   UNL A   1      42.428  28.428  31.278  1.00  0.00    -0.354 N 
ATOM     62  N   UNL A   1      42.615  30.385  33.455  1.00  0.00    -0.248 NA
ATOM     63  C   UNL A   1      43.638  31.150  35.409  1.00  0.00     0.031 C 
ATOM     64  C   UNL A   1      43.990  26.856  31.133  1.00  0.00     0.029 A 
ATOM     65  C   UNL A   1      43.574  27.943  31.884  1.00  0.00     0.049 A 
ATOM     66  H   UNL A   1      41.906  29.201  31.593  1.00  0.00     0.167 HD
ATOM     67  C   UNL A   1      43.710  29.579  33.742  1.00  0.00     0.074 A 
ATOM     68  C   UNL A   1      44.320  30.113  34.942  1.00  0.00     0.031 C 
ATOM     69  C   UNL A   1      44.173  28.495  33.071  1.00  0.00     0.037 A 
BRANCH  56  70
ATOM     70  C   UNL A   1      40.757  26.933  28.170  1.00  0.00     0.057 A 
ATOM     71  C   UNL A   1      39.848  25.871  28.257  1.00  0.00     0.134 A 
ATOM     72  C   UNL A   1      41.444  27.103  26.962  1.00  0.00     0.134 A 
ATOM     73  F   UNL A   1      39.174  25.644  29.393  1.00  0.00    -0.206 F 
ATOM     74  C   UNL A   1      39.646  24.998  27.187  1.00  0.00     0.040 A 
ATOM     75  C   UNL A   1      41.232  26.251  25.878  1.00  0.00     0.040 A 
ATOM     76  F   UNL A   1      42.329  28.100  26.815  1.00  0.00    -0.206 F 
ATOM     77  C   UNL A   1      40.334  25.191  25.990  1.00  0.00     0.006 A 
ENDBRANCH  56  70
BRANCH  57  78
ATOM     78  C   UNL A   1      41.772  33.376  35.725  1.00  0.00     0.057 A 
ATOM     79  C   UNL A   1      41.092  33.155  36.928  1.00  0.00     0.134 A 
ATOM     80  C   UNL A   1      42.569  34.524  35.637  1.00  0.00     0.134 A 
ATOM     81  F   UNL A   1      40.293  32.086  37.064  1.00  0.00    -0.206 F 
ATOM     82  C   UNL A   1      41.184  34.049  37.996  1.00  0.00     0.040 A 
ATOM     83  C   UNL A   1      42.689  35.414  36.704  1.00  0.00     0.040 A 
ATOM     84  F   UNL A   1      43.244  34.794  34.510  1.00  0.00    -0.206 F 
ATOM     85  C   UNL A   1      41.989  35.182  37.886  1.00  0.00     0.006 A 
ENDBRANCH  57  78
BRANCH  69  86
ATOM     86  C   UNL A   1      45.417  27.837  33.593  1.00  0.00     0.057 A 
ATOM     87  C   UNL A   1      45.368  26.781  34.510  1.00  0.00     0.134 A 
ATOM     88  C   UNL A   1      46.678  28.233  33.127  1.00  0.00     0.134 A 
ATOM     89  F   UNL A   1      44.192  26.362  35.003  1.00  0.00    -0.206 F 
ATOM     90  C   UNL A   1      46.530  26.151  34.959  1.00  0.00     0.040 A 
ATOM     91  C   UNL A   1      47.845  27.594  33.550  1.00  0.00     0.040 A 
ATOM     92  F   UNL A   1      46.794  29.231  32.239  1.00  0.00    -0.206 F 
ATOM     93  C   UNL A   1      47.773  26.552  34.472  1.00  0.00     0.006 A 
ENDBRANCH  69  86
ENDBRANCH  43  44
ENDBRANCH  36  38
ENDBRANCH  35  36
ENDBRANCH  34  35
ENDBRANCH  33  34
ENDBRANCH  32  33
ENDBRANCH  31  32
ENDBRANCH  30  31
ENDBRANCH  29  30
ENDBRANCH   1  29
TORSDOF 24
ENDMDL
MODEL 2
REMARK VINA RESULT:      -9.0      1.709      6.312
REMARK SMILES CC[C@@H](C(=O)OCCOCCOCCOCCOC(=O)c1ccc(-c2c3nc(c(-c4c(F)cccc4F)c4ccc([nH]4)c(-c4c(F)cccc4F)c4nc(c(-c5c(F)cccc5F)c5ccc2[nH]5)C=C4)C=C3)cc1)N1C(=O)/C(=C/C(C)=C/c2ccccc2)SC1=S
REMARK SMILES IDX 11 1 10 2 9 3 8 4 7 5 6 6 4 7 5 8 3 9 2 10 1 11 75 12 76 13
REMARK SMILES IDX 90 14 77 15 78 16 89 17 91 18 79 19 80 20 81 21 82 22 83 23
REMARK SMILES IDX 84 24 88 25 85 26 87 27 86 28 12 29 13 30 14 31 15 32 16 33
REMARK SMILES IDX 17 34 18 35 19 36 20 37 21 38 22 39 74 40 23 41 73 42 24 43
REMARK SMILES IDX 25 44 26 45 67 46 27 47 72 48 66 49 68 50 28 51 71 52 65 53
REMARK SMILES IDX 64 54 29 56 55 57 38 58 54 59 39 60 42 61 53 62 69 63 40 64
REMARK SMILES IDX 41 65 52 67 70 68 43 69 30 70 31 71 36 72 32 73 33 74 35 75
REMARK SMILES IDX 37 76 34 77 56 78 57 79 62 80 58 81 59 82 61 83 63 84 60 85
REMARK SMILES IDX 44 86 45 87 50 88 46 89 47 90 49 91 51 92 48 93
REMARK H PARENT 68 55 42 66
REMARK Flexibility Score: inf
ROOT
ATOM      1  C   UNL A   1      33.477  27.461  26.086  1.00  0.00     0.188 C 
ENDROOT
BRANCH   1   2
ATOM      2  C   UNL A   1      33.726  26.269  25.146  1.00  0.00     0.188 C 
BRANCH   2   3
ATOM      3  O   UNL A   1      34.122  25.069  25.806  1.00  0.00    -0.376 OA
BRANCH   3   4
ATOM      4  C   UNL A   1      35.458  24.637  25.575  1.00  0.00     0.202 C 
BRANCH   4   5
ATOM      5  C   UNL A   1      35.841  23.335  26.279  1.00  0.00     0.261 C 
BRANCH   5   6
ATOM      6  O   UNL A   1      34.649  22.588  26.574  1.00  0.00    -0.462 OA
BRANCH   6   7
ATOM      7  C   UNL A   1      34.417  21.477  25.837  1.00  0.00     0.329 C 
ATOM      8  O   UNL A   1      35.289  20.788  25.323  1.00  0.00    -0.250 OA
BRANCH   7   9
ATOM      9  C   UNL A   1      32.914  21.293  25.564  1.00  0.00     0.201 C 
BRANCH   9  10
ATOM     10  C   UNL A   1      32.728  19.865  24.946  1.00  0.00     0.034 C 
ATOM     11  C   UNL A   1      32.271  19.761  23.494  1.00  0.00     0.007 C 
ENDBRANCH   9  10
BRANCH   9  12
ATOM     12  N   UNL A   1      32.240  22.343  24.720  1.00  0.00    -0.278 N 
ATOM     13  C   UNL A   1      31.240  23.125  25.300  1.00  0.00     0.266 C 
ATOM     14  C   UNL A   1      32.765  22.928  23.584  1.00  0.00     0.149 C 
ATOM     15  O   UNL A   1      30.820  23.034  26.447  1.00  0.00    -0.268 OA
ATOM     16  C   UNL A   1      30.820  24.239  24.393  1.00  0.00     0.080 C 
ATOM     17  S   UNL A   1      31.559  23.995  22.872  1.00  0.00    -0.054 SA
ATOM     18  S   UNL A   1      34.280  22.800  22.897  1.00  0.00    -0.052 S 
ATOM     19  C   UNL A   1      30.094  25.274  24.846  1.00  0.00     0.024 C 
BRANCH  19  20
ATOM     20  C   UNL A   1      29.651  26.526  24.215  1.00  0.00    -0.049 C 
ATOM     21  C   UNL A   1      28.159  26.593  23.964  1.00  0.00     0.044 C 
ATOM     22  C   UNL A   1      30.463  27.568  23.946  1.00  0.00     0.011 C 
BRANCH  22  23
ATOM     23  C   UNL A   1      30.091  28.878  23.393  1.00  0.00    -0.025 A 
ATOM     24  C   UNL A   1      29.905  29.956  24.267  1.00  0.00     0.008 A 
ATOM     25  C   UNL A   1      29.800  29.041  22.034  1.00  0.00     0.008 A 
ATOM     26  C   UNL A   1      29.435  31.181  23.788  1.00  0.00     0.001 A 
ATOM     27  C   UNL A   1      29.330  30.266  21.557  1.00  0.00     0.001 A 
ATOM     28  C   UNL A   1      29.145  31.335  22.434  1.00  0.00     0.000 A 
ENDBRANCH  22  23
ENDBRANCH  19  20
ENDBRANCH   9  12
ENDBRANCH   7   9
ENDBRANCH   6   7
ENDBRANCH   5   6
ENDBRANCH   4   5
ENDBRANCH   3   4
ENDBRANCH   2   3
ENDBRANCH   1   2
BRANCH   1  29
ATOM     29  O   UNL A   1      33.995  28.729  25.713  1.00  0.00    -0.377 OA
BRANCH  29  30
ATOM     30  C   UNL A   1      33.134  29.866  25.740  1.00  0.00     0.188 C 
BRANCH  30  31
ATOM     31  C   UNL A   1      32.701  30.506  27.077  1.00  0.00     0.188 C 
BRANCH  31  32
ATOM     32  O   UNL A   1      33.752  31.104  27.825  1.00  0.00    -0.376 OA
BRANCH  32  33
ATOM     33  C   UNL A   1      33.750  32.523  27.902  1.00  0.00     0.202 C 
BRANCH  33  34
ATOM     34  C   UNL A   1      35.139  33.150  28.076  1.00  0.00     0.261 C 
BRANCH  34  35
ATOM     35  O   UNL A   1      35.427  33.624  29.401  1.00  0.00    -0.460 OA
BRANCH  35  36
ATOM     36  C   UNL A   1      35.318  32.742  30.416  1.00  0.00     0.338 C 
ATOM     37  O   UNL A   1      34.359  32.558  31.146  1.00  0.00    -0.246 OA
BRANCH  36  38
ATOM     38  C   UNL A   1      36.518  31.889  30.395  1.00  0.00     0.060 A 
ATOM     39  C   UNL A   1      36.458  30.615  30.973  1.00  0.00     0.016 A 
ATOM     40  C   UNL A   1      37.697  32.355  29.811  1.00  0.00     0.016 A 
ATOM     41  C   UNL A   1      37.598  29.813  31.003  1.00  0.00     0.010 A 
ATOM     42  C   UNL A   1      38.843  31.562  29.861  1.00  0.00     0.010 A 
ATOM     43  C   UNL A   1      38.806  30.304  30.488  1.00  0.00    -0.014 A 
BRANCH  43  44
ATOM     44  C   UNL A   1      40.075  29.608  30.795  1.00  0.00     0.031 A 
ATOM     45  C   UNL A   1      40.855  30.060  31.997  1.00  0.00     0.074 A 
ATOM     46  C   UNL A   1      40.530  28.603  30.027  1.00  0.00     0.049 A 
ATOM     47  N   UNL A   1      42.020  29.657  32.433  1.00  0.00    -0.248 NA
ATOM     48  C   UNL A   1      40.235  31.116  32.817  1.00  0.00     0.031 C 
ATOM     49  C   UNL A   1      39.848  28.054  28.858  1.00  0.00     0.029 A 
ATOM     50  N   UNL A   1      41.691  27.878  30.115  1.00  0.00    -0.354 N 
ATOM     51  C   UNL A   1      42.273  30.410  33.573  1.00  0.00     0.074 A 
ATOM     52  C   UNL A   1      41.156  31.312  33.747  1.00  0.00     0.031 C 
ATOM     53  C   UNL A   1      40.614  27.084  28.326  1.00  0.00     0.029 A 
ATOM     54  C   UNL A   1      41.850  26.970  29.099  1.00  0.00     0.049 A 
ATOM     55  H   UNL A   1      42.348  27.997  30.839  1.00  0.00     0.167 HD
ATOM     56  C   UNL A   1      43.338  30.350  34.405  1.00  0.00     0.037 A 
ATOM     57  C   UNL A   1      42.887  26.158  28.817  1.00  0.00     0.037 A 
ATOM     58  C   UNL A   1      44.453  29.460  34.226  1.00  0.00     0.049 A 
ATOM     59  C   UNL A   1      44.098  26.164  29.714  1.00  0.00     0.074 A 
ATOM     60  C   UNL A   1      45.576  29.314  35.021  1.00  0.00     0.029 A 
ATOM     61  N   UNL A   1      44.588  28.572  33.171  1.00  0.00    -0.354 N 
ATOM     62  N   UNL A   1      44.318  26.857  30.805  1.00  0.00    -0.248 NA
ATOM     63  C   UNL A   1      45.207  25.274  29.338  1.00  0.00     0.031 C 
ATOM     64  C   UNL A   1      46.413  28.368  34.421  1.00  0.00     0.029 A 
ATOM     65  C   UNL A   1      45.789  27.891  33.279  1.00  0.00     0.049 A 
ATOM     66  H   UNL A   1      43.930  28.443  32.451  1.00  0.00     0.167 HD
ATOM     67  C   UNL A   1      45.571  26.466  31.262  1.00  0.00     0.074 A 
ATOM     68  C   UNL A   1      46.061  25.469  30.333  1.00  0.00     0.031 C 
ATOM     69  C   UNL A   1      46.255  26.893  32.353  1.00  0.00     0.037 A 
BRANCH  56  70
ATOM     70  C   UNL A   1      43.355  31.295  35.568  1.00  0.00     0.057 A 
ATOM     71  C   UNL A   1      43.901  32.581  35.466  1.00  0.00     0.134 A 
ATOM     72  C   UNL A   1      42.805  30.920  36.799  1.00  0.00     0.134 A 
ATOM     73  F   UNL A   1      44.461  32.993  34.319  1.00  0.00    -0.206 F 
ATOM     74  C   UNL A   1      43.914  33.454  36.555  1.00  0.00     0.040 A 
ATOM     75  C   UNL A   1      42.791  31.792  37.887  1.00  0.00     0.040 A 
ATOM     76  F   UNL A   1      42.267  29.702  36.963  1.00  0.00    -0.206 F 
ATOM     77  C   UNL A   1      43.353  33.063  37.768  1.00  0.00     0.006 A 
ENDBRANCH  56  70
BRANCH  57  78
ATOM     78  C   UNL A   1      42.844  25.280  27.620  1.00  0.00     0.057 A 
ATOM     79  C   UNL A   1      43.350  25.709  26.388  1.00  0.00     0.134 A 
ATOM     80  C   UNL A   1      42.266  24.006  27.671  1.00  0.00     0.134 A 
ATOM     81  F   UNL A   1      43.893  26.930  26.269  1.00  0.00    -0.206 F 
ATOM     82  C   UNL A   1      43.266  24.911  25.245  1.00  0.00     0.040 A 
ATOM     83  C   UNL A   1      42.197  23.188  26.543  1.00  0.00     0.040 A 
ATOM     84  F   UNL A   1      41.760  23.538  28.822  1.00  0.00    -0.206 F 
ATOM     85  C   UNL A   1      42.692  23.643  25.323  1.00  0.00     0.006 A 
ENDBRANCH  57  78
BRANCH  69  86
ATOM     86  C   UNL A   1      47.587  26.257  32.626  1.00  0.00     0.057 A 
ATOM     87  C   UNL A   1      47.711  25.110  33.418  1.00  0.00     0.134 A 
ATOM     88  C   UNL A   1      48.752  26.770  32.041  1.00  0.00     0.134 A 
ATOM     89  F   UNL A   1      46.635  24.575  34.015  1.00  0.00    -0.206 F 
ATOM     90  C   UNL A   1      48.951  24.504  33.633  1.00  0.00     0.040 A 
ATOM     91  C   UNL A   1      49.992  26.159  32.229  1.00  0.00     0.040 A 
ATOM     92  F   UNL A   1      48.700  27.861  31.262  1.00  0.00    -0.206 F 
ATOM     93  C   UNL A   1      50.095  25.024  33.032  1.00  0.00     0.006 A 
ENDBRANCH  69  86
ENDBRANCH  43  44
ENDBRANCH  36  38
ENDBRANCH  35  36
ENDBRANCH  34  35
ENDBRANCH  33  34
ENDBRANCH  32  33
ENDBRANCH  31  32
ENDBRANCH  30  31
ENDBRANCH  29  30
ENDBRANCH   1  29
TORSDOF 24
ENDMDL
MODEL 3
REMARK VINA RESULT:      -8.7      6.668     11.280
REMARK SMILES CC[C@@H](C(=O)OCCOCCOCCOCCOC(=O)c1ccc(-c2c3nc(c(-c4c(F)cccc4F)c4ccc([nH]4)c(-c4c(F)cccc4F)c4nc(c(-c5c(F)cccc5F)c5ccc2[nH]5)C=C4)C=C3)cc1)N1C(=O)/C(=C/C(C)=C/c2ccccc2)SC1=S
REMARK SMILES IDX 11 1 10 2 9 3 8 4 7 5 6 6 4 7 5 8 3 9 2 10 1 11 75 12 76 13
REMARK SMILES IDX 90 14 77 15 78 16 89 17 91 18 79 19 80 20 81 21 82 22 83 23
REMARK SMILES IDX 84 24 88 25 85 26 87 27 86 28 12 29 13 30 14 31 15 32 16 33
REMARK SMILES IDX 17 34 18 35 19 36 20 37 21 38 22 39 74 40 23 41 73 42 24 43
REMARK SMILES IDX 25 44 26 45 67 46 27 47 72 48 66 49 68 50 28 51 71 52 65 53
REMARK SMILES IDX 64 54 29 56 55 57 38 58 54 59 39 60 42 61 53 62 69 63 40 64
REMARK SMILES IDX 41 65 52 67 70 68 43 69 30 70 31 71 36 72 32 73 33 74 35 75
REMARK SMILES IDX 37 76 34 77 56 78 57 79 62 80 58 81 59 82 61 83 63 84 60 85
REMARK SMILES IDX 44 86 45 87 50 88 46 89 47 90 49 91 51 92 48 93
REMARK H PARENT 68 55 42 66
REMARK Flexibility Score: inf
ROOT
ATOM      1  C   UNL A   1      39.447  27.988  32.444  1.00  0.00     0.188 C 
ENDROOT
BRANCH   1   2
ATOM      2  C   UNL A   1      39.875  29.369  32.972  1.00  0.00     0.188 C 
BRANCH   2   3
ATOM      3  O   UNL A   1      38.857  30.072  33.680  1.00  0.00    -0.376 OA
BRANCH   3   4
ATOM      4  C   UNL A   1      39.152  31.419  34.030  1.00  0.00     0.202 C 
BRANCH   4   5
ATOM      5  C   UNL A   1      37.929  32.324  34.184  1.00  0.00     0.261 C 
BRANCH   5   6
ATOM      6  O   UNL A   1      37.537  32.813  32.892  1.00  0.00    -0.462 OA
BRANCH   6   7
ATOM      7  C   UNL A   1      36.862  31.962  32.086  1.00  0.00     0.329 C 
ATOM      8  O   UNL A   1      36.022  31.157  32.472  1.00  0.00    -0.250 OA
BRANCH   7   9
ATOM      9  C   UNL A   1      37.415  31.992  30.651  1.00  0.00     0.201 C 
BRANCH   9  10
ATOM     10  C   UNL A   1      38.161  33.358  30.472  1.00  0.00     0.034 C 
ATOM     11  C   UNL A   1      38.217  33.972  29.076  1.00  0.00     0.007 C 
ENDBRANCH   9  10
BRANCH   9  12
ATOM     12  N   UNL A   1      36.431  31.760  29.535  1.00  0.00    -0.278 N 
ATOM     13  C   UNL A   1      36.422  30.515  28.902  1.00  0.00     0.266 C 
ATOM     14  C   UNL A   1      35.253  32.453  29.336  1.00  0.00     0.149 C 
ATOM     15  O   UNL A   1      37.162  29.571  29.145  1.00  0.00    -0.268 OA
ATOM     16  C   UNL A   1      35.263  30.387  27.962  1.00  0.00     0.080 C 
ATOM     17  S   UNL A   1      34.510  31.915  27.834  1.00  0.00    -0.054 SA
ATOM     18  S   UNL A   1      34.492  33.595  30.285  1.00  0.00    -0.052 S 
ATOM     19  C   UNL A   1      34.889  29.194  27.471  1.00  0.00     0.024 C 
BRANCH  19  20
ATOM     20  C   UNL A   1      33.751  28.777  26.641  1.00  0.00    -0.049 C 
ATOM     21  C   UNL A   1      33.193  29.878  25.763  1.00  0.00     0.044 C 
ATOM     22  C   UNL A   1      33.276  27.516  26.584  1.00  0.00     0.011 C 
BRANCH  22  23
ATOM     23  C   UNL A   1      32.200  26.998  25.727  1.00  0.00    -0.025 A 
ATOM     24  C   UNL A   1      30.988  26.613  26.317  1.00  0.00     0.008 A 
ATOM     25  C   UNL A   1      32.400  26.766  24.362  1.00  0.00     0.008 A 
ATOM     26  C   UNL A   1      29.992  26.006  25.551  1.00  0.00     0.001 A 
ATOM     27  C   UNL A   1      31.402  26.159  23.597  1.00  0.00     0.001 A 
ATOM     28  C   UNL A   1      30.200  25.777  24.192  1.00  0.00     0.000 A 
ENDBRANCH  22  23
ENDBRANCH  19  20
ENDBRANCH   9  12
ENDBRANCH   7   9
ENDBRANCH   6   7
ENDBRANCH   5   6
ENDBRANCH   4   5
ENDBRANCH   3   4
ENDBRANCH   2   3
ENDBRANCH   1   2
BRANCH   1  29
ATOM     29  O   UNL A   1      39.032  27.887  31.091  1.00  0.00    -0.377 OA
BRANCH  29  30
ATOM     30  C   UNL A   1      40.007  27.623  30.084  1.00  0.00     0.188 C 
BRANCH  30  31
ATOM     31  C   UNL A   1      39.589  27.161  28.671  1.00  0.00     0.188 C 
BRANCH  31  32
ATOM     32  O   UNL A   1      40.192  25.950  28.231  1.00  0.00    -0.376 OA
BRANCH  32  33
ATOM     33  C   UNL A   1      39.432  25.150  27.336  1.00  0.00     0.202 C 
BRANCH  33  34
ATOM     34  C   UNL A   1      39.892  23.691  27.245  1.00  0.00     0.261 C 
BRANCH  34  35
ATOM     35  O   UNL A   1      41.280  23.473  27.542  1.00  0.00    -0.460 OA
BRANCH  35  36
ATOM     36  C   UNL A   1      42.142  23.439  26.504  1.00  0.00     0.338 C 
ATOM     37  O   UNL A   1      42.171  22.641  25.583  1.00  0.00    -0.246 OA
BRANCH  36  38
ATOM     38  C   UNL A   1      42.963  24.659  26.568  1.00  0.00     0.060 A 
ATOM     39  C   UNL A   1      43.255  25.346  25.382  1.00  0.00     0.016 A 
ATOM     40  C   UNL A   1      43.446  25.114  27.796  1.00  0.00     0.016 A 
ATOM     41  C   UNL A   1      44.071  26.476  25.420  1.00  0.00     0.010 A 
ATOM     42  C   UNL A   1      44.279  26.232  27.830  1.00  0.00     0.010 A 
ATOM     43  C   UNL A   1      44.622  26.895  26.638  1.00  0.00    -0.014 A 
BRANCH  43  44
ATOM     44  C   UNL A   1      45.726  27.881  26.649  1.00  0.00     0.031 A 
ATOM     45  C   UNL A   1      45.369  29.339  26.733  1.00  0.00     0.074 A 
ATOM     46  C   UNL A   1      47.012  27.498  26.580  1.00  0.00     0.049 A 
ATOM     47  N   UNL A   1      46.146  30.389  26.692  1.00  0.00    -0.248 NA
ATOM     48  C   UNL A   1      43.937  29.652  26.882  1.00  0.00     0.031 C 
ATOM     49  C   UNL A   1      47.483  26.117  26.529  1.00  0.00     0.029 A 
ATOM     50  N   UNL A   1      48.157  28.250  26.526  1.00  0.00    -0.354 N 
ATOM     51  C   UNL A   1      45.299  31.485  26.806  1.00  0.00     0.074 A 
ATOM     52  C   UNL A   1      43.949  30.975  26.890  1.00  0.00     0.031 C 
ATOM     53  C   UNL A   1      48.825  26.120  26.435  1.00  0.00     0.029 A 
ATOM     54  C   UNL A   1      49.300  27.503  26.387  1.00  0.00     0.049 A 
ATOM     55  H   UNL A   1      48.160  29.234  26.582  1.00  0.00     0.167 HD
ATOM     56  C   UNL A   1      45.620  32.798  26.843  1.00  0.00     0.037 A 
ATOM     57  C   UNL A   1      50.577  27.896  26.218  1.00  0.00     0.037 A 
ATOM     58  C   UNL A   1      46.962  33.306  26.749  1.00  0.00     0.049 A 
ATOM     59  C   UNL A   1      50.901  29.367  26.185  1.00  0.00     0.074 A 
ATOM     60  C   UNL A   1      47.392  34.620  26.789  1.00  0.00     0.029 A 
ATOM     61  N   UNL A   1      48.090  32.517  26.585  1.00  0.00    -0.354 N 
ATOM     62  N   UNL A   1      50.100  30.396  26.321  1.00  0.00    -0.248 NA
ATOM     63  C   UNL A   1      52.310  29.731  25.972  1.00  0.00     0.031 C 
ATOM     64  C   UNL A   1      48.778  34.629  26.604  1.00  0.00     0.029 A 
ATOM     65  C   UNL A   1      49.216  33.319  26.497  1.00  0.00     0.049 A 
ATOM     66  H   UNL A   1      48.092  31.534  26.538  1.00  0.00     0.167 HD
ATOM     67  C   UNL A   1      50.908  31.524  26.242  1.00  0.00     0.074 A 
ATOM     68  C   UNL A   1      52.264  31.054  26.053  1.00  0.00     0.031 C 
ATOM     69  C   UNL A   1      50.559  32.833  26.321  1.00  0.00     0.037 A 
BRANCH  56  70
ATOM     70  C   UNL A   1      44.491  33.777  26.964  1.00  0.00     0.057 A 
ATOM     71  C   UNL A   1      44.022  34.213  28.210  1.00  0.00     0.134 A 
ATOM     72  C   UNL A   1      43.878  34.302  25.820  1.00  0.00     0.134 A 
ATOM     73  F   UNL A   1      44.555  33.732  29.343  1.00  0.00    -0.206 F 
ATOM     74  C   UNL A   1      42.969  35.123  28.313  1.00  0.00     0.040 A 
ATOM     75  C   UNL A   1      42.840  35.230  25.911  1.00  0.00     0.040 A 
ATOM     76  F   UNL A   1      44.279  33.925  24.597  1.00  0.00    -0.206 F 
ATOM     77  C   UNL A   1      42.379  35.639  27.161  1.00  0.00     0.006 A 
ENDBRANCH  56  70
BRANCH  57  78
ATOM     78  C   UNL A   1      51.652  26.886  26.046  1.00  0.00     0.057 A 
ATOM     79  C   UNL A   1      52.407  26.438  27.136  1.00  0.00     0.134 A 
ATOM     80  C   UNL A   1      51.973  26.371  24.785  1.00  0.00     0.134 A 
ATOM     81  F   UNL A   1      52.164  26.914  28.366  1.00  0.00    -0.206 F 
ATOM     82  C   UNL A   1      53.454  25.528  26.976  1.00  0.00     0.040 A 
ATOM     83  C   UNL A   1      53.001  25.443  24.614  1.00  0.00     0.040 A 
ATOM     84  F   UNL A   1      51.289  26.763  23.700  1.00  0.00    -0.206 F 
ATOM     85  C   UNL A   1      53.750  25.025  25.711  1.00  0.00     0.006 A 
ENDBRANCH  57  78
BRANCH  69  86
ATOM     86  C   UNL A   1      51.662  33.848  26.243  1.00  0.00     0.057 A 
ATOM     87  C   UNL A   1      52.294  34.343  27.389  1.00  0.00     0.134 A 
ATOM     88  C   UNL A   1      52.132  34.292  25.000  1.00  0.00     0.134 A 
ATOM     89  F   UNL A   1      51.884  33.966  28.610  1.00  0.00    -0.206 F 
ATOM     90  C   UNL A   1      53.346  35.258  27.303  1.00  0.00     0.040 A 
ATOM     91  C   UNL A   1      53.198  35.187  24.901  1.00  0.00     0.040 A 
ATOM     92  F   UNL A   1      51.577  33.847  23.863  1.00  0.00    -0.206 F 
ATOM     93  C   UNL A   1      53.805  35.676  26.056  1.00  0.00     0.006 A 
ENDBRANCH  69  86
ENDBRANCH  43  44
ENDBRANCH  36  38
ENDBRANCH  35  36
ENDBRANCH  34  35
ENDBRANCH  33  34
ENDBRANCH  32  33
ENDBRANCH  31  32
ENDBRANCH  30  31
ENDBRANCH  29  30
ENDBRANCH   1  29
TORSDOF 24
ENDMDL
