MODEL 1
REMARK VINA RESULT:     -10.4      0.000      0.000
REMARK SMILES O=C(OCCOCCOCCOCCOC(=O)[C@H]1Cc2[nH]cnc2CN1C(=O)N1CCC[C@H](O)C1)c1ccc(-c2c3nc(c(-c4c(F)cccc4F)c4ccc([nH]4)c(-c4c(F)cccc4F)c4nc(c(-c5c(F)cccc5F)c5ccc2[nH]5)C=C4)C=C3)cc1
REMARK SMILES IDX 10 1 9 2 8 3 7 4 6 5 5 6 4 7 3 8 2 9 1 10 36 11 37 12 89 13
REMARK SMILES IDX 38 14 88 15 39 16 40 17 41 18 82 19 42 20 87 21 81 22 83 23
REMARK SMILES IDX 43 24 86 25 80 26 79 27 44 29 70 30 53 31 69 32 54 33 57 34
REMARK SMILES IDX 68 35 84 36 55 37 56 38 67 40 85 41 58 42 45 43 46 44 51 45
REMARK SMILES IDX 47 46 48 47 50 48 52 49 49 50 71 51 72 52 77 53 73 54 74 55
REMARK SMILES IDX 76 56 78 57 75 58 59 59 60 60 65 61 61 62 62 63 64 64 66 65
REMARK SMILES IDX 63 66 11 67 12 68 13 69 14 70 15 71 16 72 17 73 18 74 19 75
REMARK SMILES IDX 26 76 20 77 25 78 21 79 24 80 22 81 23 83 27 84 28 85 29 86
REMARK SMILES IDX 30 87 35 88 31 89 33 90 32 91 34 92
REMARK H PARENT 83 28 57 39 21 82 34 93
REMARK Flexibility Score: inf
ROOT
ATOM      1  C   UNL A   1      34.858  33.270  28.189  1.00  0.00     0.188 C 
ENDROOT
BRANCH   1   2
ATOM      2  O   UNL A   1      33.917  34.304  28.363  1.00  0.00    -0.377 OA
BRANCH   2   3
ATOM      3  C   UNL A   1      34.410  35.627  28.227  1.00  0.00     0.188 C 
BRANCH   3   4
ATOM      4  C   UNL A   1      33.560  36.846  28.650  1.00  0.00     0.188 C 
BRANCH   4   5
ATOM      5  O   UNL A   1      33.091  37.217  29.940  1.00  0.00    -0.376 OA
BRANCH   5   6
ATOM      6  C   UNL A   1      32.899  36.448  31.104  1.00  0.00     0.202 C 
BRANCH   6   7
ATOM      7  C   UNL A   1      33.651  36.762  32.411  1.00  0.00     0.261 C 
BRANCH   7   8
ATOM      8  O   UNL A   1      34.300  35.674  33.068  1.00  0.00    -0.460 OA
BRANCH   8   9
ATOM      9  C   UNL A   1      34.173  34.351  32.831  1.00  0.00     0.338 C 
ATOM     10  O   UNL A   1      33.172  33.764  33.236  1.00  0.00    -0.246 OA
BRANCH   9  11
ATOM     11  C   UNL A   1      35.246  33.538  32.216  1.00  0.00     0.060 A 
ATOM     12  C   UNL A   1      35.125  32.190  31.883  1.00  0.00     0.016 A 
ATOM     13  C   UNL A   1      36.478  34.194  32.013  1.00  0.00     0.016 A 
ATOM     14  C   UNL A   1      36.222  31.472  31.490  1.00  0.00     0.010 A 
ATOM     15  C   UNL A   1      37.595  33.477  31.629  1.00  0.00     0.010 A 
ATOM     16  C   UNL A   1      37.455  32.106  31.473  1.00  0.00    -0.014 A 
BRANCH  16  17
ATOM     17  C   UNL A   1      38.580  31.207  31.425  1.00  0.00     0.031 A 
ATOM     18  C   UNL A   1      39.285  31.058  32.717  1.00  0.00     0.074 A 
ATOM     19  C   UNL A   1      38.962  30.730  30.227  1.00  0.00     0.049 A 
ATOM     20  N   UNL A   1      40.480  31.452  33.015  1.00  0.00    -0.248 NA
ATOM     21  C   UNL A   1      38.494  30.604  33.869  1.00  0.00     0.031 C 
ATOM     22  C   UNL A   1      38.226  30.756  28.957  1.00  0.00     0.029 A 
ATOM     23  N   UNL A   1      40.087  30.037  29.914  1.00  0.00    -0.354 N 
ATOM     24  C   UNL A   1      40.669  31.093  34.347  1.00  0.00     0.074 A 
ATOM     25  C   UNL A   1      39.373  30.740  34.861  1.00  0.00     0.031 C 
ATOM     26  C   UNL A   1      38.795  29.890  28.094  1.00  0.00     0.029 A 
ATOM     27  C   UNL A   1      40.007  29.373  28.696  1.00  0.00     0.049 A 
ATOM     28  H   UNL A   1      40.881  30.008  30.494  1.00  0.00     0.167 HD
ATOM     29  C   UNL A   1      41.919  30.850  34.825  1.00  0.00     0.037 A 
ATOM     30  C   UNL A   1      40.833  28.369  28.316  1.00  0.00     0.037 A 
ATOM     31  C   UNL A   1      42.910  31.563  34.055  1.00  0.00     0.049 A 
ATOM     32  C   UNL A   1      42.074  28.499  29.129  1.00  0.00     0.074 A 
ATOM     33  C   UNL A   1      43.169  32.898  33.810  1.00  0.00     0.029 A 
ATOM     34  N   UNL A   1      43.608  30.867  33.098  1.00  0.00    -0.354 N 
ATOM     35  N   UNL A   1      42.910  29.494  29.003  1.00  0.00    -0.248 NA
ATOM     36  C   UNL A   1      42.111  27.815  30.416  1.00  0.00     0.031 C 
ATOM     37  C   UNL A   1      43.603  32.948  32.453  1.00  0.00     0.029 A 
ATOM     38  C   UNL A   1      43.648  31.641  31.969  1.00  0.00     0.049 A 
ATOM     39  H   UNL A   1      44.009  29.974  33.205  1.00  0.00     0.167 HD
ATOM     40  C   UNL A   1      43.270  29.828  30.303  1.00  0.00     0.074 A 
ATOM     41  C   UNL A   1      42.793  28.719  31.127  1.00  0.00     0.031 C 
ATOM     42  C   UNL A   1      43.655  31.098  30.630  1.00  0.00     0.037 A 
BRANCH  29  43
ATOM     43  C   UNL A   1      42.247  29.617  35.640  1.00  0.00     0.057 A 
ATOM     44  C   UNL A   1      43.165  29.737  36.700  1.00  0.00     0.134 A 
ATOM     45  C   UNL A   1      41.976  28.291  35.240  1.00  0.00     0.134 A 
ATOM     46  F   UNL A   1      43.491  30.939  37.198  1.00  0.00    -0.206 F 
ATOM     47  C   UNL A   1      43.860  28.637  37.220  1.00  0.00     0.040 A 
ATOM     48  C   UNL A   1      42.635  27.184  35.778  1.00  0.00     0.040 A 
ATOM     49  F   UNL A   1      41.130  27.984  34.252  1.00  0.00    -0.206 F 
ATOM     50  C   UNL A   1      43.613  27.358  36.741  1.00  0.00     0.006 A 
ENDBRANCH  29  43
BRANCH  30  51
ATOM     51  C   UNL A   1      40.427  27.120  27.636  1.00  0.00     0.057 A 
ATOM     52  C   UNL A   1      40.994  26.746  26.414  1.00  0.00     0.134 A 
ATOM     53  C   UNL A   1      39.656  26.137  28.287  1.00  0.00     0.134 A 
ATOM     54  F   UNL A   1      41.782  27.598  25.743  1.00  0.00    -0.206 F 
ATOM     55  C   UNL A   1      40.815  25.465  25.874  1.00  0.00     0.040 A 
ATOM     56  C   UNL A   1      39.462  24.860  27.756  1.00  0.00     0.040 A 
ATOM     57  F   UNL A   1      39.135  26.352  29.504  1.00  0.00    -0.206 F 
ATOM     58  C   UNL A   1      40.053  24.515  26.549  1.00  0.00     0.006 A 
ENDBRANCH  30  51
BRANCH  42  59
ATOM     59  C   UNL A   1      43.874  32.074  29.508  1.00  0.00     0.057 A 
ATOM     60  C   UNL A   1      42.928  33.030  29.107  1.00  0.00     0.134 A 
ATOM     61  C   UNL A   1      45.142  32.157  28.924  1.00  0.00     0.134 A 
ATOM     62  F   UNL A   1      41.723  33.095  29.690  1.00  0.00    -0.206 F 
ATOM     63  C   UNL A   1      43.217  33.995  28.137  1.00  0.00     0.040 A 
ATOM     64  C   UNL A   1      45.455  33.136  27.978  1.00  0.00     0.040 A 
ATOM     65  F   UNL A   1      46.117  31.317  29.306  1.00  0.00    -0.206 F 
ATOM     66  C   UNL A   1      44.488  34.052  27.573  1.00  0.00     0.006 A 
ENDBRANCH  42  59
ENDBRANCH  16  17
ENDBRANCH   9  11
ENDBRANCH   8   9
ENDBRANCH   7   8
ENDBRANCH   6   7
ENDBRANCH   5   6
ENDBRANCH   4   5
ENDBRANCH   3   4
ENDBRANCH   2   3
ENDBRANCH   1   2
BRANCH   1  67
ATOM     67  C   UNL A   1      34.260  31.874  28.418  1.00  0.00     0.188 C 
BRANCH  67  68
ATOM     68  O   UNL A   1      34.387  31.050  27.271  1.00  0.00    -0.376 OA
BRANCH  68  69
ATOM     69  C   UNL A   1      34.869  29.724  27.464  1.00  0.00     0.202 C 
BRANCH  69  70
ATOM     70  C   UNL A   1      34.125  28.518  26.894  1.00  0.00     0.261 C 
BRANCH  70  71
ATOM     71  O   UNL A   1      32.758  28.682  26.530  1.00  0.00    -0.462 OA
BRANCH  71  72
ATOM     72  C   UNL A   1      32.021  27.628  26.134  1.00  0.00     0.329 C 
ATOM     73  O   UNL A   1      32.102  26.496  26.606  1.00  0.00    -0.250 OA
BRANCH  72  74
ATOM     74  C   UNL A   1      31.156  28.042  24.950  1.00  0.00     0.203 C 
ATOM     75  C   UNL A   1      31.136  29.577  24.726  1.00  0.00     0.093 C 
ATOM     76  N   UNL A   1      31.263  27.286  23.672  1.00  0.00    -0.304 N 
ATOM     77  C   UNL A   1      30.204  29.890  23.627  1.00  0.00     0.042 A 
ATOM     78  C   UNL A   1      30.107  27.504  22.743  1.00  0.00     0.180 C 
ATOM     79  N   UNL A   1      29.644  31.086  23.293  1.00  0.00    -0.348 N 
ATOM     80  C   UNL A   1      29.734  28.967  22.725  1.00  0.00     0.081 A 
ATOM     81  C   UNL A   1      28.815  30.838  22.230  1.00  0.00     0.197 A 
ATOM     82  H   UNL A   1      29.803  31.954  23.729  1.00  0.00     0.167 HD
ATOM     83  N   UNL A   1      28.846  29.570  21.869  1.00  0.00    -0.240 NA
BRANCH  76  84
ATOM     84  C   UNL A   1      32.366  26.655  23.127  1.00  0.00     0.321 C 
ATOM     85  O   UNL A   1      33.263  27.297  22.574  1.00  0.00    -0.248 OA
BRANCH  84  86
ATOM     86  N   UNL A   1      32.503  25.265  23.242  1.00  0.00    -0.322 N 
ATOM     87  C   UNL A   1      31.356  24.553  23.810  1.00  0.00     0.121 C 
ATOM     88  C   UNL A   1      32.901  24.660  21.969  1.00  0.00     0.153 C 
ATOM     89  C   UNL A   1      31.407  23.014  23.751  1.00  0.00     0.024 C 
ATOM     90  C   UNL A   1      33.407  23.228  22.103  1.00  0.00     0.134 C 
ATOM     91  C   UNL A   1      32.574  22.340  23.023  1.00  0.00     0.035 C 
BRANCH  90  92
ATOM     92  O   UNL A   1      34.770  23.206  22.535  1.00  0.00    -0.391 OA
ATOM     93  H   UNL A   1      35.339  22.928  21.800  1.00  0.00     0.211 HD
ENDBRANCH  90  92
ENDBRANCH  84  86
ENDBRANCH  76  84
ENDBRANCH  72  74
ENDBRANCH  71  72
ENDBRANCH  70  71
ENDBRANCH  69  70
ENDBRANCH  68  69
ENDBRANCH  67  68
ENDBRANCH   1  67
TORSDOF 23
ENDMDL
MODEL 2
REMARK VINA RESULT:     -10.3      3.042      6.862
REMARK SMILES O=C(OCCOCCOCCOCCOC(=O)[C@H]1Cc2[nH]cnc2CN1C(=O)N1CCC[C@H](O)C1)c1ccc(-c2c3nc(c(-c4c(F)cccc4F)c4ccc([nH]4)c(-c4c(F)cccc4F)c4nc(c(-c5c(F)cccc5F)c5ccc2[nH]5)C=C4)C=C3)cc1
REMARK SMILES IDX 10 1 9 2 8 3 7 4 6 5 5 6 4 7 3 8 2 9 1 10 36 11 37 12 89 13
REMARK SMILES IDX 38 14 88 15 39 16 40 17 41 18 82 19 42 20 87 21 81 22 83 23
REMARK SMILES IDX 43 24 86 25 80 26 79 27 44 29 70 30 53 31 69 32 54 33 57 34
REMARK SMILES IDX 68 35 84 36 55 37 56 38 67 40 85 41 58 42 45 43 46 44 51 45
REMARK SMILES IDX 47 46 48 47 50 48 52 49 49 50 71 51 72 52 77 53 73 54 74 55
REMARK SMILES IDX 76 56 78 57 75 58 59 59 60 60 65 61 61 62 62 63 64 64 66 65
REMARK SMILES IDX 63 66 11 67 12 68 13 69 14 70 15 71 16 72 17 73 18 74 19 75
REMARK SMILES IDX 26 76 20 77 25 78 21 79 24 80 22 81 23 83 27 84 28 85 29 86
REMARK SMILES IDX 30 87 35 88 31 89 33 90 32 91 34 92
REMARK H PARENT 83 28 57 39 21 82 34 93
REMARK Flexibility Score: inf
ROOT
ATOM      1  C   UNL A   1      33.934  33.420  27.917  1.00  0.00     0.188 C 
ENDROOT
BRANCH   1   2
ATOM      2  O   UNL A   1      32.849  34.177  28.399  1.00  0.00    -0.377 OA
BRANCH   2   3
ATOM      3  C   UNL A   1      33.179  35.369  29.095  1.00  0.00     0.188 C 
BRANCH   3   4
ATOM      4  C   UNL A   1      33.634  35.333  30.570  1.00  0.00     0.188 C 
BRANCH   4   5
ATOM      5  O   UNL A   1      34.118  34.240  31.341  1.00  0.00    -0.376 OA
BRANCH   5   6
ATOM      6  C   UNL A   1      35.255  33.428  31.169  1.00  0.00     0.202 C 
BRANCH   6   7
ATOM      7  C   UNL A   1      35.153  31.891  31.151  1.00  0.00     0.261 C 
BRANCH   7   8
ATOM      8  O   UNL A   1      36.278  31.167  30.655  1.00  0.00    -0.460 OA
BRANCH   8   9
ATOM      9  C   UNL A   1      36.769  29.982  31.077  1.00  0.00     0.338 C 
ATOM     10  O   UNL A   1      36.382  29.522  32.149  1.00  0.00    -0.246 OA
BRANCH   9  11
ATOM     11  C   UNL A   1      37.853  29.264  30.370  1.00  0.00     0.060 A 
ATOM     12  C   UNL A   1      38.538  28.164  30.882  1.00  0.00     0.016 A 
ATOM     13  C   UNL A   1      38.225  29.788  29.115  1.00  0.00     0.016 A 
ATOM     14  C   UNL A   1      39.646  27.678  30.243  1.00  0.00     0.010 A 
ATOM     15  C   UNL A   1      39.349  29.314  28.466  1.00  0.00     0.010 A 
ATOM     16  C   UNL A   1      40.090  28.330  29.103  1.00  0.00    -0.014 A 
BRANCH  16  17
ATOM     17  C   UNL A   1      41.442  28.003  28.725  1.00  0.00     0.031 A 
ATOM     18  C   UNL A   1      41.576  26.692  28.052  1.00  0.00     0.074 A 
ATOM     19  C   UNL A   1      42.432  28.812  29.141  1.00  0.00     0.049 A 
ATOM     20  N   UNL A   1      42.165  25.631  28.499  1.00  0.00    -0.248 NA
ATOM     21  C   UNL A   1      40.786  26.475  26.833  1.00  0.00     0.031 C 
ATOM     22  C   UNL A   1      42.331  30.167  29.698  1.00  0.00     0.029 A 
ATOM     23  N   UNL A   1      43.772  28.608  29.076  1.00  0.00    -0.354 N 
ATOM     24  C   UNL A   1      42.004  24.669  27.506  1.00  0.00     0.074 A 
ATOM     25  C   UNL A   1      41.013  25.182  26.599  1.00  0.00     0.031 C 
ATOM     26  C   UNL A   1      43.545  30.753  29.668  1.00  0.00     0.029 A 
ATOM     27  C   UNL A   1      44.518  29.770  29.237  1.00  0.00     0.049 A 
ATOM     28  H   UNL A   1      44.176  27.723  28.927  1.00  0.00     0.167 HD
ATOM     29  C   UNL A   1      42.906  23.661  27.369  1.00  0.00     0.037 A 
ATOM     30  C   UNL A   1      45.820  29.897  28.890  1.00  0.00     0.037 A 
ATOM     31  C   UNL A   1      43.569  23.393  28.623  1.00  0.00     0.049 A 
ATOM     32  C   UNL A   1      46.393  28.523  28.849  1.00  0.00     0.074 A 
ATOM     33  C   UNL A   1      43.149  22.965  29.868  1.00  0.00     0.029 A 
ATOM     34  N   UNL A   1      44.827  23.912  28.813  1.00  0.00    -0.354 N 
ATOM     35  N   UNL A   1      46.550  27.781  29.913  1.00  0.00    -0.248 NA
ATOM     36  C   UNL A   1      46.306  27.794  27.589  1.00  0.00     0.031 C 
ATOM     37  C   UNL A   1      43.959  23.680  30.798  1.00  0.00     0.029 A 
ATOM     38  C   UNL A   1      44.867  24.450  30.072  1.00  0.00     0.049 A 
ATOM     39  H   UNL A   1      45.566  23.899  28.163  1.00  0.00     0.167 HD
ATOM     40  C   UNL A   1      46.162  26.506  29.520  1.00  0.00     0.074 A 
ATOM     41  C   UNL A   1      46.080  26.564  28.062  1.00  0.00     0.031 C 
ATOM     42  C   UNL A   1      45.659  25.607  30.419  1.00  0.00     0.037 A 
BRANCH  29  43
ATOM     43  C   UNL A   1      43.507  23.289  26.030  1.00  0.00     0.057 A 
ATOM     44  C   UNL A   1      43.552  21.930  25.667  1.00  0.00     0.134 A 
ATOM     45  C   UNL A   1      44.322  24.137  25.250  1.00  0.00     0.134 A 
ATOM     46  F   UNL A   1      42.805  21.020  26.308  1.00  0.00    -0.206 F 
ATOM     47  C   UNL A   1      44.443  21.439  24.704  1.00  0.00     0.040 A 
ATOM     48  C   UNL A   1      45.185  23.663  24.260  1.00  0.00     0.040 A 
ATOM     49  F   UNL A   1      44.405  25.456  25.447  1.00  0.00    -0.206 F 
ATOM     50  C   UNL A   1      45.281  22.305  24.014  1.00  0.00     0.006 A 
ENDBRANCH  29  43
BRANCH  30  51
ATOM     51  C   UNL A   1      46.428  31.058  28.205  1.00  0.00     0.057 A 
ATOM     52  C   UNL A   1      45.880  31.568  27.023  1.00  0.00     0.134 A 
ATOM     53  C   UNL A   1      47.414  31.853  28.823  1.00  0.00     0.134 A 
ATOM     54  F   UNL A   1      44.902  30.906  26.389  1.00  0.00    -0.206 F 
ATOM     55  C   UNL A   1      46.279  32.802  26.492  1.00  0.00     0.040 A 
ATOM     56  C   UNL A   1      47.828  33.079  28.299  1.00  0.00     0.040 A 
ATOM     57  F   UNL A   1      47.948  31.508  30.003  1.00  0.00    -0.206 F 
ATOM     58  C   UNL A   1      47.251  33.565  27.134  1.00  0.00     0.006 A 
ENDBRANCH  30  51
BRANCH  42  59
ATOM     59  C   UNL A   1      45.726  25.964  31.878  1.00  0.00     0.057 A 
ATOM     60  C   UNL A   1      46.866  25.781  32.676  1.00  0.00     0.134 A 
ATOM     61  C   UNL A   1      44.659  26.664  32.451  1.00  0.00     0.134 A 
ATOM     62  F   UNL A   1      47.975  25.217  32.177  1.00  0.00    -0.206 F 
ATOM     63  C   UNL A   1      46.922  26.234  33.998  1.00  0.00     0.040 A 
ATOM     64  C   UNL A   1      44.715  27.151  33.759  1.00  0.00     0.040 A 
ATOM     65  F   UNL A   1      43.562  26.933  31.727  1.00  0.00    -0.206 F 
ATOM     66  C   UNL A   1      45.845  26.927  34.541  1.00  0.00     0.006 A 
ENDBRANCH  42  59
ENDBRANCH  16  17
ENDBRANCH   9  11
ENDBRANCH   8   9
ENDBRANCH   7   8
ENDBRANCH   6   7
ENDBRANCH   5   6
ENDBRANCH   4   5
ENDBRANCH   3   4
ENDBRANCH   2   3
ENDBRANCH   1   2
BRANCH   1  67
ATOM     67  C   UNL A   1      33.687  31.905  27.997  1.00  0.00     0.188 C 
BRANCH  67  68
ATOM     68  O   UNL A   1      34.730  31.166  27.385  1.00  0.00    -0.376 OA
BRANCH  68  69
ATOM     69  C   UNL A   1      34.478  29.799  27.080  1.00  0.00     0.202 C 
BRANCH  69  70
ATOM     70  C   UNL A   1      33.055  29.271  26.913  1.00  0.00     0.261 C 
BRANCH  70  71
ATOM     71  O   UNL A   1      32.882  27.892  26.600  1.00  0.00    -0.462 OA
BRANCH  71  72
ATOM     72  C   UNL A   1      33.022  27.453  25.335  1.00  0.00     0.329 C 
ATOM     73  O   UNL A   1      34.026  26.905  24.888  1.00  0.00    -0.250 OA
BRANCH  72  74
ATOM     74  C   UNL A   1      31.782  27.836  24.536  1.00  0.00     0.203 C 
ATOM     75  C   UNL A   1      32.112  28.692  23.285  1.00  0.00     0.093 C 
ATOM     76  N   UNL A   1      30.750  26.801  24.255  1.00  0.00    -0.304 N 
ATOM     77  C   UNL A   1      30.852  29.094  22.632  1.00  0.00     0.042 A 
ATOM     78  C   UNL A   1      29.425  27.366  23.840  1.00  0.00     0.180 C 
ATOM     79  N   UNL A   1      30.640  30.074  21.711  1.00  0.00    -0.348 N 
ATOM     80  C   UNL A   1      29.635  28.504  22.870  1.00  0.00     0.081 A 
ATOM     81  C   UNL A   1      29.293  30.078  21.458  1.00  0.00     0.197 A 
ATOM     82  H   UNL A   1      31.319  30.662  21.308  1.00  0.00     0.167 HD
ATOM     83  N   UNL A   1      28.662  29.146  22.146  1.00  0.00    -0.240 NA
BRANCH  76  84
ATOM     84  C   UNL A   1      30.914  25.441  24.062  1.00  0.00     0.321 C 
ATOM     85  O   UNL A   1      30.570  24.899  23.008  1.00  0.00    -0.248 OA
BRANCH  84  86
ATOM     86  N   UNL A   1      31.525  24.664  25.054  1.00  0.00    -0.322 N 
ATOM     87  C   UNL A   1      30.621  23.963  25.968  1.00  0.00     0.121 C 
ATOM     88  C   UNL A   1      32.494  23.728  24.477  1.00  0.00     0.153 C 
ATOM     89  C   UNL A   1      31.268  22.944  26.926  1.00  0.00     0.024 C 
ATOM     90  C   UNL A   1      33.439  23.114  25.505  1.00  0.00     0.134 C 
ATOM     91  C   UNL A   1      32.766  22.654  26.796  1.00  0.00     0.035 C 
BRANCH  90  92
ATOM     92  O   UNL A   1      34.503  24.014  25.824  1.00  0.00    -0.391 OA
ATOM     93  H   UNL A   1      35.353  23.604  25.600  1.00  0.00     0.211 HD
ENDBRANCH  90  92
ENDBRANCH  84  86
ENDBRANCH  76  84
ENDBRANCH  72  74
ENDBRANCH  71  72
ENDBRANCH  70  71
ENDBRANCH  69  70
ENDBRANCH  68  69
ENDBRANCH  67  68
ENDBRANCH   1  67
TORSDOF 23
ENDMDL
MODEL 3
REMARK VINA RESULT:     -10.2      3.146      7.478
REMARK SMILES O=C(OCCOCCOCCOCCOC(=O)[C@H]1Cc2[nH]cnc2CN1C(=O)N1CCC[C@H](O)C1)c1ccc(-c2c3nc(c(-c4c(F)cccc4F)c4ccc([nH]4)c(-c4c(F)cccc4F)c4nc(c(-c5c(F)cccc5F)c5ccc2[nH]5)C=C4)C=C3)cc1
REMARK SMILES IDX 10 1 9 2 8 3 7 4 6 5 5 6 4 7 3 8 2 9 1 10 36 11 37 12 89 13
REMARK SMILES IDX 38 14 88 15 39 16 40 17 41 18 82 19 42 20 87 21 81 22 83 23
REMARK SMILES IDX 43 24 86 25 80 26 79 27 44 29 70 30 53 31 69 32 54 33 57 34
REMARK SMILES IDX 68 35 84 36 55 37 56 38 67 40 85 41 58 42 45 43 46 44 51 45
REMARK SMILES IDX 47 46 48 47 50 48 52 49 49 50 71 51 72 52 77 53 73 54 74 55
REMARK SMILES IDX 76 56 78 57 75 58 59 59 60 60 65 61 61 62 62 63 64 64 66 65
REMARK SMILES IDX 63 66 11 67 12 68 13 69 14 70 15 71 16 72 17 73 18 74 19 75
REMARK SMILES IDX 26 76 20 77 25 78 21 79 24 80 22 81 23 83 27 84 28 85 29 86
REMARK SMILES IDX 30 87 35 88 31 89 33 90 32 91 34 92
REMARK H PARENT 83 28 57 39 21 82 34 93
REMARK Flexibility Score: inf
ROOT
ATOM      1  C   UNL A   1      32.257  32.444  27.313  1.00  0.00     0.188 C 
ENDROOT
BRANCH   1   2
ATOM      2  O   UNL A   1      32.264  33.798  27.701  1.00  0.00    -0.377 OA
BRANCH   2   3
ATOM      3  C   UNL A   1      33.497  34.301  28.192  1.00  0.00     0.188 C 
BRANCH   3   4
ATOM      4  C   UNL A   1      33.675  34.664  29.683  1.00  0.00     0.188 C 
BRANCH   4   5
ATOM      5  O   UNL A   1      34.067  33.840  30.774  1.00  0.00    -0.376 OA
BRANCH   5   6
ATOM      6  C   UNL A   1      34.749  32.608  30.795  1.00  0.00     0.202 C 
BRANCH   6   7
ATOM      7  C   UNL A   1      36.025  32.378  29.964  1.00  0.00     0.261 C 
BRANCH   7   8
ATOM      8  O   UNL A   1      36.903  31.336  30.390  1.00  0.00    -0.460 OA
BRANCH   8   9
ATOM      9  C   UNL A   1      36.853  30.020  30.093  1.00  0.00     0.338 C 
ATOM     10  O   UNL A   1      35.848  29.377  30.391  1.00  0.00    -0.246 OA
BRANCH   9  11
ATOM     11  C   UNL A   1      38.006  29.277  29.537  1.00  0.00     0.060 A 
ATOM     12  C   UNL A   1      38.628  28.199  30.163  1.00  0.00     0.016 A 
ATOM     13  C   UNL A   1      38.514  29.754  28.311  1.00  0.00     0.016 A 
ATOM     14  C   UNL A   1      39.798  27.691  29.668  1.00  0.00     0.010 A 
ATOM     15  C   UNL A   1      39.701  29.257  27.808  1.00  0.00     0.010 A 
ATOM     16  C   UNL A   1      40.366  28.300  28.559  1.00  0.00    -0.014 A 
BRANCH  16  17
ATOM     17  C   UNL A   1      41.750  27.960  28.344  1.00  0.00     0.031 A 
ATOM     18  C   UNL A   1      41.953  26.637  27.714  1.00  0.00     0.074 A 
ATOM     19  C   UNL A   1      42.691  28.773  28.857  1.00  0.00     0.049 A 
ATOM     20  N   UNL A   1      42.481  25.582  28.244  1.00  0.00    -0.248 NA
ATOM     21  C   UNL A   1      41.306  26.401  26.416  1.00  0.00     0.031 C 
ATOM     22  C   UNL A   1      42.534  30.138  29.374  1.00  0.00     0.029 A 
ATOM     23  N   UNL A   1      44.028  28.563  28.949  1.00  0.00    -0.354 N 
ATOM     24  C   UNL A   1      42.428  24.603  27.257  1.00  0.00     0.074 A 
ATOM     25  C   UNL A   1      41.551  25.104  26.233  1.00  0.00     0.031 C 
ATOM     26  C   UNL A   1      43.747  30.719  29.474  1.00  0.00     0.029 A 
ATOM     27  C   UNL A   1      44.757  29.725  29.174  1.00  0.00     0.049 A 
ATOM     28  H   UNL A   1      44.442  27.674  28.863  1.00  0.00     0.167 HD
ATOM     29  C   UNL A   1      43.335  23.589  27.241  1.00  0.00     0.037 A 
ATOM     30  C   UNL A   1      46.092  29.841  28.977  1.00  0.00     0.037 A 
ATOM     31  C   UNL A   1      43.848  23.341  28.567  1.00  0.00     0.049 A 
ATOM     32  C   UNL A   1      46.658  28.464  29.025  1.00  0.00     0.074 A 
ATOM     33  C   UNL A   1      43.286  22.938  29.763  1.00  0.00     0.029 A 
ATOM     34  N   UNL A   1      45.079  23.860  28.891  1.00  0.00    -0.354 N 
ATOM     35  N   UNL A   1      46.687  27.741  30.113  1.00  0.00    -0.248 NA
ATOM     36  C   UNL A   1      46.711  27.713  27.777  1.00  0.00     0.031 C 
ATOM     37  C   UNL A   1      43.988  23.666  30.767  1.00  0.00     0.029 A 
ATOM     38  C   UNL A   1      44.978  24.420  30.137  1.00  0.00     0.049 A 
ATOM     39  H   UNL A   1      45.887  23.832  28.330  1.00  0.00     0.167 HD
ATOM     40  C   UNL A   1      46.339  26.460  29.700  1.00  0.00     0.074 A 
ATOM     41  C   UNL A   1      46.425  26.492  28.242  1.00  0.00     0.031 C 
ATOM     42  C   UNL A   1      45.732  25.580  30.552  1.00  0.00     0.037 A 
BRANCH  29  43
ATOM     43  C   UNL A   1      44.082  23.191  25.986  1.00  0.00     0.057 A 
ATOM     44  C   UNL A   1      44.172  21.825  25.661  1.00  0.00     0.134 A 
ATOM     45  C   UNL A   1      44.978  24.026  25.283  1.00  0.00     0.134 A 
ATOM     46  F   UNL A   1      43.359  20.925  26.234  1.00  0.00    -0.206 F 
ATOM     47  C   UNL A   1      45.166  21.318  24.814  1.00  0.00     0.040 A 
ATOM     48  C   UNL A   1      45.948  23.534  24.408  1.00  0.00     0.040 A 
ATOM     49  F   UNL A   1      45.035  25.349  25.459  1.00  0.00    -0.206 F 
ATOM     50  C   UNL A   1      46.073  22.172  24.204  1.00  0.00     0.006 A 
ENDBRANCH  29  43
BRANCH  30  51
ATOM     51  C   UNL A   1      46.780  30.987  28.345  1.00  0.00     0.057 A 
ATOM     52  C   UNL A   1      46.493  31.367  27.030  1.00  0.00     0.134 A 
ATOM     53  C   UNL A   1      47.555  31.894  29.096  1.00  0.00     0.134 A 
ATOM     54  F   UNL A   1      45.723  30.592  26.253  1.00  0.00    -0.206 F 
ATOM     55  C   UNL A   1      46.940  32.583  26.495  1.00  0.00     0.040 A 
ATOM     56  C   UNL A   1      48.015  33.103  28.572  1.00  0.00     0.040 A 
ATOM     57  F   UNL A   1      47.820  31.677  30.393  1.00  0.00    -0.206 F 
ATOM     58  C   UNL A   1      47.698  33.459  27.269  1.00  0.00     0.006 A 
ENDBRANCH  30  51
BRANCH  42  59
ATOM     59  C   UNL A   1      45.633  25.963  32.002  1.00  0.00     0.057 A 
ATOM     60  C   UNL A   1      44.508  26.576  32.574  1.00  0.00     0.134 A 
ATOM     61  C   UNL A   1      46.643  25.553  32.879  1.00  0.00     0.134 A 
ATOM     62  F   UNL A   1      43.445  26.905  31.826  1.00  0.00    -0.206 F 
ATOM     63  C   UNL A   1      44.413  26.809  33.950  1.00  0.00     0.040 A 
ATOM     64  C   UNL A   1      46.546  25.749  34.258  1.00  0.00     0.040 A 
ATOM     65  F   UNL A   1      47.719  24.902  32.410  1.00  0.00    -0.206 F 
ATOM     66  C   UNL A   1      45.434  26.390  34.797  1.00  0.00     0.006 A 
ENDBRANCH  42  59
ENDBRANCH  16  17
ENDBRANCH   9  11
ENDBRANCH   8   9
ENDBRANCH   7   8
ENDBRANCH   6   7
ENDBRANCH   5   6
ENDBRANCH   4   5
ENDBRANCH   3   4
ENDBRANCH   2   3
ENDBRANCH   1   2
BRANCH   1  67
ATOM     67  C   UNL A   1      33.655  31.807  27.345  1.00  0.00     0.188 C 
BRANCH  67  68
ATOM     68  O   UNL A   1      33.642  30.532  27.964  1.00  0.00    -0.376 OA
BRANCH  68  69
ATOM     69  C   UNL A   1      33.210  29.424  27.182  1.00  0.00     0.202 C 
BRANCH  69  70
ATOM     70  C   UNL A   1      34.086  28.842  26.076  1.00  0.00     0.261 C 
BRANCH  70  71
ATOM     71  O   UNL A   1      33.676  27.621  25.467  1.00  0.00    -0.462 OA
BRANCH  71  72
ATOM     72  C   UNL A   1      33.655  27.495  24.126  1.00  0.00     0.329 C 
ATOM     73  O   UNL A   1      33.938  28.389  23.332  1.00  0.00    -0.250 OA
BRANCH  72  74
ATOM     74  C   UNL A   1      33.130  26.111  23.765  1.00  0.00     0.203 C 
ATOM     75  C   UNL A   1      33.743  24.986  24.639  1.00  0.00     0.093 C 
ATOM     76  N   UNL A   1      31.670  25.923  23.546  1.00  0.00    -0.304 N 
ATOM     77  C   UNL A   1      33.252  23.681  24.158  1.00  0.00     0.042 A 
ATOM     78  C   UNL A   1      31.327  24.662  22.811  1.00  0.00     0.180 C 
ATOM     79  N   UNL A   1      33.744  22.436  24.409  1.00  0.00    -0.348 N 
ATOM     80  C   UNL A   1      32.164  23.520  23.336  1.00  0.00     0.081 A 
ATOM     81  C   UNL A   1      32.966  21.565  23.691  1.00  0.00     0.197 A 
ATOM     82  H   UNL A   1      34.505  22.208  24.990  1.00  0.00     0.167 HD
ATOM     83  N   UNL A   1      32.010  22.190  23.032  1.00  0.00    -0.240 NA
BRANCH  76  84
ATOM     84  C   UNL A   1      30.610  26.581  24.142  1.00  0.00     0.321 C 
ATOM     85  O   UNL A   1      30.298  26.360  25.316  1.00  0.00    -0.248 OA
BRANCH  84  86
ATOM     86  N   UNL A   1      29.901  27.555  23.427  1.00  0.00    -0.322 N 
ATOM     87  C   UNL A   1      28.441  27.471  23.504  1.00  0.00     0.121 C 
ATOM     88  C   UNL A   1      30.354  28.905  23.772  1.00  0.00     0.153 C 
ATOM     89  C   UNL A   1      27.654  28.650  22.900  1.00  0.00     0.024 C 
ATOM     90  C   UNL A   1      29.888  29.976  22.791  1.00  0.00     0.134 C 
ATOM     91  C   UNL A   1      28.427  29.859  22.366  1.00  0.00     0.035 C 
BRANCH  90  92
ATOM     92  O   UNL A   1      30.718  29.999  21.627  1.00  0.00    -0.391 OA
ATOM     93  H   UNL A   1      30.194  30.281  20.861  1.00  0.00     0.211 HD
ENDBRANCH  90  92
ENDBRANCH  84  86
ENDBRANCH  76  84
ENDBRANCH  72  74
ENDBRANCH  71  72
ENDBRANCH  70  71
ENDBRANCH  69  70
ENDBRANCH  68  69
ENDBRANCH  67  68
ENDBRANCH   1  67
TORSDOF 23
ENDMDL
