MODEL 1
REMARK VINA RESULT:      -9.6      0.000      0.000
REMARK SMILES CS(=O)(=O)c1ccc(C2=NN(c3ccc(C(=O)OCCOCCOCCOCCOC(=O)c4ccc(-c5c6nc(c(-c7c(F)cccc7F)c7ccc([nH]7)c(-c7c(F)cccc7F)c7nc(c(-c8c(F)cccc8F)c8ccc5[nH]8)C=C7)C=C6)cc4)cc3)[C@H](c3ccc(F)cc3)C2)cc1
REMARK SMILES IDX 23 1 22 2 21 3 20 4 19 5 18 6 16 7 17 8 15 9 12 10 13 11
REMARK SMILES IDX 88 12 14 13 87 14 11 15 9 16 10 17 97 18 89 19 8 20 5 21
REMARK SMILES IDX 6 22 99 23 7 24 98 25 2 26 1 27 3 28 4 29 90 30 91 31 96 32
REMARK SMILES IDX 92 33 95 34 93 35 94 36 24 37 25 38 26 39 27 40 28 41 29 42
REMARK SMILES IDX 30 43 31 44 32 45 33 46 34 47 86 48 35 49 85 50 36 51 37 52
REMARK SMILES IDX 38 53 79 54 39 55 84 56 78 57 80 58 40 59 83 60 77 61 76 62
REMARK SMILES IDX 41 64 67 65 50 66 66 67 51 68 54 69 65 70 81 71 52 72 53 73
REMARK SMILES IDX 64 75 82 76 55 77 42 78 43 79 48 80 44 81 45 82 47 83 49 84
REMARK SMILES IDX 46 85 68 86 69 87 74 88 70 89 71 90 73 91 75 92 72 93 56 94
REMARK SMILES IDX 57 95 62 96 58 97 59 98 61 99 63 100 60 101
REMARK H PARENT 80 63 54 74
REMARK Flexibility Score: inf
ROOT
ATOM      1  C   UNL A   1      33.351  27.674  23.057  1.00  0.00     0.188 C 
ENDROOT
BRANCH   1   2
ATOM      2  C   UNL A   1      32.380  26.832  22.205  1.00  0.00     0.188 C 
BRANCH   2   3
ATOM      3  O   UNL A   1      31.752  25.793  22.935  1.00  0.00    -0.376 OA
BRANCH   3   4
ATOM      4  C   UNL A   1      30.344  25.661  22.941  1.00  0.00     0.202 C 
BRANCH   4   5
ATOM      5  C   UNL A   1      29.458  26.326  24.007  1.00  0.00     0.261 C 
BRANCH   5   6
ATOM      6  O   UNL A   1      30.067  26.612  25.265  1.00  0.00    -0.460 OA
BRANCH   6   7
ATOM      7  C   UNL A   1      29.993  25.667  26.225  1.00  0.00     0.338 C 
ATOM      8  O   UNL A   1      28.989  25.306  26.814  1.00  0.00    -0.246 OA
BRANCH   7   9
ATOM      9  C   UNL A   1      31.322  25.014  26.338  1.00  0.00     0.060 A 
ATOM     10  C   UNL A   1      33.840  23.784  26.355  1.00  0.00     0.060 A 
ATOM     11  C   UNL A   1      33.724  25.145  26.050  1.00  0.00     0.029 A 
ATOM     12  C   UNL A   1      32.709  23.094  26.808  1.00  0.00     0.029 A 
ATOM     13  C   UNL A   1      32.467  25.759  26.033  1.00  0.00     0.018 A 
ATOM     14  C   UNL A   1      31.450  23.692  26.778  1.00  0.00     0.018 A 
BRANCH  10  15
ATOM     15  N   UNL A   1      34.983  23.052  26.010  1.00  0.00    -0.257 N 
ATOM     16  C   UNL A   1      37.094  22.954  25.751  1.00  0.00     0.071 C 
ATOM     17  N   UNL A   1      36.179  23.326  26.592  1.00  0.00    -0.176 NA
ATOM     18  C   UNL A   1      36.605  22.501  24.402  1.00  0.00     0.091 C 
ATOM     19  C   UNL A   1      35.088  22.566  24.620  1.00  0.00     0.144 C 
BRANCH  16  20
ATOM     20  C   UNL A   1      38.530  22.935  26.085  1.00  0.00    -0.002 A 
ATOM     21  C   UNL A   1      41.227  22.983  26.778  1.00  0.00     0.067 A 
ATOM     22  C   UNL A   1      40.483  24.166  26.823  1.00  0.00     0.021 A 
ATOM     23  C   UNL A   1      40.635  21.781  26.375  1.00  0.00     0.021 A 
ATOM     24  C   UNL A   1      39.132  24.140  26.471  1.00  0.00     0.011 A 
ATOM     25  C   UNL A   1      39.277  21.755  26.037  1.00  0.00     0.011 A 
BRANCH  21  26
ATOM     26  S   UNL A   1      42.962  23.040  27.168  1.00  0.00     0.175 S 
ATOM     27  C   UNL A   1      43.028  22.667  28.901  1.00  0.00     0.163 C 
ATOM     28  O   UNL A   1      43.392  24.412  26.980  1.00  0.00    -0.224 OA
ATOM     29  O   UNL A   1      43.607  21.951  26.460  1.00  0.00    -0.224 OA
ENDBRANCH  21  26
ENDBRANCH  16  20
BRANCH  19  30
ATOM     30  C   UNL A   1      34.269  21.289  24.432  1.00  0.00    -0.023 A 
ATOM     31  C   UNL A   1      33.030  21.242  23.776  1.00  0.00     0.009 A 
ATOM     32  C   UNL A   1      34.831  20.065  24.862  1.00  0.00     0.009 A 
ATOM     33  C   UNL A   1      32.396  20.017  23.536  1.00  0.00     0.039 A 
ATOM     34  C   UNL A   1      34.228  18.841  24.571  1.00  0.00     0.039 A 
ATOM     35  C   UNL A   1      33.012  18.830  23.911  1.00  0.00     0.123 A 
ATOM     36  F   UNL A   1      32.427  17.660  23.623  1.00  0.00    -0.207 F 
ENDBRANCH  19  30
ENDBRANCH  10  15
ENDBRANCH   7   9
ENDBRANCH   6   7
ENDBRANCH   5   6
ENDBRANCH   4   5
ENDBRANCH   3   4
ENDBRANCH   2   3
ENDBRANCH   1   2
BRANCH   1  37
ATOM     37  O   UNL A   1      32.787  28.786  23.734  1.00  0.00    -0.377 OA
BRANCH  37  38
ATOM     38  C   UNL A   1      33.217  29.092  25.061  1.00  0.00     0.188 C 
BRANCH  38  39
ATOM     39  C   UNL A   1      32.241  29.459  26.208  1.00  0.00     0.188 C 
BRANCH  39  40
ATOM     40  O   UNL A   1      32.831  30.109  27.320  1.00  0.00    -0.376 OA
BRANCH  40  41
ATOM     41  C   UNL A   1      33.442  31.371  27.124  1.00  0.00     0.202 C 
BRANCH  41  42
ATOM     42  C   UNL A   1      34.258  31.939  28.293  1.00  0.00     0.261 C 
BRANCH  42  43
ATOM     43  O   UNL A   1      35.075  30.996  29.005  1.00  0.00    -0.460 OA
BRANCH  43  44
ATOM     44  C   UNL A   1      36.203  30.578  28.398  1.00  0.00     0.338 C 
ATOM     45  O   UNL A   1      36.316  30.148  27.259  1.00  0.00    -0.246 OA
BRANCH  44  46
ATOM     46  C   UNL A   1      37.336  30.892  29.290  1.00  0.00     0.060 A 
ATOM     47  C   UNL A   1      38.642  30.650  28.846  1.00  0.00     0.016 A 
ATOM     48  C   UNL A   1      37.104  31.428  30.558  1.00  0.00     0.016 A 
ATOM     49  C   UNL A   1      39.722  30.902  29.692  1.00  0.00     0.010 A 
ATOM     50  C   UNL A   1      38.185  31.662  31.411  1.00  0.00     0.010 A 
ATOM     51  C   UNL A   1      39.496  31.362  30.996  1.00  0.00    -0.014 A 
BRANCH  51  52
ATOM     52  C   UNL A   1      40.593  31.323  31.993  1.00  0.00     0.031 A 
ATOM     53  C   UNL A   1      41.339  32.599  32.275  1.00  0.00     0.074 A 
ATOM     54  C   UNL A   1      40.905  30.195  32.655  1.00  0.00     0.049 A 
ATOM     55  N   UNL A   1      42.369  32.807  33.054  1.00  0.00    -0.248 NA
ATOM     56  C   UNL A   1      40.855  33.804  31.580  1.00  0.00     0.031 C 
ATOM     57  C   UNL A   1      40.224  28.909  32.511  1.00  0.00     0.029 A 
ATOM     58  N   UNL A   1      41.886  29.955  33.584  1.00  0.00    -0.354 N 
ATOM     59  C   UNL A   1      42.653  34.163  32.946  1.00  0.00     0.074 A 
ATOM     60  C   UNL A   1      41.718  34.720  31.993  1.00  0.00     0.031 C 
ATOM     61  C   UNL A   1      40.816  28.011  33.319  1.00  0.00     0.029 A 
ATOM     62  C   UNL A   1      41.938  28.648  34.007  1.00  0.00     0.049 A 
ATOM     63  H   UNL A   1      42.497  30.653  33.916  1.00  0.00     0.167 HD
ATOM     64  C   UNL A   1      43.597  34.885  33.593  1.00  0.00     0.037 A 
ATOM     65  C   UNL A   1      42.808  28.039  34.836  1.00  0.00     0.037 A 
ATOM     66  C   UNL A   1      44.535  34.329  34.532  1.00  0.00     0.049 A 
ATOM     67  C   UNL A   1      43.920  28.845  35.461  1.00  0.00     0.074 A 
ATOM     68  C   UNL A   1      45.541  34.973  35.231  1.00  0.00     0.029 A 
ATOM     69  N   UNL A   1      44.580  32.993  34.903  1.00  0.00    -0.354 N 
ATOM     70  N   UNL A   1      44.177  30.127  35.360  1.00  0.00    -0.248 NA
ATOM     71  C   UNL A   1      44.865  28.114  36.320  1.00  0.00     0.031 C 
ATOM     72  C   UNL A   1      46.229  34.018  35.984  1.00  0.00     0.029 A 
ATOM     73  C   UNL A   1      45.610  32.790  35.806  1.00  0.00     0.049 A 
ATOM     74  H   UNL A   1      43.971  32.294  34.572  1.00  0.00     0.167 HD
ATOM     75  C   UNL A   1      45.278  30.363  36.176  1.00  0.00     0.074 A 
ATOM     76  C   UNL A   1      45.635  29.094  36.772  1.00  0.00     0.031 C 
ATOM     77  C   UNL A   1      45.935  31.526  36.413  1.00  0.00     0.037 A 
BRANCH  64  78
ATOM     78  C   UNL A   1      43.673  36.354  33.293  1.00  0.00     0.057 A 
ATOM     79  C   UNL A   1      44.321  36.841  32.149  1.00  0.00     0.134 A 
ATOM     80  C   UNL A   1      43.062  37.290  34.137  1.00  0.00     0.134 A 
ATOM     81  F   UNL A   1      44.941  36.000  31.309  1.00  0.00    -0.206 F 
ATOM     82  C   UNL A   1      44.374  38.207  31.867  1.00  0.00     0.040 A 
ATOM     83  C   UNL A   1      43.084  38.656  33.850  1.00  0.00     0.040 A 
ATOM     84  F   UNL A   1      42.423  36.892  35.247  1.00  0.00    -0.206 F 
ATOM     85  C   UNL A   1      43.746  39.118  32.715  1.00  0.00     0.006 A 
ENDBRANCH  64  78
BRANCH  65  86
ATOM     86  C   UNL A   1      42.689  26.584  35.124  1.00  0.00     0.057 A 
ATOM     87  C   UNL A   1      43.390  25.636  34.367  1.00  0.00     0.134 A 
ATOM     88  C   UNL A   1      41.823  26.103  36.113  1.00  0.00     0.134 A 
ATOM     89  F   UNL A   1      44.216  26.030  33.387  1.00  0.00    -0.206 F 
ATOM     90  C   UNL A   1      43.206  24.265  34.559  1.00  0.00     0.040 A 
ATOM     91  C   UNL A   1      41.655  24.735  36.337  1.00  0.00     0.040 A 
ATOM     92  F   UNL A   1      41.122  26.955  36.873  1.00  0.00    -0.206 F 
ATOM     93  C   UNL A   1      42.338  23.811  35.549  1.00  0.00     0.006 A 
ENDBRANCH  65  86
BRANCH  77  94
ATOM     94  C   UNL A   1      47.062  31.495  37.409  1.00  0.00     0.057 A 
ATOM     95  C   UNL A   1      46.856  31.703  38.778  1.00  0.00     0.134 A 
ATOM     96  C   UNL A   1      48.368  31.213  36.989  1.00  0.00     0.134 A 
ATOM     97  F   UNL A   1      45.631  31.988  39.246  1.00  0.00    -0.206 F 
ATOM     98  C   UNL A   1      47.913  31.664  39.689  1.00  0.00     0.040 A 
ATOM     99  C   UNL A   1      49.428  31.137  37.894  1.00  0.00     0.040 A 
ATOM    100  F   UNL A   1      48.635  30.989  35.693  1.00  0.00    -0.206 F 
ATOM    101  C   UNL A   1      49.202  31.373  39.247  1.00  0.00     0.006 A 
ENDBRANCH  77  94
ENDBRANCH  51  52
ENDBRANCH  44  46
ENDBRANCH  43  44
ENDBRANCH  42  43
ENDBRANCH  41  42
ENDBRANCH  40  41
ENDBRANCH  39  40
ENDBRANCH  38  39
ENDBRANCH  37  38
ENDBRANCH   1  37
TORSDOF 24
ENDMDL
MODEL 2
REMARK VINA RESULT:      -9.5      3.857      7.107
REMARK SMILES CS(=O)(=O)c1ccc(C2=NN(c3ccc(C(=O)OCCOCCOCCOCCOC(=O)c4ccc(-c5c6nc(c(-c7c(F)cccc7F)c7ccc([nH]7)c(-c7c(F)cccc7F)c7nc(c(-c8c(F)cccc8F)c8ccc5[nH]8)C=C7)C=C6)cc4)cc3)[C@H](c3ccc(F)cc3)C2)cc1
REMARK SMILES IDX 23 1 22 2 21 3 20 4 19 5 18 6 16 7 17 8 15 9 12 10 13 11
REMARK SMILES IDX 88 12 14 13 87 14 11 15 9 16 10 17 97 18 89 19 8 20 5 21
REMARK SMILES IDX 6 22 99 23 7 24 98 25 2 26 1 27 3 28 4 29 90 30 91 31 96 32
REMARK SMILES IDX 92 33 95 34 93 35 94 36 24 37 25 38 26 39 27 40 28 41 29 42
REMARK SMILES IDX 30 43 31 44 32 45 33 46 34 47 86 48 35 49 85 50 36 51 37 52
REMARK SMILES IDX 38 53 79 54 39 55 84 56 78 57 80 58 40 59 83 60 77 61 76 62
REMARK SMILES IDX 41 64 67 65 50 66 66 67 51 68 54 69 65 70 81 71 52 72 53 73
REMARK SMILES IDX 64 75 82 76 55 77 42 78 43 79 48 80 44 81 45 82 47 83 49 84
REMARK SMILES IDX 46 85 68 86 69 87 74 88 70 89 71 90 73 91 75 92 72 93 56 94
REMARK SMILES IDX 57 95 62 96 58 97 59 98 61 99 63 100 60 101
REMARK H PARENT 80 63 54 74
REMARK Flexibility Score: inf
ROOT
ATOM      1  C   UNL A   1      33.515  26.472  25.957  1.00  0.00     0.188 C 
ENDROOT
BRANCH   1   2
ATOM      2  C   UNL A   1      32.822  25.131  25.645  1.00  0.00     0.188 C 
BRANCH   2   3
ATOM      3  O   UNL A   1      33.732  24.076  25.389  1.00  0.00    -0.376 OA
BRANCH   3   4
ATOM      4  C   UNL A   1      35.124  24.264  25.554  1.00  0.00     0.202 C 
BRANCH   4   5
ATOM      5  C   UNL A   1      36.155  23.201  25.140  1.00  0.00     0.261 C 
BRANCH   5   6
ATOM      6  O   UNL A   1      37.453  23.299  25.722  1.00  0.00    -0.460 OA
BRANCH   6   7
ATOM      7  C   UNL A   1      38.271  22.232  25.612  1.00  0.00     0.338 C 
ATOM      8  O   UNL A   1      38.218  21.360  24.762  1.00  0.00    -0.246 OA
BRANCH   7   9
ATOM      9  C   UNL A   1      39.362  22.378  26.609  1.00  0.00     0.060 A 
ATOM     10  C   UNL A   1      41.494  22.798  28.379  1.00  0.00     0.060 A 
ATOM     11  C   UNL A   1      40.443  23.720  28.312  1.00  0.00     0.029 A 
ATOM     12  C   UNL A   1      41.382  21.592  27.673  1.00  0.00     0.029 A 
ATOM     13  C   UNL A   1      39.382  23.516  27.424  1.00  0.00     0.018 A 
ATOM     14  C   UNL A   1      40.337  21.389  26.774  1.00  0.00     0.018 A 
BRANCH  10  15
ATOM     15  N   UNL A   1      42.732  23.137  28.938  1.00  0.00    -0.257 N 
ATOM     16  C   UNL A   1      43.875  23.790  30.612  1.00  0.00     0.071 C 
ATOM     17  N   UNL A   1      42.973  22.928  30.258  1.00  0.00    -0.176 NA
ATOM     18  C   UNL A   1      44.258  24.807  29.572  1.00  0.00     0.091 C 
ATOM     19  C   UNL A   1      43.436  24.308  28.378  1.00  0.00     0.144 C 
BRANCH  16  20
ATOM     20  C   UNL A   1      44.525  23.773  31.935  1.00  0.00    -0.002 A 
ATOM     21  C   UNL A   1      45.789  23.837  34.416  1.00  0.00     0.067 A 
ATOM     22  C   UNL A   1      46.300  24.600  33.363  1.00  0.00     0.021 A 
ATOM     23  C   UNL A   1      44.659  23.032  34.234  1.00  0.00     0.021 A 
ATOM     24  C   UNL A   1      45.667  24.563  32.119  1.00  0.00     0.011 A 
ATOM     25  C   UNL A   1      44.018  23.008  32.990  1.00  0.00     0.011 A 
BRANCH  21  26
ATOM     26  S   UNL A   1      46.640  23.844  35.980  1.00  0.00     0.175 S 
ATOM     27  C   UNL A   1      47.218  22.177  36.164  1.00  0.00     0.163 C 
ATOM     28  O   UNL A   1      45.642  24.096  37.001  1.00  0.00    -0.224 OA
ATOM     29  O   UNL A   1      47.802  24.700  35.842  1.00  0.00    -0.224 OA
ENDBRANCH  21  26
ENDBRANCH  16  20
BRANCH  19  30
ATOM     30  C   UNL A   1      44.173  23.930  27.093  1.00  0.00    -0.023 A 
ATOM     31  C   UNL A   1      45.340  23.153  27.057  1.00  0.00     0.009 A 
ATOM     32  C   UNL A   1      43.597  24.306  25.857  1.00  0.00     0.009 A 
ATOM     33  C   UNL A   1      45.890  22.746  25.836  1.00  0.00     0.039 A 
ATOM     34  C   UNL A   1      44.111  23.851  24.643  1.00  0.00     0.039 A 
ATOM     35  C   UNL A   1      45.258  23.076  24.644  1.00  0.00     0.123 A 
ATOM     36  F   UNL A   1      45.756  22.631  23.484  1.00  0.00    -0.207 F 
ENDBRANCH  19  30
ENDBRANCH  10  15
ENDBRANCH   7   9
ENDBRANCH   6   7
ENDBRANCH   5   6
ENDBRANCH   4   5
ENDBRANCH   3   4
ENDBRANCH   2   3
ENDBRANCH   1   2
BRANCH   1  37
ATOM     37  O   UNL A   1      32.851  27.320  26.881  1.00  0.00    -0.377 OA
BRANCH  37  38
ATOM     38  C   UNL A   1      31.829  28.202  26.414  1.00  0.00     0.188 C 
BRANCH  38  39
ATOM     39  C   UNL A   1      32.089  29.341  25.395  1.00  0.00     0.188 C 
BRANCH  39  40
ATOM     40  O   UNL A   1      33.010  30.332  25.817  1.00  0.00    -0.376 OA
BRANCH  40  41
ATOM     41  C   UNL A   1      32.833  30.926  27.090  1.00  0.00     0.202 C 
BRANCH  41  42
ATOM     42  C   UNL A   1      33.361  32.355  27.271  1.00  0.00     0.261 C 
BRANCH  42  43
ATOM     43  O   UNL A   1      32.431  33.304  27.816  1.00  0.00    -0.460 OA
BRANCH  43  44
ATOM     44  C   UNL A   1      32.944  34.418  28.375  1.00  0.00     0.338 C 
ATOM     45  O   UNL A   1      32.452  35.537  28.384  1.00  0.00    -0.246 OA
BRANCH  44  46
ATOM     46  C   UNL A   1      34.141  34.025  29.142  1.00  0.00     0.060 A 
ATOM     47  C   UNL A   1      35.385  34.569  28.795  1.00  0.00     0.016 A 
ATOM     48  C   UNL A   1      34.032  33.123  30.203  1.00  0.00     0.016 A 
ATOM     49  C   UNL A   1      36.533  34.176  29.484  1.00  0.00     0.010 A 
ATOM     50  C   UNL A   1      35.184  32.715  30.878  1.00  0.00     0.010 A 
ATOM     51  C   UNL A   1      36.445  33.210  30.495  1.00  0.00    -0.014 A 
BRANCH  51  52
ATOM     52  C   UNL A   1      37.677  32.558  31.000  1.00  0.00     0.031 A 
ATOM     53  C   UNL A   1      38.152  32.916  32.383  1.00  0.00     0.074 A 
ATOM     54  C   UNL A   1      38.345  31.648  30.268  1.00  0.00     0.049 A 
ATOM     55  N   UNL A   1      39.226  32.528  33.021  1.00  0.00    -0.248 NA
ATOM     56  C   UNL A   1      37.296  33.839  33.147  1.00  0.00     0.031 C 
ATOM     57  C   UNL A   1      37.958  31.177  28.939  1.00  0.00     0.029 A 
ATOM     58  N   UNL A   1      39.499  30.961  30.547  1.00  0.00    -0.354 N 
ATOM     59  C   UNL A   1      39.173  33.156  34.260  1.00  0.00     0.074 A 
ATOM     60  C   UNL A   1      37.987  33.984  34.268  1.00  0.00     0.031 C 
ATOM     61  C   UNL A   1      38.868  30.282  28.514  1.00  0.00     0.029 A 
ATOM     62  C   UNL A   1      39.917  30.145  29.523  1.00  0.00     0.049 A 
ATOM     63  H   UNL A   1      39.984  31.045  31.400  1.00  0.00     0.167 HD
ATOM     64  C   UNL A   1      40.026  33.042  35.304  1.00  0.00     0.037 A 
ATOM     65  C   UNL A   1      41.031  29.396  29.410  1.00  0.00     0.037 A 
ATOM     66  C   UNL A   1      41.211  32.227  35.292  1.00  0.00     0.049 A 
ATOM     67  C   UNL A   1      42.023  29.372  30.548  1.00  0.00     0.074 A 
ATOM     68  C   UNL A   1      42.151  32.056  36.294  1.00  0.00     0.029 A 
ATOM     69  N   UNL A   1      41.621  31.448  34.220  1.00  0.00    -0.354 N 
ATOM     70  N   UNL A   1      41.961  29.961  31.717  1.00  0.00    -0.248 NA
ATOM     71  C   UNL A   1      43.241  28.572  30.347  1.00  0.00     0.031 C 
ATOM     72  C   UNL A   1      43.156  31.213  35.810  1.00  0.00     0.029 A 
ATOM     73  C   UNL A   1      42.809  30.808  34.530  1.00  0.00     0.049 A 
ATOM     74  H   UNL A   1      41.138  31.363  33.366  1.00  0.00     0.167 HD
ATOM     75  C   UNL A   1      43.103  29.567  32.406  1.00  0.00     0.074 A 
ATOM     76  C   UNL A   1      43.835  28.681  31.527  1.00  0.00     0.031 C 
ATOM     77  C   UNL A   1      43.512  29.907  33.654  1.00  0.00     0.037 A 
BRANCH  64  78
ATOM     78  C   UNL A   1      39.715  33.832  36.542  1.00  0.00     0.057 A 
ATOM     79  C   UNL A   1      40.208  35.130  36.732  1.00  0.00     0.134 A 
ATOM     80  C   UNL A   1      38.885  33.304  37.539  1.00  0.00     0.134 A 
ATOM     81  F   UNL A   1      41.022  35.688  35.825  1.00  0.00    -0.206 F 
ATOM     82  C   UNL A   1      39.902  35.866  37.879  1.00  0.00     0.040 A 
ATOM     83  C   UNL A   1      38.548  34.041  38.675  1.00  0.00     0.040 A 
ATOM     84  F   UNL A   1      38.377  32.068  37.420  1.00  0.00    -0.206 F 
ATOM     85  C   UNL A   1      39.062  35.324  38.850  1.00  0.00     0.006 A 
ENDBRANCH  64  78
BRANCH  65  86
ATOM     86  C   UNL A   1      41.296  28.612  28.174  1.00  0.00     0.057 A 
ATOM     87  C   UNL A   1      42.103  29.124  27.150  1.00  0.00     0.134 A 
ATOM     88  C   UNL A   1      40.696  27.366  27.956  1.00  0.00     0.134 A 
ATOM     89  F   UNL A   1      42.687  30.324  27.285  1.00  0.00    -0.206 F 
ATOM     90  C   UNL A   1      42.274  28.443  25.942  1.00  0.00     0.040 A 
ATOM     91  C   UNL A   1      40.884  26.660  26.766  1.00  0.00     0.040 A 
ATOM     92  F   UNL A   1      39.911  26.818  28.894  1.00  0.00    -0.206 F 
ATOM     93  C   UNL A   1      41.665  27.206  25.749  1.00  0.00     0.006 A 
ENDBRANCH  65  86
BRANCH  77  94
ATOM     94  C   UNL A   1      44.769  29.265  34.172  1.00  0.00     0.057 A 
ATOM     95  C   UNL A   1      46.036  29.822  33.959  1.00  0.00     0.134 A 
ATOM     96  C   UNL A   1      44.701  28.088  34.930  1.00  0.00     0.134 A 
ATOM     97  F   UNL A   1      46.173  30.942  33.233  1.00  0.00    -0.206 F 
ATOM     98  C   UNL A   1      47.192  29.215  34.453  1.00  0.00     0.040 A 
ATOM     99  C   UNL A   1      45.846  27.491  35.458  1.00  0.00     0.040 A 
ATOM    100  F   UNL A   1      43.518  27.507  35.184  1.00  0.00    -0.206 F 
ATOM    101  C   UNL A   1      47.097  28.050  35.212  1.00  0.00     0.006 A 
ENDBRANCH  77  94
ENDBRANCH  51  52
ENDBRANCH  44  46
ENDBRANCH  43  44
ENDBRANCH  42  43
ENDBRANCH  41  42
ENDBRANCH  40  41
ENDBRANCH  39  40
ENDBRANCH  38  39
ENDBRANCH  37  38
ENDBRANCH   1  37
TORSDOF 24
ENDMDL
MODEL 3
REMARK VINA RESULT:      -9.5      3.848      7.672
REMARK SMILES CS(=O)(=O)c1ccc(C2=NN(c3ccc(C(=O)OCCOCCOCCOCCOC(=O)c4ccc(-c5c6nc(c(-c7c(F)cccc7F)c7ccc([nH]7)c(-c7c(F)cccc7F)c7nc(c(-c8c(F)cccc8F)c8ccc5[nH]8)C=C7)C=C6)cc4)cc3)[C@H](c3ccc(F)cc3)C2)cc1
REMARK SMILES IDX 23 1 22 2 21 3 20 4 19 5 18 6 16 7 17 8 15 9 12 10 13 11
REMARK SMILES IDX 88 12 14 13 87 14 11 15 9 16 10 17 97 18 89 19 8 20 5 21
REMARK SMILES IDX 6 22 99 23 7 24 98 25 2 26 1 27 3 28 4 29 90 30 91 31 96 32
REMARK SMILES IDX 92 33 95 34 93 35 94 36 24 37 25 38 26 39 27 40 28 41 29 42
REMARK SMILES IDX 30 43 31 44 32 45 33 46 34 47 86 48 35 49 85 50 36 51 37 52
REMARK SMILES IDX 38 53 79 54 39 55 84 56 78 57 80 58 40 59 83 60 77 61 76 62
REMARK SMILES IDX 41 64 67 65 50 66 66 67 51 68 54 69 65 70 81 71 52 72 53 73
REMARK SMILES IDX 64 75 82 76 55 77 42 78 43 79 48 80 44 81 45 82 47 83 49 84
REMARK SMILES IDX 46 85 68 86 69 87 74 88 70 89 71 90 73 91 75 92 72 93 56 94
REMARK SMILES IDX 57 95 62 96 58 97 59 98 61 99 63 100 60 101
REMARK H PARENT 80 63 54 74
REMARK Flexibility Score: inf
ROOT
ATOM      1  C   UNL A   1      33.272  26.099  25.583  1.00  0.00     0.188 C 
ENDROOT
BRANCH   1   2
ATOM      2  C   UNL A   1      32.634  24.751  25.191  1.00  0.00     0.188 C 
BRANCH   2   3
ATOM      3  O   UNL A   1      33.572  23.693  25.105  1.00  0.00    -0.376 OA
BRANCH   3   4
ATOM      4  C   UNL A   1      34.937  23.908  25.403  1.00  0.00     0.202 C 
BRANCH   4   5
ATOM      5  C   UNL A   1      36.000  22.808  25.242  1.00  0.00     0.261 C 
BRANCH   5   6
ATOM      6  O   UNL A   1      37.280  23.059  25.818  1.00  0.00    -0.460 OA
BRANCH   6   7
ATOM      7  C   UNL A   1      38.239  22.126  25.643  1.00  0.00     0.338 C 
ATOM      8  O   UNL A   1      38.295  21.301  24.749  1.00  0.00    -0.246 OA
BRANCH   7   9
ATOM      9  C   UNL A   1      39.315  22.374  26.636  1.00  0.00     0.060 A 
ATOM     10  C   UNL A   1      41.430  22.960  28.379  1.00  0.00     0.060 A 
ATOM     11  C   UNL A   1      40.443  23.919  28.123  1.00  0.00     0.029 A 
ATOM     12  C   UNL A   1      41.256  21.661  27.884  1.00  0.00     0.029 A 
ATOM     13  C   UNL A   1      39.391  23.631  27.248  1.00  0.00     0.018 A 
ATOM     14  C   UNL A   1      40.220  21.370  26.997  1.00  0.00     0.018 A 
BRANCH  10  15
ATOM     15  N   UNL A   1      42.675  23.315  28.913  1.00  0.00    -0.257 N 
ATOM     16  C   UNL A   1      43.841  23.996  30.559  1.00  0.00     0.071 C 
ATOM     17  N   UNL A   1      42.939  23.123  30.231  1.00  0.00    -0.176 NA
ATOM     18  C   UNL A   1      44.200  25.002  29.500  1.00  0.00     0.091 C 
ATOM     19  C   UNL A   1      43.362  24.482  28.326  1.00  0.00     0.144 C 
BRANCH  16  20
ATOM     20  C   UNL A   1      44.513  24.000  31.872  1.00  0.00    -0.002 A 
ATOM     21  C   UNL A   1      45.777  23.904  34.352  1.00  0.00     0.067 A 
ATOM     22  C   UNL A   1      44.914  22.869  33.977  1.00  0.00     0.021 A 
ATOM     23  C   UNL A   1      46.000  24.992  33.501  1.00  0.00     0.021 A 
ATOM     24  C   UNL A   1      44.279  22.922  32.735  1.00  0.00     0.011 A 
ATOM     25  C   UNL A   1      45.374  25.035  32.250  1.00  0.00     0.011 A 
BRANCH  21  26
ATOM     26  S   UNL A   1      46.533  23.857  35.962  1.00  0.00     0.175 S 
ATOM     27  C   UNL A   1      47.945  24.919  35.808  1.00  0.00     0.163 C 
ATOM     28  O   UNL A   1      47.002  22.501  36.168  1.00  0.00    -0.224 OA
ATOM     29  O   UNL A   1      45.615  24.481  36.895  1.00  0.00    -0.224 OA
ENDBRANCH  21  26
ENDBRANCH  16  20
BRANCH  19  30
ATOM     30  C   UNL A   1      44.079  24.092  27.034  1.00  0.00    -0.023 A 
ATOM     31  C   UNL A   1      45.226  23.286  26.986  1.00  0.00     0.009 A 
ATOM     32  C   UNL A   1      43.505  24.490  25.805  1.00  0.00     0.009 A 
ATOM     33  C   UNL A   1      45.757  22.872  25.759  1.00  0.00     0.039 A 
ATOM     34  C   UNL A   1      43.999  24.030  24.584  1.00  0.00     0.039 A 
ATOM     35  C   UNL A   1      45.125  23.225  24.573  1.00  0.00     0.123 A 
ATOM     36  F   UNL A   1      45.604  22.774  23.407  1.00  0.00    -0.207 F 
ENDBRANCH  19  30
ENDBRANCH  10  15
ENDBRANCH   7   9
ENDBRANCH   6   7
ENDBRANCH   5   6
ENDBRANCH   4   5
ENDBRANCH   3   4
ENDBRANCH   2   3
ENDBRANCH   1   2
BRANCH   1  37
ATOM     37  O   UNL A   1      32.473  26.960  26.381  1.00  0.00    -0.377 OA
BRANCH  37  38
ATOM     38  C   UNL A   1      31.795  28.057  25.766  1.00  0.00     0.188 C 
BRANCH  38  39
ATOM     39  C   UNL A   1      32.529  29.195  25.011  1.00  0.00     0.188 C 
BRANCH  39  40
ATOM     40  O   UNL A   1      33.469  29.924  25.780  1.00  0.00    -0.376 OA
BRANCH  40  41
ATOM     41  C   UNL A   1      33.090  30.374  27.068  1.00  0.00     0.202 C 
BRANCH  41  42
ATOM     42  C   UNL A   1      33.670  31.715  27.535  1.00  0.00     0.261 C 
BRANCH  42  43
ATOM     43  O   UNL A   1      32.716  32.690  27.984  1.00  0.00    -0.460 OA
BRANCH  43  44
ATOM     44  C   UNL A   1      33.191  33.900  28.339  1.00  0.00     0.338 C 
ATOM     45  O   UNL A   1      32.698  34.991  28.095  1.00  0.00    -0.246 OA
BRANCH  44  46
ATOM     46  C   UNL A   1      34.340  33.684  29.239  1.00  0.00     0.060 A 
ATOM     47  C   UNL A   1      35.579  34.253  28.915  1.00  0.00     0.016 A 
ATOM     48  C   UNL A   1      34.190  32.924  30.401  1.00  0.00     0.016 A 
ATOM     49  C   UNL A   1      36.685  34.024  29.734  1.00  0.00     0.010 A 
ATOM     50  C   UNL A   1      35.302  32.679  31.209  1.00  0.00     0.010 A 
ATOM     51  C   UNL A   1      36.564  33.196  30.857  1.00  0.00    -0.014 A 
BRANCH  51  52
ATOM     52  C   UNL A   1      37.782  32.691  31.535  1.00  0.00     0.031 A 
ATOM     53  C   UNL A   1      38.666  31.733  30.782  1.00  0.00     0.074 A 
ATOM     54  C   UNL A   1      38.117  33.090  32.774  1.00  0.00     0.049 A 
ATOM     55  N   UNL A   1      39.746  31.111  31.176  1.00  0.00    -0.248 NA
ATOM     56  C   UNL A   1      38.274  31.439  29.393  1.00  0.00     0.031 C 
ATOM     57  C   UNL A   1      37.375  34.053  33.587  1.00  0.00     0.029 A 
ATOM     58  N   UNL A   1      39.176  32.726  33.568  1.00  0.00    -0.354 N 
ATOM     59  C   UNL A   1      40.163  30.356  30.087  1.00  0.00     0.074 A 
ATOM     60  C   UNL A   1      39.197  30.562  29.030  1.00  0.00     0.031 C 
ATOM     61  C   UNL A   1      37.999  34.196  34.770  1.00  0.00     0.029 A 
ATOM     62  C   UNL A   1      39.161  33.309  34.812  1.00  0.00     0.049 A 
ATOM     63  H   UNL A   1      39.881  32.103  33.273  1.00  0.00     0.167 HD
ATOM     64  C   UNL A   1      41.261  29.573  29.968  1.00  0.00     0.037 A 
ATOM     65  C   UNL A   1      39.980  33.126  35.866  1.00  0.00     0.037 A 
ATOM     66  C   UNL A   1      42.216  29.360  31.023  1.00  0.00     0.049 A 
ATOM     67  C   UNL A   1      41.135  32.163  35.744  1.00  0.00     0.074 A 
ATOM     68  C   UNL A   1      43.354  28.572  31.009  1.00  0.00     0.029 A 
ATOM     69  N   UNL A   1      42.142  29.937  32.282  1.00  0.00    -0.354 N 
ATOM     70  N   UNL A   1      41.527  31.460  34.709  1.00  0.00    -0.248 NA
ATOM     71  C   UNL A   1      41.966  31.971  36.943  1.00  0.00     0.031 C 
ATOM     72  C   UNL A   1      43.941  28.632  32.277  1.00  0.00     0.029 A 
ATOM     73  C   UNL A   1      43.205  29.508  33.060  1.00  0.00     0.049 A 
ATOM     74  H   UNL A   1      41.438  30.558  32.578  1.00  0.00     0.167 HD
ATOM     75  C   UNL A   1      42.671  30.783  35.116  1.00  0.00     0.074 A 
ATOM     76  C   UNL A   1      42.916  31.166  36.489  1.00  0.00     0.031 C 
ATOM     77  C   UNL A   1      43.451  29.920  34.417  1.00  0.00     0.037 A 
BRANCH  64  78
ATOM     78  C   UNL A   1      41.478  28.876  28.657  1.00  0.00     0.057 A 
ATOM     79  C   UNL A   1      40.832  27.672  28.346  1.00  0.00     0.134 A 
ATOM     80  C   UNL A   1      42.312  29.432  27.679  1.00  0.00     0.134 A 
ATOM     81  F   UNL A   1      40.033  27.076  29.244  1.00  0.00    -0.206 F 
ATOM     82  C   UNL A   1      41.025  27.036  27.118  1.00  0.00     0.040 A 
ATOM     83  C   UNL A   1      42.489  28.822  26.437  1.00  0.00     0.040 A 
ATOM     84  F   UNL A   1      42.958  30.585  27.910  1.00  0.00    -0.206 F 
ATOM     85  C   UNL A   1      41.849  27.617  26.156  1.00  0.00     0.006 A 
ENDBRANCH  64  78
BRANCH  65  86
ATOM     86  C   UNL A   1      39.744  33.849  37.144  1.00  0.00     0.057 A 
ATOM     87  C   UNL A   1      40.372  35.072  37.412  1.00  0.00     0.134 A 
ATOM     88  C   UNL A   1      38.944  33.304  38.156  1.00  0.00     0.134 A 
ATOM     89  F   UNL A   1      41.173  35.635  36.496  1.00  0.00    -0.206 F 
ATOM     90  C   UNL A   1      40.241  35.708  38.649  1.00  0.00     0.040 A 
ATOM     91  C   UNL A   1      38.778  33.945  39.385  1.00  0.00     0.040 A 
ATOM     92  F   UNL A   1      38.315  32.135  37.967  1.00  0.00    -0.206 F 
ATOM     93  C   UNL A   1      39.440  35.145  39.639  1.00  0.00     0.006 A 
ENDBRANCH  65  86
BRANCH  77  94
ATOM     94  C   UNL A   1      44.681  29.388  35.099  1.00  0.00     0.057 A 
ATOM     95  C   UNL A   1      45.932  30.004  34.974  1.00  0.00     0.134 A 
ATOM     96  C   UNL A   1      44.597  28.261  35.927  1.00  0.00     0.134 A 
ATOM     97  F   UNL A   1      46.084  31.082  34.189  1.00  0.00    -0.206 F 
ATOM     98  C   UNL A   1      47.062  29.499  35.621  1.00  0.00     0.040 A 
ATOM     99  C   UNL A   1      45.711  27.767  36.606  1.00  0.00     0.040 A 
ATOM    100  F   UNL A   1      43.426  27.629  36.104  1.00  0.00    -0.206 F 
ATOM    101  C   UNL A   1      46.950  28.381  36.446  1.00  0.00     0.006 A 
ENDBRANCH  77  94
ENDBRANCH  51  52
ENDBRANCH  44  46
ENDBRANCH  43  44
ENDBRANCH  42  43
ENDBRANCH  41  42
ENDBRANCH  40  41
ENDBRANCH  39  40
ENDBRANCH  38  39
ENDBRANCH  37  38
ENDBRANCH   1  37
TORSDOF 24
ENDMDL
