MODEL 1
REMARK VINA RESULT:      -9.4      0.000      0.000
REMARK SMILES O=C(OCCOCCOCCOCCOC(=O)[C@H]1CCC[C@@H]1C[NH2+][C@@H]1CCOC2(CCC2)C1)c1ccc(-c2c3nc(c(-c4c(F)cccc4F)c4ccc([nH]4)c(-c4c(F)cccc4F)c4nc(c(-c5c(F)cccc5F)c5ccc2[nH]5)C=C4)C=C3)cc1
REMARK SMILES IDX 10 1 9 2 8 3 7 4 6 5 5 6 4 7 3 8 2 9 1 10 34 11 35 12 87 13
REMARK SMILES IDX 36 14 86 15 37 16 38 17 39 18 80 19 40 20 85 21 79 22 81 23
REMARK SMILES IDX 41 24 84 25 78 26 77 27 42 29 68 30 51 31 67 32 52 33 55 34
REMARK SMILES IDX 66 35 82 36 53 37 54 38 65 40 83 41 56 42 43 43 44 44 49 45
REMARK SMILES IDX 45 46 46 47 48 48 50 49 47 50 69 51 70 52 75 53 71 54 72 55
REMARK SMILES IDX 74 56 76 57 73 58 57 59 58 60 63 61 59 62 60 63 62 64 64 65
REMARK SMILES IDX 61 66 11 67 12 68 13 69 14 70 15 71 16 72 17 73 18 74 19 75
REMARK SMILES IDX 22 76 20 77 21 78 23 79 24 80 25 83 26 84 33 85 27 86 29 87
REMARK SMILES IDX 28 88 30 89 32 90 31 91
REMARK H PARENT 81 28 55 39 24 81 24 82
REMARK Flexibility Score: inf
ROOT
ATOM      1  C   UNL A   1      35.028  23.136  26.579  1.00  0.00     0.188 C 
ENDROOT
BRANCH   1   2
ATOM      2  O   UNL A   1      36.399  23.388  26.320  1.00  0.00    -0.377 OA
BRANCH   2   3
ATOM      3  C   UNL A   1      36.735  23.774  24.995  1.00  0.00     0.188 C 
BRANCH   3   4
ATOM      4  C   UNL A   1      37.153  22.587  24.141  1.00  0.00     0.188 C 
BRANCH   4   5
ATOM      5  O   UNL A   1      37.913  21.708  24.974  1.00  0.00    -0.376 OA
BRANCH   5   6
ATOM      6  C   UNL A   1      37.478  20.353  24.972  1.00  0.00     0.202 C 
BRANCH   6   7
ATOM      7  C   UNL A   1      38.636  19.358  24.883  1.00  0.00     0.261 C 
BRANCH   7   8
ATOM      8  O   UNL A   1      39.471  19.378  26.054  1.00  0.00    -0.460 OA
BRANCH   8   9
ATOM      9  C   UNL A   1      40.788  19.678  26.144  1.00  0.00     0.338 C 
ATOM     10  O   UNL A   1      41.601  18.821  25.772  1.00  0.00    -0.246 OA
BRANCH   9  11
ATOM     11  C   UNL A   1      41.345  20.974  26.650  1.00  0.00     0.060 A 
ATOM     12  C   UNL A   1      41.477  21.337  27.991  1.00  0.00     0.016 A 
ATOM     13  C   UNL A   1      41.831  21.879  25.686  1.00  0.00     0.016 A 
ATOM     14  C   UNL A   1      42.023  22.553  28.374  1.00  0.00     0.010 A 
ATOM     15  C   UNL A   1      42.382  23.110  26.057  1.00  0.00     0.010 A 
ATOM     16  C   UNL A   1      42.453  23.455  27.409  1.00  0.00    -0.014 A 
BRANCH  16  17
ATOM     17  C   UNL A   1      42.761  24.821  27.859  1.00  0.00     0.031 A 
ATOM     18  C   UNL A   1      44.202  25.233  27.870  1.00  0.00     0.074 A 
ATOM     19  C   UNL A   1      41.770  25.702  28.072  1.00  0.00     0.049 A 
ATOM     20  N   UNL A   1      44.743  26.349  28.270  1.00  0.00    -0.248 NA
ATOM     21  C   UNL A   1      45.165  24.257  27.326  1.00  0.00     0.031 C 
ATOM     22  C   UNL A   1      40.341  25.424  27.908  1.00  0.00     0.029 A 
ATOM     23  N   UNL A   1      41.814  27.021  28.434  1.00  0.00    -0.354 N 
ATOM     24  C   UNL A   1      46.108  26.194  28.067  1.00  0.00     0.074 A 
ATOM     25  C   UNL A   1      46.317  24.886  27.490  1.00  0.00     0.031 C 
ATOM     26  C   UNL A   1      39.645  26.543  28.163  1.00  0.00     0.029 A 
ATOM     27  C   UNL A   1      40.572  27.592  28.575  1.00  0.00     0.049 A 
ATOM     28  H   UNL A   1      42.654  27.513  28.580  1.00  0.00     0.167 HD
ATOM     29  C   UNL A   1      47.095  27.069  28.359  1.00  0.00     0.037 A 
ATOM     30  C   UNL A   1      40.238  28.812  29.036  1.00  0.00     0.037 A 
ATOM     31  C   UNL A   1      46.847  28.364  28.927  1.00  0.00     0.049 A 
ATOM     32  C   UNL A   1      41.358  29.727  29.460  1.00  0.00     0.074 A 
ATOM     33  C   UNL A   1      47.752  29.315  29.353  1.00  0.00     0.029 A 
ATOM     34  N   UNL A   1      45.577  28.884  29.141  1.00  0.00    -0.354 N 
ATOM     35  N   UNL A   1      42.655  29.544  29.366  1.00  0.00    -0.248 NA
ATOM     36  C   UNL A   1      40.975  31.002  30.077  1.00  0.00     0.031 C 
ATOM     37  C   UNL A   1      47.027  30.398  29.862  1.00  0.00     0.029 A 
ATOM     38  C   UNL A   1      45.673  30.138  29.713  1.00  0.00     0.049 A 
ATOM     39  H   UNL A   1      44.734  28.427  28.920  1.00  0.00     0.167 HD
ATOM     40  C   UNL A   1      43.243  30.680  29.902  1.00  0.00     0.074 A 
ATOM     41  C   UNL A   1      42.157  31.558  30.296  1.00  0.00     0.031 C 
ATOM     42  C   UNL A   1      44.556  30.975  30.072  1.00  0.00     0.037 A 
BRANCH  29  43
ATOM     43  C   UNL A   1      48.503  26.602  28.151  1.00  0.00     0.057 A 
ATOM     44  C   UNL A   1      49.206  26.840  26.964  1.00  0.00     0.134 A 
ATOM     45  C   UNL A   1      49.150  25.860  29.148  1.00  0.00     0.134 A 
ATOM     46  F   UNL A   1      48.630  27.511  25.955  1.00  0.00    -0.206 F 
ATOM     47  C   UNL A   1      50.497  26.341  26.769  1.00  0.00     0.040 A 
ATOM     48  C   UNL A   1      50.445  25.371  28.972  1.00  0.00     0.040 A 
ATOM     49  F   UNL A   1      48.526  25.584  30.303  1.00  0.00    -0.206 F 
ATOM     50  C   UNL A   1      51.120  25.606  27.776  1.00  0.00     0.006 A 
ENDBRANCH  29  43
BRANCH  30  51
ATOM     51  C   UNL A   1      38.813  29.201  29.206  1.00  0.00     0.057 A 
ATOM     52  C   UNL A   1      38.154  29.065  30.432  1.00  0.00     0.134 A 
ATOM     53  C   UNL A   1      38.058  29.682  28.126  1.00  0.00     0.134 A 
ATOM     54  F   UNL A   1      38.808  28.587  31.502  1.00  0.00    -0.206 F 
ATOM     55  C   UNL A   1      36.798  29.372  30.575  1.00  0.00     0.040 A 
ATOM     56  C   UNL A   1      36.711  30.021  28.261  1.00  0.00     0.040 A 
ATOM     57  F   UNL A   1      38.621  29.831  26.918  1.00  0.00    -0.206 F 
ATOM     58  C   UNL A   1      36.073  29.856  29.488  1.00  0.00     0.006 A 
ENDBRANCH  30  51
BRANCH  42  59
ATOM     59  C   UNL A   1      44.872  32.304  30.680  1.00  0.00     0.057 A 
ATOM     60  C   UNL A   1      45.053  33.446  29.891  1.00  0.00     0.134 A 
ATOM     61  C   UNL A   1      44.938  32.451  32.070  1.00  0.00     0.134 A 
ATOM     62  F   UNL A   1      45.013  33.362  28.553  1.00  0.00    -0.206 F 
ATOM     63  C   UNL A   1      45.306  34.690  30.467  1.00  0.00     0.040 A 
ATOM     64  C   UNL A   1      45.165  33.693  32.658  1.00  0.00     0.040 A 
ATOM     65  F   UNL A   1      44.762  31.392  32.876  1.00  0.00    -0.206 F 
ATOM     66  C   UNL A   1      45.354  34.817  31.854  1.00  0.00     0.006 A 
ENDBRANCH  42  59
ENDBRANCH  16  17
ENDBRANCH   9  11
ENDBRANCH   8   9
ENDBRANCH   7   8
ENDBRANCH   6   7
ENDBRANCH   5   6
ENDBRANCH   4   5
ENDBRANCH   3   4
ENDBRANCH   2   3
ENDBRANCH   1   2
BRANCH   1  67
ATOM     67  C   UNL A   1      34.430  21.743  26.351  1.00  0.00     0.188 C 
BRANCH  67  68
ATOM     68  O   UNL A   1      34.121  21.276  25.044  1.00  0.00    -0.376 OA
BRANCH  68  69
ATOM     69  C   UNL A   1      32.865  20.674  24.794  1.00  0.00     0.202 C 
BRANCH  69  70
ATOM     70  C   UNL A   1      31.628  21.457  25.270  1.00  0.00     0.261 C 
BRANCH  70  71
ATOM     71  O   UNL A   1      31.330  22.702  24.594  1.00  0.00    -0.463 OA
BRANCH  71  72
ATOM     72  C   UNL A   1      31.525  23.827  25.328  1.00  0.00     0.309 C 
ATOM     73  O   UNL A   1      31.504  23.831  26.569  1.00  0.00    -0.252 OA
BRANCH  72  74
ATOM     74  C   UNL A   1      31.709  25.104  24.479  1.00  0.00     0.108 C 
ATOM     75  C   UNL A   1      33.228  25.351  24.421  1.00  0.00     0.016 C 
ATOM     76  C   UNL A   1      31.352  25.079  22.956  1.00  0.00     0.058 C 
ATOM     77  C   UNL A   1      33.711  24.481  23.257  1.00  0.00     0.001 C 
ATOM     78  C   UNL A   1      32.496  24.239  22.367  1.00  0.00     0.010 C 
BRANCH  76  79
ATOM     79  C   UNL A   1      31.196  26.507  22.344  1.00  0.00     0.265 C 
BRANCH  79  80
ATOM     80  N   UNL A   1      30.583  27.496  23.248  1.00  0.00    -0.343 N 
ATOM     81  H   UNL A   1      30.789  27.218  24.207  1.00  0.00     0.346 HD
ATOM     82  H   UNL A   1      29.586  27.499  23.030  1.00  0.00     0.346 HD
BRANCH  80  83
ATOM     83  C   UNL A   1      31.048  28.888  23.066  1.00  0.00     0.187 C 
ATOM     84  C   UNL A   1      32.528  28.918  22.612  1.00  0.00     0.093 C 
ATOM     85  C   UNL A   1      30.903  29.789  24.303  1.00  0.00     0.100 C 
ATOM     86  C   UNL A   1      33.524  28.689  23.750  1.00  0.00     0.167 C 
ATOM     87  C   UNL A   1      31.893  29.387  25.400  1.00  0.00     0.074 C 
ATOM     88  O   UNL A   1      33.233  29.533  24.867  1.00  0.00    -0.375 OA
ATOM     89  C   UNL A   1      31.587  30.143  26.724  1.00  0.00     0.036 C 
ATOM     90  C   UNL A   1      31.677  28.072  26.202  1.00  0.00     0.036 C 
ATOM     91  C   UNL A   1      31.848  28.848  27.505  1.00  0.00     0.006 C 
ENDBRANCH  80  83
ENDBRANCH  79  80
ENDBRANCH  76  79
ENDBRANCH  72  74
ENDBRANCH  71  72
ENDBRANCH  70  71
ENDBRANCH  69  70
ENDBRANCH  68  69
ENDBRANCH  67  68
ENDBRANCH   1  67
TORSDOF 23
ENDMDL
MODEL 2
REMARK VINA RESULT:      -9.4      4.039      7.797
REMARK SMILES O=C(OCCOCCOCCOCCOC(=O)[C@H]1CCC[C@@H]1C[NH2+][C@@H]1CCOC2(CCC2)C1)c1ccc(-c2c3nc(c(-c4c(F)cccc4F)c4ccc([nH]4)c(-c4c(F)cccc4F)c4nc(c(-c5c(F)cccc5F)c5ccc2[nH]5)C=C4)C=C3)cc1
REMARK SMILES IDX 10 1 9 2 8 3 7 4 6 5 5 6 4 7 3 8 2 9 1 10 34 11 35 12 87 13
REMARK SMILES IDX 36 14 86 15 37 16 38 17 39 18 80 19 40 20 85 21 79 22 81 23
REMARK SMILES IDX 41 24 84 25 78 26 77 27 42 29 68 30 51 31 67 32 52 33 55 34
REMARK SMILES IDX 66 35 82 36 53 37 54 38 65 40 83 41 56 42 43 43 44 44 49 45
REMARK SMILES IDX 45 46 46 47 48 48 50 49 47 50 69 51 70 52 75 53 71 54 72 55
REMARK SMILES IDX 74 56 76 57 73 58 57 59 58 60 63 61 59 62 60 63 62 64 64 65
REMARK SMILES IDX 61 66 11 67 12 68 13 69 14 70 15 71 16 72 17 73 18 74 19 75
REMARK SMILES IDX 22 76 20 77 21 78 23 79 24 80 25 83 26 84 33 85 27 86 29 87
REMARK SMILES IDX 28 88 30 89 32 90 31 91
REMARK H PARENT 81 28 55 39 24 81 24 82
REMARK Flexibility Score: inf
ROOT
ATOM      1  C   UNL A   1      35.348  21.904  25.528  1.00  0.00     0.188 C 
ENDROOT
BRANCH   1   2
ATOM      2  O   UNL A   1      36.723  21.746  25.841  1.00  0.00    -0.377 OA
BRANCH   2   3
ATOM      3  C   UNL A   1      37.430  22.922  26.208  1.00  0.00     0.188 C 
BRANCH   3   4
ATOM      4  C   UNL A   1      38.901  22.847  25.829  1.00  0.00     0.188 C 
BRANCH   4   5
ATOM      5  O   UNL A   1      39.601  22.287  26.944  1.00  0.00    -0.376 OA
BRANCH   5   6
ATOM      6  C   UNL A   1      40.668  21.409  26.604  1.00  0.00     0.202 C 
BRANCH   6   7
ATOM      7  C   UNL A   1      41.896  22.147  26.068  1.00  0.00     0.261 C 
BRANCH   7   8
ATOM      8  O   UNL A   1      42.244  23.290  26.867  1.00  0.00    -0.460 OA
BRANCH   8   9
ATOM      9  C   UNL A   1      42.180  24.601  26.534  1.00  0.00     0.338 C 
ATOM     10  O   UNL A   1      42.388  24.907  25.352  1.00  0.00    -0.246 OA
BRANCH   9  11
ATOM     11  C   UNL A   1      41.865  25.719  27.482  1.00  0.00     0.060 A 
ATOM     12  C   UNL A   1      42.588  26.906  27.613  1.00  0.00     0.016 A 
ATOM     13  C   UNL A   1      40.705  25.580  28.268  1.00  0.00     0.016 A 
ATOM     14  C   UNL A   1      42.215  27.899  28.506  1.00  0.00     0.010 A 
ATOM     15  C   UNL A   1      40.318  26.572  29.175  1.00  0.00     0.010 A 
ATOM     16  C   UNL A   1      41.095  27.726  29.309  1.00  0.00    -0.014 A 
BRANCH  16  17
ATOM     17  C   UNL A   1      40.911  28.676  30.416  1.00  0.00     0.031 A 
ATOM     18  C   UNL A   1      39.782  29.654  30.303  1.00  0.00     0.074 A 
ATOM     19  C   UNL A   1      41.618  28.538  31.550  1.00  0.00     0.049 A 
ATOM     20  N   UNL A   1      39.440  30.624  31.103  1.00  0.00    -0.248 NA
ATOM     21  C   UNL A   1      38.897  29.499  29.132  1.00  0.00     0.031 C 
ATOM     22  C   UNL A   1      42.614  27.494  31.803  1.00  0.00     0.029 A 
ATOM     23  N   UNL A   1      41.580  29.254  32.716  1.00  0.00    -0.354 N 
ATOM     24  C   UNL A   1      38.331  31.218  30.515  1.00  0.00     0.074 A 
ATOM     25  C   UNL A   1      38.040  30.492  29.301  1.00  0.00     0.031 C 
ATOM     26  C   UNL A   1      43.088  27.635  33.052  1.00  0.00     0.029 A 
ATOM     27  C   UNL A   1      42.482  28.817  33.656  1.00  0.00     0.049 A 
ATOM     28  H   UNL A   1      40.967  30.009  32.866  1.00  0.00     0.167 HD
ATOM     29  C   UNL A   1      37.634  32.290  30.952  1.00  0.00     0.037 A 
ATOM     30  C   UNL A   1      42.804  29.355  34.847  1.00  0.00     0.037 A 
ATOM     31  C   UNL A   1      37.949  32.982  32.170  1.00  0.00     0.049 A 
ATOM     32  C   UNL A   1      42.088  30.615  35.259  1.00  0.00     0.074 A 
ATOM     33  C   UNL A   1      37.386  34.130  32.690  1.00  0.00     0.029 A 
ATOM     34  N   UNL A   1      38.929  32.568  33.064  1.00  0.00    -0.354 N 
ATOM     35  N   UNL A   1      41.106  31.242  34.654  1.00  0.00    -0.248 NA
ATOM     36  C   UNL A   1      42.540  31.259  36.498  1.00  0.00     0.031 C 
ATOM     37  C   UNL A   1      38.053  34.433  33.882  1.00  0.00     0.029 A 
ATOM     38  C   UNL A   1      39.001  33.449  34.125  1.00  0.00     0.049 A 
ATOM     39  H   UNL A   1      39.489  31.765  32.957  1.00  0.00     0.167 HD
ATOM     40  C   UNL A   1      40.814  32.347  35.441  1.00  0.00     0.074 A 
ATOM     41  C   UNL A   1      41.710  32.288  36.581  1.00  0.00     0.031 C 
ATOM     42  C   UNL A   1      39.904  33.333  35.242  1.00  0.00     0.037 A 
BRANCH  29  43
ATOM     43  C   UNL A   1      36.548  32.807  30.061  1.00  0.00     0.057 A 
ATOM     44  C   UNL A   1      36.808  33.636  28.962  1.00  0.00     0.134 A 
ATOM     45  C   UNL A   1      35.209  32.501  30.337  1.00  0.00     0.134 A 
ATOM     46  F   UNL A   1      38.065  33.997  28.666  1.00  0.00    -0.206 F 
ATOM     47  C   UNL A   1      35.772  34.157  28.182  1.00  0.00     0.040 A 
ATOM     48  C   UNL A   1      34.167  33.001  29.554  1.00  0.00     0.040 A 
ATOM     49  F   UNL A   1      34.891  31.725  31.384  1.00  0.00    -0.206 F 
ATOM     50  C   UNL A   1      34.448  33.837  28.476  1.00  0.00     0.006 A 
ENDBRANCH  29  43
BRANCH  30  51
ATOM     51  C   UNL A   1      43.893  28.775  35.677  1.00  0.00     0.057 A 
ATOM     52  C   UNL A   1      43.635  27.828  36.674  1.00  0.00     0.134 A 
ATOM     53  C   UNL A   1      45.224  29.191  35.522  1.00  0.00     0.134 A 
ATOM     54  F   UNL A   1      42.381  27.405  36.895  1.00  0.00    -0.206 F 
ATOM     55  C   UNL A   1      44.651  27.331  37.495  1.00  0.00     0.040 A 
ATOM     56  C   UNL A   1      46.253  28.680  36.315  1.00  0.00     0.040 A 
ATOM     57  F   UNL A   1      45.546  30.102  34.591  1.00  0.00    -0.206 F 
ATOM     58  C   UNL A   1      45.966  27.754  37.314  1.00  0.00     0.006 A 
ENDBRANCH  30  51
BRANCH  42  59
ATOM     59  C   UNL A   1      39.824  34.395  36.292  1.00  0.00     0.057 A 
ATOM     60  C   UNL A   1      39.064  34.220  37.454  1.00  0.00     0.134 A 
ATOM     61  C   UNL A   1      40.562  35.577  36.163  1.00  0.00     0.134 A 
ATOM     62  F   UNL A   1      38.327  33.111  37.625  1.00  0.00    -0.206 F 
ATOM     63  C   UNL A   1      39.028  35.196  38.448  1.00  0.00     0.040 A 
ATOM     64  C   UNL A   1      40.553  36.549  37.161  1.00  0.00     0.040 A 
ATOM     65  F   UNL A   1      41.316  35.794  35.075  1.00  0.00    -0.206 F 
ATOM     66  C   UNL A   1      39.780  36.360  38.307  1.00  0.00     0.006 A 
ENDBRANCH  42  59
ENDBRANCH  16  17
ENDBRANCH   9  11
ENDBRANCH   8   9
ENDBRANCH   7   8
ENDBRANCH   6   7
ENDBRANCH   5   6
ENDBRANCH   4   5
ENDBRANCH   3   4
ENDBRANCH   2   3
ENDBRANCH   1   2
BRANCH   1  67
ATOM     67  C   UNL A   1      34.602  20.837  24.719  1.00  0.00     0.188 C 
BRANCH  67  68
ATOM     68  O   UNL A   1      33.354  21.119  24.098  1.00  0.00    -0.376 OA
BRANCH  68  69
ATOM     69  C   UNL A   1      32.152  20.929  24.822  1.00  0.00     0.202 C 
BRANCH  69  70
ATOM     70  C   UNL A   1      31.673  22.122  25.669  1.00  0.00     0.261 C 
BRANCH  70  71
ATOM     71  O   UNL A   1      31.224  23.301  24.960  1.00  0.00    -0.463 OA
BRANCH  71  72
ATOM     72  C   UNL A   1      31.388  24.477  25.620  1.00  0.00     0.309 C 
ATOM     73  O   UNL A   1      31.068  24.629  26.809  1.00  0.00    -0.252 OA
BRANCH  72  74
ATOM     74  C   UNL A   1      31.945  25.616  24.739  1.00  0.00     0.108 C 
ATOM     75  C   UNL A   1      33.036  26.301  25.581  1.00  0.00     0.016 C 
ATOM     76  C   UNL A   1      32.744  25.270  23.439  1.00  0.00     0.058 C 
ATOM     77  C   UNL A   1      34.293  25.462  25.330  1.00  0.00     0.001 C 
ATOM     78  C   UNL A   1      34.072  24.741  24.004  1.00  0.00     0.010 C 
BRANCH  76  79
ATOM     79  C   UNL A   1      32.876  26.482  22.464  1.00  0.00     0.265 C 
BRANCH  79  80
ATOM     80  N   UNL A   1      31.648  27.282  22.313  1.00  0.00    -0.343 N 
ATOM     81  H   UNL A   1      31.023  27.051  23.086  1.00  0.00     0.346 HD
ATOM     82  H   UNL A   1      31.267  27.046  21.396  1.00  0.00     0.346 HD
BRANCH  80  83
ATOM     83  C   UNL A   1      31.847  28.747  22.311  1.00  0.00     0.187 C 
ATOM     84  C   UNL A   1      32.292  29.243  23.709  1.00  0.00     0.093 C 
ATOM     85  C   UNL A   1      30.626  29.570  21.872  1.00  0.00     0.100 C 
ATOM     86  C   UNL A   1      31.144  29.359  24.713  1.00  0.00     0.167 C 
ATOM     87  C   UNL A   1      29.516  29.520  22.925  1.00  0.00     0.074 C 
ATOM     88  O   UNL A   1      30.042  30.080  24.154  1.00  0.00    -0.375 OA
ATOM     89  C   UNL A   1      28.206  30.154  22.378  1.00  0.00     0.036 C 
ATOM     90  C   UNL A   1      28.695  28.214  23.132  1.00  0.00     0.036 C 
ATOM     91  C   UNL A   1      27.404  29.020  23.030  1.00  0.00     0.006 C 
ENDBRANCH  80  83
ENDBRANCH  79  80
ENDBRANCH  76  79
ENDBRANCH  72  74
ENDBRANCH  71  72
ENDBRANCH  70  71
ENDBRANCH  69  70
ENDBRANCH  68  69
ENDBRANCH  67  68
ENDBRANCH   1  67
TORSDOF 23
ENDMDL
MODEL 3
REMARK VINA RESULT:      -9.3      4.999     10.076
REMARK SMILES O=C(OCCOCCOCCOCCOC(=O)[C@H]1CCC[C@@H]1C[NH2+][C@@H]1CCOC2(CCC2)C1)c1ccc(-c2c3nc(c(-c4c(F)cccc4F)c4ccc([nH]4)c(-c4c(F)cccc4F)c4nc(c(-c5c(F)cccc5F)c5ccc2[nH]5)C=C4)C=C3)cc1
REMARK SMILES IDX 10 1 9 2 8 3 7 4 6 5 5 6 4 7 3 8 2 9 1 10 34 11 35 12 87 13
REMARK SMILES IDX 36 14 86 15 37 16 38 17 39 18 80 19 40 20 85 21 79 22 81 23
REMARK SMILES IDX 41 24 84 25 78 26 77 27 42 29 68 30 51 31 67 32 52 33 55 34
REMARK SMILES IDX 66 35 82 36 53 37 54 38 65 40 83 41 56 42 43 43 44 44 49 45
REMARK SMILES IDX 45 46 46 47 48 48 50 49 47 50 69 51 70 52 75 53 71 54 72 55
REMARK SMILES IDX 74 56 76 57 73 58 57 59 58 60 63 61 59 62 60 63 62 64 64 65
REMARK SMILES IDX 61 66 11 67 12 68 13 69 14 70 15 71 16 72 17 73 18 74 19 75
REMARK SMILES IDX 22 76 20 77 21 78 23 79 24 80 25 83 26 84 33 85 27 86 29 87
REMARK SMILES IDX 28 88 30 89 32 90 31 91
REMARK H PARENT 81 28 55 39 24 81 24 82
REMARK Flexibility Score: inf
ROOT
ATOM      1  C   UNL A   1      35.182  32.360  30.768  1.00  0.00     0.188 C 
ENDROOT
BRANCH   1   2
ATOM      2  O   UNL A   1      34.031  33.104  31.134  1.00  0.00    -0.377 OA
BRANCH   2   3
ATOM      3  C   UNL A   1      34.033  34.484  30.797  1.00  0.00     0.188 C 
BRANCH   3   4
ATOM      4  C   UNL A   1      34.220  35.372  32.018  1.00  0.00     0.188 C 
BRANCH   4   5
ATOM      5  O   UNL A   1      33.995  34.560  33.174  1.00  0.00    -0.376 OA
BRANCH   5   6
ATOM      6  C   UNL A   1      35.002  34.650  34.176  1.00  0.00     0.202 C 
BRANCH   6   7
ATOM      7  C   UNL A   1      36.405  34.377  33.632  1.00  0.00     0.261 C 
BRANCH   7   8
ATOM      8  O   UNL A   1      37.356  34.096  34.675  1.00  0.00    -0.460 OA
BRANCH   8   9
ATOM      9  C   UNL A   1      37.838  32.895  35.072  1.00  0.00     0.338 C 
ATOM     10  O   UNL A   1      37.268  32.328  36.014  1.00  0.00    -0.246 OA
BRANCH   9  11
ATOM     11  C   UNL A   1      39.006  32.186  34.456  1.00  0.00     0.060 A 
ATOM     12  C   UNL A   1      40.345  32.361  34.809  1.00  0.00     0.016 A 
ATOM     13  C   UNL A   1      38.718  31.219  33.474  1.00  0.00     0.016 A 
ATOM     14  C   UNL A   1      41.366  31.648  34.198  1.00  0.00     0.010 A 
ATOM     15  C   UNL A   1      39.738  30.494  32.847  1.00  0.00     0.010 A 
ATOM     16  C   UNL A   1      41.069  30.732  33.197  1.00  0.00    -0.014 A 
BRANCH  16  17
ATOM     17  C   UNL A   1      42.196  30.217  32.404  1.00  0.00     0.031 A 
ATOM     18  C   UNL A   1      42.750  28.878  32.785  1.00  0.00     0.074 A 
ATOM     19  C   UNL A   1      42.579  30.850  31.282  1.00  0.00     0.049 A 
ATOM     20  N   UNL A   1      43.767  28.229  32.291  1.00  0.00    -0.248 NA
ATOM     21  C   UNL A   1      42.039  28.157  33.857  1.00  0.00     0.031 C 
ATOM     22  C   UNL A   1      41.965  32.068  30.748  1.00  0.00     0.029 A 
ATOM     23  N   UNL A   1      43.546  30.535  30.367  1.00  0.00    -0.354 N 
ATOM     24  C   UNL A   1      43.843  27.048  33.017  1.00  0.00     0.074 A 
ATOM     25  C   UNL A   1      42.760  27.055  33.973  1.00  0.00     0.031 C 
ATOM     26  C   UNL A   1      42.570  32.393  29.594  1.00  0.00     0.029 A 
ATOM     27  C   UNL A   1      43.654  31.448  29.347  1.00  0.00     0.049 A 
ATOM     28  H   UNL A   1      44.111  29.731  30.435  1.00  0.00     0.167 HD
ATOM     29  C   UNL A   1      44.754  26.058  32.898  1.00  0.00     0.037 A 
ATOM     30  C   UNL A   1      44.566  31.525  28.361  1.00  0.00     0.037 A 
ATOM     31  C   UNL A   1      45.813  26.085  31.929  1.00  0.00     0.049 A 
ATOM     32  C   UNL A   1      45.639  30.468  28.320  1.00  0.00     0.074 A 
ATOM     33  C   UNL A   1      46.855  25.197  31.755  1.00  0.00     0.029 A 
ATOM     34  N   UNL A   1      45.951  27.071  30.961  1.00  0.00    -0.354 N 
ATOM     35  N   UNL A   1      45.776  29.400  29.072  1.00  0.00    -0.248 NA
ATOM     36  C   UNL A   1      46.698  30.636  27.317  1.00  0.00     0.031 C 
ATOM     37  C   UNL A   1      47.648  25.667  30.702  1.00  0.00     0.029 A 
ATOM     38  C   UNL A   1      47.074  26.824  30.194  1.00  0.00     0.049 A 
ATOM     39  H   UNL A   1      45.340  27.833  30.838  1.00  0.00     0.167 HD
ATOM     40  C   UNL A   1      46.927  28.765  28.630  1.00  0.00     0.074 A 
ATOM     41  C   UNL A   1      47.436  29.556  27.526  1.00  0.00     0.031 C 
ATOM     42  C   UNL A   1      47.526  27.640  29.096  1.00  0.00     0.037 A 
BRANCH  29  43
ATOM     43  C   UNL A   1      44.682  24.942  33.894  1.00  0.00     0.057 A 
ATOM     44  C   UNL A   1      45.153  25.073  35.206  1.00  0.00     0.134 A 
ATOM     45  C   UNL A   1      44.168  23.696  33.513  1.00  0.00     0.134 A 
ATOM     46  F   UNL A   1      45.692  26.229  35.622  1.00  0.00    -0.206 F 
ATOM     47  C   UNL A   1      45.133  23.998  36.098  1.00  0.00     0.040 A 
ATOM     48  C   UNL A   1      44.126  22.619  34.401  1.00  0.00     0.040 A 
ATOM     49  F   UNL A   1      43.715  23.499  32.266  1.00  0.00    -0.206 F 
ATOM     50  C   UNL A   1      44.615  22.768  35.697  1.00  0.00     0.006 A 
ENDBRANCH  29  43
BRANCH  30  51
ATOM     51  C   UNL A   1      44.565  32.665  27.406  1.00  0.00     0.057 A 
ATOM     52  C   UNL A   1      43.989  32.562  26.135  1.00  0.00     0.134 A 
ATOM     53  C   UNL A   1      45.183  33.883  27.729  1.00  0.00     0.134 A 
ATOM     54  F   UNL A   1      43.403  31.417  25.751  1.00  0.00    -0.206 F 
ATOM     55  C   UNL A   1      44.044  33.613  25.216  1.00  0.00     0.040 A 
ATOM     56  C   UNL A   1      45.219  34.952  26.832  1.00  0.00     0.040 A 
ATOM     57  F   UNL A   1      45.763  34.052  28.926  1.00  0.00    -0.206 F 
ATOM     58  C   UNL A   1      44.657  34.815  25.565  1.00  0.00     0.006 A 
ENDBRANCH  30  51
BRANCH  42  59
ATOM     59  C   UNL A   1      48.769  27.200  28.390  1.00  0.00     0.057 A 
ATOM     60  C   UNL A   1      50.033  27.656  28.779  1.00  0.00     0.134 A 
ATOM     61  C   UNL A   1      48.700  26.266  27.350  1.00  0.00     0.134 A 
ATOM     62  F   UNL A   1      50.157  28.561  29.762  1.00  0.00    -0.206 F 
ATOM     63  C   UNL A   1      51.190  27.208  28.144  1.00  0.00     0.040 A 
ATOM     64  C   UNL A   1      49.851  25.792  26.725  1.00  0.00     0.040 A 
ATOM     65  F   UNL A   1      47.516  25.786  26.942  1.00  0.00    -0.206 F 
ATOM     66  C   UNL A   1      51.101  26.268  27.120  1.00  0.00     0.006 A 
ENDBRANCH  42  59
ENDBRANCH  16  17
ENDBRANCH   9  11
ENDBRANCH   8   9
ENDBRANCH   7   8
ENDBRANCH   6   7
ENDBRANCH   5   6
ENDBRANCH   4   5
ENDBRANCH   3   4
ENDBRANCH   2   3
ENDBRANCH   1   2
BRANCH   1  67
ATOM     67  C   UNL A   1      36.250  32.967  29.852  1.00  0.00     0.188 C 
BRANCH  67  68
ATOM     68  O   UNL A   1      36.307  32.646  28.468  1.00  0.00    -0.376 OA
BRANCH  68  69
ATOM     69  C   UNL A   1      35.555  31.556  27.970  1.00  0.00     0.202 C 
BRANCH  69  70
ATOM     70  C   UNL A   1      36.260  30.188  27.968  1.00  0.00     0.261 C 
BRANCH  70  71
ATOM     71  O   UNL A   1      37.704  30.185  27.871  1.00  0.00    -0.463 OA
BRANCH  71  72
ATOM     72  C   UNL A   1      38.364  29.797  28.993  1.00  0.00     0.309 C 
ATOM     73  O   UNL A   1      37.830  29.779  30.113  1.00  0.00    -0.252 OA
BRANCH  72  74
ATOM     74  C   UNL A   1      39.848  29.445  28.754  1.00  0.00     0.108 C 
ATOM     75  C   UNL A   1      40.197  28.373  29.803  1.00  0.00     0.016 C 
ATOM     76  C   UNL A   1      40.270  28.719  27.434  1.00  0.00     0.058 C 
ATOM     77  C   UNL A   1      39.758  27.054  29.160  1.00  0.00     0.001 C 
ATOM     78  C   UNL A   1      39.724  27.299  27.654  1.00  0.00     0.010 C 
BRANCH  76  79
ATOM     79  C   UNL A   1      41.803  28.804  27.155  1.00  0.00     0.265 C 
BRANCH  79  80
ATOM     80  N   UNL A   1      42.375  27.606  26.513  1.00  0.00    -0.343 N 
ATOM     81  H   UNL A   1      42.245  27.695  25.506  1.00  0.00     0.346 HD
ATOM     82  H   UNL A   1      41.887  26.807  26.919  1.00  0.00     0.346 HD
BRANCH  80  83
ATOM     83  C   UNL A   1      43.814  27.382  26.770  1.00  0.00     0.187 C 
ATOM     84  C   UNL A   1      44.502  26.757  25.531  1.00  0.00     0.093 C 
ATOM     85  C   UNL A   1      44.129  26.504  27.991  1.00  0.00     0.100 C 
ATOM     86  C   UNL A   1      44.252  25.256  25.382  1.00  0.00     0.167 C 
ATOM     87  C   UNL A   1      43.738  25.045  27.740  1.00  0.00     0.074 C 
ATOM     88  O   UNL A   1      44.507  24.567  26.609  1.00  0.00    -0.375 OA
ATOM     89  C   UNL A   1      43.840  24.213  29.050  1.00  0.00     0.036 C 
ATOM     90  C   UNL A   1      42.238  24.635  27.698  1.00  0.00     0.036 C 
ATOM     91  C   UNL A   1      42.528  23.506  28.684  1.00  0.00     0.006 C 
ENDBRANCH  80  83
ENDBRANCH  79  80
ENDBRANCH  76  79
ENDBRANCH  72  74
ENDBRANCH  71  72
ENDBRANCH  70  71
ENDBRANCH  69  70
ENDBRANCH  68  69
ENDBRANCH  67  68
ENDBRANCH   1  67
TORSDOF 23
ENDMDL
