MODEL 1
REMARK VINA RESULT:      -9.9      0.000      0.000
REMARK SMILES CC(C)CSc1cc2c(cc1Cl)C=C(C(=O)OCCOCCOCCOCCOC(=O)c1ccc(-c3c4nc(c(-c5c(F)cccc5F)c5ccc([nH]5)c(-c5c(F)cccc5F)c5nc(c(-c6c(F)cccc6F)c6ccc3[nH]6)C=C5)C=C4)cc1)[C@@H](C(F)(F)F)O2
REMARK SMILES IDX 22 1 21 2 20 3 19 4 18 5 17 6 15 7 16 8 14 9 6 10 7 11 11 12
REMARK SMILES IDX 8 13 10 14 12 15 9 16 91 17 13 18 86 19 5 20 4 21 2 22 1 23
REMARK SMILES IDX 3 24 87 25 88 26 89 27 90 28 23 29 24 30 25 31 26 32 27 33
REMARK SMILES IDX 28 34 29 35 30 36 31 37 32 38 33 39 85 40 34 41 84 42 35 43
REMARK SMILES IDX 36 44 37 45 78 46 38 47 83 48 77 49 79 50 39 51 82 52 76 53
REMARK SMILES IDX 75 54 40 56 66 57 49 58 65 59 50 60 53 61 64 62 80 63 51 64
REMARK SMILES IDX 52 65 63 67 81 68 54 69 41 70 42 71 47 72 43 73 44 74 46 75
REMARK SMILES IDX 48 76 45 77 67 78 68 79 73 80 69 81 70 82 72 83 74 84 71 85
REMARK SMILES IDX 55 86 56 87 61 88 57 89 58 90 60 91 62 92 59 93
REMARK H PARENT 79 55 53 66
REMARK Flexibility Score: inf
ROOT
ATOM      1  C   UNL A   1      35.430  33.555  28.111  1.00  0.00     0.188 C 
ENDROOT
BRANCH   1   2
ATOM      2  C   UNL A   1      35.372  32.087  28.573  1.00  0.00     0.188 C 
BRANCH   2   3
ATOM      3  O   UNL A   1      34.320  31.354  27.970  1.00  0.00    -0.376 OA
BRANCH   3   4
ATOM      4  C   UNL A   1      34.580  30.152  27.261  1.00  0.00     0.202 C 
BRANCH   4   5
ATOM      5  C   UNL A   1      33.529  29.375  26.441  1.00  0.00     0.261 C 
BRANCH   5   6
ATOM      6  O   UNL A   1      33.599  27.949  26.459  1.00  0.00    -0.460 OA
BRANCH   6   7
ATOM      7  C   UNL A   1      33.544  27.296  25.285  1.00  0.00     0.338 C 
ATOM      8  O   UNL A   1      33.739  27.761  24.177  1.00  0.00    -0.246 OA
BRANCH   7   9
ATOM      9  C   UNL A   1      33.386  25.858  25.592  1.00  0.00     0.087 C 
ATOM     10  C   UNL A   1      33.922  20.875  25.799  1.00  0.00     0.030 A 
ATOM     11  C   UNL A   1      32.920  21.774  26.204  1.00  0.00     0.063 A 
ATOM     12  C   UNL A   1      35.178  21.393  25.447  1.00  0.00     0.055 A 
ATOM     13  C   UNL A   1      33.108  23.153  26.099  1.00  0.00     0.129 A 
ATOM     14  C   UNL A   1      35.355  22.775  25.316  1.00  0.00     0.033 A 
ATOM     15  Cl  UNL A   1      36.565  20.405  25.159  1.00  0.00    -0.083 Cl
ATOM     16  C   UNL A   1      34.300  23.651  25.583  1.00  0.00     0.019 A 
ATOM     17  O   UNL A   1      32.052  23.935  26.462  1.00  0.00    -0.475 OA
ATOM     18  C   UNL A   1      34.409  25.061  25.259  1.00  0.00     0.027 C 
ATOM     19  C   UNL A   1      32.170  25.383  26.349  1.00  0.00     0.316 C 
BRANCH  10  20
ATOM     20  S   UNL A   1      33.430  19.156  25.722  1.00  0.00    -0.124 SA
BRANCH  20  21
ATOM     21  C   UNL A   1      32.560  19.032  24.104  1.00  0.00     0.078 C 
BRANCH  21  22
ATOM     22  C   UNL A   1      33.114  18.067  23.034  1.00  0.00    -0.007 C 
ATOM     23  C   UNL A   1      33.287  16.621  23.499  1.00  0.00     0.008 C 
ATOM     24  C   UNL A   1      32.152  18.070  21.835  1.00  0.00     0.008 C 
ENDBRANCH  21  22
ENDBRANCH  20  21
ENDBRANCH  10  20
BRANCH  19  25
ATOM     25  C   UNL A   1      30.855  25.903  25.750  1.00  0.00     0.430 C 
ATOM     26  F   UNL A   1      30.908  25.927  24.396  1.00  0.00    -0.167 F 
ATOM     27  F   UNL A   1      29.797  25.127  26.080  1.00  0.00    -0.167 F 
ATOM     28  F   UNL A   1      30.579  27.160  26.167  1.00  0.00    -0.167 F 
ENDBRANCH  19  25
ENDBRANCH   7   9
ENDBRANCH   6   7
ENDBRANCH   5   6
ENDBRANCH   4   5
ENDBRANCH   3   4
ENDBRANCH   2   3
ENDBRANCH   1   2
BRANCH   1  29
ATOM     29  O   UNL A   1      34.152  34.179  28.143  1.00  0.00    -0.377 OA
BRANCH  29  30
ATOM     30  C   UNL A   1      34.076  35.439  28.813  1.00  0.00     0.188 C 
BRANCH  30  31
ATOM     31  C   UNL A   1      33.536  35.519  30.259  1.00  0.00     0.188 C 
BRANCH  31  32
ATOM     32  O   UNL A   1      33.542  34.265  30.939  1.00  0.00    -0.376 OA
BRANCH  32  33
ATOM     33  C   UNL A   1      34.643  33.978  31.788  1.00  0.00     0.202 C 
BRANCH  33  34
ATOM     34  C   UNL A   1      34.817  32.494  32.127  1.00  0.00     0.261 C 
BRANCH  34  35
ATOM     35  O   UNL A   1      35.846  32.200  33.083  1.00  0.00    -0.460 OA
BRANCH  35  36
ATOM     36  C   UNL A   1      36.943  32.987  33.092  1.00  0.00     0.338 C 
ATOM     37  O   UNL A   1      37.138  33.975  33.775  1.00  0.00    -0.246 OA
BRANCH  36  38
ATOM     38  C   UNL A   1      37.963  32.328  32.249  1.00  0.00     0.060 A 
ATOM     39  C   UNL A   1      37.924  32.475  30.861  1.00  0.00     0.016 A 
ATOM     40  C   UNL A   1      38.945  31.531  32.851  1.00  0.00     0.016 A 
ATOM     41  C   UNL A   1      38.891  31.850  30.075  1.00  0.00     0.010 A 
ATOM     42  C   UNL A   1      39.916  30.909  32.063  1.00  0.00     0.010 A 
ATOM     43  C   UNL A   1      39.910  31.085  30.671  1.00  0.00    -0.014 A 
BRANCH  43  44
ATOM     44  C   UNL A   1      41.045  30.630  29.834  1.00  0.00     0.031 A 
ATOM     45  C   UNL A   1      42.210  31.515  29.519  1.00  0.00     0.074 A 
ATOM     46  C   UNL A   1      41.016  29.362  29.380  1.00  0.00     0.049 A 
ATOM     47  N   UNL A   1      43.340  31.205  28.933  1.00  0.00    -0.248 NA
ATOM     48  C   UNL A   1      42.094  32.929  29.902  1.00  0.00     0.031 C 
ATOM     49  C   UNL A   1      39.913  28.421  29.589  1.00  0.00     0.029 A 
ATOM     50  N   UNL A   1      41.941  28.642  28.672  1.00  0.00    -0.354 N 
ATOM     51  C   UNL A   1      44.084  32.377  28.899  1.00  0.00     0.074 A 
ATOM     52  C   UNL A   1      43.252  33.416  29.473  1.00  0.00     0.031 C 
ATOM     53  C   UNL A   1      40.244  27.235  29.058  1.00  0.00     0.029 A 
ATOM     54  C   UNL A   1      41.566  27.338  28.453  1.00  0.00     0.049 A 
ATOM     55  H   UNL A   1      42.792  29.021  28.351  1.00  0.00     0.167 HD
ATOM     56  C   UNL A   1      45.351  32.559  28.448  1.00  0.00     0.037 A 
ATOM     57  C   UNL A   1      42.224  26.335  27.845  1.00  0.00     0.037 A 
ATOM     58  C   UNL A   1      46.159  31.527  27.846  1.00  0.00     0.049 A 
ATOM     59  C   UNL A   1      43.607  26.580  27.316  1.00  0.00     0.074 A 
ATOM     60  C   UNL A   1      47.463  31.607  27.384  1.00  0.00     0.029 A 
ATOM     61  N   UNL A   1      45.733  30.228  27.601  1.00  0.00    -0.354 N 
ATOM     62  N   UNL A   1      44.339  27.666  27.377  1.00  0.00    -0.248 NA
ATOM     63  C   UNL A   1      44.261  25.450  26.641  1.00  0.00     0.031 C 
ATOM     64  C   UNL A   1      47.806  30.376  26.814  1.00  0.00     0.029 A 
ATOM     65  C   UNL A   1      46.737  29.508  26.969  1.00  0.00     0.049 A 
ATOM     66  H   UNL A   1      44.847  29.871  27.840  1.00  0.00     0.167 HD
ATOM     67  C   UNL A   1      45.549  27.342  26.777  1.00  0.00     0.074 A 
ATOM     68  C   UNL A   1      45.459  25.952  26.380  1.00  0.00     0.031 C 
ATOM     69  C   UNL A   1      46.637  28.126  26.573  1.00  0.00     0.037 A 
BRANCH  56  70
ATOM     70  C   UNL A   1      45.940  33.934  28.590  1.00  0.00     0.057 A 
ATOM     71  C   UNL A   1      45.767  34.901  27.592  1.00  0.00     0.134 A 
ATOM     72  C   UNL A   1      46.716  34.289  29.702  1.00  0.00     0.134 A 
ATOM     73  F   UNL A   1      45.048  34.626  26.494  1.00  0.00    -0.206 F 
ATOM     74  C   UNL A   1      46.339  36.171  27.697  1.00  0.00     0.040 A 
ATOM     75  C   UNL A   1      47.271  35.564  29.832  1.00  0.00     0.040 A 
ATOM     76  F   UNL A   1      46.919  33.412  30.698  1.00  0.00    -0.206 F 
ATOM     77  C   UNL A   1      47.087  36.508  28.824  1.00  0.00     0.006 A 
ENDBRANCH  56  70
BRANCH  57  78
ATOM     78  C   UNL A   1      41.598  24.994  27.732  1.00  0.00     0.057 A 
ATOM     79  C   UNL A   1      40.588  24.739  26.796  1.00  0.00     0.134 A 
ATOM     80  C   UNL A   1      42.015  23.930  28.537  1.00  0.00     0.134 A 
ATOM     81  F   UNL A   1      40.136  25.721  26.002  1.00  0.00    -0.206 F 
ATOM     82  C   UNL A   1      40.021  23.471  26.662  1.00  0.00     0.040 A 
ATOM     83  C   UNL A   1      41.478  22.651  28.395  1.00  0.00     0.040 A 
ATOM     84  F   UNL A   1      42.988  24.110  29.444  1.00  0.00    -0.206 F 
ATOM     85  C   UNL A   1      40.476  22.420  27.454  1.00  0.00     0.006 A 
ENDBRANCH  57  78
BRANCH  69  86
ATOM     86  C   UNL A   1      47.824  27.479  25.918  1.00  0.00     0.057 A 
ATOM     87  C   UNL A   1      47.943  27.455  24.522  1.00  0.00     0.134 A 
ATOM     88  C   UNL A   1      48.852  26.884  26.663  1.00  0.00     0.134 A 
ATOM     89  F   UNL A   1      46.994  28.000  23.747  1.00  0.00    -0.206 F 
ATOM     90  C   UNL A   1      49.044  26.871  23.892  1.00  0.00     0.040 A 
ATOM     91  C   UNL A   1      49.972  26.325  26.045  1.00  0.00     0.040 A 
ATOM     92  F   UNL A   1      48.808  26.887  28.003  1.00  0.00    -0.206 F 
ATOM     93  C   UNL A   1      50.068  26.314  24.655  1.00  0.00     0.006 A 
ENDBRANCH  69  86
ENDBRANCH  43  44
ENDBRANCH  36  38
ENDBRANCH  35  36
ENDBRANCH  34  35
ENDBRANCH  33  34
ENDBRANCH  32  33
ENDBRANCH  31  32
ENDBRANCH  30  31
ENDBRANCH  29  30
ENDBRANCH   1  29
TORSDOF 24
ENDMDL
MODEL 2
REMARK VINA RESULT:      -9.5      2.147      3.108
REMARK SMILES CC(C)CSc1cc2c(cc1Cl)C=C(C(=O)OCCOCCOCCOCCOC(=O)c1ccc(-c3c4nc(c(-c5c(F)cccc5F)c5ccc([nH]5)c(-c5c(F)cccc5F)c5nc(c(-c6c(F)cccc6F)c6ccc3[nH]6)C=C5)C=C4)cc1)[C@@H](C(F)(F)F)O2
REMARK SMILES IDX 22 1 21 2 20 3 19 4 18 5 17 6 15 7 16 8 14 9 6 10 7 11 11 12
REMARK SMILES IDX 8 13 10 14 12 15 9 16 91 17 13 18 86 19 5 20 4 21 2 22 1 23
REMARK SMILES IDX 3 24 87 25 88 26 89 27 90 28 23 29 24 30 25 31 26 32 27 33
REMARK SMILES IDX 28 34 29 35 30 36 31 37 32 38 33 39 85 40 34 41 84 42 35 43
REMARK SMILES IDX 36 44 37 45 78 46 38 47 83 48 77 49 79 50 39 51 82 52 76 53
REMARK SMILES IDX 75 54 40 56 66 57 49 58 65 59 50 60 53 61 64 62 80 63 51 64
REMARK SMILES IDX 52 65 63 67 81 68 54 69 41 70 42 71 47 72 43 73 44 74 46 75
REMARK SMILES IDX 48 76 45 77 67 78 68 79 73 80 69 81 70 82 72 83 74 84 71 85
REMARK SMILES IDX 55 86 56 87 61 88 57 89 58 90 60 91 62 92 59 93
REMARK H PARENT 79 55 53 66
REMARK Flexibility Score: inf
ROOT
ATOM      1  C   UNL A   1      34.432  33.053  29.633  1.00  0.00     0.188 C 
ENDROOT
BRANCH   1   2
ATOM      2  C   UNL A   1      33.643  33.860  28.584  1.00  0.00     0.188 C 
BRANCH   2   3
ATOM      3  O   UNL A   1      33.001  33.044  27.621  1.00  0.00    -0.376 OA
BRANCH   3   4
ATOM      4  C   UNL A   1      33.446  31.719  27.372  1.00  0.00     0.202 C 
BRANCH   4   5
ATOM      5  C   UNL A   1      32.513  30.505  27.178  1.00  0.00     0.261 C 
BRANCH   5   6
ATOM      6  O   UNL A   1      32.721  29.691  26.022  1.00  0.00    -0.460 OA
BRANCH   6   7
ATOM      7  C   UNL A   1      31.680  29.484  25.197  1.00  0.00     0.338 C 
ATOM      8  O   UNL A   1      30.938  30.326  24.726  1.00  0.00    -0.246 OA
BRANCH   7   9
ATOM      9  C   UNL A   1      31.707  28.057  24.809  1.00  0.00     0.087 C 
ATOM     10  C   UNL A   1      31.485  23.046  24.811  1.00  0.00     0.030 A 
ATOM     11  C   UNL A   1      31.959  24.009  23.903  1.00  0.00     0.063 A 
ATOM     12  C   UNL A   1      30.688  23.477  25.882  1.00  0.00     0.055 A 
ATOM     13  C   UNL A   1      31.787  25.372  24.149  1.00  0.00     0.129 A 
ATOM     14  C   UNL A   1      30.540  24.844  26.142  1.00  0.00     0.033 A 
ATOM     15  Cl  UNL A   1      29.846  22.395  26.935  1.00  0.00    -0.083 Cl
ATOM     16  C   UNL A   1      31.142  25.790  25.309  1.00  0.00     0.019 A 
ATOM     17  O   UNL A   1      32.336  26.223  23.236  1.00  0.00    -0.475 OA
ATOM     18  C   UNL A   1      31.167  27.193  25.678  1.00  0.00     0.027 C 
ATOM     19  C   UNL A   1      32.220  27.660  23.446  1.00  0.00     0.316 C 
BRANCH  10  20
ATOM     20  S   UNL A   1      32.030  21.369  24.508  1.00  0.00    -0.124 SA
BRANCH  20  21
ATOM     21  C   UNL A   1      33.542  21.215  25.548  1.00  0.00     0.078 C 
BRANCH  21  22
ATOM     22  C   UNL A   1      33.972  22.416  26.417  1.00  0.00    -0.007 C 
ATOM     23  C   UNL A   1      33.852  22.195  27.924  1.00  0.00     0.008 C 
ATOM     24  C   UNL A   1      35.441  22.741  26.099  1.00  0.00     0.008 C 
ENDBRANCH  21  22
ENDBRANCH  20  21
ENDBRANCH  10  20
BRANCH  19  25
ATOM     25  C   UNL A   1      33.585  28.282  23.119  1.00  0.00     0.430 C 
ATOM     26  F   UNL A   1      34.466  28.091  24.132  1.00  0.00    -0.167 F 
ATOM     27  F   UNL A   1      34.145  27.741  22.014  1.00  0.00    -0.167 F 
ATOM     28  F   UNL A   1      33.490  29.615  22.913  1.00  0.00    -0.167 F 
ENDBRANCH  19  25
ENDBRANCH   7   9
ENDBRANCH   6   7
ENDBRANCH   5   6
ENDBRANCH   4   5
ENDBRANCH   3   4
ENDBRANCH   2   3
ENDBRANCH   1   2
BRANCH   1  29
ATOM     29  O   UNL A   1      35.091  33.893  30.572  1.00  0.00    -0.377 OA
BRANCH  29  30
ATOM     30  C   UNL A   1      34.259  34.573  31.513  1.00  0.00     0.188 C 
BRANCH  30  31
ATOM     31  C   UNL A   1      34.766  34.843  32.948  1.00  0.00     0.188 C 
BRANCH  31  32
ATOM     32  O   UNL A   1      34.946  33.658  33.720  1.00  0.00    -0.376 OA
BRANCH  32  33
ATOM     33  C   UNL A   1      36.165  33.509  34.432  1.00  0.00     0.202 C 
BRANCH  33  34
ATOM     34  C   UNL A   1      37.033  32.333  33.975  1.00  0.00     0.261 C 
BRANCH  34  35
ATOM     35  O   UNL A   1      37.240  32.236  32.559  1.00  0.00    -0.460 OA
BRANCH  35  36
ATOM     36  C   UNL A   1      36.863  31.095  31.943  1.00  0.00     0.338 C 
ATOM     37  O   UNL A   1      35.731  30.668  31.807  1.00  0.00    -0.246 OA
BRANCH  36  38
ATOM     38  C   UNL A   1      38.062  30.533  31.286  1.00  0.00     0.060 A 
ATOM     39  C   UNL A   1      38.223  30.652  29.904  1.00  0.00     0.016 A 
ATOM     40  C   UNL A   1      39.014  29.854  32.057  1.00  0.00     0.016 A 
ATOM     41  C   UNL A   1      39.358  30.119  29.295  1.00  0.00     0.010 A 
ATOM     42  C   UNL A   1      40.154  29.324  31.445  1.00  0.00     0.010 A 
ATOM     43  C   UNL A   1      40.344  29.475  30.064  1.00  0.00    -0.014 A 
BRANCH  43  44
ATOM     44  C   UNL A   1      41.636  29.127  29.424  1.00  0.00     0.031 A 
ATOM     45  C   UNL A   1      42.775  30.095  29.349  1.00  0.00     0.074 A 
ATOM     46  C   UNL A   1      41.771  27.882  28.929  1.00  0.00     0.049 A 
ATOM     47  N   UNL A   1      44.008  29.880  28.959  1.00  0.00    -0.248 NA
ATOM     48  C   UNL A   1      42.500  31.480  29.753  1.00  0.00     0.031 C 
ATOM     49  C   UNL A   1      40.714  26.868  28.910  1.00  0.00     0.029 A 
ATOM     50  N   UNL A   1      42.851  27.251  28.371  1.00  0.00    -0.354 N 
ATOM     51  C   UNL A   1      44.666  31.095  29.096  1.00  0.00     0.074 A 
ATOM     52  C   UNL A   1      43.679  32.055  29.551  1.00  0.00     0.031 C 
ATOM     53  C   UNL A   1      41.211  25.729  28.405  1.00  0.00     0.029 A 
ATOM     54  C   UNL A   1      42.608  25.939  28.046  1.00  0.00     0.049 A 
ATOM     55  H   UNL A   1      43.717  27.695  28.217  1.00  0.00     0.167 HD
ATOM     56  C   UNL A   1      45.976  31.374  28.882  1.00  0.00     0.037 A 
ATOM     57  C   UNL A   1      43.428  25.005  27.529  1.00  0.00     0.037 A 
ATOM     58  C   UNL A   1      46.944  30.421  28.396  1.00  0.00     0.049 A 
ATOM     59  C   UNL A   1      44.862  25.357  27.259  1.00  0.00     0.074 A 
ATOM     60  C   UNL A   1      48.300  30.600  28.174  1.00  0.00     0.029 A 
ATOM     61  N   UNL A   1      46.656  29.110  28.036  1.00  0.00    -0.354 N 
ATOM     62  N   UNL A   1      45.497  26.481  27.484  1.00  0.00    -0.248 NA
ATOM     63  C   UNL A   1      45.697  24.300  26.671  1.00  0.00     0.031 C 
ATOM     64  C   UNL A   1      48.819  29.418  27.631  1.00  0.00     0.029 A 
ATOM     65  C   UNL A   1      47.800  28.481  27.567  1.00  0.00     0.049 A 
ATOM     66  H   UNL A   1      45.768  28.690  28.104  1.00  0.00     0.167 HD
ATOM     67  C   UNL A   1      46.811  26.258  27.095  1.00  0.00     0.074 A 
ATOM     68  C   UNL A   1      46.885  24.885  26.642  1.00  0.00     0.031 C 
ATOM     69  C   UNL A   1      47.863  27.115  27.112  1.00  0.00     0.037 A 
BRANCH  56  70
ATOM     70  C   UNL A   1      46.439  32.774  29.171  1.00  0.00     0.057 A 
ATOM     71  C   UNL A   1      46.976  33.115  30.418  1.00  0.00     0.134 A 
ATOM     72  C   UNL A   1      46.316  33.798  28.221  1.00  0.00     0.134 A 
ATOM     73  F   UNL A   1      47.111  32.189  31.378  1.00  0.00    -0.206 F 
ATOM     74  C   UNL A   1      47.378  34.421  30.709  1.00  0.00     0.040 A 
ATOM     75  C   UNL A   1      46.739  35.101  28.490  1.00  0.00     0.040 A 
ATOM     76  F   UNL A   1      45.813  33.540  27.004  1.00  0.00    -0.206 F 
ATOM     77  C   UNL A   1      47.267  35.416  29.740  1.00  0.00     0.006 A 
ENDBRANCH  56  70
BRANCH  57  78
ATOM     78  C   UNL A   1      42.921  23.636  27.262  1.00  0.00     0.057 A 
ATOM     79  C   UNL A   1      42.745  22.710  28.297  1.00  0.00     0.134 A 
ATOM     80  C   UNL A   1      42.574  23.233  25.968  1.00  0.00     0.134 A 
ATOM     81  F   UNL A   1      43.070  23.032  29.557  1.00  0.00    -0.206 F 
ATOM     82  C   UNL A   1      42.236  21.433  28.054  1.00  0.00     0.040 A 
ATOM     83  C   UNL A   1      42.037  21.971  25.715  1.00  0.00     0.040 A 
ATOM     84  F   UNL A   1      42.708  24.081  24.937  1.00  0.00    -0.206 F 
ATOM     85  C   UNL A   1      41.868  21.066  26.762  1.00  0.00     0.006 A 
ENDBRANCH  57  78
BRANCH  69  86
ATOM     86  C   UNL A   1      49.186  26.571  26.654  1.00  0.00     0.057 A 
ATOM     87  C   UNL A   1      49.637  26.798  25.347  1.00  0.00     0.134 A 
ATOM     88  C   UNL A   1      50.019  25.828  27.503  1.00  0.00     0.134 A 
ATOM     89  F   UNL A   1      48.889  27.496  24.479  1.00  0.00    -0.206 F 
ATOM     90  C   UNL A   1      50.869  26.313  24.904  1.00  0.00     0.040 A 
ATOM     91  C   UNL A   1      51.266  25.365  27.081  1.00  0.00     0.040 A 
ATOM     92  F   UNL A   1      49.655  25.588  28.772  1.00  0.00    -0.206 F 
ATOM     93  C   UNL A   1      51.692  25.604  25.776  1.00  0.00     0.006 A 
ENDBRANCH  69  86
ENDBRANCH  43  44
ENDBRANCH  36  38
ENDBRANCH  35  36
ENDBRANCH  34  35
ENDBRANCH  33  34
ENDBRANCH  32  33
ENDBRANCH  31  32
ENDBRANCH  30  31
ENDBRANCH  29  30
ENDBRANCH   1  29
TORSDOF 24
ENDMDL
MODEL 3
REMARK VINA RESULT:      -8.7      2.449      3.290
REMARK SMILES CC(C)CSc1cc2c(cc1Cl)C=C(C(=O)OCCOCCOCCOCCOC(=O)c1ccc(-c3c4nc(c(-c5c(F)cccc5F)c5ccc([nH]5)c(-c5c(F)cccc5F)c5nc(c(-c6c(F)cccc6F)c6ccc3[nH]6)C=C5)C=C4)cc1)[C@@H](C(F)(F)F)O2
REMARK SMILES IDX 22 1 21 2 20 3 19 4 18 5 17 6 15 7 16 8 14 9 6 10 7 11 11 12
REMARK SMILES IDX 8 13 10 14 12 15 9 16 91 17 13 18 86 19 5 20 4 21 2 22 1 23
REMARK SMILES IDX 3 24 87 25 88 26 89 27 90 28 23 29 24 30 25 31 26 32 27 33
REMARK SMILES IDX 28 34 29 35 30 36 31 37 32 38 33 39 85 40 34 41 84 42 35 43
REMARK SMILES IDX 36 44 37 45 78 46 38 47 83 48 77 49 79 50 39 51 82 52 76 53
REMARK SMILES IDX 75 54 40 56 66 57 49 58 65 59 50 60 53 61 64 62 80 63 51 64
REMARK SMILES IDX 52 65 63 67 81 68 54 69 41 70 42 71 47 72 43 73 44 74 46 75
REMARK SMILES IDX 48 76 45 77 67 78 68 79 73 80 69 81 70 82 72 83 74 84 71 85
REMARK SMILES IDX 55 86 56 87 61 88 57 89 58 90 60 91 62 92 59 93
REMARK H PARENT 79 55 53 66
REMARK Flexibility Score: inf
ROOT
ATOM      1  C   UNL A   1      35.174  32.978  28.191  1.00  0.00     0.188 C 
ENDROOT
BRANCH   1   2
ATOM      2  C   UNL A   1      34.607  31.630  27.709  1.00  0.00     0.188 C 
BRANCH   2   3
ATOM      3  O   UNL A   1      35.460  30.534  27.990  1.00  0.00    -0.376 OA
BRANCH   3   4
ATOM      4  C   UNL A   1      35.114  29.217  27.589  1.00  0.00     0.202 C 
BRANCH   4   5
ATOM      5  C   UNL A   1      33.718  28.794  27.086  1.00  0.00     0.261 C 
BRANCH   5   6
ATOM      6  O   UNL A   1      33.530  27.424  26.731  1.00  0.00    -0.460 OA
BRANCH   6   7
ATOM      7  C   UNL A   1      33.593  27.091  25.430  1.00  0.00     0.338 C 
ATOM      8  O   UNL A   1      34.039  27.766  24.521  1.00  0.00    -0.246 OA
BRANCH   7   9
ATOM      9  C   UNL A   1      33.188  25.672  25.322  1.00  0.00     0.087 C 
ATOM     10  C   UNL A   1      33.112  20.716  24.555  1.00  0.00     0.030 A 
ATOM     11  C   UNL A   1      32.125  21.693  24.774  1.00  0.00     0.063 A 
ATOM     12  C   UNL A   1      34.451  21.057  24.800  1.00  0.00     0.055 A 
ATOM     13  C   UNL A   1      32.473  23.013  25.061  1.00  0.00     0.129 A 
ATOM     14  C   UNL A   1      34.800  22.387  25.062  1.00  0.00     0.033 A 
ATOM     15  Cl  UNL A   1      35.738  19.906  24.804  1.00  0.00    -0.083 Cl
ATOM     16  C   UNL A   1      33.815  23.375  25.131  1.00  0.00     0.019 A 
ATOM     17  O   UNL A   1      31.441  23.894  25.197  1.00  0.00    -0.475 OA
ATOM     18  C   UNL A   1      34.177  24.778  25.199  1.00  0.00     0.027 C 
ATOM     19  C   UNL A   1      31.734  25.295  25.468  1.00  0.00     0.316 C 
BRANCH  10  20
ATOM     20  S   UNL A   1      32.521  19.153  23.916  1.00  0.00    -0.124 SA
BRANCH  20  21
ATOM     21  C   UNL A   1      33.270  17.914  25.054  1.00  0.00     0.078 C 
BRANCH  21  22
ATOM     22  C   UNL A   1      33.749  16.566  24.474  1.00  0.00    -0.007 C 
ATOM     23  C   UNL A   1      34.179  16.613  23.008  1.00  0.00     0.008 C 
ATOM     24  C   UNL A   1      34.947  16.080  25.306  1.00  0.00     0.008 C 
ENDBRANCH  21  22
ENDBRANCH  20  21
ENDBRANCH  10  20
BRANCH  19  25
ATOM     25  C   UNL A   1      30.808  26.137  24.578  1.00  0.00     0.430 C 
ATOM     26  F   UNL A   1      30.635  27.380  25.090  1.00  0.00    -0.167 F 
ATOM     27  F   UNL A   1      31.303  26.299  23.330  1.00  0.00    -0.167 F 
ATOM     28  F   UNL A   1      29.584  25.575  24.459  1.00  0.00    -0.167 F 
ENDBRANCH  19  25
ENDBRANCH   7   9
ENDBRANCH   6   7
ENDBRANCH   5   6
ENDBRANCH   4   5
ENDBRANCH   3   4
ENDBRANCH   2   3
ENDBRANCH   1   2
BRANCH   1  29
ATOM     29  O   UNL A   1      35.772  32.880  29.478  1.00  0.00    -0.377 OA
BRANCH  29  30
ATOM     30  C   UNL A   1      34.977  33.312  30.584  1.00  0.00     0.188 C 
BRANCH  30  31
ATOM     31  C   UNL A   1      34.860  32.431  31.849  1.00  0.00     0.188 C 
BRANCH  31  32
ATOM     32  O   UNL A   1      36.029  32.452  32.666  1.00  0.00    -0.376 OA
BRANCH  32  33
ATOM     33  C   UNL A   1      36.840  31.288  32.691  1.00  0.00     0.202 C 
BRANCH  33  34
ATOM     34  C   UNL A   1      37.725  31.153  33.934  1.00  0.00     0.261 C 
BRANCH  34  35
ATOM     35  O   UNL A   1      38.456  29.922  34.037  1.00  0.00    -0.460 OA
BRANCH  35  36
ATOM     36  C   UNL A   1      39.650  29.949  34.666  1.00  0.00     0.338 C 
ATOM     37  O   UNL A   1      39.856  30.097  35.857  1.00  0.00    -0.246 OA
BRANCH  36  38
ATOM     38  C   UNL A   1      40.678  29.576  33.672  1.00  0.00     0.060 A 
ATOM     39  C   UNL A   1      40.777  30.280  32.469  1.00  0.00     0.016 A 
ATOM     40  C   UNL A   1      41.528  28.493  33.932  1.00  0.00     0.016 A 
ATOM     41  C   UNL A   1      41.751  29.921  31.539  1.00  0.00     0.010 A 
ATOM     42  C   UNL A   1      42.507  28.137  33.001  1.00  0.00     0.010 A 
ATOM     43  C   UNL A   1      42.640  28.865  31.809  1.00  0.00    -0.014 A 
BRANCH  43  44
ATOM     44  C   UNL A   1      43.801  28.659  30.909  1.00  0.00     0.031 A 
ATOM     45  C   UNL A   1      45.047  29.481  31.016  1.00  0.00     0.074 A 
ATOM     46  C   UNL A   1      43.715  27.675  29.995  1.00  0.00     0.049 A 
ATOM     47  N   UNL A   1      46.194  29.313  30.404  1.00  0.00    -0.248 NA
ATOM     48  C   UNL A   1      45.005  30.641  31.915  1.00  0.00     0.031 C 
ATOM     49  C   UNL A   1      42.534  26.837  29.773  1.00  0.00     0.029 A 
ATOM     50  N   UNL A   1      44.637  27.197  29.102  1.00  0.00    -0.354 N 
ATOM     51  C   UNL A   1      47.021  30.329  30.862  1.00  0.00     0.074 A 
ATOM     52  C   UNL A   1      46.225  31.141  31.761  1.00  0.00     0.031 C 
ATOM     53  C   UNL A   1      42.817  25.922  28.834  1.00  0.00     0.029 A 
ATOM     54  C   UNL A   1      44.187  26.122  28.376  1.00  0.00     0.049 A 
ATOM     55  H   UNL A   1      45.536  27.586  28.992  1.00  0.00     0.167 HD
ATOM     56  C   UNL A   1      48.329  30.548  30.574  1.00  0.00     0.037 A 
ATOM     57  C   UNL A   1      44.815  25.371  27.452  1.00  0.00     0.037 A 
ATOM     58  C   UNL A   1      49.104  29.755  29.651  1.00  0.00     0.049 A 
ATOM     59  C   UNL A   1      46.249  25.667  27.120  1.00  0.00     0.074 A 
ATOM     60  C   UNL A   1      50.442  29.880  29.314  1.00  0.00     0.029 A 
ATOM     61  N   UNL A   1      48.606  28.699  28.900  1.00  0.00    -0.354 N 
ATOM     62  N   UNL A   1      47.051  26.569  27.632  1.00  0.00    -0.248 NA
ATOM     63  C   UNL A   1      46.869  24.827  26.086  1.00  0.00     0.031 C 
ATOM     64  C   UNL A   1      50.738  28.937  28.323  1.00  0.00     0.029 A 
ATOM     65  C   UNL A   1      49.600  28.184  28.081  1.00  0.00     0.049 A 
ATOM     66  H   UNL A   1      47.680  28.364  28.942  1.00  0.00     0.167 HD
ATOM     67  C   UNL A   1      48.276  26.386  27.006  1.00  0.00     0.074 A 
ATOM     68  C   UNL A   1      48.117  25.272  26.093  1.00  0.00     0.031 C 
ATOM     69  C   UNL A   1      49.431  27.078  27.171  1.00  0.00     0.037 A 
BRANCH  56  70
ATOM     70  C   UNL A   1      49.004  31.698  31.266  1.00  0.00     0.057 A 
ATOM     71  C   UNL A   1      49.040  32.971  30.685  1.00  0.00     0.134 A 
ATOM     72  C   UNL A   1      49.654  31.533  32.498  1.00  0.00     0.134 A 
ATOM     73  F   UNL A   1      48.451  33.197  29.502  1.00  0.00    -0.206 F 
ATOM     74  C   UNL A   1      49.695  34.039  31.304  1.00  0.00     0.040 A 
ATOM     75  C   UNL A   1      50.288  32.599  33.140  1.00  0.00     0.040 A 
ATOM     76  F   UNL A   1      49.654  30.340  33.113  1.00  0.00    -0.206 F 
ATOM     77  C   UNL A   1      50.313  33.856  32.540  1.00  0.00     0.006 A 
ENDBRANCH  56  70
BRANCH  57  78
ATOM     78  C   UNL A   1      44.104  24.246  26.797  1.00  0.00     0.057 A 
ATOM     79  C   UNL A   1      43.618  24.354  25.489  1.00  0.00     0.134 A 
ATOM     80  C   UNL A   1      43.919  23.026  27.456  1.00  0.00     0.134 A 
ATOM     81  F   UNL A   1      43.754  25.502  24.808  1.00  0.00    -0.206 F 
ATOM     82  C   UNL A   1      42.980  23.286  24.856  1.00  0.00     0.040 A 
ATOM     83  C   UNL A   1      43.308  21.941  26.827  1.00  0.00     0.040 A 
ATOM     84  F   UNL A   1      44.374  22.858  28.707  1.00  0.00    -0.206 F 
ATOM     85  C   UNL A   1      42.836  22.071  25.522  1.00  0.00     0.006 A 
ENDBRANCH  57  78
BRANCH  69  86
ATOM     86  C   UNL A   1      50.615  26.622  26.367  1.00  0.00     0.057 A 
ATOM     87  C   UNL A   1      51.465  25.621  26.854  1.00  0.00     0.134 A 
ATOM     88  C   UNL A   1      50.914  27.166  25.110  1.00  0.00     0.134 A 
ATOM     89  F   UNL A   1      51.241  25.059  28.052  1.00  0.00    -0.206 F 
ATOM     90  C   UNL A   1      52.563  25.172  26.118  1.00  0.00     0.040 A 
ATOM     91  C   UNL A   1      51.991  26.705  24.351  1.00  0.00     0.040 A 
ATOM     92  F   UNL A   1      50.132  28.118  24.578  1.00  0.00    -0.206 F 
ATOM     93  C   UNL A   1      52.821  25.707  24.857  1.00  0.00     0.006 A 
ENDBRANCH  69  86
ENDBRANCH  43  44
ENDBRANCH  36  38
ENDBRANCH  35  36
ENDBRANCH  34  35
ENDBRANCH  33  34
ENDBRANCH  32  33
ENDBRANCH  31  32
ENDBRANCH  30  31
ENDBRANCH  29  30
ENDBRANCH   1  29
TORSDOF 24
ENDMDL
