MODEL 1
REMARK VINA RESULT:      -9.5      0.000      0.000
REMARK SMILES COc1ccc([C@H]2CC(c3ccc(S(C)(=O)=O)cc3)=NN2c2ccc(C(=O)OCCOCCOCCOCCOC(=O)c3ccc(-c4c5nc(c(-c6c(F)cccc6F)c6ccc([nH]6)c(-c6c(F)cccc6F)c6nc(c(-c7c(F)cccc7F)c7ccc4[nH]7)C=C6)C=C5)cc3)cc2)cc1
REMARK SMILES IDX 33 1 32 2 31 3 30 4 29 5 28 6 26 7 27 8 25 9 22 10 23 11
REMARK SMILES IDX 98 12 24 13 97 14 21 15 7 16 8 17 9 18 20 19 6 20 3 21 4 22
REMARK SMILES IDX 100 23 5 24 99 25 2 26 1 27 10 28 11 29 19 30 12 31 18 32
REMARK SMILES IDX 13 33 14 34 15 35 16 36 17 37 34 38 35 39 36 40 37 41 38 42
REMARK SMILES IDX 39 43 40 44 41 45 42 46 43 47 44 48 96 49 45 50 95 51 46 52
REMARK SMILES IDX 47 53 48 54 89 55 49 56 94 57 88 58 90 59 50 60 93 61 87 62
REMARK SMILES IDX 86 63 51 65 77 66 60 67 76 68 61 69 64 70 75 71 91 72 62 73
REMARK SMILES IDX 63 74 74 76 92 77 65 78 52 79 53 80 58 81 54 82 55 83 57 84
REMARK SMILES IDX 59 85 56 86 78 87 79 88 84 89 80 90 81 91 83 92 85 93 82 94
REMARK SMILES IDX 66 95 67 96 72 97 68 98 69 99 71 100 73 101 70 102
REMARK H PARENT 90 64 64 75
REMARK Flexibility Score: inf
ROOT
ATOM      1  C   UNL A   1      40.720  28.213  29.210  1.00  0.00     0.188 C 
ENDROOT
BRANCH   1   2
ATOM      2  C   UNL A   1      41.910  27.441  28.602  1.00  0.00     0.188 C 
BRANCH   2   3
ATOM      3  O   UNL A   1      41.533  26.267  27.904  1.00  0.00    -0.376 OA
BRANCH   3   4
ATOM      4  C   UNL A   1      40.167  26.059  27.604  1.00  0.00     0.202 C 
BRANCH   4   5
ATOM      5  C   UNL A   1      39.791  24.959  26.601  1.00  0.00     0.261 C 
BRANCH   5   6
ATOM      6  O   UNL A   1      38.822  24.002  27.046  1.00  0.00    -0.460 OA
BRANCH   6   7
ATOM      7  C   UNL A   1      38.560  22.971  26.213  1.00  0.00     0.338 C 
ATOM      8  O   UNL A   1      39.185  21.928  26.128  1.00  0.00    -0.246 OA
BRANCH   7   9
ATOM      9  C   UNL A   1      37.259  23.229  25.553  1.00  0.00     0.060 A 
ATOM     10  C   UNL A   1      34.851  23.767  24.210  1.00  0.00     0.060 A 
ATOM     11  C   UNL A   1      35.873  23.048  23.577  1.00  0.00     0.029 A 
ATOM     12  C   UNL A   1      35.019  24.122  25.558  1.00  0.00     0.029 A 
ATOM     13  C   UNL A   1      37.085  22.810  24.229  1.00  0.00     0.018 A 
ATOM     14  C   UNL A   1      36.205  23.840  26.238  1.00  0.00     0.018 A 
BRANCH  10  15
ATOM     15  N   UNL A   1      33.753  24.225  23.491  1.00  0.00    -0.257 N 
ATOM     16  C   UNL A   1      33.052  23.356  22.539  1.00  0.00     0.144 C 
ATOM     17  C   UNL A   1      31.793  24.164  22.209  1.00  0.00     0.091 C 
ATOM     18  C   UNL A   1      31.984  25.341  23.125  1.00  0.00     0.071 C 
ATOM     19  N   UNL A   1      33.059  25.338  23.851  1.00  0.00    -0.176 NA
BRANCH  16  20
ATOM     20  C   UNL A   1      32.740  21.977  23.110  1.00  0.00    -0.023 A 
ATOM     21  C   UNL A   1      32.154  19.448  24.223  1.00  0.00     0.118 A 
ATOM     22  C   UNL A   1      32.370  20.551  25.048  1.00  0.00     0.047 A 
ATOM     23  C   UNL A   1      32.188  19.612  22.839  1.00  0.00     0.047 A 
ATOM     24  C   UNL A   1      32.668  21.801  24.501  1.00  0.00     0.010 A 
ATOM     25  C   UNL A   1      32.473  20.868  22.288  1.00  0.00     0.010 A 
BRANCH  21  26
ATOM     26  O   UNL A   1      31.862  18.280  24.872  1.00  0.00    -0.497 OA
ATOM     27  C   UNL A   1      32.865  17.808  25.766  1.00  0.00     0.278 C 
ENDBRANCH  21  26
ENDBRANCH  16  20
BRANCH  18  28
ATOM     28  C   UNL A   1      31.017  26.447  23.122  1.00  0.00    -0.002 A 
ATOM     29  C   UNL A   1      31.227  27.516  22.244  1.00  0.00     0.011 A 
ATOM     30  C   UNL A   1      29.894  26.412  23.952  1.00  0.00     0.011 A 
ATOM     31  C   UNL A   1      30.299  28.558  22.187  1.00  0.00     0.021 A 
ATOM     32  C   UNL A   1      28.979  27.466  23.916  1.00  0.00     0.021 A 
ATOM     33  C   UNL A   1      29.187  28.534  23.036  1.00  0.00     0.067 A 
BRANCH  33  34
ATOM     34  S   UNL A   1      28.013  29.869  22.963  1.00  0.00     0.175 S 
ATOM     35  C   UNL A   1      28.095  30.435  21.284  1.00  0.00     0.163 C 
ATOM     36  O   UNL A   1      26.706  29.287  23.191  1.00  0.00    -0.224 OA
ATOM     37  O   UNL A   1      28.514  30.938  23.807  1.00  0.00    -0.224 OA
ENDBRANCH  33  34
ENDBRANCH  18  28
ENDBRANCH  10  15
ENDBRANCH   7   9
ENDBRANCH   6   7
ENDBRANCH   5   6
ENDBRANCH   4   5
ENDBRANCH   3   4
ENDBRANCH   2   3
ENDBRANCH   1   2
BRANCH   1  38
ATOM     38  O   UNL A   1      40.687  29.628  29.083  1.00  0.00    -0.377 OA
BRANCH  38  39
ATOM     39  C   UNL A   1      40.598  30.448  30.246  1.00  0.00     0.188 C 
BRANCH  39  40
ATOM     40  C   UNL A   1      39.333  31.278  30.573  1.00  0.00     0.188 C 
BRANCH  40  41
ATOM     41  O   UNL A   1      38.177  30.917  29.838  1.00  0.00    -0.376 OA
BRANCH  41  42
ATOM     42  C   UNL A   1      37.340  31.958  29.370  1.00  0.00     0.202 C 
BRANCH  42  43
ATOM     43  C   UNL A   1      37.572  33.351  29.971  1.00  0.00     0.261 C 
BRANCH  43  44
ATOM     44  O   UNL A   1      36.413  34.004  30.512  1.00  0.00    -0.460 OA
BRANCH  44  45
ATOM     45  C   UNL A   1      35.647  33.300  31.371  1.00  0.00     0.338 C 
ATOM     46  O   UNL A   1      34.587  32.745  31.134  1.00  0.00    -0.246 OA
BRANCH  45  47
ATOM     47  C   UNL A   1      36.408  33.153  32.628  1.00  0.00     0.060 A 
ATOM     48  C   UNL A   1      36.895  34.299  33.271  1.00  0.00     0.016 A 
ATOM     49  C   UNL A   1      36.622  31.887  33.177  1.00  0.00     0.016 A 
ATOM     50  C   UNL A   1      37.626  34.176  34.453  1.00  0.00     0.010 A 
ATOM     51  C   UNL A   1      37.373  31.765  34.349  1.00  0.00     0.010 A 
ATOM     52  C   UNL A   1      37.905  32.907  34.974  1.00  0.00    -0.014 A 
BRANCH  52  53
ATOM     53  C   UNL A   1      38.901  32.761  36.062  1.00  0.00     0.031 A 
ATOM     54  C   UNL A   1      40.349  32.595  35.691  1.00  0.00     0.074 A 
ATOM     55  C   UNL A   1      38.534  32.784  37.354  1.00  0.00     0.049 A 
ATOM     56  N   UNL A   1      41.391  32.414  36.461  1.00  0.00    -0.248 NA
ATOM     57  C   UNL A   1      40.660  32.635  34.254  1.00  0.00     0.031 C 
ATOM     58  C   UNL A   1      37.169  32.963  37.841  1.00  0.00     0.029 A 
ATOM     59  N   UNL A   1      39.286  32.641  38.494  1.00  0.00    -0.354 N 
ATOM     60  C   UNL A   1      42.477  32.304  35.602  1.00  0.00     0.074 A 
ATOM     61  C   UNL A   1      41.963  32.409  34.254  1.00  0.00     0.031 C 
ATOM     62  C   UNL A   1      37.176  32.901  39.184  1.00  0.00     0.029 A 
ATOM     63  C   UNL A   1      38.541  32.646  39.647  1.00  0.00     0.049 A 
ATOM     64  H   UNL A   1      40.266  32.543  38.485  1.00  0.00     0.167 HD
ATOM     65  C   UNL A   1      43.784  32.135  35.910  1.00  0.00     0.037 A 
ATOM     66  C   UNL A   1      38.914  32.441  40.925  1.00  0.00     0.037 A 
ATOM     67  C   UNL A   1      44.289  32.026  37.254  1.00  0.00     0.049 A 
ATOM     68  C   UNL A   1      40.366  32.198  41.243  1.00  0.00     0.074 A 
ATOM     69  C   UNL A   1      45.601  31.896  37.674  1.00  0.00     0.029 A 
ATOM     70  N   UNL A   1      43.502  32.015  38.396  1.00  0.00    -0.354 N 
ATOM     71  N   UNL A   1      41.394  32.143  40.431  1.00  0.00    -0.248 NA
ATOM     72  C   UNL A   1      40.711  31.994  42.658  1.00  0.00     0.031 C 
ATOM     73  C   UNL A   1      45.601  31.735  39.063  1.00  0.00     0.029 A 
ATOM     74  C   UNL A   1      44.296  31.839  39.518  1.00  0.00     0.049 A 
ATOM     75  H   UNL A   1      42.523  32.118  38.408  1.00  0.00     0.167 HD
ATOM     76  C   UNL A   1      42.507  31.922  41.234  1.00  0.00     0.074 A 
ATOM     77  C   UNL A   1      42.029  31.869  42.601  1.00  0.00     0.031 C 
ATOM     78  C   UNL A   1      43.807  31.779  40.874  1.00  0.00     0.037 A 
BRANCH  65  79
ATOM     79  C   UNL A   1      44.750  32.008  34.767  1.00  0.00     0.057 A 
ATOM     80  C   UNL A   1      45.400  33.119  34.208  1.00  0.00     0.134 A 
ATOM     81  C   UNL A   1      45.040  30.752  34.219  1.00  0.00     0.134 A 
ATOM     82  F   UNL A   1      45.158  34.353  34.674  1.00  0.00    -0.206 F 
ATOM     83  C   UNL A   1      46.270  32.986  33.126  1.00  0.00     0.040 A 
ATOM     84  C   UNL A   1      45.933  30.603  33.158  1.00  0.00     0.040 A 
ATOM     85  F   UNL A   1      44.458  29.645  34.708  1.00  0.00    -0.206 F 
ATOM     86  C   UNL A   1      46.544  31.724  32.601  1.00  0.00     0.006 A 
ENDBRANCH  65  79
BRANCH  66  87
ATOM     87  C   UNL A   1      37.888  32.440  41.998  1.00  0.00     0.057 A 
ATOM     88  C   UNL A   1      37.310  31.251  42.456  1.00  0.00     0.134 A 
ATOM     89  C   UNL A   1      37.463  33.634  42.596  1.00  0.00     0.134 A 
ATOM     90  F   UNL A   1      37.655  30.077  41.907  1.00  0.00    -0.206 F 
ATOM     91  C   UNL A   1      36.343  31.249  43.464  1.00  0.00     0.040 A 
ATOM     92  C   UNL A   1      36.518  33.645  43.622  1.00  0.00     0.040 A 
ATOM     93  F   UNL A   1      37.978  34.809  42.201  1.00  0.00    -0.206 F 
ATOM     94  C   UNL A   1      35.951  32.449  44.055  1.00  0.00     0.006 A 
ENDBRANCH  66  87
BRANCH  78  95
ATOM     95  C   UNL A   1      44.813  31.579  41.973  1.00  0.00     0.057 A 
ATOM     96  C   UNL A   1      45.215  30.304  42.391  1.00  0.00     0.134 A 
ATOM     97  C   UNL A   1      45.419  32.680  42.594  1.00  0.00     0.134 A 
ATOM     98  F   UNL A   1      44.670  29.205  41.847  1.00  0.00    -0.206 F 
ATOM     99  C   UNL A   1      46.161  30.132  43.404  1.00  0.00     0.040 A 
ATOM    100  C   UNL A   1      46.389  32.520  43.584  1.00  0.00     0.040 A 
ATOM    101  F   UNL A   1      45.090  33.930  42.236  1.00  0.00    -0.206 F 
ATOM    102  C   UNL A   1      46.757  31.243  43.998  1.00  0.00     0.006 A 
ENDBRANCH  78  95
ENDBRANCH  52  53
ENDBRANCH  45  47
ENDBRANCH  44  45
ENDBRANCH  43  44
ENDBRANCH  42  43
ENDBRANCH  41  42
ENDBRANCH  40  41
ENDBRANCH  39  40
ENDBRANCH  38  39
ENDBRANCH   1  38
TORSDOF 25
ENDMDL
MODEL 2
REMARK VINA RESULT:      -9.3      9.329     17.529
REMARK SMILES COc1ccc([C@H]2CC(c3ccc(S(C)(=O)=O)cc3)=NN2c2ccc(C(=O)OCCOCCOCCOCCOC(=O)c3ccc(-c4c5nc(c(-c6c(F)cccc6F)c6ccc([nH]6)c(-c6c(F)cccc6F)c6nc(c(-c7c(F)cccc7F)c7ccc4[nH]7)C=C6)C=C5)cc3)cc2)cc1
REMARK SMILES IDX 33 1 32 2 31 3 30 4 29 5 28 6 26 7 27 8 25 9 22 10 23 11
REMARK SMILES IDX 98 12 24 13 97 14 21 15 7 16 8 17 9 18 20 19 6 20 3 21 4 22
REMARK SMILES IDX 100 23 5 24 99 25 2 26 1 27 10 28 11 29 19 30 12 31 18 32
REMARK SMILES IDX 13 33 14 34 15 35 16 36 17 37 34 38 35 39 36 40 37 41 38 42
REMARK SMILES IDX 39 43 40 44 41 45 42 46 43 47 44 48 96 49 45 50 95 51 46 52
REMARK SMILES IDX 47 53 48 54 89 55 49 56 94 57 88 58 90 59 50 60 93 61 87 62
REMARK SMILES IDX 86 63 51 65 77 66 60 67 76 68 61 69 64 70 75 71 91 72 62 73
REMARK SMILES IDX 63 74 74 76 92 77 65 78 52 79 53 80 58 81 54 82 55 83 57 84
REMARK SMILES IDX 59 85 56 86 78 87 79 88 84 89 80 90 81 91 83 92 85 93 82 94
REMARK SMILES IDX 66 95 67 96 72 97 68 98 69 99 71 100 73 101 70 102
REMARK H PARENT 90 64 64 75
REMARK Flexibility Score: inf
ROOT
ATOM      1  C   UNL A   1      45.031  18.666  36.118  1.00  0.00     0.188 C 
ENDROOT
BRANCH   1   2
ATOM      2  C   UNL A   1      45.297  18.029  37.498  1.00  0.00     0.188 C 
BRANCH   2   3
ATOM      3  O   UNL A   1      44.120  17.630  38.180  1.00  0.00    -0.376 OA
BRANCH   3   4
ATOM      4  C   UNL A   1      43.877  16.250  38.373  1.00  0.00     0.202 C 
BRANCH   4   5
ATOM      5  C   UNL A   1      43.337  15.779  39.731  1.00  0.00     0.261 C 
BRANCH   5   6
ATOM      6  O   UNL A   1      44.303  15.620  40.776  1.00  0.00    -0.460 OA
BRANCH   6   7
ATOM      7  C   UNL A   1      44.419  16.637  41.657  1.00  0.00     0.338 C 
ATOM      8  O   UNL A   1      43.779  16.785  42.683  1.00  0.00    -0.246 OA
BRANCH   7   9
ATOM      9  C   UNL A   1      45.599  17.447  41.275  1.00  0.00     0.060 A 
ATOM     10  C   UNL A   1      47.766  19.045  40.478  1.00  0.00     0.060 A 
ATOM     11  C   UNL A   1      46.588  19.633  40.954  1.00  0.00     0.029 A 
ATOM     12  C   UNL A   1      47.875  17.646  40.503  1.00  0.00     0.029 A 
ATOM     13  C   UNL A   1      45.496  18.842  41.317  1.00  0.00     0.018 A 
ATOM     14  C   UNL A   1      46.808  16.846  40.918  1.00  0.00     0.018 A 
BRANCH  10  15
ATOM     15  N   UNL A   1      48.756  19.819  39.879  1.00  0.00    -0.257 N 
ATOM     16  C   UNL A   1      49.664  20.644  40.683  1.00  0.00     0.144 C 
ATOM     17  C   UNL A   1      50.719  21.078  39.661  1.00  0.00     0.091 C 
ATOM     18  C   UNL A   1      50.238  20.330  38.448  1.00  0.00     0.071 C 
ATOM     19  N   UNL A   1      49.168  19.611  38.601  1.00  0.00    -0.176 NA
BRANCH  16  20
ATOM     20  C   UNL A   1      50.260  19.891  41.869  1.00  0.00    -0.023 A 
ATOM     21  C   UNL A   1      51.415  18.489  44.031  1.00  0.00     0.118 A 
ATOM     22  C   UNL A   1      51.989  18.429  42.761  1.00  0.00     0.047 A 
ATOM     23  C   UNL A   1      50.287  19.282  44.234  1.00  0.00     0.047 A 
ATOM     24  C   UNL A   1      51.416  19.115  41.688  1.00  0.00     0.010 A 
ATOM     25  C   UNL A   1      49.719  19.982  43.162  1.00  0.00     0.010 A 
BRANCH  21  26
ATOM     26  O   UNL A   1      52.069  17.783  45.003  1.00  0.00    -0.497 OA
ATOM     27  C   UNL A   1      52.098  18.392  46.289  1.00  0.00     0.278 C 
ENDBRANCH  21  26
ENDBRANCH  16  20
BRANCH  18  28
ATOM     28  C   UNL A   1      50.930  20.481  37.161  1.00  0.00    -0.002 A 
ATOM     29  C   UNL A   1      51.888  19.527  36.801  1.00  0.00     0.011 A 
ATOM     30  C   UNL A   1      50.612  21.536  36.302  1.00  0.00     0.011 A 
ATOM     31  C   UNL A   1      52.528  19.621  35.564  1.00  0.00     0.021 A 
ATOM     32  C   UNL A   1      51.270  21.647  35.076  1.00  0.00     0.021 A 
ATOM     33  C   UNL A   1      52.226  20.691  34.715  1.00  0.00     0.067 A 
BRANCH  33  34
ATOM     34  S   UNL A   1      53.052  20.808  33.143  1.00  0.00     0.175 S 
ATOM     35  C   UNL A   1      53.695  19.178  32.862  1.00  0.00     0.163 C 
ATOM     36  O   UNL A   1      52.028  21.076  32.153  1.00  0.00    -0.224 OA
ATOM     37  O   UNL A   1      54.185  21.700  33.309  1.00  0.00    -0.224 OA
ENDBRANCH  33  34
ENDBRANCH  18  28
ENDBRANCH  10  15
ENDBRANCH   7   9
ENDBRANCH   6   7
ENDBRANCH   5   6
ENDBRANCH   4   5
ENDBRANCH   3   4
ENDBRANCH   2   3
ENDBRANCH   1   2
BRANCH   1  38
ATOM     38  O   UNL A   1      46.036  18.575  35.118  1.00  0.00    -0.377 OA
BRANCH  38  39
ATOM     39  C   UNL A   1      46.829  19.715  34.795  1.00  0.00     0.188 C 
BRANCH  39  40
ATOM     40  C   UNL A   1      46.248  21.149  34.791  1.00  0.00     0.188 C 
BRANCH  40  41
ATOM     41  O   UNL A   1      47.206  22.181  34.939  1.00  0.00    -0.376 OA
BRANCH  41  42
ATOM     42  C   UNL A   1      46.735  23.481  35.239  1.00  0.00     0.202 C 
BRANCH  42  43
ATOM     43  C   UNL A   1      47.360  24.178  36.455  1.00  0.00     0.261 C 
BRANCH  43  44
ATOM     44  O   UNL A   1      46.464  24.956  37.265  1.00  0.00    -0.460 OA
BRANCH  44  45
ATOM     45  C   UNL A   1      46.569  26.299  37.191  1.00  0.00     0.338 C 
ATOM     46  O   UNL A   1      47.402  27.007  37.732  1.00  0.00    -0.246 OA
BRANCH  45  47
ATOM     47  C   UNL A   1      45.599  26.766  36.181  1.00  0.00     0.060 A 
ATOM     48  C   UNL A   1      45.955  27.818  35.326  1.00  0.00     0.016 A 
ATOM     49  C   UNL A   1      44.349  26.153  36.068  1.00  0.00     0.016 A 
ATOM     50  C   UNL A   1      45.045  28.281  34.375  1.00  0.00     0.010 A 
ATOM     51  C   UNL A   1      43.432  26.631  35.129  1.00  0.00     0.010 A 
ATOM     52  C   UNL A   1      43.765  27.718  34.301  1.00  0.00    -0.014 A 
BRANCH  52  53
ATOM     53  C   UNL A   1      42.716  28.380  33.490  1.00  0.00     0.031 A 
ATOM     54  C   UNL A   1      41.807  29.371  34.164  1.00  0.00     0.074 A 
ATOM     55  C   UNL A   1      42.576  28.120  32.179  1.00  0.00     0.049 A 
ATOM     56  N   UNL A   1      40.798  30.044  33.674  1.00  0.00    -0.248 NA
ATOM     57  C   UNL A   1      42.071  29.630  35.588  1.00  0.00     0.031 C 
ATOM     58  C   UNL A   1      43.408  27.202  31.407  1.00  0.00     0.029 A 
ATOM     59  N   UNL A   1      41.665  28.600  31.271  1.00  0.00    -0.354 N 
ATOM     60  C   UNL A   1      40.300  30.795  34.730  1.00  0.00     0.074 A 
ATOM     61  C   UNL A   1      41.097  30.471  35.894  1.00  0.00     0.031 C 
ATOM     62  C   UNL A   1      42.959  27.170  30.141  1.00  0.00     0.029 A 
ATOM     63  C   UNL A   1      41.789  28.040  30.023  1.00  0.00     0.049 A 
ATOM     64  H   UNL A   1      40.989  29.280  31.493  1.00  0.00     0.167 HD
ATOM     65  C   UNL A   1      39.273  31.678  34.730  1.00  0.00     0.037 A 
ATOM     66  C   UNL A   1      41.028  28.192  28.922  1.00  0.00     0.037 A 
ATOM     67  C   UNL A   1      38.480  31.992  33.571  1.00  0.00     0.049 A 
ATOM     68  C   UNL A   1      39.854  29.136  28.957  1.00  0.00     0.074 A 
ATOM     69  C   UNL A   1      37.445  32.904  33.455  1.00  0.00     0.029 A 
ATOM     70  N   UNL A   1      38.622  31.390  32.329  1.00  0.00    -0.354 N 
ATOM     71  N   UNL A   1      39.418  29.878  29.945  1.00  0.00    -0.248 NA
ATOM     72  C   UNL A   1      39.071  29.268  27.719  1.00  0.00     0.031 C 
ATOM     73  C   UNL A   1      36.915  32.802  32.165  1.00  0.00     0.029 A 
ATOM     74  C   UNL A   1      37.666  31.880  31.453  1.00  0.00     0.049 A 
ATOM     75  H   UNL A   1      39.301  30.714  32.103  1.00  0.00     0.167 HD
ATOM     76  C   UNL A   1      38.326  30.580  29.446  1.00  0.00     0.074 A 
ATOM     77  C   UNL A   1      38.178  30.186  28.060  1.00  0.00     0.031 C 
ATOM     78  C   UNL A   1      37.522  31.473  30.076  1.00  0.00     0.037 A 
BRANCH  65  79
ATOM     79  C   UNL A   1      38.922  32.326  36.039  1.00  0.00     0.057 A 
ATOM     80  C   UNL A   1      38.117  31.692  36.997  1.00  0.00     0.134 A 
ATOM     81  C   UNL A   1      39.403  33.604  36.349  1.00  0.00     0.134 A 
ATOM     82  F   UNL A   1      37.610  30.473  36.760  1.00  0.00    -0.206 F 
ATOM     83  C   UNL A   1      37.774  32.322  38.194  1.00  0.00     0.040 A 
ATOM     84  C   UNL A   1      39.095  34.230  37.557  1.00  0.00     0.040 A 
ATOM     85  F   UNL A   1      40.184  34.267  35.480  1.00  0.00    -0.206 F 
ATOM     86  C   UNL A   1      38.270  33.593  38.479  1.00  0.00     0.006 A 
ENDBRANCH  65  79
BRANCH  66  87
ATOM     87  C   UNL A   1      41.344  27.415  27.697  1.00  0.00     0.057 A 
ATOM     88  C   UNL A   1      40.812  26.139  27.482  1.00  0.00     0.134 A 
ATOM     89  C   UNL A   1      42.187  27.936  26.706  1.00  0.00     0.134 A 
ATOM     90  F   UNL A   1      40.019  25.574  28.404  1.00  0.00    -0.206 F 
ATOM     91  C   UNL A   1      41.112  25.406  26.332  1.00  0.00     0.040 A 
ATOM     92  C   UNL A   1      42.474  27.227  25.540  1.00  0.00     0.040 A 
ATOM     93  F   UNL A   1      42.731  29.154  26.853  1.00  0.00    -0.206 F 
ATOM     94  C   UNL A   1      41.939  25.955  25.353  1.00  0.00     0.006 A 
ENDBRANCH  66  87
BRANCH  78  95
ATOM     95  C   UNL A   1      36.425  32.108  29.269  1.00  0.00     0.057 A 
ATOM     96  C   UNL A   1      35.262  31.411  28.915  1.00  0.00     0.134 A 
ATOM     97  C   UNL A   1      36.515  33.450  28.874  1.00  0.00     0.134 A 
ATOM     98  F   UNL A   1      35.113  30.121  29.251  1.00  0.00    -0.206 F 
ATOM     99  C   UNL A   1      34.244  32.017  28.176  1.00  0.00     0.040 A 
ATOM    100  C   UNL A   1      35.490  34.075  28.164  1.00  0.00     0.040 A 
ATOM    101  F   UNL A   1      37.595  34.181  29.189  1.00  0.00    -0.206 F 
ATOM    102  C   UNL A   1      34.353  33.357  27.806  1.00  0.00     0.006 A 
ENDBRANCH  78  95
ENDBRANCH  52  53
ENDBRANCH  45  47
ENDBRANCH  44  45
ENDBRANCH  43  44
ENDBRANCH  42  43
ENDBRANCH  41  42
ENDBRANCH  40  41
ENDBRANCH  39  40
ENDBRANCH  38  39
ENDBRANCH   1  38
TORSDOF 25
ENDMDL
MODEL 3
REMARK VINA RESULT:      -8.8      6.960     13.261
REMARK SMILES COc1ccc([C@H]2CC(c3ccc(S(C)(=O)=O)cc3)=NN2c2ccc(C(=O)OCCOCCOCCOCCOC(=O)c3ccc(-c4c5nc(c(-c6c(F)cccc6F)c6ccc([nH]6)c(-c6c(F)cccc6F)c6nc(c(-c7c(F)cccc7F)c7ccc4[nH]7)C=C6)C=C5)cc3)cc2)cc1
REMARK SMILES IDX 33 1 32 2 31 3 30 4 29 5 28 6 26 7 27 8 25 9 22 10 23 11
REMARK SMILES IDX 98 12 24 13 97 14 21 15 7 16 8 17 9 18 20 19 6 20 3 21 4 22
REMARK SMILES IDX 100 23 5 24 99 25 2 26 1 27 10 28 11 29 19 30 12 31 18 32
REMARK SMILES IDX 13 33 14 34 15 35 16 36 17 37 34 38 35 39 36 40 37 41 38 42
REMARK SMILES IDX 39 43 40 44 41 45 42 46 43 47 44 48 96 49 45 50 95 51 46 52
REMARK SMILES IDX 47 53 48 54 89 55 49 56 94 57 88 58 90 59 50 60 93 61 87 62
REMARK SMILES IDX 86 63 51 65 77 66 60 67 76 68 61 69 64 70 75 71 91 72 62 73
REMARK SMILES IDX 63 74 74 76 92 77 65 78 52 79 53 80 58 81 54 82 55 83 57 84
REMARK SMILES IDX 59 85 56 86 78 87 79 88 84 89 80 90 81 91 83 92 85 93 82 94
REMARK SMILES IDX 66 95 67 96 72 97 68 98 69 99 71 100 73 101 70 102
REMARK H PARENT 90 64 64 75
REMARK Flexibility Score: inf
ROOT
ATOM      1  C   UNL A   1      33.470  32.708  27.978  1.00  0.00     0.188 C 
ENDROOT
BRANCH   1   2
ATOM      2  C   UNL A   1      33.333  34.233  28.167  1.00  0.00     0.188 C 
BRANCH   2   3
ATOM      3  O   UNL A   1      32.536  34.603  29.280  1.00  0.00    -0.376 OA
BRANCH   3   4
ATOM      4  C   UNL A   1      32.897  35.748  30.027  1.00  0.00     0.202 C 
BRANCH   4   5
ATOM      5  C   UNL A   1      33.400  35.562  31.466  1.00  0.00     0.261 C 
BRANCH   5   6
ATOM      6  O   UNL A   1      34.016  34.303  31.763  1.00  0.00    -0.460 OA
BRANCH   6   7
ATOM      7  C   UNL A   1      35.318  34.170  31.428  1.00  0.00     0.338 C 
ATOM      8  O   UNL A   1      35.797  34.289  30.314  1.00  0.00    -0.246 OA
BRANCH   7   9
ATOM      9  C   UNL A   1      36.107  34.053  32.676  1.00  0.00     0.060 A 
ATOM     10  C   UNL A   1      37.511  33.878  35.103  1.00  0.00     0.060 A 
ATOM     11  C   UNL A   1      36.238  33.310  34.976  1.00  0.00     0.029 A 
ATOM     12  C   UNL A   1      38.108  34.445  33.965  1.00  0.00     0.029 A 
ATOM     13  C   UNL A   1      35.522  33.427  33.783  1.00  0.00     0.018 A 
ATOM     14  C   UNL A   1      37.423  34.516  32.750  1.00  0.00     0.018 A 
BRANCH  10  15
ATOM     15  N   UNL A   1      38.120  33.990  36.348  1.00  0.00    -0.257 N 
ATOM     16  C   UNL A   1      38.660  32.813  37.038  1.00  0.00     0.144 C 
ATOM     17  C   UNL A   1      39.451  33.432  38.194  1.00  0.00     0.091 C 
ATOM     18  C   UNL A   1      39.270  34.893  37.887  1.00  0.00     0.071 C 
ATOM     19  N   UNL A   1      38.559  35.179  36.840  1.00  0.00    -0.176 NA
BRANCH  16  20
ATOM     20  C   UNL A   1      39.518  31.934  36.134  1.00  0.00    -0.023 A 
ATOM     21  C   UNL A   1      41.158  30.331  34.485  1.00  0.00     0.118 A 
ATOM     22  C   UNL A   1      41.704  31.388  35.213  1.00  0.00     0.047 A 
ATOM     23  C   UNL A   1      39.800  30.045  34.611  1.00  0.00     0.047 A 
ATOM     24  C   UNL A   1      40.895  32.187  36.023  1.00  0.00     0.010 A 
ATOM     25  C   UNL A   1      38.988  30.837  35.433  1.00  0.00     0.010 A 
BRANCH  21  26
ATOM     26  O   UNL A   1      42.049  29.615  33.735  1.00  0.00    -0.497 OA
ATOM     27  C   UNL A   1      42.553  28.431  34.344  1.00  0.00     0.278 C 
ENDBRANCH  21  26
ENDBRANCH  16  20
BRANCH  18  28
ATOM     28  C   UNL A   1      39.830  35.913  38.784  1.00  0.00    -0.002 A 
ATOM     29  C   UNL A   1      39.291  36.043  40.068  1.00  0.00     0.011 A 
ATOM     30  C   UNL A   1      40.902  36.710  38.373  1.00  0.00     0.011 A 
ATOM     31  C   UNL A   1      39.834  36.973  40.956  1.00  0.00     0.021 A 
ATOM     32  C   UNL A   1      41.430  37.659  39.251  1.00  0.00     0.021 A 
ATOM     33  C   UNL A   1      40.892  37.787  40.537  1.00  0.00     0.067 A 
BRANCH  33  34
ATOM     34  S   UNL A   1      41.574  38.974  41.672  1.00  0.00     0.175 S 
ATOM     35  C   UNL A   1      40.171  39.572  42.579  1.00  0.00     0.163 C 
ATOM     36  O   UNL A   1      42.430  38.238  42.581  1.00  0.00    -0.224 OA
ATOM     37  O   UNL A   1      42.089  40.083  40.889  1.00  0.00    -0.224 OA
ENDBRANCH  33  34
ENDBRANCH  18  28
ENDBRANCH  10  15
ENDBRANCH   7   9
ENDBRANCH   6   7
ENDBRANCH   5   6
ENDBRANCH   4   5
ENDBRANCH   3   4
ENDBRANCH   2   3
ENDBRANCH   1   2
BRANCH   1  38
ATOM     38  O   UNL A   1      34.375  31.995  28.809  1.00  0.00    -0.377 OA
BRANCH  38  39
ATOM     39  C   UNL A   1      35.470  31.288  28.232  1.00  0.00     0.188 C 
BRANCH  39  40
ATOM     40  C   UNL A   1      36.787  31.038  29.004  1.00  0.00     0.188 C 
BRANCH  40  41
ATOM     41  O   UNL A   1      37.805  31.995  28.773  1.00  0.00    -0.376 OA
BRANCH  41  42
ATOM     42  C   UNL A   1      38.530  32.471  29.891  1.00  0.00     0.202 C 
BRANCH  42  43
ATOM     43  C   UNL A   1      39.507  31.487  30.549  1.00  0.00     0.261 C 
BRANCH  43  44
ATOM     44  O   UNL A   1      40.337  32.025  31.590  1.00  0.00    -0.460 OA
BRANCH  44  45
ATOM     45  C   UNL A   1      41.633  32.253  31.295  1.00  0.00     0.338 C 
ATOM     46  O   UNL A   1      42.297  31.723  30.418  1.00  0.00    -0.246 OA
BRANCH  45  47
ATOM     47  C   UNL A   1      42.079  33.404  32.105  1.00  0.00     0.060 A 
ATOM     48  C   UNL A   1      43.439  33.742  32.123  1.00  0.00     0.016 A 
ATOM     49  C   UNL A   1      41.151  34.157  32.828  1.00  0.00     0.016 A 
ATOM     50  C   UNL A   1      43.878  34.819  32.893  1.00  0.00     0.010 A 
ATOM     51  C   UNL A   1      41.596  35.222  33.615  1.00  0.00     0.010 A 
ATOM     52  C   UNL A   1      42.965  35.537  33.676  1.00  0.00    -0.014 A 
BRANCH  52  53
ATOM     53  C   UNL A   1      43.461  36.494  34.694  1.00  0.00     0.031 A 
ATOM     54  C   UNL A   1      43.786  35.974  36.067  1.00  0.00     0.074 A 
ATOM     55  C   UNL A   1      43.632  37.795  34.407  1.00  0.00     0.049 A 
ATOM     56  N   UNL A   1      44.197  36.622  37.127  1.00  0.00    -0.248 NA
ATOM     57  C   UNL A   1      43.618  34.527  36.271  1.00  0.00     0.031 C 
ATOM     58  C   UNL A   1      43.377  38.414  33.109  1.00  0.00     0.029 A 
ATOM     59  N   UNL A   1      44.049  38.833  35.203  1.00  0.00    -0.354 N 
ATOM     60  C   UNL A   1      44.323  35.665  38.126  1.00  0.00     0.074 A 
ATOM     61  C   UNL A   1      43.917  34.399  37.554  1.00  0.00     0.031 C 
ATOM     62  C   UNL A   1      43.626  39.732  33.201  1.00  0.00     0.029 A 
ATOM     63  C   UNL A   1      44.027  40.052  34.571  1.00  0.00     0.049 A 
ATOM     64  H   UNL A   1      44.336  38.714  36.137  1.00  0.00     0.167 HD
ATOM     65  C   UNL A   1      44.743  35.825  39.403  1.00  0.00     0.037 A 
ATOM     66  C   UNL A   1      44.273  41.285  35.052  1.00  0.00     0.037 A 
ATOM     67  C   UNL A   1      45.142  37.087  39.968  1.00  0.00     0.049 A 
ATOM     68  C   UNL A   1      44.685  41.451  36.492  1.00  0.00     0.074 A 
ATOM     69  C   UNL A   1      45.624  37.349  41.238  1.00  0.00     0.029 A 
ATOM     70  N   UNL A   1      45.086  38.304  39.304  1.00  0.00    -0.354 N 
ATOM     71  N   UNL A   1      44.848  40.537  37.417  1.00  0.00    -0.248 NA
ATOM     72  C   UNL A   1      44.953  42.822  36.952  1.00  0.00     0.031 C 
ATOM     73  C   UNL A   1      45.792  38.732  41.365  1.00  0.00     0.029 A 
ATOM     74  C   UNL A   1      45.485  39.326  40.151  1.00  0.00     0.049 A 
ATOM     75  H   UNL A   1      44.804  38.424  38.368  1.00  0.00     0.167 HD
ATOM     76  C   UNL A   1      45.258  41.215  38.560  1.00  0.00     0.074 A 
ATOM     77  C   UNL A   1      45.335  42.617  38.205  1.00  0.00     0.031 C 
ATOM     78  C   UNL A   1      45.549  40.721  39.789  1.00  0.00     0.037 A 
BRANCH  65  79
ATOM     79  C   UNL A   1      44.744  34.610  40.285  1.00  0.00     0.057 A 
ATOM     80  C   UNL A   1      43.648  34.269  41.092  1.00  0.00     0.134 A 
ATOM     81  C   UNL A   1      45.859  33.762  40.323  1.00  0.00     0.134 A 
ATOM     82  F   UNL A   1      42.554  35.044  41.116  1.00  0.00    -0.206 F 
ATOM     83  C   UNL A   1      43.678  33.153  41.930  1.00  0.00     0.040 A 
ATOM     84  C   UNL A   1      45.887  32.626  41.132  1.00  0.00     0.040 A 
ATOM     85  F   UNL A   1      46.940  34.025  39.573  1.00  0.00    -0.206 F 
ATOM     86  C   UNL A   1      44.799  32.324  41.947  1.00  0.00     0.006 A 
ENDBRANCH  65  79
BRANCH  66  87
ATOM     87  C   UNL A   1      44.119  42.465  34.163  1.00  0.00     0.057 A 
ATOM     88  C   UNL A   1      42.940  43.218  34.144  1.00  0.00     0.134 A 
ATOM     89  C   UNL A   1      45.156  42.870  33.311  1.00  0.00     0.134 A 
ATOM     90  F   UNL A   1      41.902  42.866  34.917  1.00  0.00    -0.206 F 
ATOM     91  C   UNL A   1      42.793  44.325  33.306  1.00  0.00     0.040 A 
ATOM     92  C   UNL A   1      45.033  43.990  32.488  1.00  0.00     0.040 A 
ATOM     93  F   UNL A   1      46.312  42.189  33.281  1.00  0.00    -0.206 F 
ATOM     94  C   UNL A   1      43.846  44.718  32.481  1.00  0.00     0.006 A 
ENDBRANCH  66  87
BRANCH  78  95
ATOM     95  C   UNL A   1      46.004  41.697  40.838  1.00  0.00     0.057 A 
ATOM     96  C   UNL A   1      45.097  42.432  41.614  1.00  0.00     0.134 A 
ATOM     97  C   UNL A   1      47.368  41.873  41.105  1.00  0.00     0.134 A 
ATOM     98  F   UNL A   1      43.776  42.320  41.407  1.00  0.00    -0.206 F 
ATOM     99  C   UNL A   1      45.532  43.325  42.595  1.00  0.00     0.040 A 
ATOM    100  C   UNL A   1      47.813  42.738  42.105  1.00  0.00     0.040 A 
ATOM    101  F   UNL A   1      48.291  41.193  40.409  1.00  0.00    -0.206 F 
ATOM    102  C   UNL A   1      46.895  43.474  42.848  1.00  0.00     0.006 A 
ENDBRANCH  78  95
ENDBRANCH  52  53
ENDBRANCH  45  47
ENDBRANCH  44  45
ENDBRANCH  43  44
ENDBRANCH  42  43
ENDBRANCH  41  42
ENDBRANCH  40  41
ENDBRANCH  39  40
ENDBRANCH  38  39
ENDBRANCH   1  38
TORSDOF 25
ENDMDL
