MODEL 1
REMARK VINA RESULT:     -10.4      0.000      0.000
REMARK SMILES O=C(OCCOCCOCCOCCOC(=O)c1ccc(S(=O)(=O)N[C@@H]2CC[N@H+]3CCC[C@H]23)cc1)c1ccc(-c2c3nc(c(-c4c(F)cccc4F)c4ccc([nH]4)c(-c4c(F)cccc4F)c4nc(c(-c5c(F)cccc5F)c5ccc2[nH]5)C=C4)C=C3)cc1
REMARK SMILES IDX 10 1 9 2 8 3 7 4 6 5 5 6 4 7 3 8 2 9 1 10 36 11 37 12 89 13
REMARK SMILES IDX 38 14 88 15 39 16 40 17 41 18 82 19 42 20 87 21 81 22 83 23
REMARK SMILES IDX 43 24 86 25 80 26 79 27 44 29 70 30 53 31 69 32 54 33 57 34
REMARK SMILES IDX 68 35 84 36 55 37 56 38 67 40 85 41 58 42 45 43 46 44 51 45
REMARK SMILES IDX 47 46 48 47 50 48 52 49 49 50 71 51 72 52 77 53 73 54 74 55
REMARK SMILES IDX 76 56 78 57 75 58 59 59 60 60 65 61 61 62 62 63 64 64 66 65
REMARK SMILES IDX 63 66 11 67 12 68 13 69 14 70 15 71 16 72 17 73 18 74 19 75
REMARK SMILES IDX 35 76 20 77 34 78 21 79 22 80 23 81 24 82 25 83 26 85 27 86
REMARK SMILES IDX 33 87 28 88 29 89 32 90 30 91 31 93
REMARK H PARENT 83 28 57 39 25 84 29 92
REMARK Flexibility Score: inf
ROOT
ATOM      1  C   UNL A   1      33.829  29.880  26.757  1.00  0.00     0.188 C 
ENDROOT
BRANCH   1   2
ATOM      2  O   UNL A   1      34.562  30.858  27.486  1.00  0.00    -0.377 OA
BRANCH   2   3
ATOM      3  C   UNL A   1      33.798  31.948  28.008  1.00  0.00     0.188 C 
BRANCH   3   4
ATOM      4  C   UNL A   1      34.431  32.641  29.216  1.00  0.00     0.188 C 
BRANCH   4   5
ATOM      5  O   UNL A   1      34.039  34.017  29.238  1.00  0.00    -0.376 OA
BRANCH   5   6
ATOM      6  C   UNL A   1      34.229  34.687  30.481  1.00  0.00     0.202 C 
BRANCH   6   7
ATOM      7  C   UNL A   1      34.453  33.753  31.671  1.00  0.00     0.261 C 
BRANCH   7   8
ATOM      8  O   UNL A   1      35.828  33.702  32.086  1.00  0.00    -0.460 OA
BRANCH   8   9
ATOM      9  C   UNL A   1      36.482  32.648  32.639  1.00  0.00     0.338 C 
ATOM     10  O   UNL A   1      36.210  32.311  33.789  1.00  0.00    -0.246 OA
BRANCH   9  11
ATOM     11  C   UNL A   1      37.467  31.821  31.884  1.00  0.00     0.060 A 
ATOM     12  C   UNL A   1      38.324  30.885  32.463  1.00  0.00     0.016 A 
ATOM     13  C   UNL A   1      37.479  31.952  30.488  1.00  0.00     0.016 A 
ATOM     14  C   UNL A   1      39.278  30.214  31.712  1.00  0.00     0.010 A 
ATOM     15  C   UNL A   1      38.392  31.228  29.712  1.00  0.00     0.010 A 
ATOM     16  C   UNL A   1      39.337  30.401  30.334  1.00  0.00    -0.014 A 
BRANCH  16  17
ATOM     17  C   UNL A   1      40.517  29.887  29.610  1.00  0.00     0.031 A 
ATOM     18  C   UNL A   1      41.720  30.780  29.512  1.00  0.00     0.074 A 
ATOM     19  C   UNL A   1      40.567  28.609  29.192  1.00  0.00     0.049 A 
ATOM     20  N   UNL A   1      42.839  30.602  28.866  1.00  0.00    -0.248 NA
ATOM     21  C   UNL A   1      41.648  32.055  30.249  1.00  0.00     0.031 C 
ATOM     22  C   UNL A   1      39.501  27.620  29.367  1.00  0.00     0.029 A 
ATOM     23  N   UNL A   1      41.571  27.911  28.576  1.00  0.00    -0.354 N 
ATOM     24  C   UNL A   1      43.572  31.766  29.063  1.00  0.00     0.074 A 
ATOM     25  C   UNL A   1      42.780  32.640  29.896  1.00  0.00     0.031 C 
ATOM     26  C   UNL A   1      39.931  26.429  28.915  1.00  0.00     0.029 A 
ATOM     27  C   UNL A   1      41.265  26.591  28.349  1.00  0.00     0.049 A 
ATOM     28  H   UNL A   1      42.431  28.317  28.321  1.00  0.00     0.167 HD
ATOM     29  C   UNL A   1      44.797  32.075  28.580  1.00  0.00     0.037 A 
ATOM     30  C   UNL A   1      41.983  25.636  27.729  1.00  0.00     0.037 A 
ATOM     31  C   UNL A   1      45.585  31.168  27.794  1.00  0.00     0.049 A 
ATOM     32  C   UNL A   1      43.324  26.014  27.161  1.00  0.00     0.074 A 
ATOM     33  C   UNL A   1      46.810  31.375  27.192  1.00  0.00     0.029 A 
ATOM     34  N   UNL A   1      45.217  29.856  27.525  1.00  0.00    -0.354 N 
ATOM     35  N   UNL A   1      43.966  27.156  27.250  1.00  0.00    -0.248 NA
ATOM     36  C   UNL A   1      44.027  24.987  26.385  1.00  0.00     0.031 C 
ATOM     37  C   UNL A   1      47.173  30.193  26.536  1.00  0.00     0.029 A 
ATOM     38  C   UNL A   1      46.190  29.240  26.761  1.00  0.00     0.049 A 
ATOM     39  H   UNL A   1      44.386  29.428  27.832  1.00  0.00     0.167 HD
ATOM     40  C   UNL A   1      45.150  26.984  26.548  1.00  0.00     0.074 A 
ATOM     41  C   UNL A   1      45.148  25.617  26.061  1.00  0.00     0.031 C 
ATOM     42  C   UNL A   1      46.148  27.871  26.312  1.00  0.00     0.037 A 
BRANCH  29  43
ATOM     43  C   UNL A   1      45.290  33.468  28.832  1.00  0.00     0.057 A 
ATOM     44  C   UNL A   1      45.003  34.535  27.970  1.00  0.00     0.134 A 
ATOM     45  C   UNL A   1      46.128  33.728  29.924  1.00  0.00     0.134 A 
ATOM     46  F   UNL A   1      44.237  34.345  26.886  1.00  0.00    -0.206 F 
ATOM     47  C   UNL A   1      45.560  35.801  28.167  1.00  0.00     0.040 A 
ATOM     48  C   UNL A   1      46.672  34.994  30.144  1.00  0.00     0.040 A 
ATOM     49  F   UNL A   1      46.451  32.748  30.782  1.00  0.00    -0.206 F 
ATOM     50  C   UNL A   1      46.396  36.033  29.258  1.00  0.00     0.006 A 
ENDBRANCH  29  43
BRANCH  30  51
ATOM     51  C   UNL A   1      41.440  24.261  27.579  1.00  0.00     0.057 A 
ATOM     52  C   UNL A   1      40.421  23.977  26.661  1.00  0.00     0.134 A 
ATOM     53  C   UNL A   1      41.918  23.194  28.352  1.00  0.00     0.134 A 
ATOM     54  F   UNL A   1      39.902  24.956  25.905  1.00  0.00    -0.206 F 
ATOM     55  C   UNL A   1      39.893  22.690  26.524  1.00  0.00     0.040 A 
ATOM     56  C   UNL A   1      41.419  21.898  28.207  1.00  0.00     0.040 A 
ATOM     57  F   UNL A   1      42.892  23.394  29.253  1.00  0.00    -0.206 F 
ATOM     58  C   UNL A   1      40.398  21.644  27.294  1.00  0.00     0.006 A 
ENDBRANCH  30  51
BRANCH  42  59
ATOM     59  C   UNL A   1      47.318  27.374  25.524  1.00  0.00     0.057 A 
ATOM     60  C   UNL A   1      47.403  27.565  24.139  1.00  0.00     0.134 A 
ATOM     61  C   UNL A   1      48.387  26.736  26.164  1.00  0.00     0.134 A 
ATOM     62  F   UNL A   1      46.402  28.159  23.471  1.00  0.00    -0.206 F 
ATOM     63  C   UNL A   1      48.509  27.121  23.414  1.00  0.00     0.040 A 
ATOM     64  C   UNL A   1      49.506  26.307  25.452  1.00  0.00     0.040 A 
ATOM     65  F   UNL A   1      48.363  26.533  27.490  1.00  0.00    -0.206 F 
ATOM     66  C   UNL A   1      49.566  26.496  24.072  1.00  0.00     0.006 A 
ENDBRANCH  42  59
ENDBRANCH  16  17
ENDBRANCH   9  11
ENDBRANCH   8   9
ENDBRANCH   7   8
ENDBRANCH   6   7
ENDBRANCH   5   6
ENDBRANCH   4   5
ENDBRANCH   3   4
ENDBRANCH   2   3
ENDBRANCH   1   2
BRANCH   1  67
ATOM     67  C   UNL A   1      32.319  30.104  26.544  1.00  0.00     0.188 C 
BRANCH  67  68
ATOM     68  O   UNL A   1      31.787  29.550  25.345  1.00  0.00    -0.376 OA
BRANCH  68  69
ATOM     69  C   UNL A   1      32.745  29.328  24.310  1.00  0.00     0.202 C 
BRANCH  69  70
ATOM     70  C   UNL A   1      32.136  29.251  22.903  1.00  0.00     0.261 C 
BRANCH  70  71
ATOM     71  O   UNL A   1      31.705  27.935  22.530  1.00  0.00    -0.460 OA
BRANCH  71  72
ATOM     72  C   UNL A   1      32.641  26.962  22.487  1.00  0.00     0.338 C 
ATOM     73  O   UNL A   1      33.695  26.986  21.877  1.00  0.00    -0.246 OA
BRANCH  72  74
ATOM     74  C   UNL A   1      32.282  25.960  23.519  1.00  0.00     0.060 A 
ATOM     75  C   UNL A   1      33.123  25.834  24.637  1.00  0.00     0.017 A 
ATOM     76  C   UNL A   1      31.062  25.268  23.469  1.00  0.00     0.017 A 
ATOM     77  C   UNL A   1      32.748  25.013  25.700  1.00  0.00     0.022 A 
ATOM     78  C   UNL A   1      30.691  24.439  24.527  1.00  0.00     0.022 A 
ATOM     79  C   UNL A   1      31.552  24.294  25.621  1.00  0.00     0.082 A 
BRANCH  79  80
ATOM     80  S   UNL A   1      31.215  23.032  26.820  1.00  0.00     0.241 S 
ATOM     81  O   UNL A   1      32.315  22.956  27.753  1.00  0.00    -0.207 OA
ATOM     82  O   UNL A   1      29.852  23.223  27.269  1.00  0.00    -0.207 OA
BRANCH  80  83
ATOM     83  N   UNL A   1      31.217  21.642  25.911  1.00  0.00    -0.202 NA
ATOM     84  H   UNL A   1      30.843  21.922  25.004  1.00  0.00     0.141 HD
BRANCH  83  85
ATOM     85  C   UNL A   1      32.371  20.782  25.592  1.00  0.00     0.133 C 
ATOM     86  C   UNL A   1      33.645  20.941  26.457  1.00  0.00     0.087 C 
ATOM     87  C   UNL A   1      32.939  21.115  24.209  1.00  0.00     0.202 C 
ATOM     88  C   UNL A   1      34.662  21.749  25.620  1.00  0.00     0.264 C 
ATOM     89  N   UNL A   1      33.843  22.219  24.528  1.00  0.00    -0.331 N 
ATOM     90  C   UNL A   1      32.152  21.744  23.081  1.00  0.00     0.072 C 
ATOM     91  C   UNL A   1      34.437  22.633  23.278  1.00  0.00     0.262 C 
ATOM     92  H   UNL A   1      33.448  23.088  24.885  1.00  0.00     0.348 HD
ATOM     93  C   UNL A   1      33.222  22.573  22.340  1.00  0.00     0.068 C 
ENDBRANCH  83  85
ENDBRANCH  80  83
ENDBRANCH  79  80
ENDBRANCH  72  74
ENDBRANCH  71  72
ENDBRANCH  70  71
ENDBRANCH  69  70
ENDBRANCH  68  69
ENDBRANCH  67  68
ENDBRANCH   1  67
TORSDOF 23
ENDMDL
MODEL 2
REMARK VINA RESULT:     -10.3      4.669      8.400
REMARK SMILES O=C(OCCOCCOCCOCCOC(=O)c1ccc(S(=O)(=O)N[C@@H]2CC[N@H+]3CCC[C@H]23)cc1)c1ccc(-c2c3nc(c(-c4c(F)cccc4F)c4ccc([nH]4)c(-c4c(F)cccc4F)c4nc(c(-c5c(F)cccc5F)c5ccc2[nH]5)C=C4)C=C3)cc1
REMARK SMILES IDX 10 1 9 2 8 3 7 4 6 5 5 6 4 7 3 8 2 9 1 10 36 11 37 12 89 13
REMARK SMILES IDX 38 14 88 15 39 16 40 17 41 18 82 19 42 20 87 21 81 22 83 23
REMARK SMILES IDX 43 24 86 25 80 26 79 27 44 29 70 30 53 31 69 32 54 33 57 34
REMARK SMILES IDX 68 35 84 36 55 37 56 38 67 40 85 41 58 42 45 43 46 44 51 45
REMARK SMILES IDX 47 46 48 47 50 48 52 49 49 50 71 51 72 52 77 53 73 54 74 55
REMARK SMILES IDX 76 56 78 57 75 58 59 59 60 60 65 61 61 62 62 63 64 64 66 65
REMARK SMILES IDX 63 66 11 67 12 68 13 69 14 70 15 71 16 72 17 73 18 74 19 75
REMARK SMILES IDX 35 76 20 77 34 78 21 79 22 80 23 81 24 82 25 83 26 85 27 86
REMARK SMILES IDX 33 87 28 88 29 89 32 90 30 91 31 93
REMARK H PARENT 83 28 57 39 25 84 29 92
REMARK Flexibility Score: inf
ROOT
ATOM      1  C   UNL A   1      34.895  29.315  27.222  1.00  0.00     0.188 C 
ENDROOT
BRANCH   1   2
ATOM      2  O   UNL A   1      35.153  30.296  28.220  1.00  0.00    -0.377 OA
BRANCH   2   3
ATOM      3  C   UNL A   1      34.507  31.559  28.035  1.00  0.00     0.188 C 
BRANCH   3   4
ATOM      4  C   UNL A   1      34.578  32.488  29.248  1.00  0.00     0.188 C 
BRANCH   4   5
ATOM      5  O   UNL A   1      35.370  33.635  28.926  1.00  0.00    -0.376 OA
BRANCH   5   6
ATOM      6  C   UNL A   1      34.636  34.818  28.619  1.00  0.00     0.202 C 
BRANCH   6   7
ATOM      7  C   UNL A   1      33.201  34.822  29.147  1.00  0.00     0.261 C 
BRANCH   7   8
ATOM      8  O   UNL A   1      33.036  35.662  30.301  1.00  0.00    -0.460 OA
BRANCH   8   9
ATOM      9  C   UNL A   1      33.037  35.281  31.604  1.00  0.00     0.338 C 
ATOM     10  O   UNL A   1      31.981  35.297  32.234  1.00  0.00    -0.246 OA
BRANCH   9  11
ATOM     11  C   UNL A   1      34.253  34.763  32.294  1.00  0.00     0.060 A 
ATOM     12  C   UNL A   1      35.486  35.414  32.323  1.00  0.00     0.016 A 
ATOM     13  C   UNL A   1      34.122  33.569  33.018  1.00  0.00     0.016 A 
ATOM     14  C   UNL A   1      36.600  34.833  32.910  1.00  0.00     0.010 A 
ATOM     15  C   UNL A   1      35.223  33.007  33.672  1.00  0.00     0.010 A 
ATOM     16  C   UNL A   1      36.484  33.611  33.565  1.00  0.00    -0.014 A 
BRANCH  16  17
ATOM     17  C   UNL A   1      37.722  32.900  33.941  1.00  0.00     0.031 A 
ATOM     18  C   UNL A   1      38.315  31.953  32.938  1.00  0.00     0.074 A 
ATOM     19  C   UNL A   1      38.377  33.207  35.075  1.00  0.00     0.049 A 
ATOM     20  N   UNL A   1      39.339  31.152  33.052  1.00  0.00    -0.248 NA
ATOM     21  C   UNL A   1      37.660  31.906  31.618  1.00  0.00     0.031 C 
ATOM     22  C   UNL A   1      37.954  34.216  36.049  1.00  0.00     0.029 A 
ATOM     23  N   UNL A   1      39.560  32.735  35.577  1.00  0.00    -0.354 N 
ATOM     24  C   UNL A   1      39.406  30.460  31.849  1.00  0.00     0.074 A 
ATOM     25  C   UNL A   1      38.331  30.940  31.013  1.00  0.00     0.031 C 
ATOM     26  C   UNL A   1      38.893  34.322  37.005  1.00  0.00     0.029 A 
ATOM     27  C   UNL A   1      39.938  33.337  36.753  1.00  0.00     0.049 A 
ATOM     28  H   UNL A   1      40.090  32.031  35.137  1.00  0.00     0.167 HD
ATOM     29  C   UNL A   1      40.288  29.502  31.484  1.00  0.00     0.037 A 
ATOM     30  C   UNL A   1      41.000  33.092  37.542  1.00  0.00     0.037 A 
ATOM     31  C   UNL A   1      41.378  29.077  32.315  1.00  0.00     0.049 A 
ATOM     32  C   UNL A   1      41.944  31.991  37.138  1.00  0.00     0.074 A 
ATOM     33  C   UNL A   1      42.305  28.077  32.094  1.00  0.00     0.029 A 
ATOM     34  N   UNL A   1      41.697  29.662  33.534  1.00  0.00    -0.354 N 
ATOM     35  N   UNL A   1      41.938  31.257  36.050  1.00  0.00    -0.248 NA
ATOM     36  C   UNL A   1      43.021  31.664  38.079  1.00  0.00     0.031 C 
ATOM     37  C   UNL A   1      43.170  28.041  33.193  1.00  0.00     0.029 A 
ATOM     38  C   UNL A   1      42.804  29.043  34.081  1.00  0.00     0.049 A 
ATOM     39  H   UNL A   1      41.205  30.409  33.947  1.00  0.00     0.167 HD
ATOM     40  C   UNL A   1      43.011  30.385  36.171  1.00  0.00     0.074 A 
ATOM     41  C   UNL A   1      43.661  30.703  37.429  1.00  0.00     0.031 C 
ATOM     42  C   UNL A   1      43.423  29.404  35.331  1.00  0.00     0.037 A 
BRANCH  29  43
ATOM     43  C   UNL A   1      40.037  28.819  30.173  1.00  0.00     0.057 A 
ATOM     44  C   UNL A   1      39.265  27.654  30.068  1.00  0.00     0.134 A 
ATOM     45  C   UNL A   1      40.642  29.300  29.004  1.00  0.00     0.134 A 
ATOM     46  F   UNL A   1      38.688  27.121  31.155  1.00  0.00    -0.206 F 
ATOM     47  C   UNL A   1      39.132  26.976  28.854  1.00  0.00     0.040 A 
ATOM     48  C   UNL A   1      40.497  28.643  27.782  1.00  0.00     0.040 A 
ATOM     49  F   UNL A   1      41.403  30.404  29.038  1.00  0.00    -0.206 F 
ATOM     50  C   UNL A   1      39.748  27.471  27.706  1.00  0.00     0.006 A 
ENDBRANCH  29  43
BRANCH  30  51
ATOM     51  C   UNL A   1      41.205  33.862  38.796  1.00  0.00     0.057 A 
ATOM     52  C   UNL A   1      40.559  33.502  39.986  1.00  0.00     0.134 A 
ATOM     53  C   UNL A   1      42.044  34.984  38.839  1.00  0.00     0.134 A 
ATOM     54  F   UNL A   1      39.725  32.453  40.009  1.00  0.00    -0.206 F 
ATOM     55  C   UNL A   1      40.733  34.231  41.165  1.00  0.00     0.040 A 
ATOM     56  C   UNL A   1      42.247  35.706  40.017  1.00  0.00     0.040 A 
ATOM     57  F   UNL A   1      42.691  35.389  37.736  1.00  0.00    -0.206 F 
ATOM     58  C   UNL A   1      41.585  35.333  41.184  1.00  0.00     0.006 A 
ENDBRANCH  30  51
BRANCH  42  59
ATOM     59  C   UNL A   1      44.641  28.636  35.738  1.00  0.00     0.057 A 
ATOM     60  C   UNL A   1      45.925  29.040  35.352  1.00  0.00     0.134 A 
ATOM     61  C   UNL A   1      44.527  27.509  36.559  1.00  0.00     0.134 A 
ATOM     62  F   UNL A   1      46.091  30.106  34.555  1.00  0.00    -0.206 F 
ATOM     63  C   UNL A   1      47.057  28.334  35.755  1.00  0.00     0.040 A 
ATOM     64  C   UNL A   1      45.655  26.807  36.986  1.00  0.00     0.040 A 
ATOM     65  F   UNL A   1      43.323  27.080  36.966  1.00  0.00    -0.206 F 
ATOM     66  C   UNL A   1      46.923  27.218  36.580  1.00  0.00     0.006 A 
ENDBRANCH  42  59
ENDBRANCH  16  17
ENDBRANCH   9  11
ENDBRANCH   8   9
ENDBRANCH   7   8
ENDBRANCH   6   7
ENDBRANCH   5   6
ENDBRANCH   4   5
ENDBRANCH   3   4
ENDBRANCH   2   3
ENDBRANCH   1   2
BRANCH   1  67
ATOM     67  C   UNL A   1      33.648  29.486  26.332  1.00  0.00     0.188 C 
BRANCH  67  68
ATOM     68  O   UNL A   1      33.576  28.607  25.214  1.00  0.00    -0.376 OA
BRANCH  68  69
ATOM     69  C   UNL A   1      33.400  29.254  23.953  1.00  0.00     0.202 C 
BRANCH  69  70
ATOM     70  C   UNL A   1      32.163  28.783  23.177  1.00  0.00     0.261 C 
BRANCH  70  71
ATOM     71  O   UNL A   1      30.942  28.870  23.924  1.00  0.00    -0.460 OA
BRANCH  71  72
ATOM     72  C   UNL A   1      29.977  27.966  23.646  1.00  0.00     0.338 C 
ATOM     73  O   UNL A   1      29.090  28.072  22.819  1.00  0.00    -0.246 OA
BRANCH  72  74
ATOM     74  C   UNL A   1      30.336  26.709  24.346  1.00  0.00     0.060 A 
ATOM     75  C   UNL A   1      30.363  25.522  23.597  1.00  0.00     0.017 A 
ATOM     76  C   UNL A   1      30.791  26.719  25.674  1.00  0.00     0.017 A 
ATOM     77  C   UNL A   1      30.836  24.344  24.176  1.00  0.00     0.022 A 
ATOM     78  C   UNL A   1      31.254  25.541  26.257  1.00  0.00     0.022 A 
ATOM     79  C   UNL A   1      31.244  24.356  25.513  1.00  0.00     0.082 A 
BRANCH  79  80
ATOM     80  S   UNL A   1      31.562  22.818  26.338  1.00  0.00     0.241 S 
ATOM     81  O   UNL A   1      31.318  22.979  27.753  1.00  0.00    -0.207 OA
ATOM     82  O   UNL A   1      30.909  21.779  25.570  1.00  0.00    -0.207 OA
BRANCH  80  83
ATOM     83  N   UNL A   1      33.195  22.607  26.119  1.00  0.00    -0.202 NA
ATOM     84  H   UNL A   1      33.467  21.926  26.828  1.00  0.00     0.141 HD
BRANCH  83  85
ATOM     85  C   UNL A   1      33.885  22.171  24.892  1.00  0.00     0.133 C 
ATOM     86  C   UNL A   1      34.244  20.670  24.766  1.00  0.00     0.087 C 
ATOM     87  C   UNL A   1      35.281  22.793  24.797  1.00  0.00     0.202 C 
ATOM     88  C   UNL A   1      35.756  20.541  25.055  1.00  0.00     0.264 C 
ATOM     89  N   UNL A   1      36.072  21.847  25.584  1.00  0.00    -0.331 N 
ATOM     90  C   UNL A   1      35.697  24.088  25.457  1.00  0.00     0.072 C 
ATOM     91  C   UNL A   1      37.428  22.344  25.577  1.00  0.00     0.262 C 
ATOM     92  H   UNL A   1      35.874  21.753  26.580  1.00  0.00     0.348 HD
ATOM     93  C   UNL A   1      37.190  23.851  25.765  1.00  0.00     0.068 C 
ENDBRANCH  83  85
ENDBRANCH  80  83
ENDBRANCH  79  80
ENDBRANCH  72  74
ENDBRANCH  71  72
ENDBRANCH  70  71
ENDBRANCH  69  70
ENDBRANCH  68  69
ENDBRANCH  67  68
ENDBRANCH   1  67
TORSDOF 23
ENDMDL
MODEL 3
REMARK VINA RESULT:     -10.3      4.562      7.152
REMARK SMILES O=C(OCCOCCOCCOCCOC(=O)c1ccc(S(=O)(=O)N[C@@H]2CC[N@H+]3CCC[C@H]23)cc1)c1ccc(-c2c3nc(c(-c4c(F)cccc4F)c4ccc([nH]4)c(-c4c(F)cccc4F)c4nc(c(-c5c(F)cccc5F)c5ccc2[nH]5)C=C4)C=C3)cc1
REMARK SMILES IDX 10 1 9 2 8 3 7 4 6 5 5 6 4 7 3 8 2 9 1 10 36 11 37 12 89 13
REMARK SMILES IDX 38 14 88 15 39 16 40 17 41 18 82 19 42 20 87 21 81 22 83 23
REMARK SMILES IDX 43 24 86 25 80 26 79 27 44 29 70 30 53 31 69 32 54 33 57 34
REMARK SMILES IDX 68 35 84 36 55 37 56 38 67 40 85 41 58 42 45 43 46 44 51 45
REMARK SMILES IDX 47 46 48 47 50 48 52 49 49 50 71 51 72 52 77 53 73 54 74 55
REMARK SMILES IDX 76 56 78 57 75 58 59 59 60 60 65 61 61 62 62 63 64 64 66 65
REMARK SMILES IDX 63 66 11 67 12 68 13 69 14 70 15 71 16 72 17 73 18 74 19 75
REMARK SMILES IDX 35 76 20 77 34 78 21 79 22 80 23 81 24 82 25 83 26 85 27 86
REMARK SMILES IDX 33 87 28 88 29 89 32 90 30 91 31 93
REMARK H PARENT 83 28 57 39 25 84 29 92
REMARK Flexibility Score: inf
ROOT
ATOM      1  C   UNL A   1      34.810  30.268  27.600  1.00  0.00     0.188 C 
ENDROOT
BRANCH   1   2
ATOM      2  O   UNL A   1      35.206  31.618  27.814  1.00  0.00    -0.377 OA
BRANCH   2   3
ATOM      3  C   UNL A   1      34.146  32.551  28.040  1.00  0.00     0.188 C 
BRANCH   3   4
ATOM      4  C   UNL A   1      34.477  33.650  29.051  1.00  0.00     0.188 C 
BRANCH   4   5
ATOM      5  O   UNL A   1      34.844  34.845  28.354  1.00  0.00    -0.376 OA
BRANCH   5   6
ATOM      6  C   UNL A   1      34.115  36.013  28.718  1.00  0.00     0.202 C 
BRANCH   6   7
ATOM      7  C   UNL A   1      32.743  35.732  29.333  1.00  0.00     0.261 C 
BRANCH   7   8
ATOM      8  O   UNL A   1      32.601  36.285  30.652  1.00  0.00    -0.460 OA
BRANCH   8   9
ATOM      9  C   UNL A   1      32.608  35.611  31.831  1.00  0.00     0.338 C 
ATOM     10  O   UNL A   1      31.544  35.420  32.417  1.00  0.00    -0.246 OA
BRANCH   9  11
ATOM     11  C   UNL A   1      33.843  35.018  32.418  1.00  0.00     0.060 A 
ATOM     12  C   UNL A   1      35.076  35.667  32.492  1.00  0.00     0.016 A 
ATOM     13  C   UNL A   1      33.734  33.743  32.992  1.00  0.00     0.016 A 
ATOM     14  C   UNL A   1      36.207  35.023  32.971  1.00  0.00     0.010 A 
ATOM     15  C   UNL A   1      34.855  33.110  33.540  1.00  0.00     0.010 A 
ATOM     16  C   UNL A   1      36.110  33.728  33.474  1.00  0.00    -0.014 A 
BRANCH  16  17
ATOM     17  C   UNL A   1      37.360  32.982  33.724  1.00  0.00     0.031 A 
ATOM     18  C   UNL A   1      38.003  33.129  35.072  1.00  0.00     0.074 A 
ATOM     19  C   UNL A   1      37.818  32.085  32.831  1.00  0.00     0.049 A 
ATOM     20  N   UNL A   1      39.135  32.653  35.512  1.00  0.00    -0.248 NA
ATOM     21  C   UNL A   1      37.259  33.923  36.067  1.00  0.00     0.031 C 
ATOM     22  C   UNL A   1      37.184  31.768  31.549  1.00  0.00     0.029 A 
ATOM     23  N   UNL A   1      38.896  31.243  32.887  1.00  0.00    -0.354 N 
ATOM     24  C   UNL A   1      39.271  33.146  36.803  1.00  0.00     0.074 A 
ATOM     25  C   UNL A   1      38.104  33.948  37.085  1.00  0.00     0.031 C 
ATOM     26  C   UNL A   1      37.859  30.763  30.965  1.00  0.00     0.029 A 
ATOM     27  C   UNL A   1      39.012  30.424  31.790  1.00  0.00     0.049 A 
ATOM     28  H   UNL A   1      39.529  31.227  33.641  1.00  0.00     0.167 HD
ATOM     29  C   UNL A   1      40.289  32.950  37.671  1.00  0.00     0.037 A 
ATOM     30  C   UNL A   1      39.963  29.521  31.487  1.00  0.00     0.037 A 
ATOM     31  C   UNL A   1      41.416  32.108  37.384  1.00  0.00     0.049 A 
ATOM     32  C   UNL A   1      41.109  29.351  32.447  1.00  0.00     0.074 A 
ATOM     33  C   UNL A   1      42.543  31.871  38.147  1.00  0.00     0.029 A 
ATOM     34  N   UNL A   1      41.537  31.340  36.233  1.00  0.00    -0.354 N 
ATOM     35  N   UNL A   1      41.293  29.909  33.621  1.00  0.00    -0.248 NA
ATOM     36  C   UNL A   1      42.192  28.452  32.032  1.00  0.00     0.031 C 
ATOM     37  C   UNL A   1      43.359  30.977  37.444  1.00  0.00     0.029 A 
ATOM     38  C   UNL A   1      42.722  30.630  36.261  1.00  0.00     0.049 A 
ATOM     39  H   UNL A   1      40.875  31.307  35.505  1.00  0.00     0.167 HD
ATOM     40  C   UNL A   1      42.507  29.426  34.088  1.00  0.00     0.074 A 
ATOM     41  C   UNL A   1      43.002  28.508  33.079  1.00  0.00     0.031 C 
ATOM     42  C   UNL A   1      43.165  29.717  35.238  1.00  0.00     0.037 A 
BRANCH  29  43
ATOM     43  C   UNL A   1      40.243  33.726  38.953  1.00  0.00     0.057 A 
ATOM     44  C   UNL A   1      39.470  33.321  40.049  1.00  0.00     0.134 A 
ATOM     45  C   UNL A   1      40.931  34.942  39.061  1.00  0.00     0.134 A 
ATOM     46  F   UNL A   1      38.758  32.186  39.996  1.00  0.00    -0.206 F 
ATOM     47  C   UNL A   1      39.358  34.114  41.194  1.00  0.00     0.040 A 
ATOM     48  C   UNL A   1      40.844  35.731  40.209  1.00  0.00     0.040 A 
ATOM     49  F   UNL A   1      41.679  35.393  38.043  1.00  0.00    -0.206 F 
ATOM     50  C   UNL A   1      40.047  35.323  41.276  1.00  0.00     0.006 A 
ENDBRANCH  29  43
BRANCH  30  51
ATOM     51  C   UNL A   1      39.896  28.749  30.219  1.00  0.00     0.057 A 
ATOM     52  C   UNL A   1      40.503  29.219  29.048  1.00  0.00     0.134 A 
ATOM     53  C   UNL A   1      39.218  27.525  30.140  1.00  0.00     0.134 A 
ATOM     54  F   UNL A   1      41.149  30.394  29.048  1.00  0.00    -0.206 F 
ATOM     55  C   UNL A   1      40.431  28.508  27.847  1.00  0.00     0.040 A 
ATOM     56  C   UNL A   1      39.162  26.791  28.954  1.00  0.00     0.040 A 
ATOM     57  F   UNL A   1      38.611  27.016  31.223  1.00  0.00    -0.206 F 
ATOM     58  C   UNL A   1      39.764  27.285  27.800  1.00  0.00     0.006 A 
ENDBRANCH  30  51
BRANCH  42  59
ATOM     59  C   UNL A   1      44.464  29.012  35.466  1.00  0.00     0.057 A 
ATOM     60  C   UNL A   1      45.686  29.591  35.104  1.00  0.00     0.134 A 
ATOM     61  C   UNL A   1      44.492  27.761  36.094  1.00  0.00     0.134 A 
ATOM     62  F   UNL A   1      45.718  30.782  34.487  1.00  0.00    -0.206 F 
ATOM     63  C   UNL A   1      46.896  28.939  35.342  1.00  0.00     0.040 A 
ATOM     64  C   UNL A   1      45.697  27.110  36.357  1.00  0.00     0.040 A 
ATOM     65  F   UNL A   1      43.353  27.162  36.470  1.00  0.00    -0.206 F 
ATOM     66  C   UNL A   1      46.902  27.698  35.976  1.00  0.00     0.006 A 
ENDBRANCH  42  59
ENDBRANCH  16  17
ENDBRANCH   9  11
ENDBRANCH   8   9
ENDBRANCH   7   8
ENDBRANCH   6   7
ENDBRANCH   5   6
ENDBRANCH   4   5
ENDBRANCH   3   4
ENDBRANCH   2   3
ENDBRANCH   1   2
BRANCH   1  67
ATOM     67  C   UNL A   1      33.333  29.983  27.263  1.00  0.00     0.188 C 
BRANCH  67  68
ATOM     68  O   UNL A   1      33.120  29.026  26.230  1.00  0.00    -0.376 OA
BRANCH  68  69
ATOM     69  C   UNL A   1      33.201  29.548  24.903  1.00  0.00     0.202 C 
BRANCH  69  70
ATOM     70  C   UNL A   1      32.395  28.749  23.869  1.00  0.00     0.261 C 
BRANCH  70  71
ATOM     71  O   UNL A   1      30.981  28.970  23.939  1.00  0.00    -0.460 OA
BRANCH  71  72
ATOM     72  C   UNL A   1      30.176  28.029  23.398  1.00  0.00     0.338 C 
ATOM     73  O   UNL A   1      29.529  28.122  22.371  1.00  0.00    -0.246 OA
BRANCH  72  74
ATOM     74  C   UNL A   1      30.416  26.767  24.136  1.00  0.00     0.060 A 
ATOM     75  C   UNL A   1      30.618  25.594  23.389  1.00  0.00     0.017 A 
ATOM     76  C   UNL A   1      30.597  26.759  25.528  1.00  0.00     0.017 A 
ATOM     77  C   UNL A   1      30.993  24.415  24.033  1.00  0.00     0.022 A 
ATOM     78  C   UNL A   1      30.962  25.579  26.174  1.00  0.00     0.022 A 
ATOM     79  C   UNL A   1      31.126  24.408  25.425  1.00  0.00     0.082 A 
BRANCH  79  80
ATOM     80  S   UNL A   1      31.308  22.862  26.274  1.00  0.00     0.241 S 
ATOM     81  O   UNL A   1      31.383  23.105  27.695  1.00  0.00    -0.207 OA
ATOM     82  O   UNL A   1      30.334  21.950  25.712  1.00  0.00    -0.207 OA
BRANCH  80  83
ATOM     83  N   UNL A   1      32.796  22.329  25.765  1.00  0.00    -0.202 NA
ATOM     84  H   UNL A   1      33.145  21.757  26.534  1.00  0.00     0.141 HD
BRANCH  83  85
ATOM     85  C   UNL A   1      33.102  21.553  24.549  1.00  0.00     0.133 C 
ATOM     86  C   UNL A   1      32.749  20.046  24.551  1.00  0.00     0.087 C 
ATOM     87  C   UNL A   1      34.614  21.477  24.314  1.00  0.00     0.202 C 
ATOM     88  C   UNL A   1      34.068  19.272  24.764  1.00  0.00     0.264 C 
ATOM     89  N   UNL A   1      34.977  20.328  25.144  1.00  0.00    -0.331 N 
ATOM     90  C   UNL A   1      35.620  22.487  24.819  1.00  0.00     0.072 C 
ATOM     91  C   UNL A   1      36.405  20.164  25.010  1.00  0.00     0.262 C 
ATOM     92  H   UNL A   1      34.854  20.395  26.154  1.00  0.00     0.348 HD
ATOM     93  C   UNL A   1      36.876  21.626  25.063  1.00  0.00     0.068 C 
ENDBRANCH  83  85
ENDBRANCH  80  83
ENDBRANCH  79  80
ENDBRANCH  72  74
ENDBRANCH  71  72
ENDBRANCH  70  71
ENDBRANCH  69  70
ENDBRANCH  68  69
ENDBRANCH  67  68
ENDBRANCH   1  67
TORSDOF 23
ENDMDL
