MODEL 1
REMARK VINA RESULT:      -8.7      0.000      0.000
REMARK SMILES COc1ccc2[nH]cc([C@H](C(=O)OCCOCCOCCOCCOC(=O)c3ccc(-c4c5nc(c(-c6c(F)cccc6F)c6ccc([nH]6)c(-c6c(F)cccc6F)c6nc(c(-c7c(F)cccc7F)c7ccc4[nH]7)C=C6)C=C5)cc3)[NH+]3CC[NH+](Cc4cccc5ccccc45)CC3)c2c1
REMARK SMILES IDX 18 1 17 2 16 3 15 4 14 5 13 6 11 7 12 8 10 9 9 10 3 11 4 12
REMARK SMILES IDX 100 13 5 14 99 15 6 16 7 17 8 18 2 20 1 21 82 22 83 23 98 24
REMARK SMILES IDX 84 26 97 27 85 28 86 30 87 31 88 32 96 33 89 34 91 35 95 36
REMARK SMILES IDX 90 37 92 38 94 39 93 40 19 41 20 42 21 43 22 44 23 45 24 46
REMARK SMILES IDX 25 47 26 48 27 49 28 50 29 51 81 52 30 53 80 54 31 55 32 56
REMARK SMILES IDX 33 57 74 58 34 59 79 60 73 61 75 62 35 63 78 64 72 65 71 66
REMARK SMILES IDX 36 68 62 69 45 70 61 71 46 72 49 73 60 74 76 75 47 76 48 77
REMARK SMILES IDX 59 79 77 80 50 81 37 82 38 83 43 84 39 85 40 86 42 87 44 88
REMARK SMILES IDX 41 89 63 90 64 91 69 92 65 93 66 94 68 95 70 96 67 97 51 98
REMARK SMILES IDX 52 99 57 100 53 101 54 102 56 103 58 104 55 105
REMARK H PARENT 7 19 82 25 85 29 75 67 49 78
REMARK Flexibility Score: inf
ROOT
ATOM      1  C   UNL A   1      44.766  31.838  26.212  1.00  0.00     0.188 C 
ENDROOT
BRANCH   1   2
ATOM      2  C   UNL A   1      44.661  33.241  25.577  1.00  0.00     0.188 C 
BRANCH   2   3
ATOM      3  O   UNL A   1      43.725  34.120  26.191  1.00  0.00    -0.376 OA
BRANCH   3   4
ATOM      4  C   UNL A   1      44.191  35.435  26.448  1.00  0.00     0.202 C 
BRANCH   4   5
ATOM      5  C   UNL A   1      45.073  35.563  27.698  1.00  0.00     0.261 C 
BRANCH   5   6
ATOM      6  O   UNL A   1      46.065  36.607  27.693  1.00  0.00    -0.459 OA
BRANCH   6   7
ATOM      7  C   UNL A   1      46.054  37.471  28.746  1.00  0.00     0.370 C 
ATOM      8  O   UNL A   1      47.061  37.747  29.386  1.00  0.00    -0.245 OA
BRANCH   7   9
ATOM      9  C   UNL A   1      44.633  37.952  29.061  1.00  0.00     0.328 C 
BRANCH   9  10
ATOM     10  C   UNL A   1      44.310  37.710  30.532  1.00  0.00     0.046 A 
ATOM     11  C   UNL A   1      42.431  34.492  31.503  1.00  0.00     0.119 A 
ATOM     12  C   UNL A   1      42.317  34.776  32.852  1.00  0.00     0.048 A 
ATOM     13  C   UNL A   1      43.118  35.352  30.650  1.00  0.00     0.057 A 
ATOM     14  C   UNL A   1      42.862  35.954  33.375  1.00  0.00     0.030 A 
ATOM     15  C   UNL A   1      43.637  36.577  31.128  1.00  0.00     0.013 A 
ATOM     16  C   UNL A   1      43.508  36.836  32.493  1.00  0.00     0.046 A 
ATOM     17  N   UNL A   1      44.125  38.039  32.737  1.00  0.00    -0.361 N 
ATOM     18  C   UNL A   1      44.592  38.582  31.571  1.00  0.00     0.094 A 
ATOM     19  H   UNL A   1      44.220  38.452  33.626  1.00  0.00     0.166 HD
BRANCH  11  20
ATOM     20  O   UNL A   1      41.927  33.322  31.006  1.00  0.00    -0.497 OA
ATOM     21  C   UNL A   1      42.874  32.261  31.148  1.00  0.00     0.278 C 
ENDBRANCH  11  20
ENDBRANCH   9  10
BRANCH   9  22
ATOM     22  N   UNL A   1      44.386  39.369  28.724  1.00  0.00    -0.310 N 
ATOM     23  C   UNL A   1      45.349  40.010  27.837  1.00  0.00     0.325 C 
ATOM     24  C   UNL A   1      43.016  39.825  28.486  1.00  0.00     0.325 C 
ATOM     25  H   UNL A   1      44.572  39.726  29.661  1.00  0.00     0.349 HD
ATOM     26  C   UNL A   1      44.931  40.235  26.362  1.00  0.00     0.324 C 
ATOM     27  C   UNL A   1      42.577  40.093  27.017  1.00  0.00     0.324 C 
ATOM     28  N   UNL A   1      43.561  40.669  26.099  1.00  0.00    -0.322 N 
ATOM     29  H   UNL A   1      43.311  40.233  25.211  1.00  0.00     0.348 HD
BRANCH  28  30
ATOM     30  C   UNL A   1      43.396  42.075  25.713  1.00  0.00     0.300 C 
BRANCH  30  31
ATOM     31  C   UNL A   1      43.146  42.295  24.234  1.00  0.00     0.014 A 
ATOM     32  C   UNL A   1      41.827  42.116  23.775  1.00  0.00     0.010 A 
ATOM     33  C   UNL A   1      44.115  42.890  23.389  1.00  0.00    -0.010 A 
ATOM     34  C   UNL A   1      41.418  42.676  22.575  1.00  0.00     0.001 A 
ATOM     35  C   UNL A   1      43.661  43.561  22.233  1.00  0.00    -0.018 A 
ATOM     36  C   UNL A   1      45.503  42.907  23.663  1.00  0.00     0.009 A 
ATOM     37  C   UNL A   1      42.316  43.446  21.842  1.00  0.00     0.009 A 
ATOM     38  C   UNL A   1      44.551  44.373  21.512  1.00  0.00     0.009 A 
ATOM     39  C   UNL A   1      46.385  43.688  22.915  1.00  0.00     0.001 A 
ATOM     40  C   UNL A   1      45.899  44.456  21.867  1.00  0.00     0.001 A 
ENDBRANCH  30  31
ENDBRANCH  28  30
ENDBRANCH   9  22
ENDBRANCH   7   9
ENDBRANCH   6   7
ENDBRANCH   5   6
ENDBRANCH   4   5
ENDBRANCH   3   4
ENDBRANCH   2   3
ENDBRANCH   1   2
BRANCH   1  41
ATOM     41  O   UNL A   1      45.684  30.902  25.674  1.00  0.00    -0.377 OA
BRANCH  41  42
ATOM     42  C   UNL A   1      46.022  29.772  26.464  1.00  0.00     0.188 C 
BRANCH  42  43
ATOM     43  C   UNL A   1      46.877  28.660  25.820  1.00  0.00     0.188 C 
BRANCH  43  44
ATOM     44  O   UNL A   1      46.705  27.380  26.415  1.00  0.00    -0.376 OA
BRANCH  44  45
ATOM     45  C   UNL A   1      47.389  26.288  25.824  1.00  0.00     0.202 C 
BRANCH  45  46
ATOM     46  C   UNL A   1      46.525  25.130  25.310  1.00  0.00     0.261 C 
BRANCH  46  47
ATOM     47  O   UNL A   1      45.282  25.490  24.685  1.00  0.00    -0.460 OA
BRANCH  47  48
ATOM     48  C   UNL A   1      44.176  24.780  24.987  1.00  0.00     0.338 C 
ATOM     49  O   UNL A   1      43.935  23.621  24.701  1.00  0.00    -0.246 OA
BRANCH  48  50
ATOM     50  C   UNL A   1      43.395  25.597  25.946  1.00  0.00     0.060 A 
ATOM     51  C   UNL A   1      43.406  26.994  25.815  1.00  0.00     0.016 A 
ATOM     52  C   UNL A   1      42.573  24.982  26.893  1.00  0.00     0.016 A 
ATOM     53  C   UNL A   1      42.605  27.779  26.644  1.00  0.00     0.010 A 
ATOM     54  C   UNL A   1      41.806  25.769  27.753  1.00  0.00     0.010 A 
ATOM     55  C   UNL A   1      41.848  27.171  27.654  1.00  0.00    -0.014 A 
BRANCH  55  56
ATOM     56  C   UNL A   1      41.371  27.995  28.787  1.00  0.00     0.031 A 
ATOM     57  C   UNL A   1      42.149  27.895  30.071  1.00  0.00     0.074 A 
ATOM     58  C   UNL A   1      40.309  28.812  28.691  1.00  0.00     0.049 A 
ATOM     59  N   UNL A   1      41.937  28.474  31.223  1.00  0.00    -0.248 NA
ATOM     60  C   UNL A   1      43.334  27.018  30.046  1.00  0.00     0.031 C 
ATOM     61  C   UNL A   1      39.504  29.027  27.492  1.00  0.00     0.029 A 
ATOM     62  N   UNL A   1      39.722  29.611  29.641  1.00  0.00    -0.354 N 
ATOM     63  C   UNL A   1      42.961  28.034  32.054  1.00  0.00     0.074 A 
ATOM     64  C   UNL A   1      43.775  27.118  31.288  1.00  0.00     0.031 C 
ATOM     65  C   UNL A   1      38.515  29.893  27.783  1.00  0.00     0.029 A 
ATOM     66  C   UNL A   1      38.603  30.269  29.193  1.00  0.00     0.049 A 
ATOM     67  H   UNL A   1      40.072  29.705  30.557  1.00  0.00     0.167 HD
ATOM     68  C   UNL A   1      43.207  28.366  33.340  1.00  0.00     0.037 A 
ATOM     69  C   UNL A   1      37.743  31.064  29.861  1.00  0.00     0.037 A 
ATOM     70  C   UNL A   1      42.383  29.257  34.108  1.00  0.00     0.049 A 
ATOM     71  C   UNL A   1      37.986  31.350  31.323  1.00  0.00     0.074 A 
ATOM     72  C   UNL A   1      42.538  29.658  35.422  1.00  0.00     0.029 A 
ATOM     73  N   UNL A   1      41.237  29.873  33.630  1.00  0.00    -0.354 N 
ATOM     74  N   UNL A   1      38.969  30.950  32.095  1.00  0.00    -0.248 NA
ATOM     75  C   UNL A   1      36.998  32.198  32.006  1.00  0.00     0.031 C 
ATOM     76  C   UNL A   1      41.457  30.480  35.755  1.00  0.00     0.029 A 
ATOM     77  C   UNL A   1      40.660  30.634  34.631  1.00  0.00     0.049 A 
ATOM     78  H   UNL A   1      40.886  29.783  32.715  1.00  0.00     0.167 HD
ATOM     79  C   UNL A   1      38.736  31.523  33.340  1.00  0.00     0.074 A 
ATOM     80  C   UNL A   1      37.524  32.306  33.217  1.00  0.00     0.031 C 
ATOM     81  C   UNL A   1      39.459  31.416  34.483  1.00  0.00     0.037 A 
BRANCH  68  82
ATOM     82  C   UNL A   1      44.395  27.730  33.996  1.00  0.00     0.057 A 
ATOM     83  C   UNL A   1      45.658  28.337  33.988  1.00  0.00     0.134 A 
ATOM     84  C   UNL A   1      44.276  26.492  34.638  1.00  0.00     0.134 A 
ATOM     85  F   UNL A   1      45.845  29.511  33.365  1.00  0.00    -0.206 F 
ATOM     86  C   UNL A   1      46.765  27.724  34.578  1.00  0.00     0.040 A 
ATOM     87  C   UNL A   1      45.369  25.882  35.254  1.00  0.00     0.040 A 
ATOM     88  F   UNL A   1      43.096  25.855  34.675  1.00  0.00    -0.206 F 
ATOM     89  C   UNL A   1      46.620  26.496  35.219  1.00  0.00     0.006 A 
ENDBRANCH  68  82
BRANCH  69  90
ATOM     90  C   UNL A   1      36.561  31.641  29.169  1.00  0.00     0.057 A 
ATOM     91  C   UNL A   1      35.457  30.848  28.832  1.00  0.00     0.134 A 
ATOM     92  C   UNL A   1      36.524  32.988  28.790  1.00  0.00     0.134 A 
ATOM     93  F   UNL A   1      35.443  29.543  29.141  1.00  0.00    -0.206 F 
ATOM     94  C   UNL A   1      34.369  31.368  28.127  1.00  0.00     0.040 A 
ATOM     95  C   UNL A   1      35.432  33.528  28.108  1.00  0.00     0.040 A 
ATOM     96  F   UNL A   1      37.551  33.801  29.076  1.00  0.00    -0.206 F 
ATOM     97  C   UNL A   1      34.353  32.714  27.768  1.00  0.00     0.006 A 
ENDBRANCH  69  90
BRANCH  81  98
ATOM     98  C   UNL A   1      38.989  32.195  35.677  1.00  0.00     0.057 A 
ATOM     99  C   UNL A   1      39.279  33.556  35.837  1.00  0.00     0.134 A 
ATOM    100  C   UNL A   1      38.189  31.585  36.652  1.00  0.00     0.134 A 
ATOM    101  F   UNL A   1      40.047  34.196  34.944  1.00  0.00    -0.206 F 
ATOM    102  C   UNL A   1      38.810  34.276  36.937  1.00  0.00     0.040 A 
ATOM    103  C   UNL A   1      37.689  32.301  37.740  1.00  0.00     0.040 A 
ATOM    104  F   UNL A   1      37.862  30.288  36.552  1.00  0.00    -0.206 F 
ATOM    105  C   UNL A   1      38.006  33.650  37.888  1.00  0.00     0.006 A 
ENDBRANCH  81  98
ENDBRANCH  55  56
ENDBRANCH  48  50
ENDBRANCH  47  48
ENDBRANCH  46  47
ENDBRANCH  45  46
ENDBRANCH  44  45
ENDBRANCH  43  44
ENDBRANCH  42  43
ENDBRANCH  41  42
ENDBRANCH   1  41
TORSDOF 25
ENDMDL
MODEL 2
REMARK VINA RESULT:      -8.6      5.463      9.678
REMARK SMILES COc1ccc2[nH]cc([C@H](C(=O)OCCOCCOCCOCCOC(=O)c3ccc(-c4c5nc(c(-c6c(F)cccc6F)c6ccc([nH]6)c(-c6c(F)cccc6F)c6nc(c(-c7c(F)cccc7F)c7ccc4[nH]7)C=C6)C=C5)cc3)[NH+]3CC[NH+](Cc4cccc5ccccc45)CC3)c2c1
REMARK SMILES IDX 18 1 17 2 16 3 15 4 14 5 13 6 11 7 12 8 10 9 9 10 3 11 4 12
REMARK SMILES IDX 100 13 5 14 99 15 6 16 7 17 8 18 2 20 1 21 82 22 83 23 98 24
REMARK SMILES IDX 84 26 97 27 85 28 86 30 87 31 88 32 96 33 89 34 91 35 95 36
REMARK SMILES IDX 90 37 92 38 94 39 93 40 19 41 20 42 21 43 22 44 23 45 24 46
REMARK SMILES IDX 25 47 26 48 27 49 28 50 29 51 81 52 30 53 80 54 31 55 32 56
REMARK SMILES IDX 33 57 74 58 34 59 79 60 73 61 75 62 35 63 78 64 72 65 71 66
REMARK SMILES IDX 36 68 62 69 45 70 61 71 46 72 49 73 60 74 76 75 47 76 48 77
REMARK SMILES IDX 59 79 77 80 50 81 37 82 38 83 43 84 39 85 40 86 42 87 44 88
REMARK SMILES IDX 41 89 63 90 64 91 69 92 65 93 66 94 68 95 70 96 67 97 51 98
REMARK SMILES IDX 52 99 57 100 53 101 54 102 56 103 58 104 55 105
REMARK H PARENT 7 19 82 25 85 29 75 67 49 78
REMARK Flexibility Score: inf
ROOT
ATOM      1  C   UNL A   1      39.141  26.228  28.882  1.00  0.00     0.188 C 
ENDROOT
BRANCH   1   2
ATOM      2  C   UNL A   1      38.988  27.761  28.980  1.00  0.00     0.188 C 
BRANCH   2   3
ATOM      3  O   UNL A   1      38.375  28.239  30.172  1.00  0.00    -0.376 OA
BRANCH   3   4
ATOM      4  C   UNL A   1      37.487  29.333  30.014  1.00  0.00     0.202 C 
BRANCH   4   5
ATOM      5  C   UNL A   1      36.648  29.655  31.259  1.00  0.00     0.261 C 
BRANCH   5   6
ATOM      6  O   UNL A   1      37.339  30.229  32.383  1.00  0.00    -0.459 OA
BRANCH   6   7
ATOM      7  C   UNL A   1      37.079  31.535  32.666  1.00  0.00     0.370 C 
ATOM      8  O   UNL A   1      35.952  31.947  32.913  1.00  0.00    -0.245 OA
BRANCH   7   9
ATOM      9  C   UNL A   1      38.338  32.399  32.534  1.00  0.00     0.328 C 
BRANCH   9  10
ATOM     10  C   UNL A   1      38.525  33.253  33.783  1.00  0.00     0.046 A 
ATOM     11  C   UNL A   1      37.811  31.672  37.221  1.00  0.00     0.119 A 
ATOM     12  C   UNL A   1      38.035  32.813  37.971  1.00  0.00     0.048 A 
ATOM     13  C   UNL A   1      37.999  31.678  35.842  1.00  0.00     0.057 A 
ATOM     14  C   UNL A   1      38.422  34.004  37.345  1.00  0.00     0.030 A 
ATOM     15  C   UNL A   1      38.338  32.872  35.166  1.00  0.00     0.013 A 
ATOM     16  C   UNL A   1      38.558  34.007  35.948  1.00  0.00     0.046 A 
ATOM     17  N   UNL A   1      38.925  35.020  35.095  1.00  0.00    -0.361 N 
ATOM     18  C   UNL A   1      38.891  34.589  33.797  1.00  0.00     0.094 A 
ATOM     19  H   UNL A   1      39.178  35.929  35.378  1.00  0.00     0.166 HD
BRANCH  11  20
ATOM     20  O   UNL A   1      37.467  30.503  37.842  1.00  0.00    -0.497 OA
ATOM     21  C   UNL A   1      36.636  30.757  38.977  1.00  0.00     0.278 C 
ENDBRANCH  11  20
ENDBRANCH   9  10
BRANCH   9  22
ATOM     22  N   UNL A   1      39.572  31.631  32.266  1.00  0.00    -0.310 N 
ATOM     23  C   UNL A   1      40.143  31.751  30.930  1.00  0.00     0.325 C 
ATOM     24  C   UNL A   1      40.597  31.528  33.306  1.00  0.00     0.325 C 
ATOM     25  H   UNL A   1      39.128  30.714  32.311  1.00  0.00     0.349 HD
ATOM     26  C   UNL A   1      41.403  32.636  30.762  1.00  0.00     0.324 C 
ATOM     27  C   UNL A   1      41.889  32.379  33.147  1.00  0.00     0.324 C 
ATOM     28  N   UNL A   1      42.430  32.566  31.800  1.00  0.00    -0.322 N 
ATOM     29  H   UNL A   1      42.819  33.508  31.851  1.00  0.00     0.348 HD
BRANCH  28  30
ATOM     30  C   UNL A   1      43.652  31.837  31.444  1.00  0.00     0.300 C 
BRANCH  30  31
ATOM     31  C   UNL A   1      43.416  30.442  30.901  1.00  0.00     0.014 A 
ATOM     32  C   UNL A   1      42.948  29.472  31.809  1.00  0.00     0.010 A 
ATOM     33  C   UNL A   1      43.418  30.167  29.511  1.00  0.00    -0.010 A 
ATOM     34  C   UNL A   1      42.324  28.323  31.350  1.00  0.00     0.001 A 
ATOM     35  C   UNL A   1      42.673  29.058  29.056  1.00  0.00    -0.018 A 
ATOM     36  C   UNL A   1      44.071  30.969  28.546  1.00  0.00     0.009 A 
ATOM     37  C   UNL A   1      42.133  28.151  29.983  1.00  0.00     0.009 A 
ATOM     38  C   UNL A   1      42.442  28.901  27.679  1.00  0.00     0.009 A 
ATOM     39  C   UNL A   1      43.864  30.779  27.178  1.00  0.00     0.001 A 
ATOM     40  C   UNL A   1      43.012  29.772  26.749  1.00  0.00     0.001 A 
ENDBRANCH  30  31
ENDBRANCH  28  30
ENDBRANCH   9  22
ENDBRANCH   7   9
ENDBRANCH   6   7
ENDBRANCH   5   6
ENDBRANCH   4   5
ENDBRANCH   3   4
ENDBRANCH   2   3
ENDBRANCH   1   2
BRANCH   1  41
ATOM     41  O   UNL A   1      40.092  25.684  27.984  1.00  0.00    -0.377 OA
BRANCH  41  42
ATOM     42  C   UNL A   1      39.834  24.398  27.441  1.00  0.00     0.188 C 
BRANCH  42  43
ATOM     43  C   UNL A   1      41.035  23.468  27.164  1.00  0.00     0.188 C 
BRANCH  43  44
ATOM     44  O   UNL A   1      40.681  22.102  26.990  1.00  0.00    -0.376 OA
BRANCH  44  45
ATOM     45  C   UNL A   1      41.464  21.334  26.092  1.00  0.00     0.202 C 
BRANCH  45  46
ATOM     46  C   UNL A   1      42.874  21.854  25.789  1.00  0.00     0.261 C 
BRANCH  46  47
ATOM     47  O   UNL A   1      43.037  22.571  24.554  1.00  0.00    -0.460 OA
BRANCH  47  48
ATOM     48  C   UNL A   1      44.270  22.994  24.208  1.00  0.00     0.338 C 
ATOM     49  O   UNL A   1      44.880  22.750  23.183  1.00  0.00    -0.246 OA
BRANCH  48  50
ATOM     50  C   UNL A   1      44.664  24.017  25.206  1.00  0.00     0.060 A 
ATOM     51  C   UNL A   1      45.883  23.871  25.884  1.00  0.00     0.016 A 
ATOM     52  C   UNL A   1      43.887  25.165  25.385  1.00  0.00     0.016 A 
ATOM     53  C   UNL A   1      46.320  24.867  26.757  1.00  0.00     0.010 A 
ATOM     54  C   UNL A   1      44.302  26.140  26.292  1.00  0.00     0.010 A 
ATOM     55  C   UNL A   1      45.502  25.977  27.007  1.00  0.00    -0.014 A 
BRANCH  55  56
ATOM     56  C   UNL A   1      45.737  26.780  28.228  1.00  0.00     0.031 A 
ATOM     57  C   UNL A   1      46.429  28.103  28.044  1.00  0.00     0.074 A 
ATOM     58  C   UNL A   1      45.344  26.375  29.447  1.00  0.00     0.049 A 
ATOM     59  N   UNL A   1      46.789  28.988  28.936  1.00  0.00    -0.248 NA
ATOM     60  C   UNL A   1      46.759  28.477  26.657  1.00  0.00     0.031 C 
ATOM     61  C   UNL A   1      44.628  25.137  29.745  1.00  0.00     0.029 A 
ATOM     62  N   UNL A   1      45.508  26.975  30.671  1.00  0.00    -0.354 N 
ATOM     63  C   UNL A   1      47.381  30.020  28.218  1.00  0.00     0.074 A 
ATOM     64  C   UNL A   1      47.362  29.641  26.823  1.00  0.00     0.031 C 
ATOM     65  C   UNL A   1      44.427  25.063  31.074  1.00  0.00     0.029 A 
ATOM     66  C   UNL A   1      45.023  26.232  31.719  1.00  0.00     0.049 A 
ATOM     67  H   UNL A   1      45.932  27.856  30.786  1.00  0.00     0.167 HD
ATOM     68  C   UNL A   1      47.891  31.184  28.676  1.00  0.00     0.037 A 
ATOM     69  C   UNL A   1      45.079  26.468  33.045  1.00  0.00     0.037 A 
ATOM     70  C   UNL A   1      47.932  31.548  30.064  1.00  0.00     0.049 A 
ATOM     71  C   UNL A   1      45.736  27.733  33.541  1.00  0.00     0.074 A 
ATOM     72  C   UNL A   1      48.433  32.702  30.638  1.00  0.00     0.029 A 
ATOM     73  N   UNL A   1      47.465  30.751  31.098  1.00  0.00    -0.354 N 
ATOM     74  N   UNL A   1      46.272  28.715  32.855  1.00  0.00    -0.248 NA
ATOM     75  C   UNL A   1      45.796  27.922  34.998  1.00  0.00     0.031 C 
ATOM     76  C   UNL A   1      48.313  32.582  32.027  1.00  0.00     0.029 A 
ATOM     77  C   UNL A   1      47.687  31.378  32.311  1.00  0.00     0.049 A 
ATOM     78  H   UNL A   1      47.039  29.872  30.986  1.00  0.00     0.167 HD
ATOM     79  C   UNL A   1      46.700  29.649  33.792  1.00  0.00     0.074 A 
ATOM     80  C   UNL A   1      46.352  29.120  35.095  1.00  0.00     0.031 C 
ATOM     81  C   UNL A   1      47.321  30.838  33.596  1.00  0.00     0.037 A 
BRANCH  68  82
ATOM     82  C   UNL A   1      48.475  32.121  27.662  1.00  0.00     0.057 A 
ATOM     83  C   UNL A   1      47.710  33.128  27.057  1.00  0.00     0.134 A 
ATOM     84  C   UNL A   1      49.817  32.012  27.281  1.00  0.00     0.134 A 
ATOM     85  F   UNL A   1      46.409  33.267  27.358  1.00  0.00    -0.206 F 
ATOM     86  C   UNL A   1      48.255  33.978  26.095  1.00  0.00     0.040 A 
ATOM     87  C   UNL A   1      50.381  32.873  26.339  1.00  0.00     0.040 A 
ATOM     88  F   UNL A   1      50.602  31.064  27.817  1.00  0.00    -0.206 F 
ATOM     89  C   UNL A   1      49.597  33.856  25.738  1.00  0.00     0.006 A 
ENDBRANCH  68  82
BRANCH  69  90
ATOM     90  C   UNL A   1      44.515  25.487  34.008  1.00  0.00     0.057 A 
ATOM     91  C   UNL A   1      43.223  25.637  34.528  1.00  0.00     0.134 A 
ATOM     92  C   UNL A   1      45.268  24.398  34.463  1.00  0.00     0.134 A 
ATOM     93  F   UNL A   1      42.462  26.676  34.154  1.00  0.00    -0.206 F 
ATOM     94  C   UNL A   1      42.710  24.754  35.479  1.00  0.00     0.040 A 
ATOM     95  C   UNL A   1      44.757  23.492  35.395  1.00  0.00     0.040 A 
ATOM     96  F   UNL A   1      46.514  24.199  34.010  1.00  0.00    -0.206 F 
ATOM     97  C   UNL A   1      43.475  23.674  35.912  1.00  0.00     0.006 A 
ENDBRANCH  69  90
BRANCH  81  98
ATOM     98  C   UNL A   1      47.626  31.670  34.808  1.00  0.00     0.057 A 
ATOM     99  C   UNL A   1      48.853  31.585  35.478  1.00  0.00     0.134 A 
ATOM    100  C   UNL A   1      46.697  32.608  35.276  1.00  0.00     0.134 A 
ATOM    101  F   UNL A   1      49.782  30.702  35.085  1.00  0.00    -0.206 F 
ATOM    102  C   UNL A   1      49.135  32.387  36.585  1.00  0.00     0.040 A 
ATOM    103  C   UNL A   1      46.978  33.436  36.363  1.00  0.00     0.040 A 
ATOM    104  F   UNL A   1      45.507  32.750  34.672  1.00  0.00    -0.206 F 
ATOM    105  C   UNL A   1      48.198  33.321  37.025  1.00  0.00     0.006 A 
ENDBRANCH  81  98
ENDBRANCH  55  56
ENDBRANCH  48  50
ENDBRANCH  47  48
ENDBRANCH  46  47
ENDBRANCH  45  46
ENDBRANCH  44  45
ENDBRANCH  43  44
ENDBRANCH  42  43
ENDBRANCH  41  42
ENDBRANCH   1  41
TORSDOF 25
ENDMDL
MODEL 3
REMARK VINA RESULT:      -8.5      6.943     16.453
REMARK SMILES COc1ccc2[nH]cc([C@H](C(=O)OCCOCCOCCOCCOC(=O)c3ccc(-c4c5nc(c(-c6c(F)cccc6F)c6ccc([nH]6)c(-c6c(F)cccc6F)c6nc(c(-c7c(F)cccc7F)c7ccc4[nH]7)C=C6)C=C5)cc3)[NH+]3CC[NH+](Cc4cccc5ccccc45)CC3)c2c1
REMARK SMILES IDX 18 1 17 2 16 3 15 4 14 5 13 6 11 7 12 8 10 9 9 10 3 11 4 12
REMARK SMILES IDX 100 13 5 14 99 15 6 16 7 17 8 18 2 20 1 21 82 22 83 23 98 24
REMARK SMILES IDX 84 26 97 27 85 28 86 30 87 31 88 32 96 33 89 34 91 35 95 36
REMARK SMILES IDX 90 37 92 38 94 39 93 40 19 41 20 42 21 43 22 44 23 45 24 46
REMARK SMILES IDX 25 47 26 48 27 49 28 50 29 51 81 52 30 53 80 54 31 55 32 56
REMARK SMILES IDX 33 57 74 58 34 59 79 60 73 61 75 62 35 63 78 64 72 65 71 66
REMARK SMILES IDX 36 68 62 69 45 70 61 71 46 72 49 73 60 74 76 75 47 76 48 77
REMARK SMILES IDX 59 79 77 80 50 81 37 82 38 83 43 84 39 85 40 86 42 87 44 88
REMARK SMILES IDX 41 89 63 90 64 91 69 92 65 93 66 94 68 95 70 96 67 97 51 98
REMARK SMILES IDX 52 99 57 100 53 101 54 102 56 103 58 104 55 105
REMARK H PARENT 7 19 82 25 85 29 75 67 49 78
REMARK Flexibility Score: inf
ROOT
ATOM      1  C   UNL A   1      45.772  27.304  37.901  1.00  0.00     0.188 C 
ENDROOT
BRANCH   1   2
ATOM      2  C   UNL A   1      44.468  26.554  37.555  1.00  0.00     0.188 C 
BRANCH   2   3
ATOM      3  O   UNL A   1      44.180  25.423  38.369  1.00  0.00    -0.376 OA
BRANCH   3   4
ATOM      4  C   UNL A   1      44.991  25.269  39.522  1.00  0.00     0.202 C 
BRANCH   4   5
ATOM      5  C   UNL A   1      45.418  23.823  39.810  1.00  0.00     0.261 C 
BRANCH   5   6
ATOM      6  O   UNL A   1      45.563  22.946  38.678  1.00  0.00    -0.459 OA
BRANCH   6   7
ATOM      7  C   UNL A   1      46.620  22.089  38.693  1.00  0.00     0.370 C 
ATOM      8  O   UNL A   1      47.763  22.451  38.945  1.00  0.00    -0.245 OA
BRANCH   7   9
ATOM      9  C   UNL A   1      46.204  20.677  38.266  1.00  0.00     0.328 C 
BRANCH   9  10
ATOM     10  C   UNL A   1      46.589  20.431  36.811  1.00  0.00     0.046 A 
ATOM     11  C   UNL A   1      50.324  20.377  35.878  1.00  0.00     0.119 A 
ATOM     12  C   UNL A   1      50.146  20.213  34.516  1.00  0.00     0.048 A 
ATOM     13  C   UNL A   1      49.233  20.403  36.741  1.00  0.00     0.057 A 
ATOM     14  C   UNL A   1      48.857  20.104  33.981  1.00  0.00     0.030 A 
ATOM     15  C   UNL A   1      47.914  20.349  36.236  1.00  0.00     0.013 A 
ATOM     16  C   UNL A   1      47.764  20.182  34.859  1.00  0.00     0.046 A 
ATOM     17  N   UNL A   1      46.416  20.102  34.605  1.00  0.00    -0.361 N 
ATOM     18  C   UNL A   1      45.702  20.268  35.760  1.00  0.00     0.094 A 
ATOM     19  H   UNL A   1      46.019  19.945  33.717  1.00  0.00     0.166 HD
BRANCH  11  20
ATOM     20  O   UNL A   1      51.588  20.447  36.397  1.00  0.00    -0.497 OA
ATOM     21  C   UNL A   1      51.738  21.611  37.212  1.00  0.00     0.278 C 
ENDBRANCH  11  20
ENDBRANCH   9  10
BRANCH   9  22
ATOM     22  N   UNL A   1      46.755  19.601  39.116  1.00  0.00    -0.310 N 
ATOM     23  C   UNL A   1      46.718  19.820  40.557  1.00  0.00     0.325 C 
ATOM     24  C   UNL A   1      46.516  18.203  38.755  1.00  0.00     0.325 C 
ATOM     25  H   UNL A   1      47.724  19.736  38.827  1.00  0.00     0.349 HD
ATOM     26  C   UNL A   1      45.644  19.058  41.373  1.00  0.00     0.324 C 
ATOM     27  C   UNL A   1      45.467  17.403  39.579  1.00  0.00     0.324 C 
ATOM     28  N   UNL A   1      45.372  17.668  41.015  1.00  0.00    -0.322 N 
ATOM     29  H   UNL A   1      44.376  17.538  41.194  1.00  0.00     0.348 HD
BRANCH  28  30
ATOM     30  C   UNL A   1      45.901  16.654  41.935  1.00  0.00     0.300 C 
BRANCH  30  31
ATOM     31  C   UNL A   1      44.854  15.996  42.813  1.00  0.00     0.014 A 
ATOM     32  C   UNL A   1      43.509  16.329  42.563  1.00  0.00     0.010 A 
ATOM     33  C   UNL A   1      45.169  14.917  43.675  1.00  0.00    -0.010 A 
ATOM     34  C   UNL A   1      42.487  15.503  43.006  1.00  0.00     0.001 A 
ATOM     35  C   UNL A   1      44.134  14.019  44.013  1.00  0.00    -0.018 A 
ATOM     36  C   UNL A   1      46.468  14.648  44.169  1.00  0.00     0.009 A 
ATOM     37  C   UNL A   1      42.805  14.324  43.673  1.00  0.00     0.009 A 
ATOM     38  C   UNL A   1      44.452  12.808  44.650  1.00  0.00     0.009 A 
ATOM     39  C   UNL A   1      46.763  13.457  44.834  1.00  0.00     0.001 A 
ATOM     40  C   UNL A   1      45.762  12.518  45.033  1.00  0.00     0.001 A 
ENDBRANCH  30  31
ENDBRANCH  28  30
ENDBRANCH   9  22
ENDBRANCH   7   9
ENDBRANCH   6   7
ENDBRANCH   5   6
ENDBRANCH   4   5
ENDBRANCH   3   4
ENDBRANCH   2   3
ENDBRANCH   1   2
BRANCH   1  41
ATOM     41  O   UNL A   1      46.932  27.073  37.121  1.00  0.00    -0.377 OA
BRANCH  41  42
ATOM     42  C   UNL A   1      47.260  25.730  36.799  1.00  0.00     0.188 C 
BRANCH  42  43
ATOM     43  C   UNL A   1      48.713  25.260  37.022  1.00  0.00     0.188 C 
BRANCH  43  44
ATOM     44  O   UNL A   1      49.565  25.463  35.902  1.00  0.00    -0.376 OA
BRANCH  44  45
ATOM     45  C   UNL A   1      50.061  24.311  35.241  1.00  0.00     0.202 C 
BRANCH  45  46
ATOM     46  C   UNL A   1      49.355  23.904  33.942  1.00  0.00     0.261 C 
BRANCH  46  47
ATOM     47  O   UNL A   1      48.286  24.757  33.503  1.00  0.00    -0.460 OA
BRANCH  47  48
ATOM     48  C   UNL A   1      48.546  25.689  32.562  1.00  0.00     0.338 C 
ATOM     49  O   UNL A   1      49.445  25.685  31.741  1.00  0.00    -0.246 OA
BRANCH  48  50
ATOM     50  C   UNL A   1      47.387  26.613  32.549  1.00  0.00     0.060 A 
ATOM     51  C   UNL A   1      46.277  26.322  33.356  1.00  0.00     0.016 A 
ATOM     52  C   UNL A   1      47.448  27.811  31.832  1.00  0.00     0.016 A 
ATOM     53  C   UNL A   1      45.216  27.224  33.433  1.00  0.00     0.010 A 
ATOM     54  C   UNL A   1      46.367  28.692  31.874  1.00  0.00     0.010 A 
ATOM     55  C   UNL A   1      45.233  28.383  32.647  1.00  0.00    -0.014 A 
BRANCH  55  56
ATOM     56  C   UNL A   1      43.959  29.090  32.384  1.00  0.00     0.031 A 
ATOM     57  C   UNL A   1      43.062  28.500  31.330  1.00  0.00     0.074 A 
ATOM     58  C   UNL A   1      43.594  30.197  33.053  1.00  0.00     0.049 A 
ATOM     59  N   UNL A   1      41.914  28.927  30.876  1.00  0.00    -0.248 NA
ATOM     60  C   UNL A   1      43.531  27.251  30.703  1.00  0.00     0.031 C 
ATOM     61  C   UNL A   1      44.356  30.837  34.123  1.00  0.00     0.029 A 
ATOM     62  N   UNL A   1      42.478  30.983  32.915  1.00  0.00    -0.354 N 
ATOM     63  C   UNL A   1      41.525  27.999  29.917  1.00  0.00     0.074 A 
ATOM     64  C   UNL A   1      42.570  27.004  29.831  1.00  0.00     0.031 C 
ATOM     65  C   UNL A   1      43.688  31.930  34.535  1.00  0.00     0.029 A 
ATOM     66  C   UNL A   1      42.470  32.080  33.741  1.00  0.00     0.049 A 
ATOM     67  H   UNL A   1      41.750  30.779  32.283  1.00  0.00     0.167 HD
ATOM     68  C   UNL A   1      40.395  27.971  29.178  1.00  0.00     0.037 A 
ATOM     69  C   UNL A   1      41.586  33.096  33.821  1.00  0.00     0.037 A 
ATOM     70  C   UNL A   1      39.369  28.974  29.246  1.00  0.00     0.049 A 
ATOM     71  C   UNL A   1      40.376  33.092  32.919  1.00  0.00     0.074 A 
ATOM     72  C   UNL A   1      38.185  29.046  28.536  1.00  0.00     0.029 A 
ATOM     73  N   UNL A   1      39.417  30.089  30.068  1.00  0.00    -0.354 N 
ATOM     74  N   UNL A   1      40.003  32.199  32.034  1.00  0.00    -0.248 NA
ATOM     75  C   UNL A   1      39.464  34.241  33.030  1.00  0.00     0.031 C 
ATOM     76  C   UNL A   1      37.538  30.233  28.892  1.00  0.00     0.029 A 
ATOM     77  C   UNL A   1      38.292  30.870  29.865  1.00  0.00     0.049 A 
ATOM     78  H   UNL A   1      40.141  30.295  30.701  1.00  0.00     0.167 HD
ATOM     79  C   UNL A   1      38.800  32.659  31.508  1.00  0.00     0.074 A 
ATOM     80  C   UNL A   1      38.502  33.907  32.182  1.00  0.00     0.031 C 
ATOM     81  C   UNL A   1      38.010  32.102  30.557  1.00  0.00     0.037 A 
BRANCH  68  82
ATOM     82  C   UNL A   1      40.239  26.838  28.209  1.00  0.00     0.057 A 
ATOM     83  C   UNL A   1      40.842  26.858  26.944  1.00  0.00     0.134 A 
ATOM     84  C   UNL A   1      39.474  25.716  28.543  1.00  0.00     0.134 A 
ATOM     85  F   UNL A   1      41.566  27.919  26.551  1.00  0.00    -0.206 F 
ATOM     86  C   UNL A   1      40.669  25.811  26.037  1.00  0.00     0.040 A 
ATOM     87  C   UNL A   1      39.316  24.650  27.656  1.00  0.00     0.040 A 
ATOM     88  F   UNL A   1      38.865  25.637  29.736  1.00  0.00    -0.206 F 
ATOM     89  C   UNL A   1      39.910  24.699  26.396  1.00  0.00     0.006 A 
ENDBRANCH  68  82
BRANCH  69  90
ATOM     90  C   UNL A   1      41.810  34.212  34.776  1.00  0.00     0.057 A 
ATOM     91  C   UNL A   1      42.555  35.341  34.414  1.00  0.00     0.134 A 
ATOM     92  C   UNL A   1      41.319  34.159  36.086  1.00  0.00     0.134 A 
ATOM     93  F   UNL A   1      43.077  35.439  33.182  1.00  0.00    -0.206 F 
ATOM     94  C   UNL A   1      42.822  36.366  35.324  1.00  0.00     0.040 A 
ATOM     95  C   UNL A   1      41.556  35.189  36.999  1.00  0.00     0.040 A 
ATOM     96  F   UNL A   1      40.603  33.104  36.500  1.00  0.00    -0.206 F 
ATOM     97  C   UNL A   1      42.316  36.294  36.621  1.00  0.00     0.006 A 
ENDBRANCH  69  90
BRANCH  81  98
ATOM     98  C   UNL A   1      36.729  32.807  30.218  1.00  0.00     0.057 A 
ATOM     99  C   UNL A   1      35.566  32.640  30.981  1.00  0.00     0.134 A 
ATOM    100  C   UNL A   1      36.676  33.708  29.146  1.00  0.00     0.134 A 
ATOM    101  F   UNL A   1      35.548  31.786  32.014  1.00  0.00    -0.206 F 
ATOM    102  C   UNL A   1      34.389  33.325  30.673  1.00  0.00     0.040 A 
ATOM    103  C   UNL A   1      35.515  34.421  28.848  1.00  0.00     0.040 A 
ATOM    104  F   UNL A   1      37.759  33.925  28.384  1.00  0.00    -0.206 F 
ATOM    105  C   UNL A   1      34.365  34.225  29.609  1.00  0.00     0.006 A 
ENDBRANCH  81  98
ENDBRANCH  55  56
ENDBRANCH  48  50
ENDBRANCH  47  48
ENDBRANCH  46  47
ENDBRANCH  45  46
ENDBRANCH  44  45
ENDBRANCH  43  44
ENDBRANCH  42  43
ENDBRANCH  41  42
ENDBRANCH   1  41
TORSDOF 25
ENDMDL
