MODEL 1
REMARK VINA RESULT:      -9.6      0.000      0.000
REMARK SMILES O=C(/C=C\C(F)(C(F)(F)F)C(F)(F)F)OCCOCCOCCOCCOC(=O)c1ccc(-c2c3nc(c(-c4c(F)cccc4F)c4ccc([nH]4)c(-c4c(F)cccc4F)c4nc(c(-c5c(F)cccc5F)c5ccc2[nH]5)C=C4)C=C3)cc1
REMARK SMILES IDX 21 1 20 2 19 3 18 4 17 5 16 6 15 7 2 8 1 9 3 10 4 11 5 12
REMARK SMILES IDX 6 13 7 14 8 15 9 16 10 17 11 18 12 19 13 20 14 21 22 22
REMARK SMILES IDX 23 23 24 24 25 25 26 26 27 27 28 28 29 29 30 30 31 31 83 32
REMARK SMILES IDX 32 33 82 34 33 35 34 36 35 37 76 38 36 39 81 40 75 41 77 42
REMARK SMILES IDX 37 43 80 44 74 45 73 46 38 48 64 49 47 50 63 51 48 52 51 53
REMARK SMILES IDX 62 54 78 55 49 56 50 57 61 59 79 60 52 61 39 62 40 63 45 64
REMARK SMILES IDX 41 65 42 66 44 67 46 68 43 69 65 70 66 71 71 72 67 73 68 74
REMARK SMILES IDX 70 75 72 76 69 77 53 78 54 79 59 80 55 81 56 82 58 83 60 84
REMARK SMILES IDX 57 85
REMARK H PARENT 77 47 51 58
REMARK Flexibility Score: inf
ROOT
ATOM      1  O   UNL A   1      38.411  21.452  25.407  1.00  0.00    -0.377 OA
ENDROOT
BRANCH   1   2
ATOM      2  C   UNL A   1      37.038  21.787  25.497  1.00  0.00     0.188 C 
BRANCH   2   3
ATOM      3  C   UNL A   1      36.098  20.598  25.322  1.00  0.00     0.188 C 
BRANCH   3   4
ATOM      4  O   UNL A   1      34.710  20.784  25.566  1.00  0.00    -0.376 OA
BRANCH   4   5
ATOM      5  C   UNL A   1      33.782  20.778  24.500  1.00  0.00     0.202 C 
BRANCH   5   6
ATOM      6  C   UNL A   1      33.135  22.120  24.181  1.00  0.00     0.261 C 
BRANCH   6   7
ATOM      7  O   UNL A   1      33.691  23.362  24.678  1.00  0.00    -0.460 OA
BRANCH   7   8
ATOM      8  C   UNL A   1      33.270  24.283  25.548  1.00  0.00     0.330 C 
ATOM      9  O   UNL A   1      32.314  24.038  26.283  1.00  0.00    -0.247 OA
BRANCH   8  10
ATOM     10  C   UNL A   1      33.899  25.605  25.699  1.00  0.00     0.093 C 
ATOM     11  C   UNL A   1      33.705  26.874  25.297  1.00  0.00     0.040 C 
BRANCH  11  12
ATOM     12  C   UNL A   1      32.693  27.606  24.419  1.00  0.00     0.317 C 
ATOM     13  F   UNL A   1      32.291  26.737  23.436  1.00  0.00    -0.219 F 
BRANCH  12  14
ATOM     14  C   UNL A   1      31.437  27.957  25.208  1.00  0.00     0.435 C 
ATOM     15  F   UNL A   1      30.661  28.864  24.576  1.00  0.00    -0.167 F 
ATOM     16  F   UNL A   1      30.672  26.877  25.477  1.00  0.00    -0.167 F 
ATOM     17  F   UNL A   1      31.762  28.503  26.412  1.00  0.00    -0.167 F 
ENDBRANCH  12  14
BRANCH  12  18
ATOM     18  C   UNL A   1      33.116  28.913  23.775  1.00  0.00     0.435 C 
ATOM     19  F   UNL A   1      34.356  28.852  23.246  1.00  0.00    -0.167 F 
ATOM     20  F   UNL A   1      32.289  29.286  22.777  1.00  0.00    -0.167 F 
ATOM     21  F   UNL A   1      33.103  29.936  24.662  1.00  0.00    -0.167 F 
ENDBRANCH  12  18
ENDBRANCH  11  12
ENDBRANCH   8  10
ENDBRANCH   7   8
ENDBRANCH   6   7
ENDBRANCH   5   6
ENDBRANCH   4   5
ENDBRANCH   3   4
ENDBRANCH   2   3
ENDBRANCH   1   2
BRANCH   1  22
ATOM     22  C   UNL A   1      39.327  22.035  26.322  1.00  0.00     0.188 C 
BRANCH  22  23
ATOM     23  C   UNL A   1      40.616  21.264  26.678  1.00  0.00     0.188 C 
BRANCH  23  24
ATOM     24  O   UNL A   1      41.594  21.075  25.656  1.00  0.00    -0.376 OA
BRANCH  24  25
ATOM     25  C   UNL A   1      42.951  20.871  26.026  1.00  0.00     0.202 C 
BRANCH  25  26
ATOM     26  C   UNL A   1      44.017  21.707  25.303  1.00  0.00     0.261 C 
BRANCH  26  27
ATOM     27  O   UNL A   1      43.479  22.912  24.723  1.00  0.00    -0.460 OA
BRANCH  27  28
ATOM     28  C   UNL A   1      44.167  24.049  24.982  1.00  0.00     0.338 C 
ATOM     29  O   UNL A   1      45.233  24.385  24.482  1.00  0.00    -0.246 OA
BRANCH  28  30
ATOM     30  C   UNL A   1      43.347  24.970  25.808  1.00  0.00     0.060 A 
ATOM     31  C   UNL A   1      43.821  26.280  25.979  1.00  0.00     0.016 A 
ATOM     32  C   UNL A   1      42.139  24.586  26.400  1.00  0.00     0.016 A 
ATOM     33  C   UNL A   1      43.135  27.181  26.794  1.00  0.00     0.010 A 
ATOM     34  C   UNL A   1      41.458  25.487  27.234  1.00  0.00     0.010 A 
ATOM     35  C   UNL A   1      41.981  26.771  27.473  1.00  0.00    -0.014 A 
BRANCH  35  36
ATOM     36  C   UNL A   1      41.503  27.582  28.622  1.00  0.00     0.031 A 
ATOM     37  C   UNL A   1      42.266  27.480  29.919  1.00  0.00     0.074 A 
ATOM     38  C   UNL A   1      40.470  28.439  28.523  1.00  0.00     0.049 A 
ATOM     39  N   UNL A   1      42.068  28.094  31.056  1.00  0.00    -0.248 NA
ATOM     40  C   UNL A   1      43.417  26.558  29.927  1.00  0.00     0.031 C 
ATOM     41  C   UNL A   1      39.671  28.675  27.323  1.00  0.00     0.029 A 
ATOM     42  N   UNL A   1      39.918  29.275  29.464  1.00  0.00    -0.354 N 
ATOM     43  C   UNL A   1      43.069  27.643  31.906  1.00  0.00     0.074 A 
ATOM     44  C   UNL A   1      43.852  26.676  31.171  1.00  0.00     0.031 C 
ATOM     45  C   UNL A   1      38.722  29.587  27.605  1.00  0.00     0.029 A 
ATOM     46  C   UNL A   1      38.835  29.985  29.007  1.00  0.00     0.049 A 
ATOM     47  H   UNL A   1      40.268  29.357  30.381  1.00  0.00     0.167 HD
ATOM     48  C   UNL A   1      43.330  28.009  33.183  1.00  0.00     0.037 A 
ATOM     49  C   UNL A   1      38.024  30.845  29.654  1.00  0.00     0.037 A 
ATOM     50  C   UNL A   1      42.554  28.959  33.932  1.00  0.00     0.049 A 
ATOM     51  C   UNL A   1      38.283  31.173  31.105  1.00  0.00     0.074 A 
ATOM     52  C   UNL A   1      42.738  29.386  35.235  1.00  0.00     0.029 A 
ATOM     53  N   UNL A   1      41.441  29.625  33.444  1.00  0.00    -0.354 N 
ATOM     54  N   UNL A   1      39.248  30.758  31.891  1.00  0.00    -0.248 NA
ATOM     55  C   UNL A   1      37.338  32.093  31.758  1.00  0.00     0.031 C 
ATOM     56  C   UNL A   1      41.709  30.281  35.550  1.00  0.00     0.029 A 
ATOM     57  C   UNL A   1      40.915  30.445  34.428  1.00  0.00     0.049 A 
ATOM     58  H   UNL A   1      41.078  29.529  32.534  1.00  0.00     0.167 HD
ATOM     59  C   UNL A   1      39.042  31.389  33.114  1.00  0.00     0.074 A 
ATOM     60  C   UNL A   1      37.873  32.227  32.963  1.00  0.00     0.031 C 
ATOM     61  C   UNL A   1      39.757  31.283  34.261  1.00  0.00     0.037 A 
BRANCH  48  62
ATOM     62  C   UNL A   1      44.502  27.362  33.856  1.00  0.00     0.057 A 
ATOM     63  C   UNL A   1      44.376  26.149  34.545  1.00  0.00     0.134 A 
ATOM     64  C   UNL A   1      45.774  27.941  33.790  1.00  0.00     0.134 A 
ATOM     65  F   UNL A   1      43.179  25.554  34.662  1.00  0.00    -0.206 F 
ATOM     66  C   UNL A   1      45.473  25.541  35.157  1.00  0.00     0.040 A 
ATOM     67  C   UNL A   1      46.883  27.333  34.377  1.00  0.00     0.040 A 
ATOM     68  F   UNL A   1      45.960  29.104  33.146  1.00  0.00    -0.206 F 
ATOM     69  C   UNL A   1      46.733  26.130  35.067  1.00  0.00     0.006 A 
ENDBRANCH  48  62
BRANCH  49  70
ATOM     70  C   UNL A   1      36.861  31.456  28.957  1.00  0.00     0.057 A 
ATOM     71  C   UNL A   1      36.873  32.799  28.558  1.00  0.00     0.134 A 
ATOM     72  C   UNL A   1      35.682  30.733  28.744  1.00  0.00     0.134 A 
ATOM     73  F   UNL A   1      37.961  33.555  28.764  1.00  0.00    -0.206 F 
ATOM     74  C   UNL A   1      35.746  33.406  27.998  1.00  0.00     0.040 A 
ATOM     75  C   UNL A   1      34.557  31.320  28.162  1.00  0.00     0.040 A 
ATOM     76  F   UNL A   1      35.603  29.445  29.111  1.00  0.00    -0.206 F 
ATOM     77  C   UNL A   1      34.585  32.664  27.796  1.00  0.00     0.006 A 
ENDBRANCH  49  70
BRANCH  61  78
ATOM     78  C   UNL A   1      39.317  32.117  35.430  1.00  0.00     0.057 A 
ATOM     79  C   UNL A   1      39.744  33.440  35.599  1.00  0.00     0.134 A 
ATOM     80  C   UNL A   1      38.427  31.599  36.380  1.00  0.00     0.134 A 
ATOM     81  F   UNL A   1      40.603  33.991  34.730  1.00  0.00    -0.206 F 
ATOM     82  C   UNL A   1      39.323  34.209  36.685  1.00  0.00     0.040 A 
ATOM     83  C   UNL A   1      37.977  32.367  37.456  1.00  0.00     0.040 A 
ATOM     84  F   UNL A   1      37.967  30.343  36.272  1.00  0.00    -0.206 F 
ATOM     85  C   UNL A   1      38.432  33.674  37.614  1.00  0.00     0.006 A 
ENDBRANCH  61  78
ENDBRANCH  35  36
ENDBRANCH  28  30
ENDBRANCH  27  28
ENDBRANCH  26  27
ENDBRANCH  25  26
ENDBRANCH  24  25
ENDBRANCH  23  24
ENDBRANCH  22  23
ENDBRANCH   1  22
TORSDOF 23
ENDMDL
MODEL 2
REMARK VINA RESULT:      -9.4      1.658      3.108
REMARK SMILES O=C(/C=C\C(F)(C(F)(F)F)C(F)(F)F)OCCOCCOCCOCCOC(=O)c1ccc(-c2c3nc(c(-c4c(F)cccc4F)c4ccc([nH]4)c(-c4c(F)cccc4F)c4nc(c(-c5c(F)cccc5F)c5ccc2[nH]5)C=C4)C=C3)cc1
REMARK SMILES IDX 21 1 20 2 19 3 18 4 17 5 16 6 15 7 2 8 1 9 3 10 4 11 5 12
REMARK SMILES IDX 6 13 7 14 8 15 9 16 10 17 11 18 12 19 13 20 14 21 22 22
REMARK SMILES IDX 23 23 24 24 25 25 26 26 27 27 28 28 29 29 30 30 31 31 83 32
REMARK SMILES IDX 32 33 82 34 33 35 34 36 35 37 76 38 36 39 81 40 75 41 77 42
REMARK SMILES IDX 37 43 80 44 74 45 73 46 38 48 64 49 47 50 63 51 48 52 51 53
REMARK SMILES IDX 62 54 78 55 49 56 50 57 61 59 79 60 52 61 39 62 40 63 45 64
REMARK SMILES IDX 41 65 42 66 44 67 46 68 43 69 65 70 66 71 71 72 67 73 68 74
REMARK SMILES IDX 70 75 72 76 69 77 53 78 54 79 59 80 55 81 56 82 58 83 60 84
REMARK SMILES IDX 57 85
REMARK H PARENT 77 47 51 58
REMARK Flexibility Score: inf
ROOT
ATOM      1  O   UNL A   1      42.903  19.523  25.351  1.00  0.00    -0.377 OA
ENDROOT
BRANCH   1   2
ATOM      2  C   UNL A   1      42.338  19.163  26.599  1.00  0.00     0.188 C 
BRANCH   2   3
ATOM      3  C   UNL A   1      41.434  20.235  27.202  1.00  0.00     0.188 C 
BRANCH   3   4
ATOM      4  O   UNL A   1      40.851  21.200  26.338  1.00  0.00    -0.376 OA
BRANCH   4   5
ATOM      5  C   UNL A   1      39.451  21.261  26.163  1.00  0.00     0.202 C 
BRANCH   5   6
ATOM      6  C   UNL A   1      38.841  22.658  26.187  1.00  0.00     0.261 C 
BRANCH   6   7
ATOM      7  O   UNL A   1      37.428  22.868  25.945  1.00  0.00    -0.460 OA
BRANCH   7   8
ATOM      8  C   UNL A   1      36.570  22.420  25.026  1.00  0.00     0.330 C 
ATOM      9  O   UNL A   1      36.237  21.236  25.025  1.00  0.00    -0.247 OA
BRANCH   8  10
ATOM     10  C   UNL A   1      35.967  23.277  23.992  1.00  0.00     0.093 C 
ATOM     11  C   UNL A   1      34.817  23.933  23.759  1.00  0.00     0.040 C 
BRANCH  11  12
ATOM     12  C   UNL A   1      33.484  24.105  24.485  1.00  0.00     0.317 C 
ATOM     13  F   UNL A   1      32.686  24.903  23.705  1.00  0.00    -0.219 F 
BRANCH  12  14
ATOM     14  C   UNL A   1      32.753  22.774  24.610  1.00  0.00     0.435 C 
ATOM     15  F   UNL A   1      31.420  22.924  24.764  1.00  0.00    -0.167 F 
ATOM     16  F   UNL A   1      32.956  21.967  23.546  1.00  0.00    -0.167 F 
ATOM     17  F   UNL A   1      33.189  22.084  25.699  1.00  0.00    -0.167 F 
ENDBRANCH  12  14
BRANCH  12  18
ATOM     18  C   UNL A   1      33.504  24.662  25.896  1.00  0.00     0.435 C 
ATOM     19  F   UNL A   1      34.109  23.833  26.772  1.00  0.00    -0.167 F 
ATOM     20  F   UNL A   1      34.152  25.843  25.974  1.00  0.00    -0.167 F 
ATOM     21  F   UNL A   1      32.254  24.900  26.359  1.00  0.00    -0.167 F 
ENDBRANCH  12  18
ENDBRANCH  11  12
ENDBRANCH   8  10
ENDBRANCH   7   8
ENDBRANCH   6   7
ENDBRANCH   5   6
ENDBRANCH   4   5
ENDBRANCH   3   4
ENDBRANCH   2   3
ENDBRANCH   1   2
BRANCH   1  22
ATOM     22  C   UNL A   1      44.069  18.852  24.899  1.00  0.00     0.188 C 
BRANCH  22  23
ATOM     23  C   UNL A   1      45.153  19.661  24.156  1.00  0.00     0.188 C 
BRANCH  23  24
ATOM     24  O   UNL A   1      46.030  20.481  24.927  1.00  0.00    -0.376 OA
BRANCH  24  25
ATOM     25  C   UNL A   1      46.086  21.877  24.660  1.00  0.00     0.202 C 
BRANCH  25  26
ATOM     26  C   UNL A   1      44.865  22.519  23.986  1.00  0.00     0.261 C 
BRANCH  26  27
ATOM     27  O   UNL A   1      44.105  23.350  24.886  1.00  0.00    -0.460 OA
BRANCH  27  28
ATOM     28  C   UNL A   1      44.645  24.559  25.170  1.00  0.00     0.338 C 
ATOM     29  O   UNL A   1      45.650  25.044  24.666  1.00  0.00    -0.246 OA
BRANCH  28  30
ATOM     30  C   UNL A   1      43.725  25.344  26.032  1.00  0.00     0.060 A 
ATOM     31  C   UNL A   1      43.916  26.733  26.082  1.00  0.00     0.016 A 
ATOM     32  C   UNL A   1      42.694  24.757  26.772  1.00  0.00     0.016 A 
ATOM     33  C   UNL A   1      43.131  27.526  26.919  1.00  0.00     0.010 A 
ATOM     34  C   UNL A   1      41.916  25.552  27.627  1.00  0.00     0.010 A 
ATOM     35  C   UNL A   1      42.165  26.932  27.741  1.00  0.00    -0.014 A 
BRANCH  35  36
ATOM     36  C   UNL A   1      41.633  27.706  28.892  1.00  0.00     0.031 A 
ATOM     37  C   UNL A   1      42.366  27.602  30.206  1.00  0.00     0.074 A 
ATOM     38  C   UNL A   1      40.577  28.532  28.782  1.00  0.00     0.049 A 
ATOM     39  N   UNL A   1      42.120  28.187  31.349  1.00  0.00    -0.248 NA
ATOM     40  C   UNL A   1      43.544  26.716  30.226  1.00  0.00     0.031 C 
ATOM     41  C   UNL A   1      39.802  28.767  27.566  1.00  0.00     0.029 A 
ATOM     42  N   UNL A   1      39.976  29.333  29.724  1.00  0.00    -0.354 N 
ATOM     43  C   UNL A   1      43.114  27.751  32.216  1.00  0.00     0.074 A 
ATOM     44  C   UNL A   1      43.944  26.823  31.483  1.00  0.00     0.031 C 
ATOM     45  C   UNL A   1      38.818  29.644  27.840  1.00  0.00     0.029 A 
ATOM     46  C   UNL A   1      38.884  30.019  29.252  1.00  0.00     0.049 A 
ATOM     47  H   UNL A   1      40.300  29.408  30.651  1.00  0.00     0.167 HD
ATOM     48  C   UNL A   1      43.330  28.100  33.506  1.00  0.00     0.037 A 
ATOM     49  C   UNL A   1      38.030  30.841  29.894  1.00  0.00     0.037 A 
ATOM     50  C   UNL A   1      42.506  29.012  34.252  1.00  0.00     0.049 A 
ATOM     51  C   UNL A   1      38.242  31.148  31.357  1.00  0.00     0.074 A 
ATOM     52  C   UNL A   1      42.644  29.419  35.567  1.00  0.00     0.029 A 
ATOM     53  N   UNL A   1      41.387  29.653  33.748  1.00  0.00    -0.354 N 
ATOM     54  N   UNL A   1      39.199  30.748  32.160  1.00  0.00    -0.248 NA
ATOM     55  C   UNL A   1      37.253  32.026  32.002  1.00  0.00     0.031 C 
ATOM     56  C   UNL A   1      41.581  30.275  35.872  1.00  0.00     0.029 A 
ATOM     57  C   UNL A   1      40.811  30.437  34.733  1.00  0.00     0.049 A 
ATOM     58  H   UNL A   1      41.050  29.563  32.827  1.00  0.00     0.167 HD
ATOM     59  C   UNL A   1      38.943  31.349  33.388  1.00  0.00     0.074 A 
ATOM     60  C   UNL A   1      37.753  32.154  33.222  1.00  0.00     0.031 C 
ATOM     61  C   UNL A   1      39.631  31.243  34.551  1.00  0.00     0.037 A 
BRANCH  48  62
ATOM     62  C   UNL A   1      44.504  27.476  34.197  1.00  0.00     0.057 A 
ATOM     63  C   UNL A   1      45.787  28.032  34.112  1.00  0.00     0.134 A 
ATOM     64  C   UNL A   1      44.345  26.326  34.978  1.00  0.00     0.134 A 
ATOM     65  F   UNL A   1      46.008  29.122  33.362  1.00  0.00    -0.206 F 
ATOM     66  C   UNL A   1      46.875  27.456  34.770  1.00  0.00     0.040 A 
ATOM     67  C   UNL A   1      45.420  25.754  35.659  1.00  0.00     0.040 A 
ATOM     68  F   UNL A   1      43.142  25.745  35.098  1.00  0.00    -0.206 F 
ATOM     69  C   UNL A   1      46.691  26.318  35.553  1.00  0.00     0.006 A 
ENDBRANCH  48  62
BRANCH  49  70
ATOM     70  C   UNL A   1      36.867  31.430  29.179  1.00  0.00     0.057 A 
ATOM     71  C   UNL A   1      35.737  30.663  28.868  1.00  0.00     0.134 A 
ATOM     72  C   UNL A   1      36.892  32.753  28.720  1.00  0.00     0.134 A 
ATOM     73  F   UNL A   1      35.666  29.380  29.250  1.00  0.00    -0.206 F 
ATOM     74  C   UNL A   1      34.687  31.181  28.105  1.00  0.00     0.040 A 
ATOM     75  C   UNL A   1      35.839  33.291  27.979  1.00  0.00     0.040 A 
ATOM     76  F   UNL A   1      37.948  33.537  28.977  1.00  0.00    -0.206 F 
ATOM     77  C   UNL A   1      34.736  32.500  27.660  1.00  0.00     0.006 A 
ENDBRANCH  49  70
BRANCH  61  78
ATOM     78  C   UNL A   1      39.137  32.040  35.724  1.00  0.00     0.057 A 
ATOM     79  C   UNL A   1      39.507  33.376  35.920  1.00  0.00     0.134 A 
ATOM     80  C   UNL A   1      38.250  31.472  36.649  1.00  0.00     0.134 A 
ATOM     81  F   UNL A   1      40.359  33.975  35.076  1.00  0.00    -0.206 F 
ATOM     82  C   UNL A   1      39.035  34.111  37.010  1.00  0.00     0.040 A 
ATOM     83  C   UNL A   1      37.751  32.205  37.727  1.00  0.00     0.040 A 
ATOM     84  F   UNL A   1      37.844  30.200  36.513  1.00  0.00    -0.206 F 
ATOM     85  C   UNL A   1      38.150  33.527  37.913  1.00  0.00     0.006 A 
ENDBRANCH  61  78
ENDBRANCH  35  36
ENDBRANCH  28  30
ENDBRANCH  27  28
ENDBRANCH  26  27
ENDBRANCH  25  26
ENDBRANCH  24  25
ENDBRANCH  23  24
ENDBRANCH  22  23
ENDBRANCH   1  22
TORSDOF 23
ENDMDL
MODEL 3
REMARK VINA RESULT:      -9.2      7.195      9.809
REMARK SMILES O=C(/C=C\C(F)(C(F)(F)F)C(F)(F)F)OCCOCCOCCOCCOC(=O)c1ccc(-c2c3nc(c(-c4c(F)cccc4F)c4ccc([nH]4)c(-c4c(F)cccc4F)c4nc(c(-c5c(F)cccc5F)c5ccc2[nH]5)C=C4)C=C3)cc1
REMARK SMILES IDX 21 1 20 2 19 3 18 4 17 5 16 6 15 7 2 8 1 9 3 10 4 11 5 12
REMARK SMILES IDX 6 13 7 14 8 15 9 16 10 17 11 18 12 19 13 20 14 21 22 22
REMARK SMILES IDX 23 23 24 24 25 25 26 26 27 27 28 28 29 29 30 30 31 31 83 32
REMARK SMILES IDX 32 33 82 34 33 35 34 36 35 37 76 38 36 39 81 40 75 41 77 42
REMARK SMILES IDX 37 43 80 44 74 45 73 46 38 48 64 49 47 50 63 51 48 52 51 53
REMARK SMILES IDX 62 54 78 55 49 56 50 57 61 59 79 60 52 61 39 62 40 63 45 64
REMARK SMILES IDX 41 65 42 66 44 67 46 68 43 69 65 70 66 71 71 72 67 73 68 74
REMARK SMILES IDX 70 75 72 76 69 77 53 78 54 79 59 80 55 81 56 82 58 83 60 84
REMARK SMILES IDX 57 85
REMARK H PARENT 77 47 51 58
REMARK Flexibility Score: inf
ROOT
ATOM      1  O   UNL A   1      41.963  19.623  25.406  1.00  0.00    -0.377 OA
ENDROOT
BRANCH   1   2
ATOM      2  C   UNL A   1      40.748  19.326  26.072  1.00  0.00     0.188 C 
BRANCH   2   3
ATOM      3  C   UNL A   1      39.958  20.561  26.497  1.00  0.00     0.188 C 
BRANCH   3   4
ATOM      4  O   UNL A   1      38.880  20.995  25.679  1.00  0.00    -0.376 OA
BRANCH   4   5
ATOM      5  C   UNL A   1      38.301  22.270  25.864  1.00  0.00     0.202 C 
BRANCH   5   6
ATOM      6  C   UNL A   1      37.299  22.702  24.800  1.00  0.00     0.261 C 
BRANCH   6   7
ATOM      7  O   UNL A   1      36.179  21.858  24.434  1.00  0.00    -0.460 OA
BRANCH   7   8
ATOM      8  C   UNL A   1      35.162  21.323  25.113  1.00  0.00     0.330 C 
ATOM      9  O   UNL A   1      35.219  21.246  26.339  1.00  0.00    -0.247 OA
BRANCH   8  10
ATOM     10  C   UNL A   1      33.937  20.815  24.474  1.00  0.00     0.093 C 
ATOM     11  C   UNL A   1      33.361  19.638  24.173  1.00  0.00     0.040 C 
BRANCH  11  12
ATOM     12  C   UNL A   1      33.724  18.163  24.336  1.00  0.00     0.317 C 
ATOM     13  F   UNL A   1      35.060  18.096  24.644  1.00  0.00    -0.219 F 
BRANCH  12  14
ATOM     14  C   UNL A   1      32.990  17.547  25.520  1.00  0.00     0.435 C 
ATOM     15  F   UNL A   1      31.749  17.122  25.199  1.00  0.00    -0.167 F 
ATOM     16  F   UNL A   1      33.656  16.503  26.060  1.00  0.00    -0.167 F 
ATOM     17  F   UNL A   1      32.836  18.458  26.519  1.00  0.00    -0.167 F 
ENDBRANCH  12  14
BRANCH  12  18
ATOM     18  C   UNL A   1      33.440  17.223  23.180  1.00  0.00     0.435 C 
ATOM     19  F   UNL A   1      34.498  17.081  22.355  1.00  0.00    -0.167 F 
ATOM     20  F   UNL A   1      33.107  15.984  23.595  1.00  0.00    -0.167 F 
ATOM     21  F   UNL A   1      32.396  17.651  22.431  1.00  0.00    -0.167 F 
ENDBRANCH  12  18
ENDBRANCH  11  12
ENDBRANCH   8  10
ENDBRANCH   7   8
ENDBRANCH   6   7
ENDBRANCH   5   6
ENDBRANCH   4   5
ENDBRANCH   3   4
ENDBRANCH   2   3
ENDBRANCH   1   2
BRANCH   1  22
ATOM     22  C   UNL A   1      43.145  18.932  25.782  1.00  0.00     0.188 C 
BRANCH  22  23
ATOM     23  C   UNL A   1      44.242  18.701  24.720  1.00  0.00     0.188 C 
BRANCH  23  24
ATOM     24  O   UNL A   1      45.543  19.233  24.967  1.00  0.00    -0.376 OA
BRANCH  24  25
ATOM     25  C   UNL A   1      45.818  20.581  24.609  1.00  0.00     0.202 C 
BRANCH  25  26
ATOM     26  C   UNL A   1      45.419  21.676  25.608  1.00  0.00     0.261 C 
BRANCH  26  27
ATOM     27  O   UNL A   1      44.118  22.233  25.332  1.00  0.00    -0.460 OA
BRANCH  27  28
ATOM     28  C   UNL A   1      43.510  22.855  26.369  1.00  0.00     0.338 C 
ATOM     29  O   UNL A   1      42.787  22.332  27.208  1.00  0.00    -0.246 OA
BRANCH  28  30
ATOM     30  C   UNL A   1      44.012  24.246  26.502  1.00  0.00     0.060 A 
ATOM     31  C   UNL A   1      44.112  25.011  25.329  1.00  0.00     0.016 A 
ATOM     32  C   UNL A   1      44.371  24.808  27.731  1.00  0.00     0.016 A 
ATOM     33  C   UNL A   1      44.635  26.304  25.369  1.00  0.00     0.010 A 
ATOM     34  C   UNL A   1      44.913  26.102  27.769  1.00  0.00     0.010 A 
ATOM     35  C   UNL A   1      45.094  26.835  26.581  1.00  0.00    -0.014 A 
BRANCH  35  36
ATOM     36  C   UNL A   1      45.996  28.015  26.547  1.00  0.00     0.031 A 
ATOM     37  C   UNL A   1      47.474  27.762  26.384  1.00  0.00     0.074 A 
ATOM     38  C   UNL A   1      45.537  29.278  26.590  1.00  0.00     0.049 A 
ATOM     39  N   UNL A   1      48.464  28.613  26.305  1.00  0.00    -0.248 NA
ATOM     40  C   UNL A   1      47.887  26.350  26.292  1.00  0.00     0.031 C 
ATOM     41  C   UNL A   1      44.135  29.672  26.700  1.00  0.00     0.029 A 
ATOM     42  N   UNL A   1      46.219  30.471  26.544  1.00  0.00    -0.354 N 
ATOM     43  C   UNL A   1      49.609  27.843  26.144  1.00  0.00     0.074 A 
ATOM     44  C   UNL A   1      49.201  26.457  26.175  1.00  0.00     0.031 C 
ATOM     45  C   UNL A   1      44.061  31.017  26.726  1.00  0.00     0.029 A 
ATOM     46  C   UNL A   1      45.410  31.576  26.652  1.00  0.00     0.049 A 
ATOM     47  H   UNL A   1      47.197  30.527  26.442  1.00  0.00     0.167 HD
ATOM     48  C   UNL A   1      50.888  28.249  25.971  1.00  0.00     0.037 A 
ATOM     49  C   UNL A   1      45.728  32.885  26.699  1.00  0.00     0.037 A 
ATOM     50  C   UNL A   1      51.311  29.622  25.951  1.00  0.00     0.049 A 
ATOM     51  C   UNL A   1      47.173  33.309  26.590  1.00  0.00     0.074 A 
ATOM     52  C   UNL A   1      52.589  30.128  25.789  1.00  0.00     0.029 A 
ATOM     53  N   UNL A   1      50.465  30.708  26.104  1.00  0.00    -0.354 N 
ATOM     54  N   UNL A   1      48.244  32.573  26.414  1.00  0.00    -0.248 NA
ATOM     55  C   UNL A   1      47.451  34.752  26.684  1.00  0.00     0.031 C 
ATOM     56  C   UNL A   1      52.522  31.522  25.887  1.00  0.00     0.029 A 
ATOM     57  C   UNL A   1      51.196  31.884  26.061  1.00  0.00     0.049 A 
ATOM     58  H   UNL A   1      49.490  30.653  26.226  1.00  0.00     0.167 HD
ATOM     59  C   UNL A   1      49.312  33.463  26.345  1.00  0.00     0.074 A 
ATOM     60  C   UNL A   1      48.760  34.793  26.481  1.00  0.00     0.031 C 
ATOM     61  C   UNL A   1      50.633  33.202  26.187  1.00  0.00     0.037 A 
BRANCH  48  62
ATOM     62  C   UNL A   1      51.928  27.183  25.803  1.00  0.00     0.057 A 
ATOM     63  C   UNL A   1      52.588  26.621  26.903  1.00  0.00     0.134 A 
ATOM     64  C   UNL A   1      52.251  26.693  24.533  1.00  0.00     0.134 A 
ATOM     65  F   UNL A   1      52.339  27.063  28.145  1.00  0.00    -0.206 F 
ATOM     66  C   UNL A   1      53.546  25.618  26.744  1.00  0.00     0.040 A 
ATOM     67  C   UNL A   1      53.188  25.674  24.362  1.00  0.00     0.040 A 
ATOM     68  F   UNL A   1      51.654  27.190  23.438  1.00  0.00    -0.206 F 
ATOM     69  C   UNL A   1      53.842  25.136  25.470  1.00  0.00     0.006 A 
ENDBRANCH  48  62
BRANCH  49  70
ATOM     70  C   UNL A   1      44.670  33.913  26.882  1.00  0.00     0.057 A 
ATOM     71  C   UNL A   1      44.295  34.356  28.157  1.00  0.00     0.134 A 
ATOM     72  C   UNL A   1      43.955  34.419  25.789  1.00  0.00     0.134 A 
ATOM     73  F   UNL A   1      44.919  33.885  29.245  1.00  0.00    -0.206 F 
ATOM     74  C   UNL A   1      43.231  35.243  28.340  1.00  0.00     0.040 A 
ATOM     75  C   UNL A   1      42.906  35.325  25.956  1.00  0.00     0.040 A 
ATOM     76  F   UNL A   1      44.258  34.029  24.543  1.00  0.00    -0.206 F 
ATOM     77  C   UNL A   1      42.535  35.731  27.237  1.00  0.00     0.006 A 
ENDBRANCH  49  70
BRANCH  61  78
ATOM     78  C   UNL A   1      51.567  34.376  26.115  1.00  0.00     0.057 A 
ATOM     79  C   UNL A   1      51.928  34.962  24.896  1.00  0.00     0.134 A 
ATOM     80  C   UNL A   1      52.082  34.949  27.285  1.00  0.00     0.134 A 
ATOM     81  F   UNL A   1      51.476  34.456  23.739  1.00  0.00    -0.206 F 
ATOM     82  C   UNL A   1      52.791  36.058  24.840  1.00  0.00     0.040 A 
ATOM     83  C   UNL A   1      52.924  36.062  27.244  1.00  0.00     0.040 A 
ATOM     84  F   UNL A   1      51.766  34.446  28.488  1.00  0.00    -0.206 F 
ATOM     85  C   UNL A   1      53.286  36.614  26.018  1.00  0.00     0.006 A 
ENDBRANCH  61  78
ENDBRANCH  35  36
ENDBRANCH  28  30
ENDBRANCH  27  28
ENDBRANCH  26  27
ENDBRANCH  25  26
ENDBRANCH  24  25
ENDBRANCH  23  24
ENDBRANCH  22  23
ENDBRANCH   1  22
TORSDOF 23
ENDMDL
