MODEL 1
REMARK VINA RESULT:      -9.9      0.000      0.000
REMARK SMILES C/C(=N\NC(N)=O)c1nnn(-c2ccc(C(=O)OCCOCCOCCOCCOC(=O)c3ccc(-c4c5nc(c(-c6c(F)cccc6F)c6ccc([nH]6)c(-c6c(F)cccc6F)c6nc(c(-c7c(F)cccc7F)c7ccc4[nH]7)C=C6)C=C5)cc3)cc2)c1C
REMARK SMILES IDX 23 1 22 2 21 3 20 4 19 5 18 6 16 7 17 8 15 9 12 10 13 11
REMARK SMILES IDX 88 12 14 13 87 14 11 15 8 16 9 17 89 18 10 19 90 20 2 21
REMARK SMILES IDX 1 22 3 23 4 24 5 25 6 27 7 28 24 31 25 32 26 33 27 34 28 35
REMARK SMILES IDX 29 36 30 37 31 38 32 39 33 40 34 41 86 42 35 43 85 44 36 45
REMARK SMILES IDX 37 46 38 47 79 48 39 49 84 50 78 51 80 52 40 53 83 54 77 55
REMARK SMILES IDX 76 56 41 58 67 59 50 60 66 61 51 62 54 63 65 64 81 65 52 66
REMARK SMILES IDX 53 67 64 69 82 70 55 71 42 72 43 73 48 74 44 75 45 76 47 77
REMARK SMILES IDX 49 78 46 79 68 80 69 81 74 82 70 83 71 84 73 85 75 86 72 87
REMARK SMILES IDX 56 88 57 89 62 90 58 91 59 92 61 93 63 94 60 95
REMARK H PARENT 4 26 6 29 6 30 80 57 54 68
REMARK Flexibility Score: inf
ROOT
ATOM      1  C   UNL A   1      41.646  21.996  26.865  1.00  0.00     0.188 C 
ENDROOT
BRANCH   1   2
ATOM      2  C   UNL A   1      40.165  22.419  26.942  1.00  0.00     0.188 C 
BRANCH   2   3
ATOM      3  O   UNL A   1      39.268  21.338  26.691  1.00  0.00    -0.376 OA
BRANCH   3   4
ATOM      4  C   UNL A   1      38.349  21.508  25.623  1.00  0.00     0.202 C 
BRANCH   4   5
ATOM      5  C   UNL A   1      37.691  22.889  25.521  1.00  0.00     0.261 C 
BRANCH   5   6
ATOM      6  O   UNL A   1      36.447  23.024  26.224  1.00  0.00    -0.460 OA
BRANCH   6   7
ATOM      7  C   UNL A   1      35.357  22.448  25.675  1.00  0.00     0.338 C 
ATOM      8  O   UNL A   1      35.133  21.260  25.544  1.00  0.00    -0.246 OA
BRANCH   7   9
ATOM      9  C   UNL A   1      34.372  23.516  25.399  1.00  0.00     0.060 A 
ATOM     10  C   UNL A   1      32.522  25.423  24.638  1.00  0.00     0.067 A 
ATOM     11  C   UNL A   1      32.067  24.163  25.046  1.00  0.00     0.029 A 
ATOM     12  C   UNL A   1      33.871  25.779  24.748  1.00  0.00     0.029 A 
ATOM     13  C   UNL A   1      33.006  23.196  25.399  1.00  0.00     0.018 A 
ATOM     14  C   UNL A   1      34.799  24.823  25.140  1.00  0.00     0.018 A 
BRANCH  10  15
ATOM     15  N   UNL A   1      31.657  26.225  23.865  1.00  0.00    -0.217 N 
ATOM     16  C   UNL A   1      30.704  28.009  23.065  1.00  0.00     0.132 A 
ATOM     17  N   UNL A   1      30.889  27.119  22.043  1.00  0.00    -0.128 NA
ATOM     18  C   UNL A   1      31.173  27.468  24.246  1.00  0.00     0.071 A 
ATOM     19  N   UNL A   1      31.519  26.059  22.531  1.00  0.00    -0.061 NA
ATOM     20  C   UNL A   1      31.382  28.097  25.574  1.00  0.00     0.069 C 
BRANCH  16  21
ATOM     21  C   UNL A   1      30.320  29.389  22.853  1.00  0.00     0.087 C 
ATOM     22  C   UNL A   1      30.406  30.290  24.061  1.00  0.00     0.071 C 
ATOM     23  N   UNL A   1      29.937  29.695  21.648  1.00  0.00    -0.174 NA
BRANCH  23  24
ATOM     24  N   UNL A   1      29.446  30.941  21.372  1.00  0.00    -0.229 N 
ATOM     25  C   UNL A   1      28.160  31.358  21.645  1.00  0.00     0.332 C 
ATOM     26  H   UNL A   1      30.056  31.588  20.948  1.00  0.00     0.195 HD
ATOM     27  N   UNL A   1      27.932  32.639  21.244  1.00  0.00    -0.350 N 
ATOM     28  O   UNL A   1      27.279  30.711  22.195  1.00  0.00    -0.247 OA
ATOM     29  H   UNL A   1      28.647  33.152  20.802  1.00  0.00     0.161 HD
ATOM     30  H   UNL A   1      27.052  33.053  21.397  1.00  0.00     0.161 HD
ENDBRANCH  23  24
ENDBRANCH  16  21
ENDBRANCH  10  15
ENDBRANCH   7   9
ENDBRANCH   6   7
ENDBRANCH   5   6
ENDBRANCH   4   5
ENDBRANCH   3   4
ENDBRANCH   2   3
ENDBRANCH   1   2
BRANCH   1  31
ATOM     31  O   UNL A   1      41.860  20.837  26.073  1.00  0.00    -0.377 OA
BRANCH  31  32
ATOM     32  C   UNL A   1      42.249  19.636  26.739  1.00  0.00     0.188 C 
BRANCH  32  33
ATOM     33  C   UNL A   1      42.949  18.455  26.013  1.00  0.00     0.188 C 
BRANCH  33  34
ATOM     34  O   UNL A   1      44.340  18.631  25.750  1.00  0.00    -0.376 OA
BRANCH  34  35
ATOM     35  C   UNL A   1      44.746  19.061  24.462  1.00  0.00     0.202 C 
BRANCH  35  36
ATOM     36  C   UNL A   1      46.030  19.881  24.523  1.00  0.00     0.261 C 
BRANCH  36  37
ATOM     37  O   UNL A   1      45.903  21.131  23.860  1.00  0.00    -0.460 OA
BRANCH  37  38
ATOM     38  C   UNL A   1      44.977  21.959  24.385  1.00  0.00     0.338 C 
ATOM     39  O   UNL A   1      43.772  21.932  24.215  1.00  0.00    -0.246 OA
BRANCH  38  40
ATOM     40  C   UNL A   1      45.661  23.020  25.124  1.00  0.00     0.060 A 
ATOM     41  C   UNL A   1      46.075  22.684  26.414  1.00  0.00     0.016 A 
ATOM     42  C   UNL A   1      45.509  24.344  24.694  1.00  0.00     0.016 A 
ATOM     43  C   UNL A   1      46.046  23.670  27.368  1.00  0.00     0.010 A 
ATOM     44  C   UNL A   1      45.450  25.320  25.652  1.00  0.00     0.010 A 
ATOM     45  C   UNL A   1      45.615  24.940  26.982  1.00  0.00    -0.014 A 
BRANCH  45  46
ATOM     46  C   UNL A   1      45.238  25.857  28.029  1.00  0.00     0.031 A 
ATOM     47  C   UNL A   1      46.311  26.750  28.494  1.00  0.00     0.074 A 
ATOM     48  C   UNL A   1      43.957  25.953  28.432  1.00  0.00     0.049 A 
ATOM     49  N   UNL A   1      46.779  26.872  29.690  1.00  0.00    -0.248 NA
ATOM     50  C   UNL A   1      47.011  27.547  27.476  1.00  0.00     0.031 C 
ATOM     51  C   UNL A   1      42.772  25.356  27.804  1.00  0.00     0.029 A 
ATOM     52  N   UNL A   1      43.432  26.723  29.422  1.00  0.00    -0.354 N 
ATOM     53  C   UNL A   1      47.704  27.905  29.614  1.00  0.00     0.074 A 
ATOM     54  C   UNL A   1      47.921  28.174  28.217  1.00  0.00     0.031 C 
ATOM     55  C   UNL A   1      41.668  25.961  28.294  1.00  0.00     0.029 A 
ATOM     56  C   UNL A   1      42.062  26.903  29.330  1.00  0.00     0.049 A 
ATOM     57  H   UNL A   1      43.978  27.117  30.140  1.00  0.00     0.167 HD
ATOM     58  C   UNL A   1      48.033  28.640  30.707  1.00  0.00     0.037 A 
ATOM     59  C   UNL A   1      41.330  27.830  29.991  1.00  0.00     0.037 A 
ATOM     60  C   UNL A   1      47.745  27.944  31.933  1.00  0.00     0.049 A 
ATOM     61  C   UNL A   1      42.151  28.347  31.115  1.00  0.00     0.074 A 
ATOM     62  C   UNL A   1      48.105  26.715  32.455  1.00  0.00     0.029 A 
ATOM     63  N   UNL A   1      46.695  28.377  32.704  1.00  0.00    -0.354 N 
ATOM     64  N   UNL A   1      42.424  27.683  32.204  1.00  0.00    -0.248 NA
ATOM     65  C   UNL A   1      43.011  29.494  30.856  1.00  0.00     0.031 C 
ATOM     66  C   UNL A   1      46.970  26.269  33.192  1.00  0.00     0.029 A 
ATOM     67  C   UNL A   1      45.995  27.262  33.088  1.00  0.00     0.049 A 
ATOM     68  H   UNL A   1      46.485  29.309  32.938  1.00  0.00     0.167 HD
ATOM     69  C   UNL A   1      43.719  28.061  32.534  1.00  0.00     0.074 A 
ATOM     70  C   UNL A   1      43.982  29.256  31.741  1.00  0.00     0.031 C 
ATOM     71  C   UNL A   1      44.557  27.214  33.198  1.00  0.00     0.037 A 
BRANCH  58  72
ATOM     72  C   UNL A   1      48.279  30.121  30.635  1.00  0.00     0.057 A 
ATOM     73  C   UNL A   1      47.296  30.956  30.086  1.00  0.00     0.134 A 
ATOM     74  C   UNL A   1      49.542  30.722  30.833  1.00  0.00     0.134 A 
ATOM     75  F   UNL A   1      46.068  30.488  29.819  1.00  0.00    -0.206 F 
ATOM     76  C   UNL A   1      47.563  32.278  29.714  1.00  0.00     0.040 A 
ATOM     77  C   UNL A   1      49.802  32.058  30.522  1.00  0.00     0.040 A 
ATOM     78  F   UNL A   1      50.613  30.029  31.241  1.00  0.00    -0.206 F 
ATOM     79  C   UNL A   1      48.819  32.832  29.931  1.00  0.00     0.006 A 
ENDBRANCH  58  72
BRANCH  59  80
ATOM     80  C   UNL A   1      40.063  28.476  29.582  1.00  0.00     0.057 A 
ATOM     81  C   UNL A   1      39.951  29.119  28.342  1.00  0.00     0.134 A 
ATOM     82  C   UNL A   1      38.861  28.282  30.287  1.00  0.00     0.134 A 
ATOM     83  F   UNL A   1      41.031  29.308  27.572  1.00  0.00    -0.206 F 
ATOM     84  C   UNL A   1      38.716  29.536  27.829  1.00  0.00     0.040 A 
ATOM     85  C   UNL A   1      37.625  28.710  29.795  1.00  0.00     0.040 A 
ATOM     86  F   UNL A   1      38.832  27.596  31.438  1.00  0.00    -0.206 F 
ATOM     87  C   UNL A   1      37.548  29.329  28.555  1.00  0.00     0.006 A 
ENDBRANCH  59  80
BRANCH  71  88
ATOM     88  C   UNL A   1      43.958  25.995  33.837  1.00  0.00     0.057 A 
ATOM     89  C   UNL A   1      43.922  24.732  33.229  1.00  0.00     0.134 A 
ATOM     90  C   UNL A   1      43.514  26.075  35.163  1.00  0.00     0.134 A 
ATOM     91  F   UNL A   1      44.431  24.537  32.005  1.00  0.00    -0.206 F 
ATOM     92  C   UNL A   1      43.404  23.613  33.888  1.00  0.00     0.040 A 
ATOM     93  C   UNL A   1      43.027  24.957  35.845  1.00  0.00     0.040 A 
ATOM     94  F   UNL A   1      43.580  27.237  35.831  1.00  0.00    -0.206 F 
ATOM     95  C   UNL A   1      42.957  23.724  35.202  1.00  0.00     0.006 A 
ENDBRANCH  71  88
ENDBRANCH  45  46
ENDBRANCH  38  40
ENDBRANCH  37  38
ENDBRANCH  36  37
ENDBRANCH  35  36
ENDBRANCH  34  35
ENDBRANCH  33  34
ENDBRANCH  32  33
ENDBRANCH  31  32
ENDBRANCH   1  31
TORSDOF 23
ENDMDL
MODEL 2
REMARK VINA RESULT:      -9.8      3.547      5.029
REMARK SMILES C/C(=N\NC(N)=O)c1nnn(-c2ccc(C(=O)OCCOCCOCCOCCOC(=O)c3ccc(-c4c5nc(c(-c6c(F)cccc6F)c6ccc([nH]6)c(-c6c(F)cccc6F)c6nc(c(-c7c(F)cccc7F)c7ccc4[nH]7)C=C6)C=C5)cc3)cc2)c1C
REMARK SMILES IDX 23 1 22 2 21 3 20 4 19 5 18 6 16 7 17 8 15 9 12 10 13 11
REMARK SMILES IDX 88 12 14 13 87 14 11 15 8 16 9 17 89 18 10 19 90 20 2 21
REMARK SMILES IDX 1 22 3 23 4 24 5 25 6 27 7 28 24 31 25 32 26 33 27 34 28 35
REMARK SMILES IDX 29 36 30 37 31 38 32 39 33 40 34 41 86 42 35 43 85 44 36 45
REMARK SMILES IDX 37 46 38 47 79 48 39 49 84 50 78 51 80 52 40 53 83 54 77 55
REMARK SMILES IDX 76 56 41 58 67 59 50 60 66 61 51 62 54 63 65 64 81 65 52 66
REMARK SMILES IDX 53 67 64 69 82 70 55 71 42 72 43 73 48 74 44 75 45 76 47 77
REMARK SMILES IDX 49 78 46 79 68 80 69 81 74 82 70 83 71 84 73 85 75 86 72 87
REMARK SMILES IDX 56 88 57 89 62 90 58 91 59 92 61 93 63 94 60 95
REMARK H PARENT 4 26 6 29 6 30 80 57 54 68
REMARK Flexibility Score: inf
ROOT
ATOM      1  C   UNL A   1      41.181  23.096  26.760  1.00  0.00     0.188 C 
ENDROOT
BRANCH   1   2
ATOM      2  C   UNL A   1      39.676  22.761  26.794  1.00  0.00     0.188 C 
BRANCH   2   3
ATOM      3  O   UNL A   1      39.401  21.412  26.422  1.00  0.00    -0.376 OA
BRANCH   3   4
ATOM      4  C   UNL A   1      38.481  21.219  25.358  1.00  0.00     0.202 C 
BRANCH   4   5
ATOM      5  C   UNL A   1      37.516  22.380  25.092  1.00  0.00     0.261 C 
BRANCH   5   6
ATOM      6  O   UNL A   1      36.227  22.254  25.710  1.00  0.00    -0.460 OA
BRANCH   6   7
ATOM      7  C   UNL A   1      35.249  21.662  24.994  1.00  0.00     0.338 C 
ATOM      8  O   UNL A   1      35.161  20.488  24.689  1.00  0.00    -0.246 OA
BRANCH   7   9
ATOM      9  C   UNL A   1      34.182  22.661  24.773  1.00  0.00     0.060 A 
ATOM     10  C   UNL A   1      32.252  24.524  24.105  1.00  0.00     0.067 A 
ATOM     11  C   UNL A   1      31.946  23.163  23.996  1.00  0.00     0.029 A 
ATOM     12  C   UNL A   1      33.453  24.954  24.679  1.00  0.00     0.029 A 
ATOM     13  C   UNL A   1      32.932  22.228  24.304  1.00  0.00     0.018 A 
ATOM     14  C   UNL A   1      34.419  24.017  25.024  1.00  0.00     0.018 A 
BRANCH  10  15
ATOM     15  N   UNL A   1      31.462  25.445  23.385  1.00  0.00    -0.217 N 
ATOM     16  C   UNL A   1      30.234  27.192  22.974  1.00  0.00     0.132 A 
ATOM     17  N   UNL A   1      31.075  26.992  21.914  1.00  0.00    -0.128 NA
ATOM     18  C   UNL A   1      30.446  26.217  23.928  1.00  0.00     0.071 A 
ATOM     19  N   UNL A   1      31.856  25.958  22.199  1.00  0.00    -0.061 NA
ATOM     20  C   UNL A   1      29.941  26.108  25.320  1.00  0.00     0.069 C 
BRANCH  16  21
ATOM     21  C   UNL A   1      29.452  28.398  23.148  1.00  0.00     0.087 C 
ATOM     22  C   UNL A   1      27.955  28.216  23.167  1.00  0.00     0.071 C 
ATOM     23  N   UNL A   1      30.129  29.504  23.261  1.00  0.00    -0.174 NA
BRANCH  23  24
ATOM     24  N   UNL A   1      29.484  30.709  23.313  1.00  0.00    -0.229 N 
ATOM     25  C   UNL A   1      28.947  31.361  22.223  1.00  0.00     0.332 C 
ATOM     26  H   UNL A   1      29.396  31.141  24.193  1.00  0.00     0.195 HD
ATOM     27  N   UNL A   1      28.383  32.555  22.556  1.00  0.00    -0.350 N 
ATOM     28  O   UNL A   1      28.928  30.966  21.065  1.00  0.00    -0.247 OA
ATOM     29  H   UNL A   1      28.402  32.865  23.491  1.00  0.00     0.161 HD
ATOM     30  H   UNL A   1      27.954  33.108  21.863  1.00  0.00     0.161 HD
ENDBRANCH  23  24
ENDBRANCH  16  21
ENDBRANCH  10  15
ENDBRANCH   7   9
ENDBRANCH   6   7
ENDBRANCH   5   6
ENDBRANCH   4   5
ENDBRANCH   3   4
ENDBRANCH   2   3
ENDBRANCH   1   2
BRANCH   1  31
ATOM     31  O   UNL A   1      41.903  22.341  25.799  1.00  0.00    -0.377 OA
BRANCH  31  32
ATOM     32  C   UNL A   1      43.022  21.580  26.251  1.00  0.00     0.188 C 
BRANCH  32  33
ATOM     33  C   UNL A   1      44.137  21.067  25.300  1.00  0.00     0.188 C 
BRANCH  33  34
ATOM     34  O   UNL A   1      45.393  21.735  25.404  1.00  0.00    -0.376 OA
BRANCH  34  35
ATOM     35  C   UNL A   1      45.774  22.644  24.386  1.00  0.00     0.202 C 
BRANCH  35  36
ATOM     36  C   UNL A   1      45.979  24.051  24.936  1.00  0.00     0.261 C 
BRANCH  36  37
ATOM     37  O   UNL A   1      44.764  24.783  25.011  1.00  0.00    -0.460 OA
BRANCH  37  38
ATOM     38  C   UNL A   1      44.512  25.340  26.212  1.00  0.00     0.338 C 
ATOM     39  O   UNL A   1      44.279  24.770  27.263  1.00  0.00    -0.246 OA
BRANCH  38  40
ATOM     40  C   UNL A   1      44.433  26.791  26.050  1.00  0.00     0.060 A 
ATOM     41  C   UNL A   1      45.460  27.521  26.651  1.00  0.00     0.016 A 
ATOM     42  C   UNL A   1      43.206  27.362  25.687  1.00  0.00     0.016 A 
ATOM     43  C   UNL A   1      45.147  28.754  27.166  1.00  0.00     0.010 A 
ATOM     44  C   UNL A   1      42.886  28.578  26.227  1.00  0.00     0.010 A 
ATOM     45  C   UNL A   1      43.828  29.198  27.045  1.00  0.00    -0.014 A 
BRANCH  45  46
ATOM     46  C   UNL A   1      43.420  30.295  27.886  1.00  0.00     0.031 A 
ATOM     47  C   UNL A   1      43.977  31.605  27.517  1.00  0.00     0.074 A 
ATOM     48  C   UNL A   1      42.491  30.118  28.845  1.00  0.00     0.049 A 
ATOM     49  N   UNL A   1      44.691  32.397  28.244  1.00  0.00    -0.248 NA
ATOM     50  C   UNL A   1      43.785  32.052  26.129  1.00  0.00     0.031 C 
ATOM     51  C   UNL A   1      41.641  28.943  29.065  1.00  0.00     0.029 A 
ATOM     52  N   UNL A   1      42.021  31.019  29.748  1.00  0.00    -0.354 N 
ATOM     53  C   UNL A   1      44.876  33.534  27.468  1.00  0.00     0.074 A 
ATOM     54  C   UNL A   1      44.440  33.210  26.136  1.00  0.00     0.031 C 
ATOM     55  C   UNL A   1      40.625  29.287  29.885  1.00  0.00     0.029 A 
ATOM     56  C   UNL A   1      40.811  30.662  30.321  1.00  0.00     0.049 A 
ATOM     57  H   UNL A   1      42.498  31.849  29.974  1.00  0.00     0.167 HD
ATOM     58  C   UNL A   1      45.136  34.740  28.034  1.00  0.00     0.037 A 
ATOM     59  C   UNL A   1      39.985  31.476  31.020  1.00  0.00     0.037 A 
ATOM     60  C   UNL A   1      45.674  34.610  29.362  1.00  0.00     0.049 A 
ATOM     61  C   UNL A   1      40.755  32.682  31.415  1.00  0.00     0.074 A 
ATOM     62  C   UNL A   1      46.758  33.945  29.905  1.00  0.00     0.029 A 
ATOM     63  N   UNL A   1      44.883  34.955  30.429  1.00  0.00    -0.354 N 
ATOM     64  N   UNL A   1      41.676  32.708  32.337  1.00  0.00    -0.248 NA
ATOM     65  C   UNL A   1      40.770  33.810  30.493  1.00  0.00     0.031 C 
ATOM     66  C   UNL A   1      46.332  33.517  31.196  1.00  0.00     0.029 A 
ATOM     67  C   UNL A   1      45.022  33.963  31.367  1.00  0.00     0.049 A 
ATOM     68  H   UNL A   1      44.324  35.760  30.508  1.00  0.00     0.167 HD
ATOM     69  C   UNL A   1      42.623  33.608  31.867  1.00  0.00     0.074 A 
ATOM     70  C   UNL A   1      41.960  34.335  30.793  1.00  0.00     0.031 C 
ATOM     71  C   UNL A   1      43.942  33.484  32.196  1.00  0.00     0.037 A 
BRANCH  58  72
ATOM     72  C   UNL A   1      44.557  36.020  27.499  1.00  0.00     0.057 A 
ATOM     73  C   UNL A   1      45.416  37.084  27.184  1.00  0.00     0.134 A 
ATOM     74  C   UNL A   1      43.183  36.343  27.535  1.00  0.00     0.134 A 
ATOM     75  F   UNL A   1      46.745  36.908  27.155  1.00  0.00    -0.206 F 
ATOM     76  C   UNL A   1      44.945  38.384  26.972  1.00  0.00     0.040 A 
ATOM     77  C   UNL A   1      42.698  37.623  27.265  1.00  0.00     0.040 A 
ATOM     78  F   UNL A   1      42.248  35.467  27.930  1.00  0.00    -0.206 F 
ATOM     79  C   UNL A   1      43.583  38.657  27.013  1.00  0.00     0.006 A 
ENDBRANCH  58  72
BRANCH  59  80
ATOM     80  C   UNL A   1      38.514  31.400  31.167  1.00  0.00     0.057 A 
ATOM     81  C   UNL A   1      37.921  31.320  32.433  1.00  0.00     0.134 A 
ATOM     82  C   UNL A   1      37.641  31.638  30.090  1.00  0.00     0.134 A 
ATOM     83  F   UNL A   1      38.672  31.144  33.529  1.00  0.00    -0.206 F 
ATOM     84  C   UNL A   1      36.541  31.477  32.619  1.00  0.00     0.040 A 
ATOM     85  C   UNL A   1      36.261  31.777  30.260  1.00  0.00     0.040 A 
ATOM     86  F   UNL A   1      38.104  31.828  28.846  1.00  0.00    -0.206 F 
ATOM     87  C   UNL A   1      35.707  31.710  31.531  1.00  0.00     0.006 A 
ENDBRANCH  59  80
BRANCH  71  88
ATOM     88  C   UNL A   1      44.300  32.554  33.319  1.00  0.00     0.057 A 
ATOM     89  C   UNL A   1      44.416  32.956  34.658  1.00  0.00     0.134 A 
ATOM     90  C   UNL A   1      44.411  31.184  33.055  1.00  0.00     0.134 A 
ATOM     91  F   UNL A   1      44.211  34.230  35.020  1.00  0.00    -0.206 F 
ATOM     92  C   UNL A   1      44.697  32.042  35.677  1.00  0.00     0.040 A 
ATOM     93  C   UNL A   1      44.655  30.256  34.070  1.00  0.00     0.040 A 
ATOM     94  F   UNL A   1      44.245  30.719  31.807  1.00  0.00    -0.206 F 
ATOM     95  C   UNL A   1      44.815  30.686  35.385  1.00  0.00     0.006 A 
ENDBRANCH  71  88
ENDBRANCH  45  46
ENDBRANCH  38  40
ENDBRANCH  37  38
ENDBRANCH  36  37
ENDBRANCH  35  36
ENDBRANCH  34  35
ENDBRANCH  33  34
ENDBRANCH  32  33
ENDBRANCH  31  32
ENDBRANCH   1  31
TORSDOF 23
ENDMDL
MODEL 3
REMARK VINA RESULT:      -9.6      2.869      6.077
REMARK SMILES C/C(=N\NC(N)=O)c1nnn(-c2ccc(C(=O)OCCOCCOCCOCCOC(=O)c3ccc(-c4c5nc(c(-c6c(F)cccc6F)c6ccc([nH]6)c(-c6c(F)cccc6F)c6nc(c(-c7c(F)cccc7F)c7ccc4[nH]7)C=C6)C=C5)cc3)cc2)c1C
REMARK SMILES IDX 23 1 22 2 21 3 20 4 19 5 18 6 16 7 17 8 15 9 12 10 13 11
REMARK SMILES IDX 88 12 14 13 87 14 11 15 8 16 9 17 89 18 10 19 90 20 2 21
REMARK SMILES IDX 1 22 3 23 4 24 5 25 6 27 7 28 24 31 25 32 26 33 27 34 28 35
REMARK SMILES IDX 29 36 30 37 31 38 32 39 33 40 34 41 86 42 35 43 85 44 36 45
REMARK SMILES IDX 37 46 38 47 79 48 39 49 84 50 78 51 80 52 40 53 83 54 77 55
REMARK SMILES IDX 76 56 41 58 67 59 50 60 66 61 51 62 54 63 65 64 81 65 52 66
REMARK SMILES IDX 53 67 64 69 82 70 55 71 42 72 43 73 48 74 44 75 45 76 47 77
REMARK SMILES IDX 49 78 46 79 68 80 69 81 74 82 70 83 71 84 73 85 75 86 72 87
REMARK SMILES IDX 56 88 57 89 62 90 58 91 59 92 61 93 63 94 60 95
REMARK H PARENT 4 26 6 29 6 30 80 57 54 68
REMARK Flexibility Score: inf
ROOT
ATOM      1  C   UNL A   1      41.214  23.019  26.865  1.00  0.00     0.188 C 
ENDROOT
BRANCH   1   2
ATOM      2  C   UNL A   1      39.724  22.841  26.511  1.00  0.00     0.188 C 
BRANCH   2   3
ATOM      3  O   UNL A   1      39.325  21.472  26.474  1.00  0.00    -0.376 OA
BRANCH   3   4
ATOM      4  C   UNL A   1      38.503  21.077  25.386  1.00  0.00     0.202 C 
BRANCH   4   5
ATOM      5  C   UNL A   1      37.444  22.095  24.945  1.00  0.00     0.261 C 
BRANCH   5   6
ATOM      6  O   UNL A   1      36.221  22.065  25.695  1.00  0.00    -0.460 OA
BRANCH   6   7
ATOM      7  C   UNL A   1      35.169  21.427  25.142  1.00  0.00     0.338 C 
ATOM      8  O   UNL A   1      35.023  20.229  24.992  1.00  0.00    -0.246 OA
BRANCH   7   9
ATOM      9  C   UNL A   1      34.114  22.432  24.889  1.00  0.00     0.060 A 
ATOM     10  C   UNL A   1      32.212  24.303  24.165  1.00  0.00     0.067 A 
ATOM     11  C   UNL A   1      31.900  22.943  24.054  1.00  0.00     0.029 A 
ATOM     12  C   UNL A   1      33.401  24.728  24.768  1.00  0.00     0.029 A 
ATOM     13  C   UNL A   1      32.874  22.004  24.391  1.00  0.00     0.018 A 
ATOM     14  C   UNL A   1      34.352  23.787  25.141  1.00  0.00     0.018 A 
BRANCH  10  15
ATOM     15  N   UNL A   1      31.446  25.225  23.422  1.00  0.00    -0.217 N 
ATOM     16  C   UNL A   1      30.257  26.988  22.968  1.00  0.00     0.132 A 
ATOM     17  N   UNL A   1      31.101  26.752  21.919  1.00  0.00    -0.128 NA
ATOM     18  C   UNL A   1      30.442  26.027  23.942  1.00  0.00     0.071 A 
ATOM     19  N   UNL A   1      31.859  25.708  22.229  1.00  0.00    -0.061 NA
ATOM     20  C   UNL A   1      29.924  25.955  25.331  1.00  0.00     0.069 C 
BRANCH  16  21
ATOM     21  C   UNL A   1      29.497  28.213  23.113  1.00  0.00     0.087 C 
ATOM     22  C   UNL A   1      28.018  28.045  23.361  1.00  0.00     0.071 C 
ATOM     23  N   UNL A   1      30.174  29.318  23.004  1.00  0.00    -0.174 NA
BRANCH  23  24
ATOM     24  N   UNL A   1      29.534  30.527  23.010  1.00  0.00    -0.229 N 
ATOM     25  C   UNL A   1      28.809  31.038  21.954  1.00  0.00     0.332 C 
ATOM     26  H   UNL A   1      29.593  31.070  23.829  1.00  0.00     0.195 HD
ATOM     27  N   UNL A   1      28.297  32.271  22.222  1.00  0.00    -0.350 N 
ATOM     28  O   UNL A   1      28.596  30.496  20.877  1.00  0.00    -0.247 OA
ATOM     29  H   UNL A   1      28.473  32.699  23.091  1.00  0.00     0.161 HD
ATOM     30  H   UNL A   1      27.749  32.734  21.547  1.00  0.00     0.161 HD
ENDBRANCH  23  24
ENDBRANCH  16  21
ENDBRANCH  10  15
ENDBRANCH   7   9
ENDBRANCH   6   7
ENDBRANCH   5   6
ENDBRANCH   4   5
ENDBRANCH   3   4
ENDBRANCH   2   3
ENDBRANCH   1   2
BRANCH   1  31
ATOM     31  O   UNL A   1      42.092  22.601  25.831  1.00  0.00    -0.377 OA
BRANCH  31  32
ATOM     32  C   UNL A   1      43.044  21.582  26.135  1.00  0.00     0.188 C 
BRANCH  32  33
ATOM     33  C   UNL A   1      44.019  20.993  25.080  1.00  0.00     0.188 C 
BRANCH  33  34
ATOM     34  O   UNL A   1      45.381  21.399  25.204  1.00  0.00    -0.376 OA
BRANCH  34  35
ATOM     35  C   UNL A   1      45.917  22.305  24.257  1.00  0.00     0.202 C 
BRANCH  35  36
ATOM     36  C   UNL A   1      46.234  23.656  24.889  1.00  0.00     0.261 C 
BRANCH  36  37
ATOM     37  O   UNL A   1      45.062  24.365  25.263  1.00  0.00    -0.460 OA
BRANCH  37  38
ATOM     38  C   UNL A   1      45.007  24.722  26.562  1.00  0.00     0.338 C 
ATOM     39  O   UNL A   1      45.157  24.009  27.538  1.00  0.00    -0.246 OA
BRANCH  38  40
ATOM     40  C   UNL A   1      44.602  26.125  26.647  1.00  0.00     0.060 A 
ATOM     41  C   UNL A   1      45.538  26.989  27.219  1.00  0.00     0.016 A 
ATOM     42  C   UNL A   1      43.241  26.440  26.541  1.00  0.00     0.016 A 
ATOM     43  C   UNL A   1      45.062  28.041  27.961  1.00  0.00     0.010 A 
ATOM     44  C   UNL A   1      42.766  27.471  27.306  1.00  0.00     0.010 A 
ATOM     45  C   UNL A   1      43.679  28.181  28.084  1.00  0.00    -0.014 A 
BRANCH  45  46
ATOM     46  C   UNL A   1      43.192  29.038  29.136  1.00  0.00     0.031 A 
ATOM     47  C   UNL A   1      42.962  28.372  30.427  1.00  0.00     0.074 A 
ATOM     48  C   UNL A   1      43.097  30.368  28.952  1.00  0.00     0.049 A 
ATOM     49  N   UNL A   1      41.865  28.307  31.103  1.00  0.00    -0.248 NA
ATOM     50  C   UNL A   1      44.081  27.606  30.999  1.00  0.00     0.031 C 
ATOM     51  C   UNL A   1      43.615  31.158  27.828  1.00  0.00     0.029 A 
ATOM     52  N   UNL A   1      42.626  31.313  29.808  1.00  0.00    -0.354 N 
ATOM     53  C   UNL A   1      42.202  27.655  32.282  1.00  0.00     0.074 A 
ATOM     54  C   UNL A   1      43.522  27.112  32.100  1.00  0.00     0.031 C 
ATOM     55  C   UNL A   1      43.623  32.463  28.179  1.00  0.00     0.029 A 
ATOM     56  C   UNL A   1      43.023  32.604  29.497  1.00  0.00     0.049 A 
ATOM     57  H   UNL A   1      42.054  31.099  30.580  1.00  0.00     0.167 HD
ATOM     58  C   UNL A   1      41.475  27.827  33.415  1.00  0.00     0.037 A 
ATOM     59  C   UNL A   1      42.946  33.683  30.310  1.00  0.00     0.037 A 
ATOM     60  C   UNL A   1      40.142  28.291  33.138  1.00  0.00     0.049 A 
ATOM     61  C   UNL A   1      42.016  33.357  31.420  1.00  0.00     0.074 A 
ATOM     62  C   UNL A   1      39.101  27.830  32.352  1.00  0.00     0.029 A 
ATOM     63  N   UNL A   1      39.818  29.587  33.453  1.00  0.00    -0.354 N 
ATOM     64  N   UNL A   1      40.720  33.266  31.302  1.00  0.00    -0.248 NA
ATOM     65  C   UNL A   1      42.575  32.739  32.615  1.00  0.00     0.031 C 
ATOM     66  C   UNL A   1      38.457  28.999  31.854  1.00  0.00     0.029 A 
ATOM     67  C   UNL A   1      39.132  30.100  32.381  1.00  0.00     0.049 A 
ATOM     68  H   UNL A   1      40.034  30.059  34.289  1.00  0.00     0.167 HD
ATOM     69  C   UNL A   1      40.358  32.240  32.164  1.00  0.00     0.074 A 
ATOM     70  C   UNL A   1      41.517  32.035  33.024  1.00  0.00     0.031 C 
ATOM     71  C   UNL A   1      39.266  31.460  31.917  1.00  0.00     0.037 A 
BRANCH  58  72
ATOM     72  C   UNL A   1      42.113  27.909  34.774  1.00  0.00     0.057 A 
ATOM     73  C   UNL A   1      43.113  28.865  35.008  1.00  0.00     0.134 A 
ATOM     74  C   UNL A   1      41.978  26.919  35.771  1.00  0.00     0.134 A 
ATOM     75  F   UNL A   1      43.360  29.833  34.114  1.00  0.00    -0.206 F 
ATOM     76  C   UNL A   1      43.951  28.808  36.127  1.00  0.00     0.040 A 
ATOM     77  C   UNL A   1      42.768  26.889  36.922  1.00  0.00     0.040 A 
ATOM     78  F   UNL A   1      41.149  25.874  35.641  1.00  0.00    -0.206 F 
ATOM     79  C   UNL A   1      43.780  27.819  37.088  1.00  0.00     0.006 A 
ENDBRANCH  58  72
BRANCH  59  80
ATOM     80  C   UNL A   1      43.802  34.890  30.332  1.00  0.00     0.057 A 
ATOM     81  C   UNL A   1      43.339  36.110  29.821  1.00  0.00     0.134 A 
ATOM     82  C   UNL A   1      45.004  34.943  31.061  1.00  0.00     0.134 A 
ATOM     83  F   UNL A   1      42.179  36.174  29.153  1.00  0.00    -0.206 F 
ATOM     84  C   UNL A   1      44.026  37.313  30.030  1.00  0.00     0.040 A 
ATOM     85  C   UNL A   1      45.708  36.134  31.261  1.00  0.00     0.040 A 
ATOM     86  F   UNL A   1      45.494  33.858  31.677  1.00  0.00    -0.206 F 
ATOM     87  C   UNL A   1      45.213  37.328  30.756  1.00  0.00     0.006 A 
ENDBRANCH  59  80
BRANCH  71  88
ATOM     88  C   UNL A   1      38.292  31.928  30.875  1.00  0.00     0.057 A 
ATOM     89  C   UNL A   1      38.357  31.559  29.524  1.00  0.00     0.134 A 
ATOM     90  C   UNL A   1      37.180  32.678  31.276  1.00  0.00     0.134 A 
ATOM     91  F   UNL A   1      39.323  30.746  29.072  1.00  0.00    -0.206 F 
ATOM     92  C   UNL A   1      37.393  31.975  28.601  1.00  0.00     0.040 A 
ATOM     93  C   UNL A   1      36.191  33.070  30.371  1.00  0.00     0.040 A 
ATOM     94  F   UNL A   1      37.017  33.012  32.566  1.00  0.00    -0.206 F 
ATOM     95  C   UNL A   1      36.304  32.731  29.024  1.00  0.00     0.006 A 
ENDBRANCH  71  88
ENDBRANCH  45  46
ENDBRANCH  38  40
ENDBRANCH  37  38
ENDBRANCH  36  37
ENDBRANCH  35  36
ENDBRANCH  34  35
ENDBRANCH  33  34
ENDBRANCH  32  33
ENDBRANCH  31  32
ENDBRANCH   1  31
TORSDOF 23
ENDMDL
