MODEL 1
REMARK VINA RESULT:     -10.0      0.000      0.000
REMARK SMILES Cc1ccc2c(c1)C=C(C(=O)OCCOCCOCCOCCOC(=O)c1ccc(-c3c4nc(c(-c5c(F)cccc5F)c5ccc([nH]5)c(-c5c(F)cccc5F)c5nc(c(-c6c(F)cccc6F)c6ccc3[nH]6)C=C5)C=C4)cc1)[C@@H](C(F)(F)F)O2
REMARK SMILES IDX 19 1 18 2 17 3 16 4 15 5 14 6 13 7 12 8 10 9 11 10 9 11 1 12
REMARK SMILES IDX 2 13 3 14 7 15 4 16 6 17 5 18 8 19 86 20 81 21 82 22 83 23
REMARK SMILES IDX 84 24 85 25 20 26 21 27 22 28 23 29 24 30 25 31 26 32 27 33
REMARK SMILES IDX 28 34 80 35 29 36 79 37 30 38 31 39 32 40 73 41 33 42 78 43
REMARK SMILES IDX 72 44 74 45 34 46 77 47 71 48 70 49 35 51 61 52 44 53 60 54
REMARK SMILES IDX 45 55 48 56 59 57 75 58 46 59 47 60 58 62 76 63 49 64 36 65
REMARK SMILES IDX 37 66 42 67 38 68 39 69 41 70 43 71 40 72 62 73 63 74 68 75
REMARK SMILES IDX 64 76 65 77 67 78 69 79 66 80 50 81 51 82 56 83 52 84 53 85
REMARK SMILES IDX 55 86 57 87 54 88
REMARK H PARENT 74 50 48 61
REMARK Flexibility Score: inf
ROOT
ATOM      1  C   UNL A   1      42.704  20.607  25.899  1.00  0.00     0.188 C 
ENDROOT
BRANCH   1   2
ATOM      2  O   UNL A   1      41.488  20.180  26.514  1.00  0.00    -0.377 OA
BRANCH   2   3
ATOM      3  C   UNL A   1      40.773  21.112  27.306  1.00  0.00     0.188 C 
BRANCH   3   4
ATOM      4  C   UNL A   1      39.767  21.968  26.519  1.00  0.00     0.188 C 
BRANCH   4   5
ATOM      5  O   UNL A   1      38.827  21.198  25.770  1.00  0.00    -0.376 OA
BRANCH   5   6
ATOM      6  C   UNL A   1      37.768  21.918  25.150  1.00  0.00     0.202 C 
BRANCH   6   7
ATOM      7  C   UNL A   1      37.494  23.309  25.736  1.00  0.00     0.261 C 
BRANCH   7   8
ATOM      8  O   UNL A   1      36.477  24.053  25.046  1.00  0.00    -0.460 OA
BRANCH   8   9
ATOM      9  C   UNL A   1      35.209  23.905  25.477  1.00  0.00     0.338 C 
ATOM     10  O   UNL A   1      34.807  23.086  26.284  1.00  0.00    -0.246 OA
BRANCH   9  11
ATOM     11  C   UNL A   1      34.400  25.007  24.920  1.00  0.00     0.087 C 
ATOM     12  C   UNL A   1      31.797  30.387  26.417  1.00  0.00     0.044 C 
ATOM     13  C   UNL A   1      32.180  29.245  25.523  1.00  0.00    -0.050 A 
ATOM     14  C   UNL A   1      31.720  29.177  24.204  1.00  0.00     0.007 A 
ATOM     15  C   UNL A   1      33.012  28.226  26.009  1.00  0.00     0.015 A 
ATOM     16  C   UNL A   1      32.087  28.107  23.384  1.00  0.00     0.047 A 
ATOM     17  C   UNL A   1      33.351  27.135  25.199  1.00  0.00     0.017 A 
ATOM     18  C   UNL A   1      32.899  27.088  23.880  1.00  0.00     0.128 A 
ATOM     19  C   UNL A   1      34.137  26.037  25.734  1.00  0.00     0.027 C 
ATOM     20  O   UNL A   1      33.197  26.083  23.007  1.00  0.00    -0.475 OA
ATOM     21  C   UNL A   1      33.973  24.946  23.475  1.00  0.00     0.316 C 
BRANCH  21  22
ATOM     22  C   UNL A   1      33.183  23.666  23.164  1.00  0.00     0.430 C 
ATOM     23  F   UNL A   1      34.008  22.607  22.977  1.00  0.00    -0.167 F 
ATOM     24  F   UNL A   1      32.346  23.325  24.173  1.00  0.00    -0.167 F 
ATOM     25  F   UNL A   1      32.430  23.795  22.047  1.00  0.00    -0.167 F 
ENDBRANCH  21  22
ENDBRANCH   9  11
ENDBRANCH   8   9
ENDBRANCH   7   8
ENDBRANCH   6   7
ENDBRANCH   5   6
ENDBRANCH   4   5
ENDBRANCH   3   4
ENDBRANCH   2   3
ENDBRANCH   1   2
BRANCH   1  26
ATOM     26  C   UNL A   1      43.751  19.616  25.341  1.00  0.00     0.188 C 
BRANCH  26  27
ATOM     27  O   UNL A   1      45.100  20.042  25.495  1.00  0.00    -0.376 OA
BRANCH  27  28
ATOM     28  C   UNL A   1      45.541  21.078  24.626  1.00  0.00     0.202 C 
BRANCH  28  29
ATOM     29  C   UNL A   1      45.988  22.337  25.374  1.00  0.00     0.261 C 
BRANCH  29  30
ATOM     30  O   UNL A   1      44.939  23.041  26.054  1.00  0.00    -0.460 OA
BRANCH  30  31
ATOM     31  C   UNL A   1      44.410  24.126  25.447  1.00  0.00     0.338 C 
ATOM     32  O   UNL A   1      44.293  24.326  24.251  1.00  0.00    -0.246 OA
BRANCH  31  33
ATOM     33  C   UNL A   1      43.809  24.959  26.507  1.00  0.00     0.060 A 
ATOM     34  C   UNL A   1      42.799  24.436  27.318  1.00  0.00     0.016 A 
ATOM     35  C   UNL A   1      44.216  26.292  26.645  1.00  0.00     0.016 A 
ATOM     36  C   UNL A   1      42.201  25.246  28.282  1.00  0.00     0.010 A 
ATOM     37  C   UNL A   1      43.608  27.106  27.603  1.00  0.00     0.010 A 
ATOM     38  C   UNL A   1      42.608  26.581  28.438  1.00  0.00    -0.014 A 
BRANCH  38  39
ATOM     39  C   UNL A   1      42.096  27.368  29.583  1.00  0.00     0.031 A 
ATOM     40  C   UNL A   1      42.749  27.329  30.929  1.00  0.00     0.074 A 
ATOM     41  C   UNL A   1      41.017  28.144  29.372  1.00  0.00     0.049 A 
ATOM     42  N   UNL A   1      42.460  28.023  32.000  1.00  0.00    -0.248 NA
ATOM     43  C   UNL A   1      43.868  26.391  31.099  1.00  0.00     0.031 C 
ATOM     44  C   UNL A   1      40.297  28.251  28.101  1.00  0.00     0.029 A 
ATOM     45  N   UNL A   1      40.345  28.990  30.213  1.00  0.00    -0.354 N 
ATOM     46  C   UNL A   1      43.376  27.633  32.966  1.00  0.00     0.074 A 
ATOM     47  C   UNL A   1      44.201  26.602  32.367  1.00  0.00     0.031 C 
ATOM     48  C   UNL A   1      39.287  29.123  28.245  1.00  0.00     0.029 A 
ATOM     49  C   UNL A   1      39.280  29.618  29.617  1.00  0.00     0.049 A 
ATOM     50  H   UNL A   1      40.600  29.134  31.154  1.00  0.00     0.167 HD
ATOM     51  C   UNL A   1      43.521  28.105  34.229  1.00  0.00     0.037 A 
ATOM     52  C   UNL A   1      38.394  30.494  30.123  1.00  0.00     0.037 A 
ATOM     53  C   UNL A   1      42.676  29.110  34.828  1.00  0.00     0.049 A 
ATOM     54  C   UNL A   1      38.530  30.934  31.551  1.00  0.00     0.074 A 
ATOM     55  C   UNL A   1      42.771  29.682  36.085  1.00  0.00     0.029 A 
ATOM     56  N   UNL A   1      41.567  29.679  34.217  1.00  0.00    -0.354 N 
ATOM     57  N   UNL A   1      39.450  30.619  32.430  1.00  0.00    -0.248 NA
ATOM     58  C   UNL A   1      37.504  31.856  32.056  1.00  0.00     0.031 C 
ATOM     59  C   UNL A   1      41.691  30.556  36.255  1.00  0.00     0.029 A 
ATOM     60  C   UNL A   1      40.948  30.564  35.087  1.00  0.00     0.049 A 
ATOM     61  H   UNL A   1      41.266  29.482  33.301  1.00  0.00     0.167 HD
ATOM     62  C   UNL A   1      39.125  31.314  33.585  1.00  0.00     0.074 A 
ATOM     63  C   UNL A   1      37.936  32.087  33.288  1.00  0.00     0.031 C 
ATOM     64  C   UNL A   1      39.754  31.314  34.785  1.00  0.00     0.037 A 
BRANCH  51  65
ATOM     65  C   UNL A   1      44.640  27.539  35.056  1.00  0.00     0.057 A 
ATOM     66  C   UNL A   1      44.469  26.356  35.786  1.00  0.00     0.134 A 
ATOM     67  C   UNL A   1      45.869  28.201  35.175  1.00  0.00     0.134 A 
ATOM     68  F   UNL A   1      43.313  25.680  35.728  1.00  0.00    -0.206 F 
ATOM     69  C   UNL A   1      45.482  25.852  36.606  1.00  0.00     0.040 A 
ATOM     70  C   UNL A   1      46.898  27.694  35.973  1.00  0.00     0.040 A 
ATOM     71  F   UNL A   1      46.098  29.337  34.500  1.00  0.00    -0.206 F 
ATOM     72  C   UNL A   1      46.701  26.519  36.696  1.00  0.00     0.006 A 
ENDBRANCH  51  65
BRANCH  52  73
ATOM     73  C   UNL A   1      37.303  31.021  29.269  1.00  0.00     0.057 A 
ATOM     74  C   UNL A   1      36.194  30.234  28.938  1.00  0.00     0.134 A 
ATOM     75  C   UNL A   1      37.341  32.329  28.775  1.00  0.00     0.134 A 
ATOM     76  F   UNL A   1      36.105  28.969  29.376  1.00  0.00    -0.206 F 
ATOM     77  C   UNL A   1      35.160  30.729  28.145  1.00  0.00     0.040 A 
ATOM     78  C   UNL A   1      36.303  32.845  28.000  1.00  0.00     0.040 A 
ATOM     79  F   UNL A   1      38.372  33.133  29.074  1.00  0.00    -0.206 F 
ATOM     80  C   UNL A   1      35.209  32.042  27.680  1.00  0.00     0.006 A 
ENDBRANCH  52  73
BRANCH  64  81
ATOM     81  C   UNL A   1      39.163  32.180  35.859  1.00  0.00     0.057 A 
ATOM     82  C   UNL A   1      39.547  33.519  35.995  1.00  0.00     0.134 A 
ATOM     83  C   UNL A   1      38.210  31.685  36.759  1.00  0.00     0.134 A 
ATOM     84  F   UNL A   1      40.457  34.055  35.168  1.00  0.00    -0.206 F 
ATOM     85  C   UNL A   1      39.006  34.337  36.989  1.00  0.00     0.040 A 
ATOM     86  C   UNL A   1      37.642  32.500  37.742  1.00  0.00     0.040 A 
ATOM     87  F   UNL A   1      37.784  30.417  36.669  1.00  0.00    -0.206 F 
ATOM     88  C   UNL A   1      38.045  33.828  37.861  1.00  0.00     0.006 A 
ENDBRANCH  64  81
ENDBRANCH  38  39
ENDBRANCH  31  33
ENDBRANCH  30  31
ENDBRANCH  29  30
ENDBRANCH  28  29
ENDBRANCH  27  28
ENDBRANCH  26  27
ENDBRANCH   1  26
TORSDOF 21
ENDMDL
MODEL 2
REMARK VINA RESULT:     -10.0      3.466      8.815
REMARK SMILES Cc1ccc2c(c1)C=C(C(=O)OCCOCCOCCOCCOC(=O)c1ccc(-c3c4nc(c(-c5c(F)cccc5F)c5ccc([nH]5)c(-c5c(F)cccc5F)c5nc(c(-c6c(F)cccc6F)c6ccc3[nH]6)C=C5)C=C4)cc1)[C@@H](C(F)(F)F)O2
REMARK SMILES IDX 19 1 18 2 17 3 16 4 15 5 14 6 13 7 12 8 10 9 11 10 9 11 1 12
REMARK SMILES IDX 2 13 3 14 7 15 4 16 6 17 5 18 8 19 86 20 81 21 82 22 83 23
REMARK SMILES IDX 84 24 85 25 20 26 21 27 22 28 23 29 24 30 25 31 26 32 27 33
REMARK SMILES IDX 28 34 80 35 29 36 79 37 30 38 31 39 32 40 73 41 33 42 78 43
REMARK SMILES IDX 72 44 74 45 34 46 77 47 71 48 70 49 35 51 61 52 44 53 60 54
REMARK SMILES IDX 45 55 48 56 59 57 75 58 46 59 47 60 58 62 76 63 49 64 36 65
REMARK SMILES IDX 37 66 42 67 38 68 39 69 41 70 43 71 40 72 62 73 63 74 68 75
REMARK SMILES IDX 64 76 65 77 67 78 69 79 66 80 50 81 51 82 56 83 52 84 53 85
REMARK SMILES IDX 55 86 57 87 54 88
REMARK H PARENT 74 50 48 61
REMARK Flexibility Score: inf
ROOT
ATOM      1  C   UNL A   1      32.570  29.011  25.540  1.00  0.00     0.188 C 
ENDROOT
BRANCH   1   2
ATOM      2  O   UNL A   1      32.820  28.326  24.312  1.00  0.00    -0.377 OA
BRANCH   2   3
ATOM      3  C   UNL A   1      32.009  28.636  23.192  1.00  0.00     0.188 C 
BRANCH   3   4
ATOM      4  C   UNL A   1      31.010  27.530  22.812  1.00  0.00     0.188 C 
BRANCH   4   5
ATOM      5  O   UNL A   1      30.009  27.302  23.803  1.00  0.00    -0.376 OA
BRANCH   5   6
ATOM      6  C   UNL A   1      29.815  25.952  24.210  1.00  0.00     0.202 C 
BRANCH   6   7
ATOM      7  C   UNL A   1      30.718  25.482  25.358  1.00  0.00     0.261 C 
BRANCH   7   8
ATOM      8  O   UNL A   1      30.915  24.059  25.412  1.00  0.00    -0.460 OA
BRANCH   8   9
ATOM      9  C   UNL A   1      32.187  23.617  25.450  1.00  0.00     0.338 C 
ATOM     10  O   UNL A   1      33.109  24.108  26.075  1.00  0.00    -0.246 OA
BRANCH   9  11
ATOM     11  C   UNL A   1      32.252  22.334  24.720  1.00  0.00     0.087 C 
ATOM     12  C   UNL A   1      33.124  16.292  25.548  1.00  0.00     0.044 C 
ATOM     13  C   UNL A   1      32.851  17.550  24.779  1.00  0.00    -0.050 A 
ATOM     14  C   UNL A   1      32.734  17.532  23.385  1.00  0.00     0.007 A 
ATOM     15  C   UNL A   1      32.709  18.768  25.459  1.00  0.00     0.015 A 
ATOM     16  C   UNL A   1      32.479  18.713  22.684  1.00  0.00     0.047 A 
ATOM     17  C   UNL A   1      32.488  19.957  24.754  1.00  0.00     0.017 A 
ATOM     18  C   UNL A   1      32.357  19.923  23.365  1.00  0.00     0.128 A 
ATOM     19  C   UNL A   1      32.432  21.229  25.454  1.00  0.00     0.027 C 
ATOM     20  O   UNL A   1      32.115  21.022  22.595  1.00  0.00    -0.475 OA
ATOM     21  C   UNL A   1      32.055  22.330  23.226  1.00  0.00     0.316 C 
BRANCH  21  22
ATOM     22  C   UNL A   1      33.054  23.253  22.513  1.00  0.00     0.430 C 
ATOM     23  F   UNL A   1      33.122  22.981  21.187  1.00  0.00    -0.167 F 
ATOM     24  F   UNL A   1      32.708  24.559  22.619  1.00  0.00    -0.167 F 
ATOM     25  F   UNL A   1      34.304  23.129  23.017  1.00  0.00    -0.167 F 
ENDBRANCH  21  22
ENDBRANCH   9  11
ENDBRANCH   8   9
ENDBRANCH   7   8
ENDBRANCH   6   7
ENDBRANCH   5   6
ENDBRANCH   4   5
ENDBRANCH   3   4
ENDBRANCH   2   3
ENDBRANCH   1   2
BRANCH   1  26
ATOM     26  C   UNL A   1      31.789  30.342  25.610  1.00  0.00     0.188 C 
BRANCH  26  27
ATOM     27  O   UNL A   1      31.721  30.913  26.912  1.00  0.00    -0.376 OA
BRANCH  27  28
ATOM     28  C   UNL A   1      32.813  31.739  27.299  1.00  0.00     0.202 C 
BRANCH  28  29
ATOM     29  C   UNL A   1      32.495  33.234  27.207  1.00  0.00     0.261 C 
BRANCH  29  30
ATOM     30  O   UNL A   1      32.344  33.898  28.471  1.00  0.00    -0.460 OA
BRANCH  30  31
ATOM     31  C   UNL A   1      33.282  34.804  28.824  1.00  0.00     0.338 C 
ATOM     32  O   UNL A   1      33.162  36.015  28.879  1.00  0.00    -0.246 OA
BRANCH  31  33
ATOM     33  C   UNL A   1      34.441  34.043  29.331  1.00  0.00     0.060 A 
ATOM     34  C   UNL A   1      35.711  34.263  28.791  1.00  0.00     0.016 A 
ATOM     35  C   UNL A   1      34.241  33.057  30.305  1.00  0.00     0.016 A 
ATOM     36  C   UNL A   1      36.790  33.503  29.239  1.00  0.00     0.010 A 
ATOM     37  C   UNL A   1      35.321  32.288  30.744  1.00  0.00     0.010 A 
ATOM     38  C   UNL A   1      36.604  32.519  30.225  1.00  0.00    -0.014 A 
BRANCH  38  39
ATOM     39  C   UNL A   1      37.786  31.854  30.818  1.00  0.00     0.031 A 
ATOM     40  C   UNL A   1      38.286  32.194  32.187  1.00  0.00     0.074 A 
ATOM     41  C   UNL A   1      38.400  30.906  30.086  1.00  0.00     0.049 A 
ATOM     42  N   UNL A   1      39.258  31.639  32.866  1.00  0.00    -0.248 NA
ATOM     43  C   UNL A   1      37.613  33.298  32.885  1.00  0.00     0.031 C 
ATOM     44  C   UNL A   1      38.003  30.502  28.736  1.00  0.00     0.029 A 
ATOM     45  N   UNL A   1      39.479  30.113  30.371  1.00  0.00    -0.354 N 
ATOM     46  C   UNL A   1      39.299  32.302  34.084  1.00  0.00     0.074 A 
ATOM     47  C   UNL A   1      38.284  33.336  34.031  1.00  0.00     0.031 C 
ATOM     48  C   UNL A   1      38.821  29.526  28.314  1.00  0.00     0.029 A 
ATOM     49  C   UNL A   1      39.808  29.253  29.353  1.00  0.00     0.049 A 
ATOM     50  H   UNL A   1      39.971  30.154  31.224  1.00  0.00     0.167 HD
ATOM     51  C   UNL A   1      40.100  32.056  35.150  1.00  0.00     0.037 A 
ATOM     52  C   UNL A   1      40.798  28.347  29.267  1.00  0.00     0.037 A 
ATOM     53  C   UNL A   1      41.129  31.045  35.184  1.00  0.00     0.049 A 
ATOM     54  C   UNL A   1      41.723  28.157  30.433  1.00  0.00     0.074 A 
ATOM     55  C   UNL A   1      41.962  30.694  36.232  1.00  0.00     0.029 A 
ATOM     56  N   UNL A   1      41.478  30.235  34.112  1.00  0.00    -0.354 N 
ATOM     57  N   UNL A   1      41.700  28.734  31.610  1.00  0.00    -0.248 NA
ATOM     58  C   UNL A   1      42.812  27.186  30.258  1.00  0.00     0.031 C 
ATOM     59  C   UNL A   1      42.849  29.710  35.780  1.00  0.00     0.029 A 
ATOM     60  C   UNL A   1      42.540  29.415  34.463  1.00  0.00     0.049 A 
ATOM     61  H   UNL A   1      41.036  30.242  33.233  1.00  0.00     0.167 HD
ATOM     62  C   UNL A   1      42.757  28.186  32.322  1.00  0.00     0.074 A 
ATOM     63  C   UNL A   1      43.387  27.213  31.452  1.00  0.00     0.031 C 
ATOM     64  C   UNL A   1      43.169  28.463  33.582  1.00  0.00     0.037 A 
BRANCH  51  65
ATOM     65  C   UNL A   1      39.899  32.899  36.377  1.00  0.00     0.057 A 
ATOM     66  C   UNL A   1      38.917  32.573  37.321  1.00  0.00     0.134 A 
ATOM     67  C   UNL A   1      40.640  34.069  36.592  1.00  0.00     0.134 A 
ATOM     68  F   UNL A   1      38.163  31.475  37.169  1.00  0.00    -0.206 F 
ATOM     69  C   UNL A   1      38.679  33.382  38.435  1.00  0.00     0.040 A 
ATOM     70  C   UNL A   1      40.427  34.872  37.714  1.00  0.00     0.040 A 
ATOM     71  F   UNL A   1      41.597  34.435  35.726  1.00  0.00    -0.206 F 
ATOM     72  C   UNL A   1      39.439  34.532  38.636  1.00  0.00     0.006 A 
ENDBRANCH  51  65
BRANCH  52  73
ATOM     73  C   UNL A   1      40.960  27.543  28.033  1.00  0.00     0.057 A 
ATOM     74  C   UNL A   1      40.340  26.296  27.891  1.00  0.00     0.134 A 
ATOM     75  C   UNL A   1      41.729  28.011  26.962  1.00  0.00     0.134 A 
ATOM     76  F   UNL A   1      39.596  25.791  28.886  1.00  0.00    -0.206 F 
ATOM     77  C   UNL A   1      40.480  25.542  26.726  1.00  0.00     0.040 A 
ATOM     78  C   UNL A   1      41.858  27.278  25.783  1.00  0.00     0.040 A 
ATOM     79  F   UNL A   1      42.333  29.206  27.037  1.00  0.00    -0.206 F 
ATOM     80  C   UNL A   1      41.234  26.037  25.664  1.00  0.00     0.006 A 
ENDBRANCH  52  73
BRANCH  64  81
ATOM     81  C   UNL A   1      44.358  27.697  34.089  1.00  0.00     0.057 A 
ATOM     82  C   UNL A   1      45.639  28.262  34.066  1.00  0.00     0.134 A 
ATOM     83  C   UNL A   1      44.231  26.399  34.600  1.00  0.00     0.134 A 
ATOM     84  F   UNL A   1      45.830  29.500  33.588  1.00  0.00    -0.206 F 
ATOM     85  C   UNL A   1      46.753  27.562  34.533  1.00  0.00     0.040 A 
ATOM     86  C   UNL A   1      45.333  25.699  35.094  1.00  0.00     0.040 A 
ATOM     87  F   UNL A   1      43.028  25.810  34.669  1.00  0.00    -0.206 F 
ATOM     88  C   UNL A   1      46.600  26.279  35.056  1.00  0.00     0.006 A 
ENDBRANCH  64  81
ENDBRANCH  38  39
ENDBRANCH  31  33
ENDBRANCH  30  31
ENDBRANCH  29  30
ENDBRANCH  28  29
ENDBRANCH  27  28
ENDBRANCH  26  27
ENDBRANCH   1  26
TORSDOF 21
ENDMDL
MODEL 3
REMARK VINA RESULT:     -10.0      4.608     10.218
REMARK SMILES Cc1ccc2c(c1)C=C(C(=O)OCCOCCOCCOCCOC(=O)c1ccc(-c3c4nc(c(-c5c(F)cccc5F)c5ccc([nH]5)c(-c5c(F)cccc5F)c5nc(c(-c6c(F)cccc6F)c6ccc3[nH]6)C=C5)C=C4)cc1)[C@@H](C(F)(F)F)O2
REMARK SMILES IDX 19 1 18 2 17 3 16 4 15 5 14 6 13 7 12 8 10 9 11 10 9 11 1 12
REMARK SMILES IDX 2 13 3 14 7 15 4 16 6 17 5 18 8 19 86 20 81 21 82 22 83 23
REMARK SMILES IDX 84 24 85 25 20 26 21 27 22 28 23 29 24 30 25 31 26 32 27 33
REMARK SMILES IDX 28 34 80 35 29 36 79 37 30 38 31 39 32 40 73 41 33 42 78 43
REMARK SMILES IDX 72 44 74 45 34 46 77 47 71 48 70 49 35 51 61 52 44 53 60 54
REMARK SMILES IDX 45 55 48 56 59 57 75 58 46 59 47 60 58 62 76 63 49 64 36 65
REMARK SMILES IDX 37 66 42 67 38 68 39 69 41 70 43 71 40 72 62 73 63 74 68 75
REMARK SMILES IDX 64 76 65 77 67 78 69 79 66 80 50 81 51 82 56 83 52 84 53 85
REMARK SMILES IDX 55 86 57 87 54 88
REMARK H PARENT 74 50 48 61
REMARK Flexibility Score: inf
ROOT
ATOM      1  C   UNL A   1      34.600  32.135  28.466  1.00  0.00     0.188 C 
ENDROOT
BRANCH   1   2
ATOM      2  O   UNL A   1      33.367  31.996  27.759  1.00  0.00    -0.377 OA
BRANCH   2   3
ATOM      3  C   UNL A   1      33.063  30.741  27.177  1.00  0.00     0.188 C 
BRANCH   3   4
ATOM      4  C   UNL A   1      34.099  29.643  27.468  1.00  0.00     0.188 C 
BRANCH   4   5
ATOM      5  O   UNL A   1      34.614  29.020  26.291  1.00  0.00    -0.376 OA
BRANCH   5   6
ATOM      6  C   UNL A   1      33.857  27.935  25.766  1.00  0.00     0.202 C 
BRANCH   6   7
ATOM      7  C   UNL A   1      33.663  27.951  24.244  1.00  0.00     0.261 C 
BRANCH   7   8
ATOM      8  O   UNL A   1      32.886  26.855  23.735  1.00  0.00    -0.460 OA
BRANCH   8   9
ATOM      9  C   UNL A   1      33.504  26.005  22.891  1.00  0.00     0.338 C 
ATOM     10  O   UNL A   1      33.979  26.277  21.803  1.00  0.00    -0.246 OA
BRANCH   9  11
ATOM     11  C   UNL A   1      33.648  24.702  23.573  1.00  0.00     0.087 C 
ATOM     12  C   UNL A   1      37.710  20.211  24.700  1.00  0.00     0.044 C 
ATOM     13  C   UNL A   1      36.392  20.922  24.767  1.00  0.00    -0.050 A 
ATOM     14  C   UNL A   1      35.288  20.336  25.395  1.00  0.00     0.007 A 
ATOM     15  C   UNL A   1      36.254  22.194  24.194  1.00  0.00     0.015 A 
ATOM     16  C   UNL A   1      34.067  21.012  25.449  1.00  0.00     0.047 A 
ATOM     17  C   UNL A   1      35.022  22.857  24.217  1.00  0.00     0.017 A 
ATOM     18  C   UNL A   1      33.933  22.269  24.861  1.00  0.00     0.128 A 
ATOM     19  C   UNL A   1      34.859  24.134  23.543  1.00  0.00     0.027 C 
ATOM     20  O   UNL A   1      32.701  22.847  24.960  1.00  0.00    -0.475 OA
ATOM     21  C   UNL A   1      32.463  24.122  24.302  1.00  0.00     0.316 C 
BRANCH  21  22
ATOM     22  C   UNL A   1      31.243  23.967  23.383  1.00  0.00     0.430 C 
ATOM     23  F   UNL A   1      31.610  23.627  22.124  1.00  0.00    -0.167 F 
ATOM     24  F   UNL A   1      30.401  22.995  23.811  1.00  0.00    -0.167 F 
ATOM     25  F   UNL A   1      30.523  25.110  23.300  1.00  0.00    -0.167 F 
ENDBRANCH  21  22
ENDBRANCH   9  11
ENDBRANCH   8   9
ENDBRANCH   7   8
ENDBRANCH   6   7
ENDBRANCH   5   6
ENDBRANCH   4   5
ENDBRANCH   3   4
ENDBRANCH   2   3
ENDBRANCH   1   2
BRANCH   1  26
ATOM     26  C   UNL A   1      35.440  33.432  28.436  1.00  0.00     0.188 C 
BRANCH  26  27
ATOM     27  O   UNL A   1      35.564  34.079  29.698  1.00  0.00    -0.376 OA
BRANCH  27  28
ATOM     28  C   UNL A   1      34.389  34.138  30.497  1.00  0.00     0.202 C 
BRANCH  28  29
ATOM     29  C   UNL A   1      34.576  33.515  31.884  1.00  0.00     0.261 C 
BRANCH  29  30
ATOM     30  O   UNL A   1      35.282  32.266  31.895  1.00  0.00    -0.460 OA
BRANCH  30  31
ATOM     31  C   UNL A   1      36.296  32.123  32.777  1.00  0.00     0.338 C 
ATOM     32  O   UNL A   1      36.263  32.293  33.982  1.00  0.00    -0.246 OA
BRANCH  31  33
ATOM     33  C   UNL A   1      37.424  31.521  32.037  1.00  0.00     0.060 A 
ATOM     34  C   UNL A   1      37.361  31.399  30.647  1.00  0.00     0.016 A 
ATOM     35  C   UNL A   1      38.519  31.017  32.749  1.00  0.00     0.016 A 
ATOM     36  C   UNL A   1      38.407  30.783  29.962  1.00  0.00     0.010 A 
ATOM     37  C   UNL A   1      39.561  30.389  32.063  1.00  0.00     0.010 A 
ATOM     38  C   UNL A   1      39.517  30.283  30.664  1.00  0.00    -0.014 A 
BRANCH  38  39
ATOM     39  C   UNL A   1      40.696  29.801  29.909  1.00  0.00     0.031 A 
ATOM     40  C   UNL A   1      40.782  28.405  29.375  1.00  0.00     0.074 A 
ATOM     41  C   UNL A   1      41.700  30.673  29.699  1.00  0.00     0.049 A 
ATOM     42  N   UNL A   1      41.715  27.870  28.630  1.00  0.00    -0.248 NA
ATOM     43  C   UNL A   1      39.684  27.492  29.722  1.00  0.00     0.031 C 
ATOM     44  C   UNL A   1      41.724  32.055  30.183  1.00  0.00     0.029 A 
ATOM     45  N   UNL A   1      42.883  30.530  29.026  1.00  0.00    -0.354 N 
ATOM     46  C   UNL A   1      41.308  26.565  28.390  1.00  0.00     0.074 A 
ATOM     47  C   UNL A   1      40.064  26.376  29.112  1.00  0.00     0.031 C 
ATOM     48  C   UNL A   1      42.863  32.638  29.779  1.00  0.00     0.029 A 
ATOM     49  C   UNL A   1      43.653  31.666  29.029  1.00  0.00     0.049 A 
ATOM     50  H   UNL A   1      43.155  29.694  28.581  1.00  0.00     0.167 HD
ATOM     51  C   UNL A   1      41.911  25.622  27.624  1.00  0.00     0.037 A 
ATOM     52  C   UNL A   1      44.863  31.898  28.491  1.00  0.00     0.037 A 
ATOM     53  C   UNL A   1      43.163  25.809  26.933  1.00  0.00     0.049 A 
ATOM     54  C   UNL A   1      45.545  30.806  27.720  1.00  0.00     0.074 A 
ATOM     55  C   UNL A   1      43.831  24.927  26.100  1.00  0.00     0.029 A 
ATOM     56  N   UNL A   1      43.948  26.951  27.011  1.00  0.00    -0.354 N 
ATOM     57  N   UNL A   1      45.112  29.603  27.431  1.00  0.00    -0.248 NA
ATOM     58  C   UNL A   1      46.884  31.107  27.197  1.00  0.00     0.031 C 
ATOM     59  C   UNL A   1      45.043  25.514  25.717  1.00  0.00     0.029 A 
ATOM     60  C   UNL A   1      45.111  26.780  26.274  1.00  0.00     0.049 A 
ATOM     61  H   UNL A   1      43.713  27.763  27.516  1.00  0.00     0.167 HD
ATOM     62  C   UNL A   1      46.115  29.009  26.680  1.00  0.00     0.074 A 
ATOM     63  C   UNL A   1      47.169  29.993  26.537  1.00  0.00     0.031 C 
ATOM     64  C   UNL A   1      46.160  27.760  26.155  1.00  0.00     0.037 A 
BRANCH  51  65
ATOM     65  C   UNL A   1      41.222  24.294  27.491  1.00  0.00     0.057 A 
ATOM     66  C   UNL A   1      41.698  23.164  28.168  1.00  0.00     0.134 A 
ATOM     67  C   UNL A   1      40.120  24.123  26.642  1.00  0.00     0.134 A 
ATOM     68  F   UNL A   1      42.757  23.255  28.985  1.00  0.00    -0.206 F 
ATOM     69  C   UNL A   1      41.102  21.911  28.004  1.00  0.00     0.040 A 
ATOM     70  C   UNL A   1      39.502  22.880  26.489  1.00  0.00     0.040 A 
ATOM     71  F   UNL A   1      39.614  25.166  25.967  1.00  0.00    -0.206 F 
ATOM     72  C   UNL A   1      39.998  21.769  27.167  1.00  0.00     0.006 A 
ENDBRANCH  51  65
BRANCH  52  73
ATOM     73  C   UNL A   1      45.505  33.224  28.654  1.00  0.00     0.057 A 
ATOM     74  C   UNL A   1      46.330  33.502  29.750  1.00  0.00     0.134 A 
ATOM     75  C   UNL A   1      45.318  34.238  27.708  1.00  0.00     0.134 A 
ATOM     76  F   UNL A   1      46.541  32.573  30.693  1.00  0.00    -0.206 F 
ATOM     77  C   UNL A   1      46.945  34.745  29.902  1.00  0.00     0.040 A 
ATOM     78  C   UNL A   1      45.946  35.476  27.835  1.00  0.00     0.040 A 
ATOM     79  F   UNL A   1      44.551  34.021  26.630  1.00  0.00    -0.206 F 
ATOM     80  C   UNL A   1      46.761  35.734  28.937  1.00  0.00     0.006 A 
ENDBRANCH  52  73
BRANCH  64  81
ATOM     81  C   UNL A   1      47.393  27.398  25.377  1.00  0.00     0.057 A 
ATOM     82  C   UNL A   1      48.490  26.800  26.009  1.00  0.00     0.134 A 
ATOM     83  C   UNL A   1      47.491  27.642  24.002  1.00  0.00     0.134 A 
ATOM     84  F   UNL A   1      48.462  26.541  27.325  1.00  0.00    -0.206 F 
ATOM     85  C   UNL A   1      49.643  26.458  25.299  1.00  0.00     0.040 A 
ATOM     86  C   UNL A   1      48.628  27.281  23.276  1.00  0.00     0.040 A 
ATOM     87  F   UNL A   1      46.466  28.193  23.334  1.00  0.00    -0.206 F 
ATOM     88  C   UNL A   1      49.710  26.692  23.927  1.00  0.00     0.006 A 
ENDBRANCH  64  81
ENDBRANCH  38  39
ENDBRANCH  31  33
ENDBRANCH  30  31
ENDBRANCH  29  30
ENDBRANCH  28  29
ENDBRANCH  27  28
ENDBRANCH  26  27
ENDBRANCH   1  26
TORSDOF 21
ENDMDL
