MODEL 1
REMARK VINA RESULT:     -10.9      0.000      0.000
REMARK SMILES O=C(OCCOCCOCCOCCOC(=O)c1ccccc1/N=C/c1coc2ccccc2c1=O)c1ccc(-c2c3nc(c(-c4c(F)cccc4F)c4ccc([nH]4)c(-c4c(F)cccc4F)c4nc(c(-c5c(F)cccc5F)c5ccc2[nH]5)C=C4)C=C3)cc1
REMARK SMILES IDX 9 1 8 2 7 3 6 4 5 5 4 6 3 7 2 8 1 9 37 10 38 11 90 12 39 13
REMARK SMILES IDX 89 14 40 15 41 16 42 17 83 18 43 19 88 20 82 21 84 22 44 23
REMARK SMILES IDX 87 24 81 25 80 26 45 28 71 29 54 30 70 31 55 32 58 33 69 34
REMARK SMILES IDX 85 35 56 36 57 37 68 39 86 40 59 41 46 42 47 43 52 44 48 45
REMARK SMILES IDX 49 46 51 47 53 48 50 49 72 50 73 51 78 52 74 53 75 54 77 55
REMARK SMILES IDX 79 56 76 57 60 58 61 59 66 60 62 61 63 62 65 63 67 64 64 65
REMARK SMILES IDX 10 66 11 67 12 68 13 69 14 70 15 71 16 72 17 73 18 74 19 75
REMARK SMILES IDX 23 76 20 77 22 78 21 79 24 80 25 81 26 82 27 83 35 84 28 85
REMARK SMILES IDX 34 86 36 87 29 88 33 89 30 90 32 91 31 92
REMARK H PARENT 84 27 58 38
REMARK Flexibility Score: inf
ROOT
ATOM      1  O   UNL A   1      42.292  19.419  27.158  1.00  0.00    -0.377 OA
ENDROOT
BRANCH   1   2
ATOM      2  C   UNL A   1      42.650  18.440  26.187  1.00  0.00     0.188 C 
BRANCH   2   3
ATOM      3  C   UNL A   1      43.702  18.909  25.183  1.00  0.00     0.188 C 
BRANCH   3   4
ATOM      4  O   UNL A   1      44.525  19.957  25.698  1.00  0.00    -0.376 OA
BRANCH   4   5
ATOM      5  C   UNL A   1      44.605  21.146  24.926  1.00  0.00     0.202 C 
BRANCH   5   6
ATOM      6  C   UNL A   1      43.353  22.006  25.096  1.00  0.00     0.261 C 
BRANCH   6   7
ATOM      7  O   UNL A   1      43.541  23.306  24.508  1.00  0.00    -0.460 OA
BRANCH   7   8
ATOM      8  C   UNL A   1      44.091  24.427  25.032  1.00  0.00     0.338 C 
ATOM      9  O   UNL A   1      45.221  24.733  24.652  1.00  0.00    -0.246 OA
BRANCH   8  10
ATOM     10  C   UNL A   1      43.414  25.360  25.997  1.00  0.00     0.060 A 
ATOM     11  C   UNL A   1      43.760  26.688  26.254  1.00  0.00     0.016 A 
ATOM     12  C   UNL A   1      42.296  24.840  26.682  1.00  0.00     0.016 A 
ATOM     13  C   UNL A   1      43.080  27.449  27.201  1.00  0.00     0.010 A 
ATOM     14  C   UNL A   1      41.596  25.600  27.626  1.00  0.00     0.010 A 
ATOM     15  C   UNL A   1      42.017  26.900  27.914  1.00  0.00    -0.014 A 
BRANCH  15  16
ATOM     16  C   UNL A   1      41.503  27.654  29.072  1.00  0.00     0.031 A 
ATOM     17  C   UNL A   1      42.286  27.592  30.352  1.00  0.00     0.074 A 
ATOM     18  C   UNL A   1      40.466  28.496  28.929  1.00  0.00     0.049 A 
ATOM     19  N   UNL A   1      42.080  28.212  31.483  1.00  0.00    -0.248 NA
ATOM     20  C   UNL A   1      43.486  26.736  30.344  1.00  0.00     0.031 C 
ATOM     21  C   UNL A   1      39.714  28.704  27.691  1.00  0.00     0.029 A 
ATOM     22  N   UNL A   1      39.889  29.359  29.822  1.00  0.00    -0.354 N 
ATOM     23  C   UNL A   1      43.123  27.826  32.316  1.00  0.00     0.074 A 
ATOM     24  C   UNL A   1      43.950  26.904  31.571  1.00  0.00     0.031 C 
ATOM     25  C   UNL A   1      38.781  29.649  27.901  1.00  0.00     0.029 A 
ATOM     26  C   UNL A   1      38.848  30.082  29.293  1.00  0.00     0.049 A 
ATOM     27  H   UNL A   1      40.192  29.453  30.754  1.00  0.00     0.167 HD
ATOM     28  C   UNL A   1      43.370  28.215  33.587  1.00  0.00     0.037 A 
ATOM     29  C   UNL A   1      38.034  30.978  29.885  1.00  0.00     0.037 A 
ATOM     30  C   UNL A   1      42.522  29.108  34.324  1.00  0.00     0.049 A 
ATOM     31  C   UNL A   1      38.268  31.309  31.335  1.00  0.00     0.074 A 
ATOM     32  C   UNL A   1      42.605  29.490  35.649  1.00  0.00     0.029 A 
ATOM     33  N   UNL A   1      41.424  29.762  33.782  1.00  0.00    -0.354 N 
ATOM     34  N   UNL A   1      39.219  30.890  32.137  1.00  0.00    -0.248 NA
ATOM     35  C   UNL A   1      37.313  32.230  31.966  1.00  0.00     0.031 C 
ATOM     36  C   UNL A   1      41.537  30.355  35.918  1.00  0.00     0.029 A 
ATOM     37  C   UNL A   1      40.814  30.540  34.749  1.00  0.00     0.049 A 
ATOM     38  H   UNL A   1      41.124  29.684  32.847  1.00  0.00     0.167 HD
ATOM     39  C   UNL A   1      38.981  31.497  33.362  1.00  0.00     0.074 A 
ATOM     40  C   UNL A   1      37.815  32.340  33.188  1.00  0.00     0.031 C 
ATOM     41  C   UNL A   1      39.653  31.366  34.532  1.00  0.00     0.037 A 
BRANCH  28  42
ATOM     42  C   UNL A   1      44.575  27.623  34.251  1.00  0.00     0.057 A 
ATOM     43  C   UNL A   1      44.494  26.449  35.011  1.00  0.00     0.134 A 
ATOM     44  C   UNL A   1      45.820  28.256  34.167  1.00  0.00     0.134 A 
ATOM     45  F   UNL A   1      43.323  25.812  35.157  1.00  0.00    -0.206 F 
ATOM     46  C   UNL A   1      45.607  25.936  35.681  1.00  0.00     0.040 A 
ATOM     47  C   UNL A   1      46.944  27.743  34.817  1.00  0.00     0.040 A 
ATOM     48  F   UNL A   1      45.961  29.390  33.464  1.00  0.00    -0.206 F 
ATOM     49  C   UNL A   1      46.838  26.584  35.583  1.00  0.00     0.006 A 
ENDBRANCH  28  42
BRANCH  29  50
ATOM     50  C   UNL A   1      36.907  31.585  29.131  1.00  0.00     0.057 A 
ATOM     51  C   UNL A   1      36.970  32.896  28.644  1.00  0.00     0.134 A 
ATOM     52  C   UNL A   1      35.718  30.877  28.913  1.00  0.00     0.134 A 
ATOM     53  F   UNL A   1      38.070  33.639  28.841  1.00  0.00    -0.206 F 
ATOM     54  C   UNL A   1      35.887  33.487  27.987  1.00  0.00     0.040 A 
ATOM     55  C   UNL A   1      34.638  31.445  28.235  1.00  0.00     0.040 A 
ATOM     56  F   UNL A   1      35.588  29.619  29.357  1.00  0.00    -0.206 F 
ATOM     57  C   UNL A   1      34.718  32.758  27.778  1.00  0.00     0.006 A 
ENDBRANCH  29  50
BRANCH  41  58
ATOM     58  C   UNL A   1      39.141  32.156  35.696  1.00  0.00     0.057 A 
ATOM     59  C   UNL A   1      38.273  31.593  36.639  1.00  0.00     0.134 A 
ATOM     60  C   UNL A   1      39.549  33.481  35.895  1.00  0.00     0.134 A 
ATOM     61  F   UNL A   1      37.839  30.331  36.494  1.00  0.00    -0.206 F 
ATOM     62  C   UNL A   1      37.808  32.328  37.729  1.00  0.00     0.040 A 
ATOM     63  C   UNL A   1      39.108  34.218  36.993  1.00  0.00     0.040 A 
ATOM     64  F   UNL A   1      40.387  34.072  35.031  1.00  0.00    -0.206 F 
ATOM     65  C   UNL A   1      38.231  33.644  37.911  1.00  0.00     0.006 A 
ENDBRANCH  41  58
ENDBRANCH  15  16
ENDBRANCH   8  10
ENDBRANCH   7   8
ENDBRANCH   6   7
ENDBRANCH   5   6
ENDBRANCH   4   5
ENDBRANCH   3   4
ENDBRANCH   2   3
ENDBRANCH   1   2
BRANCH   1  66
ATOM     66  C   UNL A   1      40.981  19.956  27.014  1.00  0.00     0.188 C 
BRANCH  66  67
ATOM     67  C   UNL A   1      40.808  21.356  27.640  1.00  0.00     0.188 C 
BRANCH  67  68
ATOM     68  O   UNL A   1      39.708  22.099  27.117  1.00  0.00    -0.376 OA
BRANCH  68  69
ATOM     69  C   UNL A   1      39.480  21.934  25.718  1.00  0.00     0.202 C 
BRANCH  69  70
ATOM     70  C   UNL A   1      38.045  21.550  25.354  1.00  0.00     0.261 C 
BRANCH  70  71
ATOM     71  O   UNL A   1      37.361  22.547  24.577  1.00  0.00    -0.460 OA
BRANCH  71  72
ATOM     72  C   UNL A   1      36.232  23.106  25.071  1.00  0.00     0.340 C 
ATOM     73  O   UNL A   1      36.141  24.082  25.777  1.00  0.00    -0.246 OA
BRANCH  72  74
ATOM     74  C   UNL A   1      35.089  22.360  24.504  1.00  0.00     0.085 A 
ATOM     75  C   UNL A   1      34.785  21.124  25.103  1.00  0.00     0.018 A 
ATOM     76  C   UNL A   1      34.251  22.906  23.521  1.00  0.00     0.077 A 
ATOM     77  C   UNL A   1      33.621  20.439  24.749  1.00  0.00     0.001 A 
ATOM     78  C   UNL A   1      33.117  22.164  23.145  1.00  0.00     0.029 A 
ATOM     79  C   UNL A   1      32.794  20.952  23.758  1.00  0.00     0.002 A 
BRANCH  76  80
ATOM     80  N   UNL A   1      34.228  24.234  23.095  1.00  0.00    -0.255 NA
ATOM     81  C   UNL A   1      33.768  25.254  23.735  1.00  0.00     0.127 C 
BRANCH  81  82
ATOM     82  C   UNL A   1      33.365  26.489  22.967  1.00  0.00     0.076 A 
ATOM     83  C   UNL A   1      32.032  26.601  22.798  1.00  0.00     0.209 A 
ATOM     84  C   UNL A   1      33.812  27.754  23.655  1.00  0.00     0.201 A 
ATOM     85  O   UNL A   1      31.167  26.975  23.848  1.00  0.00    -0.463 OA
ATOM     86  C   UNL A   1      33.083  28.005  24.918  1.00  0.00     0.065 A 
ATOM     87  O   UNL A   1      34.710  28.464  23.226  1.00  0.00    -0.288 OA
ATOM     88  C   UNL A   1      31.768  27.523  24.966  1.00  0.00     0.137 A 
ATOM     89  C   UNL A   1      33.734  28.439  26.071  1.00  0.00     0.016 A 
ATOM     90  C   UNL A   1      31.077  27.497  26.171  1.00  0.00     0.048 A 
ATOM     91  C   UNL A   1      33.052  28.372  27.289  1.00  0.00     0.001 A 
ATOM     92  C   UNL A   1      31.729  27.906  27.337  1.00  0.00     0.004 A 
ENDBRANCH  81  82
ENDBRANCH  76  80
ENDBRANCH  72  74
ENDBRANCH  71  72
ENDBRANCH  70  71
ENDBRANCH  69  70
ENDBRANCH  68  69
ENDBRANCH  67  68
ENDBRANCH  66  67
ENDBRANCH   1  66
TORSDOF 22
ENDMDL
MODEL 2
REMARK VINA RESULT:     -10.7      0.956      6.132
REMARK SMILES O=C(OCCOCCOCCOCCOC(=O)c1ccccc1/N=C/c1coc2ccccc2c1=O)c1ccc(-c2c3nc(c(-c4c(F)cccc4F)c4ccc([nH]4)c(-c4c(F)cccc4F)c4nc(c(-c5c(F)cccc5F)c5ccc2[nH]5)C=C4)C=C3)cc1
REMARK SMILES IDX 9 1 8 2 7 3 6 4 5 5 4 6 3 7 2 8 1 9 37 10 38 11 90 12 39 13
REMARK SMILES IDX 89 14 40 15 41 16 42 17 83 18 43 19 88 20 82 21 84 22 44 23
REMARK SMILES IDX 87 24 81 25 80 26 45 28 71 29 54 30 70 31 55 32 58 33 69 34
REMARK SMILES IDX 85 35 56 36 57 37 68 39 86 40 59 41 46 42 47 43 52 44 48 45
REMARK SMILES IDX 49 46 51 47 53 48 50 49 72 50 73 51 78 52 74 53 75 54 77 55
REMARK SMILES IDX 79 56 76 57 60 58 61 59 66 60 62 61 63 62 65 63 67 64 64 65
REMARK SMILES IDX 10 66 11 67 12 68 13 69 14 70 15 71 16 72 17 73 18 74 19 75
REMARK SMILES IDX 23 76 20 77 22 78 21 79 24 80 25 81 26 82 27 83 35 84 28 85
REMARK SMILES IDX 34 86 36 87 29 88 33 89 30 90 32 91 31 92
REMARK H PARENT 84 27 58 38
REMARK Flexibility Score: inf
ROOT
ATOM      1  O   UNL A   1      40.918  21.304  26.980  1.00  0.00    -0.377 OA
ENDROOT
BRANCH   1   2
ATOM      2  C   UNL A   1      40.916  20.163  26.128  1.00  0.00     0.188 C 
BRANCH   2   3
ATOM      3  C   UNL A   1      42.239  19.400  26.101  1.00  0.00     0.188 C 
BRANCH   3   4
ATOM      4  O   UNL A   1      43.128  19.877  25.088  1.00  0.00    -0.376 OA
BRANCH   4   5
ATOM      5  C   UNL A   1      44.095  20.838  25.486  1.00  0.00     0.202 C 
BRANCH   5   6
ATOM      6  C   UNL A   1      44.090  22.051  24.557  1.00  0.00     0.261 C 
BRANCH   6   7
ATOM      7  O   UNL A   1      43.466  23.181  25.192  1.00  0.00    -0.460 OA
BRANCH   7   8
ATOM      8  C   UNL A   1      43.928  24.441  25.375  1.00  0.00     0.338 C 
ATOM      9  O   UNL A   1      44.844  24.819  24.644  1.00  0.00    -0.246 OA
BRANCH   8  10
ATOM     10  C   UNL A   1      43.377  25.436  26.357  1.00  0.00     0.060 A 
ATOM     11  C   UNL A   1      43.772  26.767  26.505  1.00  0.00     0.016 A 
ATOM     12  C   UNL A   1      42.332  24.977  27.186  1.00  0.00     0.016 A 
ATOM     13  C   UNL A   1      43.213  27.590  27.479  1.00  0.00     0.010 A 
ATOM     14  C   UNL A   1      41.753  25.800  28.159  1.00  0.00     0.010 A 
ATOM     15  C   UNL A   1      42.225  27.102  28.331  1.00  0.00    -0.014 A 
BRANCH  15  16
ATOM     16  C   UNL A   1      41.855  27.925  29.498  1.00  0.00     0.031 A 
ATOM     17  C   UNL A   1      40.637  28.795  29.384  1.00  0.00     0.074 A 
ATOM     18  C   UNL A   1      42.493  27.767  30.670  1.00  0.00     0.049 A 
ATOM     19  N   UNL A   1      40.072  29.557  30.283  1.00  0.00    -0.248 NA
ATOM     20  C   UNL A   1      39.941  28.780  28.085  1.00  0.00     0.031 C 
ATOM     21  C   UNL A   1      43.618  26.860  30.902  1.00  0.00     0.029 A 
ATOM     22  N   UNL A   1      42.262  28.338  31.893  1.00  0.00    -0.354 N 
ATOM     23  C   UNL A   1      38.957  30.104  29.662  1.00  0.00     0.074 A 
ATOM     24  C   UNL A   1      38.933  29.607  28.305  1.00  0.00     0.031 C 
ATOM     25  C   UNL A   1      43.971  26.927  32.197  1.00  0.00     0.029 A 
ATOM     26  C   UNL A   1      43.123  27.905  32.872  1.00  0.00     0.049 A 
ATOM     27  H   UNL A   1      41.548  28.996  32.056  1.00  0.00     0.167 HD
ATOM     28  C   UNL A   1      38.032  30.941  30.182  1.00  0.00     0.037 A 
ATOM     29  C   UNL A   1      43.217  28.279  34.163  1.00  0.00     0.037 A 
ATOM     30  C   UNL A   1      38.087  31.451  31.523  1.00  0.00     0.049 A 
ATOM     31  C   UNL A   1      42.238  29.298  34.686  1.00  0.00     0.074 A 
ATOM     32  C   UNL A   1      37.275  32.389  32.131  1.00  0.00     0.029 A 
ATOM     33  N   UNL A   1      39.023  31.054  32.468  1.00  0.00    -0.354 N 
ATOM     34  N   UNL A   1      41.224  29.862  34.073  1.00  0.00    -0.248 NA
ATOM     35  C   UNL A   1      42.421  29.738  36.075  1.00  0.00     0.031 C 
ATOM     36  C   UNL A   1      37.737  32.580  33.438  1.00  0.00     0.029 A 
ATOM     37  C   UNL A   1      38.814  31.734  33.653  1.00  0.00     0.049 A 
ATOM     38  H   UNL A   1      39.731  30.386  32.316  1.00  0.00     0.167 HD
ATOM     39  C   UNL A   1      40.646  30.718  34.999  1.00  0.00     0.074 A 
ATOM     40  C   UNL A   1      41.403  30.574  36.227  1.00  0.00     0.031 C 
ATOM     41  C   UNL A   1      39.592  31.559  34.854  1.00  0.00     0.037 A 
BRANCH  28  42
ATOM     42  C   UNL A   1      36.931  31.383  29.268  1.00  0.00     0.057 A 
ATOM     43  C   UNL A   1      36.899  32.674  28.725  1.00  0.00     0.134 A 
ATOM     44  C   UNL A   1      35.869  30.524  28.962  1.00  0.00     0.134 A 
ATOM     45  F   UNL A   1      37.871  33.555  29.006  1.00  0.00    -0.206 F 
ATOM     46  C   UNL A   1      35.837  33.102  27.924  1.00  0.00     0.040 A 
ATOM     47  C   UNL A   1      34.811  30.935  28.149  1.00  0.00     0.040 A 
ATOM     48  F   UNL A   1      35.835  29.280  29.461  1.00  0.00    -0.206 F 
ATOM     49  C   UNL A   1      34.789  32.229  27.634  1.00  0.00     0.006 A 
ENDBRANCH  28  42
BRANCH  29  50
ATOM     50  C   UNL A   1      44.290  27.730  35.031  1.00  0.00     0.057 A 
ATOM     51  C   UNL A   1      44.104  26.565  35.783  1.00  0.00     0.134 A 
ATOM     52  C   UNL A   1      45.522  28.385  35.158  1.00  0.00     0.134 A 
ATOM     53  F   UNL A   1      42.939  25.903  35.727  1.00  0.00    -0.206 F 
ATOM     54  C   UNL A   1      45.094  26.083  36.644  1.00  0.00     0.040 A 
ATOM     55  C   UNL A   1      46.530  27.901  35.994  1.00  0.00     0.040 A 
ATOM     56  F   UNL A   1      45.766  29.510  34.469  1.00  0.00    -0.206 F 
ATOM     57  C   UNL A   1      46.313  26.750  36.748  1.00  0.00     0.006 A 
ENDBRANCH  29  50
BRANCH  41  58
ATOM     58  C   UNL A   1      39.207  32.371  36.051  1.00  0.00     0.057 A 
ATOM     59  C   UNL A   1      39.702  33.665  36.248  1.00  0.00     0.134 A 
ATOM     60  C   UNL A   1      38.305  31.866  36.996  1.00  0.00     0.134 A 
ATOM     61  F   UNL A   1      40.578  34.197  35.382  1.00  0.00    -0.206 F 
ATOM     62  C   UNL A   1      39.330  34.424  37.358  1.00  0.00     0.040 A 
ATOM     63  C   UNL A   1      37.909  32.624  38.098  1.00  0.00     0.040 A 
ATOM     64  F   UNL A   1      37.790  30.636  36.856  1.00  0.00    -0.206 F 
ATOM     65  C   UNL A   1      38.427  33.904  38.284  1.00  0.00     0.006 A 
ENDBRANCH  41  58
ENDBRANCH  15  16
ENDBRANCH   8  10
ENDBRANCH   7   8
ENDBRANCH   6   7
ENDBRANCH   5   6
ENDBRANCH   4   5
ENDBRANCH   3   4
ENDBRANCH   2   3
ENDBRANCH   1   2
BRANCH   1  66
ATOM     66  C   UNL A   1      39.987  22.321  26.623  1.00  0.00     0.188 C 
BRANCH  66  67
ATOM     67  C   UNL A   1      38.716  21.787  25.930  1.00  0.00     0.188 C 
BRANCH  67  68
ATOM     68  O   UNL A   1      37.888  22.802  25.364  1.00  0.00    -0.376 OA
BRANCH  68  69
ATOM     69  C   UNL A   1      36.507  22.459  25.250  1.00  0.00     0.202 C 
BRANCH  69  70
ATOM     70  C   UNL A   1      35.566  23.359  26.053  1.00  0.00     0.261 C 
BRANCH  70  71
ATOM     71  O   UNL A   1      34.382  22.688  26.514  1.00  0.00    -0.460 OA
BRANCH  71  72
ATOM     72  C   UNL A   1      33.179  23.069  26.028  1.00  0.00     0.340 C 
ATOM     73  O   UNL A   1      32.451  23.934  26.455  1.00  0.00    -0.246 OA
BRANCH  72  74
ATOM     74  C   UNL A   1      32.941  22.298  24.789  1.00  0.00     0.085 A 
ATOM     75  C   UNL A   1      32.673  20.925  24.944  1.00  0.00     0.018 A 
ATOM     76  C   UNL A   1      32.840  22.911  23.531  1.00  0.00     0.077 A 
ATOM     77  C   UNL A   1      32.266  20.161  23.849  1.00  0.00     0.001 A 
ATOM     78  C   UNL A   1      32.485  22.102  22.438  1.00  0.00     0.029 A 
ATOM     79  C   UNL A   1      32.186  20.747  22.592  1.00  0.00     0.002 A 
BRANCH  76  80
ATOM     80  N   UNL A   1      32.740  24.279  23.283  1.00  0.00    -0.255 NA
ATOM     81  C   UNL A   1      31.664  24.986  23.207  1.00  0.00     0.127 C 
BRANCH  81  82
ATOM     82  C   UNL A   1      31.689  26.294  22.457  1.00  0.00     0.076 A 
ATOM     83  C   UNL A   1      30.619  27.075  22.709  1.00  0.00     0.209 A 
ATOM     84  C   UNL A   1      32.904  27.119  22.799  1.00  0.00     0.201 A 
ATOM     85  O   UNL A   1      30.466  27.777  23.924  1.00  0.00    -0.463 OA
ATOM     86  C   UNL A   1      32.872  27.634  24.186  1.00  0.00     0.065 A 
ATOM     87  O   UNL A   1      33.827  27.300  22.020  1.00  0.00    -0.288 OA
ATOM     88  C   UNL A   1      31.597  27.883  24.712  1.00  0.00     0.137 A 
ATOM     89  C   UNL A   1      33.999  27.615  25.006  1.00  0.00     0.016 A 
ATOM     90  C   UNL A   1      31.439  28.143  26.068  1.00  0.00     0.048 A 
ATOM     91  C   UNL A   1      33.832  27.836  26.376  1.00  0.00     0.001 A 
ATOM     92  C   UNL A   1      32.559  28.101  26.902  1.00  0.00     0.004 A 
ENDBRANCH  81  82
ENDBRANCH  76  80
ENDBRANCH  72  74
ENDBRANCH  71  72
ENDBRANCH  70  71
ENDBRANCH  69  70
ENDBRANCH  68  69
ENDBRANCH  67  68
ENDBRANCH  66  67
ENDBRANCH   1  66
TORSDOF 22
ENDMDL
MODEL 3
REMARK VINA RESULT:      -9.9      1.227      2.523
REMARK SMILES O=C(OCCOCCOCCOCCOC(=O)c1ccccc1/N=C/c1coc2ccccc2c1=O)c1ccc(-c2c3nc(c(-c4c(F)cccc4F)c4ccc([nH]4)c(-c4c(F)cccc4F)c4nc(c(-c5c(F)cccc5F)c5ccc2[nH]5)C=C4)C=C3)cc1
REMARK SMILES IDX 9 1 8 2 7 3 6 4 5 5 4 6 3 7 2 8 1 9 37 10 38 11 90 12 39 13
REMARK SMILES IDX 89 14 40 15 41 16 42 17 83 18 43 19 88 20 82 21 84 22 44 23
REMARK SMILES IDX 87 24 81 25 80 26 45 28 71 29 54 30 70 31 55 32 58 33 69 34
REMARK SMILES IDX 85 35 56 36 57 37 68 39 86 40 59 41 46 42 47 43 52 44 48 45
REMARK SMILES IDX 49 46 51 47 53 48 50 49 72 50 73 51 78 52 74 53 75 54 77 55
REMARK SMILES IDX 79 56 76 57 60 58 61 59 66 60 62 61 63 62 65 63 67 64 64 65
REMARK SMILES IDX 10 66 11 67 12 68 13 69 14 70 15 71 16 72 17 73 18 74 19 75
REMARK SMILES IDX 23 76 20 77 22 78 21 79 24 80 25 81 26 82 27 83 35 84 28 85
REMARK SMILES IDX 34 86 36 87 29 88 33 89 30 90 32 91 31 92
REMARK H PARENT 84 27 58 38
REMARK Flexibility Score: inf
ROOT
ATOM      1  O   UNL A   1      40.347  22.152  26.691  1.00  0.00    -0.377 OA
ENDROOT
BRANCH   1   2
ATOM      2  C   UNL A   1      41.483  22.250  25.838  1.00  0.00     0.188 C 
BRANCH   2   3
ATOM      3  C   UNL A   1      42.597  21.256  26.163  1.00  0.00     0.188 C 
BRANCH   3   4
ATOM      4  O   UNL A   1      43.407  20.948  25.026  1.00  0.00    -0.376 OA
BRANCH   4   5
ATOM      5  C   UNL A   1      44.695  21.545  24.979  1.00  0.00     0.202 C 
BRANCH   5   6
ATOM      6  C   UNL A   1      44.754  22.664  23.940  1.00  0.00     0.261 C 
BRANCH   6   7
ATOM      7  O   UNL A   1      44.282  23.904  24.495  1.00  0.00    -0.460 OA
BRANCH   7   8
ATOM      8  C   UNL A   1      44.802  24.668  25.486  1.00  0.00     0.338 C 
ATOM      9  O   UNL A   1      46.028  24.699  25.592  1.00  0.00    -0.246 OA
BRANCH   8  10
ATOM     10  C   UNL A   1      44.008  25.526  26.431  1.00  0.00     0.060 A 
ATOM     11  C   UNL A   1      43.984  26.921  26.469  1.00  0.00     0.016 A 
ATOM     12  C   UNL A   1      43.183  24.841  27.347  1.00  0.00     0.016 A 
ATOM     13  C   UNL A   1      43.235  27.613  27.417  1.00  0.00     0.010 A 
ATOM     14  C   UNL A   1      42.414  25.526  28.296  1.00  0.00     0.010 A 
ATOM     15  C   UNL A   1      42.473  26.919  28.355  1.00  0.00    -0.014 A 
BRANCH  15  16
ATOM     16  C   UNL A   1      41.911  27.682  29.484  1.00  0.00     0.031 A 
ATOM     17  C   UNL A   1      42.679  27.695  30.774  1.00  0.00     0.074 A 
ATOM     18  C   UNL A   1      40.838  28.471  29.303  1.00  0.00     0.049 A 
ATOM     19  N   UNL A   1      42.430  28.337  31.884  1.00  0.00    -0.248 NA
ATOM     20  C   UNL A   1      43.916  26.895  30.806  1.00  0.00     0.031 C 
ATOM     21  C   UNL A   1      40.094  28.608  28.051  1.00  0.00     0.029 A 
ATOM     22  N   UNL A   1      40.211  29.333  30.163  1.00  0.00    -0.354 N 
ATOM     23  C   UNL A   1      43.478  28.025  32.740  1.00  0.00     0.074 A 
ATOM     24  C   UNL A   1      44.356  27.120  32.033  1.00  0.00     0.031 C 
ATOM     25  C   UNL A   1      39.116  29.514  28.222  1.00  0.00     0.029 A 
ATOM     26  C   UNL A   1      39.144  29.991  29.601  1.00  0.00     0.049 A 
ATOM     27  H   UNL A   1      40.496  29.468  31.096  1.00  0.00     0.167 HD
ATOM     28  C   UNL A   1      43.691  28.461  34.001  1.00  0.00     0.037 A 
ATOM     29  C   UNL A   1      38.283  30.865  30.156  1.00  0.00     0.037 A 
ATOM     30  C   UNL A   1      42.793  29.336  34.701  1.00  0.00     0.049 A 
ATOM     31  C   UNL A   1      38.482  31.250  31.599  1.00  0.00     0.074 A 
ATOM     32  C   UNL A   1      42.841  29.760  36.016  1.00  0.00     0.029 A 
ATOM     33  N   UNL A   1      41.673  29.922  34.127  1.00  0.00    -0.354 N 
ATOM     34  N   UNL A   1      39.441  30.898  32.424  1.00  0.00    -0.248 NA
ATOM     35  C   UNL A   1      37.478  32.143  32.190  1.00  0.00     0.031 C 
ATOM     36  C   UNL A   1      41.731  30.582  36.245  1.00  0.00     0.029 A 
ATOM     37  C   UNL A   1      41.016  30.699  35.063  1.00  0.00     0.049 A 
ATOM     38  H   UNL A   1      41.390  29.802  33.192  1.00  0.00     0.167 HD
ATOM     39  C   UNL A   1      39.159  31.529  33.627  1.00  0.00     0.074 A 
ATOM     40  C   UNL A   1      37.958  32.312  33.415  1.00  0.00     0.031 C 
ATOM     41  C   UNL A   1      39.822  31.464  34.809  1.00  0.00     0.037 A 
BRANCH  28  42
ATOM     42  C   UNL A   1      44.913  27.945  34.697  1.00  0.00     0.057 A 
ATOM     43  C   UNL A   1      46.133  28.633  34.649  1.00  0.00     0.134 A 
ATOM     44  C   UNL A   1      44.883  26.727  35.384  1.00  0.00     0.134 A 
ATOM     45  F   UNL A   1      46.235  29.791  33.979  1.00  0.00    -0.206 F 
ATOM     46  C   UNL A   1      47.285  28.117  35.245  1.00  0.00     0.040 A 
ATOM     47  C   UNL A   1      46.024  26.209  35.998  1.00  0.00     0.040 A 
ATOM     48  F   UNL A   1      43.749  26.014  35.456  1.00  0.00    -0.206 F 
ATOM     49  C   UNL A   1      47.231  26.900  35.924  1.00  0.00     0.006 A 
ENDBRANCH  28  42
BRANCH  29  50
ATOM     50  C   UNL A   1      37.139  31.398  29.371  1.00  0.00     0.057 A 
ATOM     51  C   UNL A   1      36.003  30.624  29.111  1.00  0.00     0.134 A 
ATOM     52  C   UNL A   1      37.173  32.689  28.828  1.00  0.00     0.134 A 
ATOM     53  F   UNL A   1      35.916  29.370  29.580  1.00  0.00    -0.206 F 
ATOM     54  C   UNL A   1      34.953  31.105  28.323  1.00  0.00     0.040 A 
ATOM     55  C   UNL A   1      36.121  33.192  28.062  1.00  0.00     0.040 A 
ATOM     56  F   UNL A   1      38.235  33.482  29.034  1.00  0.00    -0.206 F 
ATOM     57  C   UNL A   1      35.010  32.395  27.800  1.00  0.00     0.006 A 
ENDBRANCH  29  50
BRANCH  41  58
ATOM     58  C   UNL A   1      39.259  32.264  35.942  1.00  0.00     0.057 A 
ATOM     59  C   UNL A   1      39.659  33.585  36.175  1.00  0.00     0.134 A 
ATOM     60  C   UNL A   1      38.283  31.719  36.785  1.00  0.00     0.134 A 
ATOM     61  F   UNL A   1      40.599  34.156  35.408  1.00  0.00    -0.206 F 
ATOM     62  C   UNL A   1      39.123  34.331  37.225  1.00  0.00     0.040 A 
ATOM     63  C   UNL A   1      37.724  32.463  37.824  1.00  0.00     0.040 A 
ATOM     64  F   UNL A   1      37.852  30.462  36.606  1.00  0.00    -0.206 F 
ATOM     65  C   UNL A   1      38.148  33.771  38.049  1.00  0.00     0.006 A 
ENDBRANCH  41  58
ENDBRANCH  15  16
ENDBRANCH   8  10
ENDBRANCH   7   8
ENDBRANCH   6   7
ENDBRANCH   5   6
ENDBRANCH   4   5
ENDBRANCH   3   4
ENDBRANCH   2   3
ENDBRANCH   1   2
BRANCH   1  66
ATOM     66  C   UNL A   1      39.649  23.375  26.904  1.00  0.00     0.188 C 
BRANCH  66  67
ATOM     67  C   UNL A   1      38.148  23.306  26.550  1.00  0.00     0.188 C 
BRANCH  67  68
ATOM     68  O   UNL A   1      37.843  23.704  25.214  1.00  0.00    -0.376 OA
BRANCH  68  69
ATOM     69  C   UNL A   1      36.672  23.106  24.659  1.00  0.00     0.202 C 
BRANCH  69  70
ATOM     70  C   UNL A   1      36.031  23.908  23.526  1.00  0.00     0.261 C 
BRANCH  70  71
ATOM     71  O   UNL A   1      35.090  23.152  22.745  1.00  0.00    -0.460 OA
BRANCH  71  72
ATOM     72  C   UNL A   1      33.804  23.565  22.686  1.00  0.00     0.340 C 
ATOM     73  O   UNL A   1      33.342  24.441  21.994  1.00  0.00    -0.246 OA
BRANCH  72  74
ATOM     74  C   UNL A   1      33.015  22.671  23.559  1.00  0.00     0.085 A 
ATOM     75  C   UNL A   1      33.243  21.290  23.416  1.00  0.00     0.018 A 
ATOM     76  C   UNL A   1      32.188  23.159  24.582  1.00  0.00     0.077 A 
ATOM     77  C   UNL A   1      32.675  20.387  24.317  1.00  0.00     0.001 A 
ATOM     78  C   UNL A   1      31.584  22.220  25.436  1.00  0.00     0.029 A 
ATOM     79  C   UNL A   1      31.832  20.851  25.319  1.00  0.00     0.002 A 
BRANCH  76  80
ATOM     80  N   UNL A   1      32.140  24.471  25.053  1.00  0.00    -0.255 NA
ATOM     81  C   UNL A   1      33.128  25.282  25.216  1.00  0.00     0.127 C 
BRANCH  81  82
ATOM     82  C   UNL A   1      32.986  26.438  26.175  1.00  0.00     0.076 A 
ATOM     83  C   UNL A   1      33.808  27.469  25.893  1.00  0.00     0.209 A 
ATOM     84  C   UNL A   1      31.587  27.002  26.179  1.00  0.00     0.201 A 
ATOM     85  O   UNL A   1      33.579  28.343  24.809  1.00  0.00    -0.463 OA
ATOM     86  C   UNL A   1      31.247  27.691  24.914  1.00  0.00     0.065 A 
ATOM     87  O   UNL A   1      30.815  26.861  27.115  1.00  0.00    -0.288 OA
ATOM     88  C   UNL A   1      32.319  28.292  24.243  1.00  0.00     0.137 A 
ATOM     89  C   UNL A   1      30.009  27.524  24.295  1.00  0.00     0.016 A 
ATOM     90  C   UNL A   1      32.157  28.761  22.945  1.00  0.00     0.048 A 
ATOM     91  C   UNL A   1      29.861  27.959  22.974  1.00  0.00     0.001 A 
ATOM     92  C   UNL A   1      30.928  28.575  22.305  1.00  0.00     0.004 A 
ENDBRANCH  81  82
ENDBRANCH  76  80
ENDBRANCH  72  74
ENDBRANCH  71  72
ENDBRANCH  70  71
ENDBRANCH  69  70
ENDBRANCH  68  69
ENDBRANCH  67  68
ENDBRANCH  66  67
ENDBRANCH   1  66
TORSDOF 22
ENDMDL
