MODEL 1
REMARK VINA RESULT:      -8.8      0.000      0.000
REMARK SMILES C[C@@H](Oc1ccc(I)cc1)C(=O)NCc1ccc(C(=O)OCCOCCOCCOCCOC(=O)c2ccc(-c3c4nc(c(-c5c(F)cccc5F)c5ccc([nH]5)c(-c5c(F)cccc5F)c5nc(c(-c6c(F)cccc6F)c6ccc3[nH]6)C=C5)C=C4)cc2)cc1
REMARK SMILES IDX 25 1 24 2 23 3 22 4 21 5 19 6 20 7 18 8 15 9 16 10 91 11
REMARK SMILES IDX 17 12 90 13 14 14 13 15 11 16 12 17 2 19 1 20 3 21 4 22 5 23
REMARK SMILES IDX 10 24 6 25 9 26 7 27 8 28 26 29 27 30 28 31 29 32 30 33
REMARK SMILES IDX 31 34 32 35 33 36 34 37 35 38 36 39 37 40 89 41 38 42 88 43
REMARK SMILES IDX 39 44 40 45 41 46 82 47 42 48 87 49 81 50 83 51 43 52 86 53
REMARK SMILES IDX 80 54 79 55 44 57 70 58 53 59 69 60 54 61 57 62 68 63 84 64
REMARK SMILES IDX 55 65 56 66 67 68 85 69 58 70 45 71 46 72 51 73 47 74 48 75
REMARK SMILES IDX 50 76 52 77 49 78 71 79 72 80 77 81 73 82 74 83 76 84 78 85
REMARK SMILES IDX 75 86 59 87 60 88 65 89 61 90 62 91 64 92 66 93 63 94
REMARK H PARENT 13 18 83 56 57 67
REMARK Flexibility Score: inf
ROOT
ATOM      1  C   UNL A   1      35.756  22.673  25.598  1.00  0.00     0.188 C 
ENDROOT
BRANCH   1   2
ATOM      2  O   UNL A   1      35.233  21.427  26.030  1.00  0.00    -0.376 OA
BRANCH   2   3
ATOM      3  C   UNL A   1      34.160  21.395  26.952  1.00  0.00     0.202 C 
BRANCH   3   4
ATOM      4  C   UNL A   1      33.888  22.601  27.865  1.00  0.00     0.261 C 
BRANCH   4   5
ATOM      5  O   UNL A   1      32.516  22.948  28.059  1.00  0.00    -0.460 OA
BRANCH   5   6
ATOM      6  C   UNL A   1      31.749  23.061  26.954  1.00  0.00     0.338 C 
ATOM      7  O   UNL A   1      31.011  22.211  26.489  1.00  0.00    -0.246 OA
BRANCH   6   8
ATOM      8  C   UNL A   1      31.802  24.473  26.500  1.00  0.00     0.060 A 
ATOM      9  C   UNL A   1      32.001  27.155  25.685  1.00  0.00    -0.029 A 
ATOM     10  C   UNL A   1      33.096  26.288  25.556  1.00  0.00     0.006 A 
ATOM     11  C   UNL A   1      30.776  26.629  26.116  1.00  0.00     0.006 A 
ATOM     12  C   UNL A   1      32.998  24.954  25.958  1.00  0.00     0.016 A 
ATOM     13  C   UNL A   1      30.677  25.304  26.540  1.00  0.00     0.016 A 
BRANCH   9  14
ATOM     14  C   UNL A   1      32.227  28.643  25.578  1.00  0.00     0.151 C 
BRANCH  14  15
ATOM     15  N   UNL A   1      32.480  29.133  24.242  1.00  0.00    -0.349 N 
ATOM     16  C   UNL A   1      31.723  28.991  23.112  1.00  0.00     0.261 C 
ATOM     17  O   UNL A   1      32.001  29.711  22.147  1.00  0.00    -0.271 OA
ATOM     18  H   UNL A   1      33.314  29.642  24.130  1.00  0.00     0.163 HD
BRANCH  16  19
ATOM     19  C   UNL A   1      30.647  27.887  22.982  1.00  0.00     0.258 C 
ATOM     20  C   UNL A   1      29.300  28.585  22.797  1.00  0.00     0.064 C 
BRANCH  19  21
ATOM     21  O   UNL A   1      30.986  26.967  21.942  1.00  0.00    -0.481 OA
BRANCH  21  22
ATOM     22  C   UNL A   1      31.345  25.714  22.354  1.00  0.00     0.120 A 
ATOM     23  C   UNL A   1      30.415  24.857  22.945  1.00  0.00     0.047 A 
ATOM     24  C   UNL A   1      32.607  25.237  22.006  1.00  0.00     0.047 A 
ATOM     25  C   UNL A   1      30.769  23.545  23.260  1.00  0.00     0.018 A 
ATOM     26  C   UNL A   1      32.957  23.915  22.300  1.00  0.00     0.018 A 
ATOM     27  C   UNL A   1      32.039  23.077  22.934  1.00  0.00     0.013 A 
ATOM     28  I   UNL A   1      32.546  21.107  23.358  1.00  0.00    -0.044 I 
ENDBRANCH  21  22
ENDBRANCH  19  21
ENDBRANCH  16  19
ENDBRANCH  14  15
ENDBRANCH   9  14
ENDBRANCH   6   8
ENDBRANCH   5   6
ENDBRANCH   4   5
ENDBRANCH   3   4
ENDBRANCH   2   3
ENDBRANCH   1   2
BRANCH   1  29
ATOM     29  C   UNL A   1      37.280  22.646  25.360  1.00  0.00     0.188 C 
BRANCH  29  30
ATOM     30  O   UNL A   1      38.023  21.669  26.074  1.00  0.00    -0.377 OA
BRANCH  30  31
ATOM     31  C   UNL A   1      39.399  21.457  25.755  1.00  0.00     0.188 C 
BRANCH  31  32
ATOM     32  C   UNL A   1      40.436  20.948  26.789  1.00  0.00     0.188 C 
BRANCH  32  33
ATOM     33  O   UNL A   1      40.672  21.818  27.882  1.00  0.00    -0.376 OA
BRANCH  33  34
ATOM     34  C   UNL A   1      40.473  23.205  27.689  1.00  0.00     0.202 C 
BRANCH  34  35
ATOM     35  C   UNL A   1      41.715  24.030  27.323  1.00  0.00     0.261 C 
BRANCH  35  36
ATOM     36  O   UNL A   1      42.979  23.442  27.663  1.00  0.00    -0.460 OA
BRANCH  36  37
ATOM     37  C   UNL A   1      43.907  23.372  26.679  1.00  0.00     0.338 C 
ATOM     38  O   UNL A   1      44.052  22.487  25.867  1.00  0.00    -0.246 OA
BRANCH  37  39
ATOM     39  C   UNL A   1      44.613  24.673  26.645  1.00  0.00     0.060 A 
ATOM     40  C   UNL A   1      44.747  25.339  25.420  1.00  0.00     0.016 A 
ATOM     41  C   UNL A   1      45.126  25.230  27.818  1.00  0.00     0.016 A 
ATOM     42  C   UNL A   1      45.426  26.556  25.362  1.00  0.00     0.010 A 
ATOM     43  C   UNL A   1      45.825  26.439  27.753  1.00  0.00     0.010 A 
ATOM     44  C   UNL A   1      46.005  27.092  26.520  1.00  0.00    -0.014 A 
BRANCH  44  45
ATOM     45  C   UNL A   1      46.940  28.237  26.412  1.00  0.00     0.031 A 
ATOM     46  C   UNL A   1      46.385  29.630  26.505  1.00  0.00     0.074 A 
ATOM     47  C   UNL A   1      48.261  28.045  26.256  1.00  0.00     0.049 A 
ATOM     48  N   UNL A   1      47.001  30.781  26.411  1.00  0.00    -0.248 NA
ATOM     49  C   UNL A   1      44.935  29.741  26.736  1.00  0.00     0.031 C 
ATOM     50  C   UNL A   1      48.926  26.745  26.185  1.00  0.00     0.029 A 
ATOM     51  N   UNL A   1      49.281  28.954  26.122  1.00  0.00    -0.354 N 
ATOM     52  C   UNL A   1      46.017  31.749  26.562  1.00  0.00     0.074 A 
ATOM     53  C   UNL A   1      44.758  31.053  26.721  1.00  0.00     0.031 C 
ATOM     54  C   UNL A   1      50.243  26.941  26.008  1.00  0.00     0.029 A 
ATOM     55  C   UNL A   1      50.510  28.375  25.920  1.00  0.00     0.049 A 
ATOM     56  H   UNL A   1      49.145  29.928  26.166  1.00  0.00     0.167 HD
ATOM     57  C   UNL A   1      46.149  33.096  26.574  1.00  0.00     0.037 A 
ATOM     58  C   UNL A   1      51.707  28.941  25.668  1.00  0.00     0.037 A 
ATOM     59  C   UNL A   1      47.402  33.785  26.410  1.00  0.00     0.049 A 
ATOM     60  C   UNL A   1      51.820  30.443  25.614  1.00  0.00     0.074 A 
ATOM     61  C   UNL A   1      47.646  35.147  26.434  1.00  0.00     0.029 A 
ATOM     62  N   UNL A   1      48.621  33.165  26.174  1.00  0.00    -0.354 N 
ATOM     63  N   UNL A   1      50.891  31.351  25.795  1.00  0.00    -0.248 NA
ATOM     64  C   UNL A   1      53.149  30.998  25.325  1.00  0.00     0.031 C 
ATOM     65  C   UNL A   1      49.000  35.354  26.148  1.00  0.00     0.029 A 
ATOM     66  C   UNL A   1      49.613  34.119  26.015  1.00  0.00     0.049 A 
ATOM     67  H   UNL A   1      48.759  32.191  26.127  1.00  0.00     0.167 HD
ATOM     68  C   UNL A   1      51.527  32.581  25.669  1.00  0.00     0.074 A 
ATOM     69  C   UNL A   1      52.925  32.302  25.415  1.00  0.00     0.031 C 
ATOM     70  C   UNL A   1      51.002  33.829  25.760  1.00  0.00     0.037 A 
BRANCH  57  71
ATOM     71  C   UNL A   1      44.899  33.914  26.733  1.00  0.00     0.057 A 
ATOM     72  C   UNL A   1      44.436  34.331  27.989  1.00  0.00     0.134 A 
ATOM     73  C   UNL A   1      44.162  34.309  25.610  1.00  0.00     0.134 A 
ATOM     74  F   UNL A   1      45.086  33.975  29.108  1.00  0.00    -0.206 F 
ATOM     75  C   UNL A   1      43.271  35.089  28.121  1.00  0.00     0.040 A 
ATOM     76  C   UNL A   1      43.013  35.093  25.729  1.00  0.00     0.040 A 
ATOM     77  F   UNL A   1      44.550  33.948  24.378  1.00  0.00    -0.206 F 
ATOM     78  C   UNL A   1      42.560  35.478  26.989  1.00  0.00     0.006 A 
ENDBRANCH  57  71
BRANCH  58  79
ATOM     79  C   UNL A   1      52.899  28.085  25.429  1.00  0.00     0.057 A 
ATOM     80  C   UNL A   1      53.210  27.610  24.150  1.00  0.00     0.134 A 
ATOM     81  C   UNL A   1      53.744  27.706  26.480  1.00  0.00     0.134 A 
ATOM     82  F   UNL A   1      52.425  27.915  23.107  1.00  0.00    -0.206 F 
ATOM     83  C   UNL A   1      54.307  26.774  23.926  1.00  0.00     0.040 A 
ATOM     84  C   UNL A   1      54.860  26.896  26.267  1.00  0.00     0.040 A 
ATOM     85  F   UNL A   1      53.501  28.127  27.730  1.00  0.00    -0.206 F 
ATOM     86  C   UNL A   1      55.140  26.421  24.987  1.00  0.00     0.006 A 
ENDBRANCH  58  79
BRANCH  70  87
ATOM     87  C   UNL A   1      51.948  34.989  25.617  1.00  0.00     0.057 A 
ATOM     88  C   UNL A   1      52.536  35.610  26.728  1.00  0.00     0.134 A 
ATOM     89  C   UNL A   1      52.303  35.467  24.349  1.00  0.00     0.134 A 
ATOM     90  F   UNL A   1      52.233  35.210  27.972  1.00  0.00    -0.206 F 
ATOM     91  C   UNL A   1      53.420  36.683  26.581  1.00  0.00     0.040 A 
ATOM     92  C   UNL A   1      53.209  36.516  24.189  1.00  0.00     0.040 A 
ATOM     93  F   UNL A   1      51.787  34.911  23.242  1.00  0.00    -0.206 F 
ATOM     94  C   UNL A   1      53.764  37.133  25.308  1.00  0.00     0.006 A 
ENDBRANCH  70  87
ENDBRANCH  44  45
ENDBRANCH  37  39
ENDBRANCH  36  37
ENDBRANCH  35  36
ENDBRANCH  34  35
ENDBRANCH  33  34
ENDBRANCH  32  33
ENDBRANCH  31  32
ENDBRANCH  30  31
ENDBRANCH  29  30
ENDBRANCH   1  29
TORSDOF 25
ENDMDL
MODEL 2
REMARK VINA RESULT:      -8.1      5.362      7.883
REMARK SMILES C[C@@H](Oc1ccc(I)cc1)C(=O)NCc1ccc(C(=O)OCCOCCOCCOCCOC(=O)c2ccc(-c3c4nc(c(-c5c(F)cccc5F)c5ccc([nH]5)c(-c5c(F)cccc5F)c5nc(c(-c6c(F)cccc6F)c6ccc3[nH]6)C=C5)C=C4)cc2)cc1
REMARK SMILES IDX 25 1 24 2 23 3 22 4 21 5 19 6 20 7 18 8 15 9 16 10 91 11
REMARK SMILES IDX 17 12 90 13 14 14 13 15 11 16 12 17 2 19 1 20 3 21 4 22 5 23
REMARK SMILES IDX 10 24 6 25 9 26 7 27 8 28 26 29 27 30 28 31 29 32 30 33
REMARK SMILES IDX 31 34 32 35 33 36 34 37 35 38 36 39 37 40 89 41 38 42 88 43
REMARK SMILES IDX 39 44 40 45 41 46 82 47 42 48 87 49 81 50 83 51 43 52 86 53
REMARK SMILES IDX 80 54 79 55 44 57 70 58 53 59 69 60 54 61 57 62 68 63 84 64
REMARK SMILES IDX 55 65 56 66 67 68 85 69 58 70 45 71 46 72 51 73 47 74 48 75
REMARK SMILES IDX 50 76 52 77 49 78 71 79 72 80 77 81 73 82 74 83 76 84 78 85
REMARK SMILES IDX 75 86 59 87 60 88 65 89 61 90 62 91 64 92 66 93 63 94
REMARK H PARENT 13 18 83 56 57 67
REMARK Flexibility Score: inf
ROOT
ATOM      1  C   UNL A   1      33.872  29.171  26.488  1.00  0.00     0.188 C 
ENDROOT
BRANCH   1   2
ATOM      2  O   UNL A   1      34.069  30.030  27.600  1.00  0.00    -0.376 OA
BRANCH   2   3
ATOM      3  C   UNL A   1      34.396  31.391  27.390  1.00  0.00     0.202 C 
BRANCH   3   4
ATOM      4  C   UNL A   1      33.865  32.470  28.348  1.00  0.00     0.261 C 
BRANCH   4   5
ATOM      5  O   UNL A   1      34.491  32.536  29.630  1.00  0.00    -0.460 OA
BRANCH   5   6
ATOM      6  C   UNL A   1      34.304  33.664  30.348  1.00  0.00     0.338 C 
ATOM      7  O   UNL A   1      33.440  34.504  30.171  1.00  0.00    -0.246 OA
BRANCH   6   8
ATOM      8  C   UNL A   1      35.212  33.619  31.522  1.00  0.00     0.060 A 
ATOM      9  C   UNL A   1      36.841  33.510  33.808  1.00  0.00    -0.029 A 
ATOM     10  C   UNL A   1      35.837  32.553  33.603  1.00  0.00     0.006 A 
ATOM     11  C   UNL A   1      37.092  34.448  32.797  1.00  0.00     0.006 A 
ATOM     12  C   UNL A   1      35.028  32.604  32.465  1.00  0.00     0.016 A 
ATOM     13  C   UNL A   1      36.273  34.518  31.670  1.00  0.00     0.016 A 
BRANCH   9  14
ATOM     14  C   UNL A   1      37.457  33.646  35.179  1.00  0.00     0.151 C 
BRANCH  14  15
ATOM     15  N   UNL A   1      37.301  32.496  36.040  1.00  0.00    -0.349 N 
ATOM     16  C   UNL A   1      38.056  31.358  36.107  1.00  0.00     0.261 C 
ATOM     17  O   UNL A   1      37.898  30.628  37.092  1.00  0.00    -0.271 OA
ATOM     18  H   UNL A   1      36.544  32.537  36.668  1.00  0.00     0.163 HD
BRANCH  16  19
ATOM     19  C   UNL A   1      38.979  30.919  34.945  1.00  0.00     0.258 C 
ATOM     20  C   UNL A   1      40.413  30.937  35.473  1.00  0.00     0.064 C 
BRANCH  19  21
ATOM     21  O   UNL A   1      38.559  29.661  34.411  1.00  0.00    -0.481 OA
BRANCH  21  22
ATOM     22  C   UNL A   1      38.502  29.588  33.047  1.00  0.00     0.120 A 
ATOM     23  C   UNL A   1      38.328  28.364  32.399  1.00  0.00     0.047 A 
ATOM     24  C   UNL A   1      38.435  30.774  32.321  1.00  0.00     0.047 A 
ATOM     25  C   UNL A   1      38.163  28.318  31.014  1.00  0.00     0.018 A 
ATOM     26  C   UNL A   1      38.247  30.734  30.936  1.00  0.00     0.018 A 
ATOM     27  C   UNL A   1      38.121  29.505  30.287  1.00  0.00     0.013 A 
ATOM     28  I   UNL A   1      37.823  29.436  28.232  1.00  0.00    -0.044 I 
ENDBRANCH  21  22
ENDBRANCH  19  21
ENDBRANCH  16  19
ENDBRANCH  14  15
ENDBRANCH   9  14
ENDBRANCH   6   8
ENDBRANCH   5   6
ENDBRANCH   4   5
ENDBRANCH   3   4
ENDBRANCH   2   3
ENDBRANCH   1   2
BRANCH   1  29
ATOM     29  C   UNL A   1      33.050  27.912  26.829  1.00  0.00     0.188 C 
BRANCH  29  30
ATOM     30  O   UNL A   1      32.838  26.981  25.778  1.00  0.00    -0.377 OA
BRANCH  30  31
ATOM     31  C   UNL A   1      33.957  26.333  25.172  1.00  0.00     0.188 C 
BRANCH  31  32
ATOM     32  C   UNL A   1      34.138  24.794  25.162  1.00  0.00     0.188 C 
BRANCH  32  33
ATOM     33  O   UNL A   1      35.293  24.320  25.832  1.00  0.00    -0.376 OA
BRANCH  33  34
ATOM     34  C   UNL A   1      36.418  23.959  25.054  1.00  0.00     0.202 C 
BRANCH  34  35
ATOM     35  C   UNL A   1      37.564  23.256  25.794  1.00  0.00     0.261 C 
BRANCH  35  36
ATOM     36  O   UNL A   1      38.619  24.107  26.267  1.00  0.00    -0.460 OA
BRANCH  36  37
ATOM     37  C   UNL A   1      39.713  23.499  26.784  1.00  0.00     0.338 C 
ATOM     38  O   UNL A   1      39.989  22.321  26.741  1.00  0.00    -0.246 OA
BRANCH  37  39
ATOM     39  C   UNL A   1      40.626  24.563  27.258  1.00  0.00     0.060 A 
ATOM     40  C   UNL A   1      40.623  25.801  26.602  1.00  0.00     0.016 A 
ATOM     41  C   UNL A   1      41.467  24.339  28.348  1.00  0.00     0.016 A 
ATOM     42  C   UNL A   1      41.490  26.811  27.018  1.00  0.00     0.010 A 
ATOM     43  C   UNL A   1      42.350  25.345  28.751  1.00  0.00     0.010 A 
ATOM     44  C   UNL A   1      42.387  26.574  28.068  1.00  0.00    -0.014 A 
BRANCH  44  45
ATOM     45  C   UNL A   1      43.477  27.544  28.336  1.00  0.00     0.031 A 
ATOM     46  C   UNL A   1      43.135  28.839  29.018  1.00  0.00     0.074 A 
ATOM     47  C   UNL A   1      44.749  27.273  28.000  1.00  0.00     0.049 A 
ATOM     48  N   UNL A   1      43.909  29.847  29.328  1.00  0.00    -0.248 NA
ATOM     49  C   UNL A   1      41.725  29.023  29.400  1.00  0.00     0.031 C 
ATOM     50  C   UNL A   1      45.214  26.040  27.366  1.00  0.00     0.029 A 
ATOM     51  N   UNL A   1      45.887  28.028  28.144  1.00  0.00    -0.354 N 
ATOM     52  C   UNL A   1      43.083  30.785  29.934  1.00  0.00     0.074 A 
ATOM     53  C   UNL A   1      41.742  30.242  29.917  1.00  0.00     0.031 C 
ATOM     54  C   UNL A   1      46.539  26.129  27.163  1.00  0.00     0.029 A 
ATOM     55  C   UNL A   1      47.010  27.435  27.623  1.00  0.00     0.049 A 
ATOM     56  H   UNL A   1      45.896  28.911  28.579  1.00  0.00     0.167 HD
ATOM     57  C   UNL A   1      43.412  31.987  30.462  1.00  0.00     0.037 A 
ATOM     58  C   UNL A   1      48.268  27.904  27.508  1.00  0.00     0.037 A 
ATOM     59  C   UNL A   1      44.746  32.527  30.471  1.00  0.00     0.049 A 
ATOM     60  C   UNL A   1      48.597  29.276  28.038  1.00  0.00     0.074 A 
ATOM     61  C   UNL A   1      45.188  33.723  31.007  1.00  0.00     0.029 A 
ATOM     62  N   UNL A   1      45.852  31.911  29.904  1.00  0.00    -0.354 N 
ATOM     63  N   UNL A   1      47.818  30.141  28.643  1.00  0.00    -0.248 NA
ATOM     64  C   UNL A   1      49.984  29.735  27.873  1.00  0.00     0.031 C 
ATOM     65  C   UNL A   1      46.547  33.862  30.706  1.00  0.00     0.029 A 
ATOM     66  C   UNL A   1      46.968  32.720  30.045  1.00  0.00     0.049 A 
ATOM     67  H   UNL A   1      45.845  31.029  29.466  1.00  0.00     0.167 HD
ATOM     68  C   UNL A   1      48.623  31.230  28.954  1.00  0.00     0.074 A 
ATOM     69  C   UNL A   1      49.956  30.910  28.488  1.00  0.00     0.031 C 
ATOM     70  C   UNL A   1      48.290  32.391  29.574  1.00  0.00     0.037 A 
BRANCH  57  71
ATOM     71  C   UNL A   1      42.301  32.817  31.040  1.00  0.00     0.057 A 
ATOM     72  C   UNL A   1      41.901  32.699  32.378  1.00  0.00     0.134 A 
ATOM     73  C   UNL A   1      41.639  33.765  30.250  1.00  0.00     0.134 A 
ATOM     74  F   UNL A   1      42.483  31.800  33.187  1.00  0.00    -0.206 F 
ATOM     75  C   UNL A   1      40.865  33.476  32.901  1.00  0.00     0.040 A 
ATOM     76  C   UNL A   1      40.623  34.569  30.770  1.00  0.00     0.040 A 
ATOM     77  F   UNL A   1      41.973  33.932  28.962  1.00  0.00    -0.206 F 
ATOM     78  C   UNL A   1      40.228  34.419  32.098  1.00  0.00     0.006 A 
ENDBRANCH  57  71
BRANCH  58  79
ATOM     79  C   UNL A   1      49.312  27.079  26.847  1.00  0.00     0.057 A 
ATOM     80  C   UNL A   1      49.476  27.086  25.458  1.00  0.00     0.134 A 
ATOM     81  C   UNL A   1      50.160  26.247  27.591  1.00  0.00     0.134 A 
ATOM     82  F   UNL A   1      48.680  27.841  24.688  1.00  0.00    -0.206 F 
ATOM     83  C   UNL A   1      50.432  26.284  24.829  1.00  0.00     0.040 A 
ATOM     84  C   UNL A   1      51.138  25.462  26.979  1.00  0.00     0.040 A 
ATOM     85  F   UNL A   1      50.054  26.193  28.927  1.00  0.00    -0.206 F 
ATOM     86  C   UNL A   1      51.271  25.473  25.592  1.00  0.00     0.006 A 
ENDBRANCH  58  79
BRANCH  70  87
ATOM     87  C   UNL A   1      49.391  33.387  29.815  1.00  0.00     0.057 A 
ATOM     88  C   UNL A   1      49.695  34.396  28.892  1.00  0.00     0.134 A 
ATOM     89  C   UNL A   1      50.129  33.358  31.006  1.00  0.00     0.134 A 
ATOM     90  F   UNL A   1      49.035  34.476  27.727  1.00  0.00    -0.206 F 
ATOM     91  C   UNL A   1      50.715  35.321  29.131  1.00  0.00     0.040 A 
ATOM     92  C   UNL A   1      51.128  34.297  31.270  1.00  0.00     0.040 A 
ATOM     93  F   UNL A   1      49.882  32.427  31.939  1.00  0.00    -0.206 F 
ATOM     94  C   UNL A   1      51.429  35.276  30.328  1.00  0.00     0.006 A 
ENDBRANCH  70  87
ENDBRANCH  44  45
ENDBRANCH  37  39
ENDBRANCH  36  37
ENDBRANCH  35  36
ENDBRANCH  34  35
ENDBRANCH  33  34
ENDBRANCH  32  33
ENDBRANCH  31  32
ENDBRANCH  30  31
ENDBRANCH  29  30
ENDBRANCH   1  29
TORSDOF 25
ENDMDL
MODEL 3
REMARK VINA RESULT:      -7.9      5.856      8.858
REMARK SMILES C[C@@H](Oc1ccc(I)cc1)C(=O)NCc1ccc(C(=O)OCCOCCOCCOCCOC(=O)c2ccc(-c3c4nc(c(-c5c(F)cccc5F)c5ccc([nH]5)c(-c5c(F)cccc5F)c5nc(c(-c6c(F)cccc6F)c6ccc3[nH]6)C=C5)C=C4)cc2)cc1
REMARK SMILES IDX 25 1 24 2 23 3 22 4 21 5 19 6 20 7 18 8 15 9 16 10 91 11
REMARK SMILES IDX 17 12 90 13 14 14 13 15 11 16 12 17 2 19 1 20 3 21 4 22 5 23
REMARK SMILES IDX 10 24 6 25 9 26 7 27 8 28 26 29 27 30 28 31 29 32 30 33
REMARK SMILES IDX 31 34 32 35 33 36 34 37 35 38 36 39 37 40 89 41 38 42 88 43
REMARK SMILES IDX 39 44 40 45 41 46 82 47 42 48 87 49 81 50 83 51 43 52 86 53
REMARK SMILES IDX 80 54 79 55 44 57 70 58 53 59 69 60 54 61 57 62 68 63 84 64
REMARK SMILES IDX 55 65 56 66 67 68 85 69 58 70 45 71 46 72 51 73 47 74 48 75
REMARK SMILES IDX 50 76 52 77 49 78 71 79 72 80 77 81 73 82 74 83 76 84 78 85
REMARK SMILES IDX 75 86 59 87 60 88 65 89 61 90 62 91 64 92 66 93 63 94
REMARK H PARENT 13 18 83 56 57 67
REMARK Flexibility Score: inf
ROOT
ATOM      1  C   UNL A   1      33.563  28.499  26.028  1.00  0.00     0.188 C 
ENDROOT
BRANCH   1   2
ATOM      2  O   UNL A   1      33.912  29.328  27.125  1.00  0.00    -0.376 OA
BRANCH   2   3
ATOM      3  C   UNL A   1      34.063  30.722  26.936  1.00  0.00     0.202 C 
BRANCH   3   4
ATOM      4  C   UNL A   1      33.786  31.694  28.094  1.00  0.00     0.261 C 
BRANCH   4   5
ATOM      5  O   UNL A   1      34.774  31.743  29.125  1.00  0.00    -0.460 OA
BRANCH   5   6
ATOM      6  C   UNL A   1      35.189  32.964  29.520  1.00  0.00     0.338 C 
ATOM      7  O   UNL A   1      34.725  34.037  29.178  1.00  0.00    -0.246 OA
BRANCH   6   8
ATOM      8  C   UNL A   1      36.188  32.783  30.604  1.00  0.00     0.060 A 
ATOM      9  C   UNL A   1      37.996  32.456  32.729  1.00  0.00    -0.029 A 
ATOM     10  C   UNL A   1      36.723  31.870  32.780  1.00  0.00     0.006 A 
ATOM     11  C   UNL A   1      38.389  33.105  31.551  1.00  0.00     0.006 A 
ATOM     12  C   UNL A   1      35.823  32.029  31.724  1.00  0.00     0.016 A 
ATOM     13  C   UNL A   1      37.488  33.287  30.501  1.00  0.00     0.016 A 
BRANCH   9  14
ATOM     14  C   UNL A   1      38.805  32.568  33.998  1.00  0.00     0.151 C 
BRANCH  14  15
ATOM     15  N   UNL A   1      38.460  31.620  35.033  1.00  0.00    -0.349 N 
ATOM     16  C   UNL A   1      39.198  30.588  35.541  1.00  0.00     0.261 C 
ATOM     17  O   UNL A   1      38.809  30.075  36.596  1.00  0.00    -0.271 OA
ATOM     18  H   UNL A   1      37.566  31.734  35.430  1.00  0.00     0.163 HD
BRANCH  16  19
ATOM     19  C   UNL A   1      40.398  29.985  34.772  1.00  0.00     0.258 C 
ATOM     20  C   UNL A   1      41.495  29.696  35.797  1.00  0.00     0.064 C 
BRANCH  19  21
ATOM     21  O   UNL A   1      39.991  28.851  34.003  1.00  0.00    -0.481 OA
BRANCH  21  22
ATOM     22  C   UNL A   1      39.504  29.127  32.756  1.00  0.00     0.120 A 
ATOM     23  C   UNL A   1      40.299  29.751  31.794  1.00  0.00     0.047 A 
ATOM     24  C   UNL A   1      38.261  28.608  32.399  1.00  0.00     0.047 A 
ATOM     25  C   UNL A   1      39.824  29.927  30.494  1.00  0.00     0.018 A 
ATOM     26  C   UNL A   1      37.791  28.762  31.091  1.00  0.00     0.018 A 
ATOM     27  C   UNL A   1      38.571  29.429  30.146  1.00  0.00     0.013 A 
ATOM     28  I   UNL A   1      37.888  29.646  28.196  1.00  0.00    -0.044 I 
ENDBRANCH  21  22
ENDBRANCH  19  21
ENDBRANCH  16  19
ENDBRANCH  14  15
ENDBRANCH   9  14
ENDBRANCH   6   8
ENDBRANCH   5   6
ENDBRANCH   4   5
ENDBRANCH   3   4
ENDBRANCH   2   3
ENDBRANCH   1   2
BRANCH   1  29
ATOM     29  C   UNL A   1      33.434  27.009  26.406  1.00  0.00     0.188 C 
BRANCH  29  30
ATOM     30  O   UNL A   1      33.031  26.119  25.376  1.00  0.00    -0.377 OA
BRANCH  30  31
ATOM     31  C   UNL A   1      33.874  25.927  24.239  1.00  0.00     0.188 C 
BRANCH  31  32
ATOM     32  C   UNL A   1      34.523  24.562  23.890  1.00  0.00     0.188 C 
BRANCH  32  33
ATOM     33  O   UNL A   1      35.182  23.918  24.966  1.00  0.00    -0.376 OA
BRANCH  33  34
ATOM     34  C   UNL A   1      36.594  23.842  24.937  1.00  0.00     0.202 C 
BRANCH  34  35
ATOM     35  C   UNL A   1      37.301  23.709  26.293  1.00  0.00     0.261 C 
BRANCH  35  36
ATOM     36  O   UNL A   1      38.542  24.419  26.424  1.00  0.00    -0.460 OA
BRANCH  36  37
ATOM     37  C   UNL A   1      39.546  23.784  27.074  1.00  0.00     0.338 C 
ATOM     38  O   UNL A   1      39.761  22.594  27.111  1.00  0.00    -0.246 OA
BRANCH  37  39
ATOM     39  C   UNL A   1      40.464  24.824  27.590  1.00  0.00     0.060 A 
ATOM     40  C   UNL A   1      41.797  24.825  27.162  1.00  0.00     0.016 A 
ATOM     41  C   UNL A   1      40.003  25.795  28.481  1.00  0.00     0.016 A 
ATOM     42  C   UNL A   1      42.685  25.783  27.652  1.00  0.00     0.010 A 
ATOM     43  C   UNL A   1      40.898  26.741  28.987  1.00  0.00     0.010 A 
ATOM     44  C   UNL A   1      42.250  26.720  28.599  1.00  0.00    -0.014 A 
BRANCH  44  45
ATOM     45  C   UNL A   1      43.243  27.562  29.309  1.00  0.00     0.031 A 
ATOM     46  C   UNL A   1      43.378  29.005  28.911  1.00  0.00     0.074 A 
ATOM     47  C   UNL A   1      43.997  27.062  30.303  1.00  0.00     0.049 A 
ATOM     48  N   UNL A   1      44.193  29.922  29.366  1.00  0.00    -0.248 NA
ATOM     49  C   UNL A   1      42.470  29.478  27.853  1.00  0.00     0.031 C 
ATOM     50  C   UNL A   1      43.937  25.690  30.803  1.00  0.00     0.029 A 
ATOM     51  N   UNL A   1      44.970  27.658  31.066  1.00  0.00    -0.354 N 
ATOM     52  C   UNL A   1      43.902  31.075  28.648  1.00  0.00     0.074 A 
ATOM     53  C   UNL A   1      42.860  30.734  27.704  1.00  0.00     0.031 C 
ATOM     54  C   UNL A   1      44.844  25.545  31.783  1.00  0.00     0.029 A 
ATOM     55  C   UNL A   1      45.570  26.802  31.957  1.00  0.00     0.049 A 
ATOM     56  H   UNL A   1      45.214  28.608  30.983  1.00  0.00     0.167 HD
ATOM     57  C   UNL A   1      44.448  32.307  28.768  1.00  0.00     0.037 A 
ATOM     58  C   UNL A   1      46.603  27.006  32.797  1.00  0.00     0.037 A 
ATOM     59  C   UNL A   1      45.489  32.641  29.705  1.00  0.00     0.049 A 
ATOM     60  C   UNL A   1      47.246  28.368  32.864  1.00  0.00     0.074 A 
ATOM     61  C   UNL A   1      46.091  33.867  29.924  1.00  0.00     0.029 A 
ATOM     62  N   UNL A   1      46.095  31.739  30.568  1.00  0.00    -0.354 N 
ATOM     63  N   UNL A   1      46.940  29.462  32.208  1.00  0.00    -0.248 NA
ATOM     64  C   UNL A   1      48.375  28.524  33.791  1.00  0.00     0.031 C 
ATOM     65  C   UNL A   1      47.105  33.694  30.872  1.00  0.00     0.029 A 
ATOM     66  C   UNL A   1      47.088  32.376  31.295  1.00  0.00     0.049 A 
ATOM     67  H   UNL A   1      45.854  30.788  30.652  1.00  0.00     0.167 HD
ATOM     68  C   UNL A   1      47.818  30.440  32.662  1.00  0.00     0.074 A 
ATOM     69  C   UNL A   1      48.656  29.814  33.663  1.00  0.00     0.031 C 
ATOM     70  C   UNL A   1      47.918  31.740  32.288  1.00  0.00     0.037 A 
BRANCH  57  71
ATOM     71  C   UNL A   1      43.956  33.378  27.836  1.00  0.00     0.057 A 
ATOM     72  C   UNL A   1      44.346  33.434  26.492  1.00  0.00     0.134 A 
ATOM     73  C   UNL A   1      43.057  34.353  28.288  1.00  0.00     0.134 A 
ATOM     74  F   UNL A   1      45.216  32.539  25.997  1.00  0.00    -0.206 F 
ATOM     75  C   UNL A   1      43.881  34.436  25.638  1.00  0.00     0.040 A 
ATOM     76  C   UNL A   1      42.562  35.341  27.436  1.00  0.00     0.040 A 
ATOM     77  F   UNL A   1      42.639  34.357  29.562  1.00  0.00    -0.206 F 
ATOM     78  C   UNL A   1      42.981  35.389  26.108  1.00  0.00     0.006 A 
ENDBRANCH  57  71
BRANCH  58  79
ATOM     79  C   UNL A   1      47.113  25.889  33.635  1.00  0.00     0.057 A 
ATOM     80  C   UNL A   1      48.197  25.106  33.225  1.00  0.00     0.134 A 
ATOM     81  C   UNL A   1      46.512  25.567  34.859  1.00  0.00     0.134 A 
ATOM     82  F   UNL A   1      48.799  25.347  32.052  1.00  0.00    -0.206 F 
ATOM     83  C   UNL A   1      48.656  24.032  33.991  1.00  0.00     0.040 A 
ATOM     84  C   UNL A   1      46.977  24.515  35.649  1.00  0.00     0.040 A 
ATOM     85  F   UNL A   1      45.467  26.278  35.310  1.00  0.00    -0.206 F 
ATOM     86  C   UNL A   1      48.048  23.738  35.212  1.00  0.00     0.006 A 
ENDBRANCH  58  79
BRANCH  70  87
ATOM     87  C   UNL A   1      48.949  32.584  32.986  1.00  0.00     0.057 A 
ATOM     88  C   UNL A   1      48.667  33.268  34.177  1.00  0.00     0.134 A 
ATOM     89  C   UNL A   1      50.252  32.681  32.480  1.00  0.00     0.134 A 
ATOM     90  F   UNL A   1      47.438  33.227  34.712  1.00  0.00    -0.206 F 
ATOM     91  C   UNL A   1      49.636  34.043  34.820  1.00  0.00     0.040 A 
ATOM     92  C   UNL A   1      51.237  33.426  33.132  1.00  0.00     0.040 A 
ATOM     93  F   UNL A   1      50.594  32.042  31.351  1.00  0.00    -0.206 F 
ATOM     94  C   UNL A   1      50.928  34.116  34.300  1.00  0.00     0.006 A 
ENDBRANCH  70  87
ENDBRANCH  44  45
ENDBRANCH  37  39
ENDBRANCH  36  37
ENDBRANCH  35  36
ENDBRANCH  34  35
ENDBRANCH  33  34
ENDBRANCH  32  33
ENDBRANCH  31  32
ENDBRANCH  30  31
ENDBRANCH  29  30
ENDBRANCH   1  29
TORSDOF 25
ENDMDL
