MODEL 1
REMARK VINA RESULT:      -9.3      0.000      0.000
REMARK SMILES Cc1ccc(C(=O)[C@@H]2CCC[C@H]2C(=O)OCCOCCOCCOCCOC(=O)c2ccc(-c3c4nc(c(-c5c(F)cccc5F)c5ccc([nH]5)c(-c5c(F)cccc5F)c5nc(c(-c6c(F)cccc6F)c6ccc3[nH]6)C=C5)C=C4)cc2)c(C)c1
REMARK SMILES IDX 21 1 20 2 19 3 18 4 17 5 16 6 15 7 13 8 14 9 12 10 8 11 9 12
REMARK SMILES IDX 10 13 11 14 6 15 7 16 5 17 1 18 2 19 3 20 86 21 4 22 84 23
REMARK SMILES IDX 85 24 22 25 23 26 24 27 25 28 26 29 27 30 28 31 29 32 30 33
REMARK SMILES IDX 31 34 83 35 32 36 82 37 33 38 34 39 35 40 76 41 36 42 81 43
REMARK SMILES IDX 75 44 77 45 37 46 80 47 74 48 73 49 38 51 64 52 47 53 63 54
REMARK SMILES IDX 48 55 51 56 62 57 78 58 49 59 50 60 61 62 79 63 52 64 39 65
REMARK SMILES IDX 40 66 45 67 41 68 42 69 44 70 46 71 43 72 65 73 66 74 71 75
REMARK SMILES IDX 67 76 68 77 70 78 72 79 69 80 53 81 54 82 59 83 55 84 56 85
REMARK SMILES IDX 58 86 60 87 57 88
REMARK H PARENT 77 50 51 61
REMARK Flexibility Score: inf
ROOT
ATOM      1  O   UNL A   1      34.259  34.609  28.299  1.00  0.00    -0.377 OA
ENDROOT
BRANCH   1   2
ATOM      2  C   UNL A   1      33.165  33.764  28.006  1.00  0.00     0.188 C 
BRANCH   2   3
ATOM      3  C   UNL A   1      33.276  32.317  27.539  1.00  0.00     0.188 C 
BRANCH   3   4
ATOM      4  O   UNL A   1      34.354  31.631  28.119  1.00  0.00    -0.376 OA
BRANCH   4   5
ATOM      5  C   UNL A   1      34.823  30.411  27.600  1.00  0.00     0.202 C 
BRANCH   5   6
ATOM      6  C   UNL A   1      33.967  29.133  27.455  1.00  0.00     0.261 C 
BRANCH   6   7
ATOM      7  O   UNL A   1      34.157  28.253  26.332  1.00  0.00    -0.463 OA
BRANCH   7   8
ATOM      8  C   UNL A   1      33.241  28.354  25.336  1.00  0.00     0.309 C 
ATOM      9  O   UNL A   1      32.928  29.424  24.819  1.00  0.00    -0.252 OA
BRANCH   8  10
ATOM     10  C   UNL A   1      32.540  27.048  24.926  1.00  0.00     0.110 C 
ATOM     11  C   UNL A   1      32.761  25.678  25.607  1.00  0.00     0.075 C 
ATOM     12  C   UNL A   1      31.421  24.944  25.409  1.00  0.00     0.013 C 
ATOM     13  C   UNL A   1      30.340  25.991  25.259  1.00  0.00     0.002 C 
ATOM     14  C   UNL A   1      31.046  27.327  25.162  1.00  0.00     0.016 C 
BRANCH  11  15
ATOM     15  C   UNL A   1      33.811  24.600  25.198  1.00  0.00     0.167 C 
ATOM     16  O   UNL A   1      34.954  24.987  24.928  1.00  0.00    -0.294 OA
BRANCH  15  17
ATOM     17  C   UNL A   1      33.583  23.111  25.220  1.00  0.00     0.021 A 
ATOM     18  C   UNL A   1      32.912  18.825  25.376  1.00  0.00     0.044 C 
ATOM     19  C   UNL A   1      33.158  20.304  25.333  1.00  0.00    -0.051 A 
ATOM     20  C   UNL A   1      33.531  21.015  26.472  1.00  0.00     0.004 A 
ATOM     21  C   UNL A   1      33.042  20.992  24.126  1.00  0.00     0.007 A 
ATOM     22  C   UNL A   1      33.763  22.395  26.409  1.00  0.00     0.012 A 
ATOM     23  C   UNL A   1      33.264  22.383  24.043  1.00  0.00    -0.040 A 
ATOM     24  C   UNL A   1      33.204  22.967  22.654  1.00  0.00     0.045 C 
ENDBRANCH  15  17
ENDBRANCH  11  15
ENDBRANCH   8  10
ENDBRANCH   7   8
ENDBRANCH   6   7
ENDBRANCH   5   6
ENDBRANCH   4   5
ENDBRANCH   3   4
ENDBRANCH   2   3
ENDBRANCH   1   2
BRANCH   1  25
ATOM     25  C   UNL A   1      34.573  34.929  29.633  1.00  0.00     0.188 C 
BRANCH  25  26
ATOM     26  C   UNL A   1      33.712  34.232  30.704  1.00  0.00     0.188 C 
BRANCH  26  27
ATOM     27  O   UNL A   1      33.995  32.915  31.168  1.00  0.00    -0.376 OA
BRANCH  27  28
ATOM     28  C   UNL A   1      34.748  32.694  32.346  1.00  0.00     0.202 C 
BRANCH  28  29
ATOM     29  C   UNL A   1      36.264  32.515  32.263  1.00  0.00     0.261 C 
BRANCH  29  30
ATOM     30  O   UNL A   1      36.693  31.419  31.453  1.00  0.00    -0.460 OA
BRANCH  30  31
ATOM     31  C   UNL A   1      37.159  31.776  30.241  1.00  0.00     0.338 C 
ATOM     32  O   UNL A   1      36.823  32.738  29.558  1.00  0.00    -0.246 OA
BRANCH  31  33
ATOM     33  C   UNL A   1      38.287  30.909  29.886  1.00  0.00     0.060 A 
ATOM     34  C   UNL A   1      39.262  30.682  30.864  1.00  0.00     0.016 A 
ATOM     35  C   UNL A   1      38.410  30.371  28.602  1.00  0.00     0.016 A 
ATOM     36  C   UNL A   1      40.394  29.949  30.552  1.00  0.00     0.010 A 
ATOM     37  C   UNL A   1      39.565  29.663  28.278  1.00  0.00     0.010 A 
ATOM     38  C   UNL A   1      40.574  29.494  29.241  1.00  0.00    -0.014 A 
BRANCH  38  39
ATOM     39  C   UNL A   1      41.927  29.073  28.837  1.00  0.00     0.031 A 
ATOM     40  C   UNL A   1      42.124  27.639  28.440  1.00  0.00     0.074 A 
ATOM     41  C   UNL A   1      42.921  29.970  28.753  1.00  0.00     0.049 A 
ATOM     42  N   UNL A   1      43.208  27.027  28.046  1.00  0.00    -0.248 NA
ATOM     43  C   UNL A   1      40.929  26.777  28.491  1.00  0.00     0.031 C 
ATOM     44  C   UNL A   1      42.799  31.396  29.051  1.00  0.00     0.029 A 
ATOM     45  N   UNL A   1      44.228  29.808  28.383  1.00  0.00    -0.354 N 
ATOM     46  C   UNL A   1      42.828  25.712  27.806  1.00  0.00     0.074 A 
ATOM     47  C   UNL A   1      41.425  25.603  28.134  1.00  0.00     0.031 C 
ATOM     48  C   UNL A   1      43.992  31.982  28.855  1.00  0.00     0.029 A 
ATOM     49  C   UNL A   1      44.961  30.966  28.454  1.00  0.00     0.049 A 
ATOM     50  H   UNL A   1      44.606  28.947  28.095  1.00  0.00     0.167 HD
ATOM     51  C   UNL A   1      43.584  24.691  27.344  1.00  0.00     0.037 A 
ATOM     52  C   UNL A   1      46.274  31.163  28.237  1.00  0.00     0.037 A 
ATOM     53  C   UNL A   1      44.984  24.821  27.037  1.00  0.00     0.049 A 
ATOM     54  C   UNL A   1      47.119  29.987  27.821  1.00  0.00     0.074 A 
ATOM     55  C   UNL A   1      45.860  23.858  26.573  1.00  0.00     0.029 A 
ATOM     56  N   UNL A   1      45.711  25.995  27.179  1.00  0.00    -0.354 N 
ATOM     57  N   UNL A   1      46.757  28.746  27.590  1.00  0.00    -0.248 NA
ATOM     58  C   UNL A   1      48.554  30.239  27.636  1.00  0.00     0.031 C 
ATOM     59  C   UNL A   1      47.132  24.436  26.490  1.00  0.00     0.029 A 
ATOM     60  C   UNL A   1      47.034  25.776  26.837  1.00  0.00     0.049 A 
ATOM     61  H   UNL A   1      45.341  26.857  27.477  1.00  0.00     0.167 HD
ATOM     62  C   UNL A   1      47.910  28.077  27.200  1.00  0.00     0.074 A 
ATOM     63  C   UNL A   1      48.980  29.056  27.214  1.00  0.00     0.031 C 
ATOM     64  C   UNL A   1      48.074  26.775  26.856  1.00  0.00     0.037 A 
BRANCH  51  65
ATOM     65  C   UNL A   1      42.920  23.354  27.190  1.00  0.00     0.057 A 
ATOM     66  C   UNL A   1      42.679  22.510  28.285  1.00  0.00     0.134 A 
ATOM     67  C   UNL A   1      42.523  22.897  25.928  1.00  0.00     0.134 A 
ATOM     68  F   UNL A   1      43.052  22.876  29.520  1.00  0.00    -0.206 F 
ATOM     69  C   UNL A   1      42.096  21.251  28.124  1.00  0.00     0.040 A 
ATOM     70  C   UNL A   1      41.911  21.653  25.758  1.00  0.00     0.040 A 
ATOM     71  F   UNL A   1      42.724  23.649  24.836  1.00  0.00    -0.206 F 
ATOM     72  C   UNL A   1      41.705  20.823  26.858  1.00  0.00     0.006 A 
ENDBRANCH  51  65
BRANCH  52  73
ATOM     73  C   UNL A   1      46.866  32.512  28.413  1.00  0.00     0.057 A 
ATOM     74  C   UNL A   1      47.356  32.934  29.653  1.00  0.00     0.134 A 
ATOM     75  C   UNL A   1      46.949  33.418  27.347  1.00  0.00     0.134 A 
ATOM     76  F   UNL A   1      47.290  32.121  30.717  1.00  0.00    -0.206 F 
ATOM     77  C   UNL A   1      47.888  34.212  29.833  1.00  0.00     0.040 A 
ATOM     78  C   UNL A   1      47.504  34.688  27.505  1.00  0.00     0.040 A 
ATOM     79  F   UNL A   1      46.502  33.075  26.129  1.00  0.00    -0.206 F 
ATOM     80  C   UNL A   1      47.969  35.091  28.755  1.00  0.00     0.006 A 
ENDBRANCH  52  73
BRANCH  64  81
ATOM     81  C   UNL A   1      49.448  26.350  26.428  1.00  0.00     0.057 A 
ATOM     82  C   UNL A   1      50.316  25.662  27.286  1.00  0.00     0.134 A 
ATOM     83  C   UNL A   1      49.891  26.598  25.122  1.00  0.00     0.134 A 
ATOM     84  F   UNL A   1      49.957  25.404  28.553  1.00  0.00    -0.206 F 
ATOM     85  C   UNL A   1      51.586  25.262  26.869  1.00  0.00     0.040 A 
ATOM     86  C   UNL A   1      51.146  26.173  24.684  1.00  0.00     0.040 A 
ATOM     87  F   UNL A   1      49.104  27.241  24.246  1.00  0.00    -0.206 F 
ATOM     88  C   UNL A   1      52.000  25.511  25.561  1.00  0.00     0.006 A 
ENDBRANCH  64  81
ENDBRANCH  38  39
ENDBRANCH  31  33
ENDBRANCH  30  31
ENDBRANCH  29  30
ENDBRANCH  28  29
ENDBRANCH  27  28
ENDBRANCH  26  27
ENDBRANCH  25  26
ENDBRANCH   1  25
TORSDOF 22
ENDMDL
MODEL 2
REMARK VINA RESULT:      -9.0      3.706      7.283
REMARK SMILES Cc1ccc(C(=O)[C@@H]2CCC[C@H]2C(=O)OCCOCCOCCOCCOC(=O)c2ccc(-c3c4nc(c(-c5c(F)cccc5F)c5ccc([nH]5)c(-c5c(F)cccc5F)c5nc(c(-c6c(F)cccc6F)c6ccc3[nH]6)C=C5)C=C4)cc2)c(C)c1
REMARK SMILES IDX 21 1 20 2 19 3 18 4 17 5 16 6 15 7 13 8 14 9 12 10 8 11 9 12
REMARK SMILES IDX 10 13 11 14 6 15 7 16 5 17 1 18 2 19 3 20 86 21 4 22 84 23
REMARK SMILES IDX 85 24 22 25 23 26 24 27 25 28 26 29 27 30 28 31 29 32 30 33
REMARK SMILES IDX 31 34 83 35 32 36 82 37 33 38 34 39 35 40 76 41 36 42 81 43
REMARK SMILES IDX 75 44 77 45 37 46 80 47 74 48 73 49 38 51 64 52 47 53 63 54
REMARK SMILES IDX 48 55 51 56 62 57 78 58 49 59 50 60 61 62 79 63 52 64 39 65
REMARK SMILES IDX 40 66 45 67 41 68 42 69 44 70 46 71 43 72 65 73 66 74 71 75
REMARK SMILES IDX 67 76 68 77 70 78 72 79 69 80 53 81 54 82 59 83 55 84 56 85
REMARK SMILES IDX 58 86 60 87 57 88
REMARK H PARENT 77 50 51 61
REMARK Flexibility Score: inf
ROOT
ATOM      1  O   UNL A   1      33.648  34.243  31.189  1.00  0.00    -0.377 OA
ENDROOT
BRANCH   1   2
ATOM      2  C   UNL A   1      34.491  34.491  32.295  1.00  0.00     0.188 C 
BRANCH   2   3
ATOM      3  C   UNL A   1      35.894  33.922  32.472  1.00  0.00     0.188 C 
BRANCH   3   4
ATOM      4  O   UNL A   1      36.843  34.519  31.628  1.00  0.00    -0.376 OA
BRANCH   4   5
ATOM      5  C   UNL A   1      38.210  34.197  31.702  1.00  0.00     0.202 C 
BRANCH   5   6
ATOM      6  C   UNL A   1      39.163  34.671  32.821  1.00  0.00     0.261 C 
BRANCH   6   7
ATOM      7  O   UNL A   1      38.636  35.112  34.086  1.00  0.00    -0.463 OA
BRANCH   7   8
ATOM      8  C   UNL A   1      39.500  35.081  35.133  1.00  0.00     0.309 C 
ATOM      9  O   UNL A   1      39.708  36.050  35.860  1.00  0.00    -0.252 OA
BRANCH   8  10
ATOM     10  C   UNL A   1      40.283  33.772  35.325  1.00  0.00     0.110 C 
ATOM     11  C   UNL A   1      41.801  33.608  35.081  1.00  0.00     0.075 C 
ATOM     12  C   UNL A   1      42.215  32.487  36.054  1.00  0.00     0.013 C 
ATOM     13  C   UNL A   1      41.229  32.485  37.201  1.00  0.00     0.002 C 
ATOM     14  C   UNL A   1      40.125  33.449  36.821  1.00  0.00     0.016 C 
BRANCH  11  15
ATOM     15  C   UNL A   1      42.483  33.179  33.747  1.00  0.00     0.167 C 
ATOM     16  O   UNL A   1      42.903  34.073  33.004  1.00  0.00    -0.294 OA
BRANCH  15  17
ATOM     17  C   UNL A   1      42.782  31.759  33.339  1.00  0.00     0.021 A 
ATOM     18  C   UNL A   1      43.726  27.673  32.218  1.00  0.00     0.044 C 
ATOM     19  C   UNL A   1      43.415  29.091  32.597  1.00  0.00    -0.051 A 
ATOM     20  C   UNL A   1      44.410  29.967  33.025  1.00  0.00     0.004 A 
ATOM     21  C   UNL A   1      42.107  29.566  32.498  1.00  0.00     0.007 A 
ATOM     22  C   UNL A   1      44.100  31.289  33.368  1.00  0.00     0.012 A 
ATOM     23  C   UNL A   1      41.773  30.891  32.846  1.00  0.00    -0.040 A 
ATOM     24  C   UNL A   1      40.341  31.288  32.586  1.00  0.00     0.045 C 
ENDBRANCH  15  17
ENDBRANCH  11  15
ENDBRANCH   8  10
ENDBRANCH   7   8
ENDBRANCH   6   7
ENDBRANCH   5   6
ENDBRANCH   4   5
ENDBRANCH   3   4
ENDBRANCH   2   3
ENDBRANCH   1   2
BRANCH   1  25
ATOM     25  C   UNL A   1      33.549  35.183  30.146  1.00  0.00     0.188 C 
BRANCH  25  26
ATOM     26  C   UNL A   1      33.373  34.591  28.734  1.00  0.00     0.188 C 
BRANCH  26  27
ATOM     27  O   UNL A   1      34.447  33.975  28.029  1.00  0.00    -0.376 OA
BRANCH  27  28
ATOM     28  C   UNL A   1      34.660  32.577  28.084  1.00  0.00     0.202 C 
BRANCH  28  29
ATOM     29  C   UNL A   1      35.006  31.907  29.414  1.00  0.00     0.261 C 
BRANCH  29  30
ATOM     30  O   UNL A   1      35.621  30.624  29.293  1.00  0.00    -0.460 OA
BRANCH  30  31
ATOM     31  C   UNL A   1      36.394  30.279  30.343  1.00  0.00     0.338 C 
ATOM     32  O   UNL A   1      36.138  30.396  31.536  1.00  0.00    -0.246 OA
BRANCH  31  33
ATOM     33  C   UNL A   1      37.580  29.570  29.852  1.00  0.00     0.060 A 
ATOM     34  C   UNL A   1      38.378  28.913  30.795  1.00  0.00     0.016 A 
ATOM     35  C   UNL A   1      37.929  29.595  28.499  1.00  0.00     0.016 A 
ATOM     36  C   UNL A   1      39.560  28.310  30.398  1.00  0.00     0.010 A 
ATOM     37  C   UNL A   1      39.135  29.019  28.105  1.00  0.00     0.010 A 
ATOM     38  C   UNL A   1      39.967  28.418  29.064  1.00  0.00    -0.014 A 
BRANCH  38  39
ATOM     39  C   UNL A   1      41.377  28.125  28.749  1.00  0.00     0.031 A 
ATOM     40  C   UNL A   1      41.720  26.731  28.311  1.00  0.00     0.074 A 
ATOM     41  C   UNL A   1      42.297  29.102  28.777  1.00  0.00     0.049 A 
ATOM     42  N   UNL A   1      42.877  26.226  27.978  1.00  0.00    -0.248 NA
ATOM     43  C   UNL A   1      40.600  25.775  28.237  1.00  0.00     0.031 C 
ATOM     44  C   UNL A   1      42.035  30.498  29.122  1.00  0.00     0.029 A 
ATOM     45  N   UNL A   1      43.636  29.061  28.503  1.00  0.00    -0.354 N 
ATOM     46  C   UNL A   1      42.625  24.898  27.657  1.00  0.00     0.074 A 
ATOM     47  C   UNL A   1      41.216  24.662  27.872  1.00  0.00     0.031 C 
ATOM     48  C   UNL A   1      43.187  31.185  29.041  1.00  0.00     0.029 A 
ATOM     49  C   UNL A   1      44.264  30.269  28.676  1.00  0.00     0.049 A 
ATOM     50  H   UNL A   1      44.104  28.246  28.210  1.00  0.00     0.167 HD
ATOM     51  C   UNL A   1      43.496  23.962  27.214  1.00  0.00     0.037 A 
ATOM     52  C   UNL A   1      45.568  30.579  28.567  1.00  0.00     0.037 A 
ATOM     53  C   UNL A   1      44.898  24.217  27.021  1.00  0.00     0.049 A 
ATOM     54  C   UNL A   1      46.536  29.494  28.172  1.00  0.00     0.074 A 
ATOM     55  C   UNL A   1      45.883  23.349  26.588  1.00  0.00     0.029 A 
ATOM     56  N   UNL A   1      45.514  25.438  27.265  1.00  0.00    -0.354 N 
ATOM     57  N   UNL A   1      46.295  28.241  27.864  1.00  0.00    -0.248 NA
ATOM     58  C   UNL A   1      47.954  29.868  28.107  1.00  0.00     0.031 C 
ATOM     59  C   UNL A   1      47.105  24.030  26.626  1.00  0.00     0.029 A 
ATOM     60  C   UNL A   1      46.872  25.339  27.017  1.00  0.00     0.049 A 
ATOM     61  H   UNL A   1      45.053  26.253  27.568  1.00  0.00     0.167 HD
ATOM     62  C   UNL A   1      47.525  27.684  27.538  1.00  0.00     0.074 A 
ATOM     63  C   UNL A   1      48.507  28.744  27.672  1.00  0.00     0.031 C 
ATOM     64  C   UNL A   1      47.821  26.416  27.156  1.00  0.00     0.037 A 
BRANCH  51  65
ATOM     65  C   UNL A   1      42.957  22.584  26.957  1.00  0.00     0.057 A 
ATOM     66  C   UNL A   1      42.696  21.680  27.997  1.00  0.00     0.134 A 
ATOM     67  C   UNL A   1      42.705  22.151  25.650  1.00  0.00     0.134 A 
ATOM     68  F   UNL A   1      42.935  22.022  29.272  1.00  0.00    -0.206 F 
ATOM     69  C   UNL A   1      42.232  20.387  27.742  1.00  0.00     0.040 A 
ATOM     70  C   UNL A   1      42.212  20.871  25.385  1.00  0.00     0.040 A 
ATOM     71  F   UNL A   1      42.933  22.962  24.607  1.00  0.00    -0.206 F 
ATOM     72  C   UNL A   1      41.984  19.982  26.433  1.00  0.00     0.006 A 
ENDBRANCH  51  65
BRANCH  52  73
ATOM     73  C   UNL A   1      46.032  31.962  28.841  1.00  0.00     0.057 A 
ATOM     74  C   UNL A   1      46.056  32.933  27.834  1.00  0.00     0.134 A 
ATOM     75  C   UNL A   1      46.471  32.346  30.115  1.00  0.00     0.134 A 
ATOM     76  F   UNL A   1      45.665  32.624  26.590  1.00  0.00    -0.206 F 
ATOM     77  C   UNL A   1      46.518  34.228  28.077  1.00  0.00     0.040 A 
ATOM     78  C   UNL A   1      46.909  33.644  30.380  1.00  0.00     0.040 A 
ATOM     79  F   UNL A   1      46.469  31.465  31.128  1.00  0.00    -0.206 F 
ATOM     80  C   UNL A   1      46.941  34.588  29.355  1.00  0.00     0.006 A 
ENDBRANCH  52  73
BRANCH  64  81
ATOM     81  C   UNL A   1      49.253  26.122  26.818  1.00  0.00     0.057 A 
ATOM     82  C   UNL A   1      49.796  26.410  25.559  1.00  0.00     0.134 A 
ATOM     83  C   UNL A   1      50.112  25.579  27.783  1.00  0.00     0.134 A 
ATOM     84  F   UNL A   1      49.024  26.920  24.587  1.00  0.00    -0.206 F 
ATOM     85  C   UNL A   1      51.133  26.143  25.264  1.00  0.00     0.040 A 
ATOM     86  C   UNL A   1      51.459  25.339  27.510  1.00  0.00     0.040 A 
ATOM     87  F   UNL A   1      49.659  25.291  29.013  1.00  0.00    -0.206 F 
ATOM     88  C   UNL A   1      51.970  25.613  26.245  1.00  0.00     0.006 A 
ENDBRANCH  64  81
ENDBRANCH  38  39
ENDBRANCH  31  33
ENDBRANCH  30  31
ENDBRANCH  29  30
ENDBRANCH  28  29
ENDBRANCH  27  28
ENDBRANCH  26  27
ENDBRANCH  25  26
ENDBRANCH   1  25
TORSDOF 22
ENDMDL
MODEL 3
REMARK VINA RESULT:      -8.8      3.768      9.302
REMARK SMILES Cc1ccc(C(=O)[C@@H]2CCC[C@H]2C(=O)OCCOCCOCCOCCOC(=O)c2ccc(-c3c4nc(c(-c5c(F)cccc5F)c5ccc([nH]5)c(-c5c(F)cccc5F)c5nc(c(-c6c(F)cccc6F)c6ccc3[nH]6)C=C5)C=C4)cc2)c(C)c1
REMARK SMILES IDX 21 1 20 2 19 3 18 4 17 5 16 6 15 7 13 8 14 9 12 10 8 11 9 12
REMARK SMILES IDX 10 13 11 14 6 15 7 16 5 17 1 18 2 19 3 20 86 21 4 22 84 23
REMARK SMILES IDX 85 24 22 25 23 26 24 27 25 28 26 29 27 30 28 31 29 32 30 33
REMARK SMILES IDX 31 34 83 35 32 36 82 37 33 38 34 39 35 40 76 41 36 42 81 43
REMARK SMILES IDX 75 44 77 45 37 46 80 47 74 48 73 49 38 51 64 52 47 53 63 54
REMARK SMILES IDX 48 55 51 56 62 57 78 58 49 59 50 60 61 62 79 63 52 64 39 65
REMARK SMILES IDX 40 66 45 67 41 68 42 69 44 70 46 71 43 72 65 73 66 74 71 75
REMARK SMILES IDX 67 76 68 77 70 78 72 79 69 80 53 81 54 82 59 83 55 84 56 85
REMARK SMILES IDX 58 86 60 87 57 88
REMARK H PARENT 77 50 51 61
REMARK Flexibility Score: inf
ROOT
ATOM      1  O   UNL A   1      33.210  34.773  30.969  1.00  0.00    -0.377 OA
ENDROOT
BRANCH   1   2
ATOM      2  C   UNL A   1      33.744  35.430  32.099  1.00  0.00     0.188 C 
BRANCH   2   3
ATOM      3  C   UNL A   1      34.949  34.953  32.903  1.00  0.00     0.188 C 
BRANCH   3   4
ATOM      4  O   UNL A   1      35.224  33.589  32.727  1.00  0.00    -0.376 OA
BRANCH   4   5
ATOM      5  C   UNL A   1      35.845  32.820  33.728  1.00  0.00     0.202 C 
BRANCH   5   6
ATOM      6  C   UNL A   1      37.340  32.434  33.736  1.00  0.00     0.261 C 
BRANCH   6   7
ATOM      7  O   UNL A   1      37.775  31.223  34.381  1.00  0.00    -0.463 OA
BRANCH   7   8
ATOM      8  C   UNL A   1      38.330  31.370  35.612  1.00  0.00     0.309 C 
ATOM      9  O   UNL A   1      37.685  31.272  36.653  1.00  0.00    -0.252 OA
BRANCH   8  10
ATOM     10  C   UNL A   1      39.819  31.751  35.642  1.00  0.00     0.110 C 
ATOM     11  C   UNL A   1      40.482  32.789  34.707  1.00  0.00     0.075 C 
ATOM     12  C   UNL A   1      41.652  33.346  35.541  1.00  0.00     0.013 C 
ATOM     13  C   UNL A   1      41.298  33.176  37.002  1.00  0.00     0.002 C 
ATOM     14  C   UNL A   1      40.032  32.346  37.044  1.00  0.00     0.016 C 
BRANCH  11  15
ATOM     15  C   UNL A   1      41.147  32.499  33.327  1.00  0.00     0.167 C 
ATOM     16  O   UNL A   1      40.652  33.033  32.328  1.00  0.00    -0.294 OA
BRANCH  15  17
ATOM     17  C   UNL A   1      42.419  31.718  33.120  1.00  0.00     0.021 A 
ATOM     18  C   UNL A   1      46.133  29.548  32.535  1.00  0.00     0.044 C 
ATOM     19  C   UNL A   1      44.853  30.308  32.722  1.00  0.00    -0.051 A 
ATOM     20  C   UNL A   1      44.779  31.680  32.495  1.00  0.00     0.004 A 
ATOM     21  C   UNL A   1      43.695  29.632  33.105  1.00  0.00     0.007 A 
ATOM     22  C   UNL A   1      43.573  32.370  32.669  1.00  0.00     0.012 A 
ATOM     23  C   UNL A   1      42.472  30.310  33.293  1.00  0.00    -0.040 A 
ATOM     24  C   UNL A   1      41.286  29.431  33.605  1.00  0.00     0.045 C 
ENDBRANCH  15  17
ENDBRANCH  11  15
ENDBRANCH   8  10
ENDBRANCH   7   8
ENDBRANCH   6   7
ENDBRANCH   5   6
ENDBRANCH   4   5
ENDBRANCH   3   4
ENDBRANCH   2   3
ENDBRANCH   1   2
BRANCH   1  25
ATOM     25  C   UNL A   1      33.166  35.423  29.722  1.00  0.00     0.188 C 
BRANCH  25  26
ATOM     26  C   UNL A   1      33.361  34.517  28.492  1.00  0.00     0.188 C 
BRANCH  26  27
ATOM     27  O   UNL A   1      34.648  34.076  28.068  1.00  0.00    -0.376 OA
BRANCH  27  28
ATOM     28  C   UNL A   1      34.990  32.703  28.055  1.00  0.00     0.202 C 
BRANCH  28  29
ATOM     29  C   UNL A   1      35.210  31.954  29.370  1.00  0.00     0.261 C 
BRANCH  29  30
ATOM     30  O   UNL A   1      35.723  30.630  29.224  1.00  0.00    -0.460 OA
BRANCH  30  31
ATOM     31  C   UNL A   1      36.438  30.194  30.280  1.00  0.00     0.338 C 
ATOM     32  O   UNL A   1      36.017  29.772  31.351  1.00  0.00    -0.246 OA
BRANCH  31  33
ATOM     33  C   UNL A   1      37.856  30.144  29.911  1.00  0.00     0.060 A 
ATOM     34  C   UNL A   1      38.167  29.978  28.556  1.00  0.00     0.016 A 
ATOM     35  C   UNL A   1      38.859  30.207  30.882  1.00  0.00     0.016 A 
ATOM     36  C   UNL A   1      39.487  29.829  28.165  1.00  0.00     0.010 A 
ATOM     37  C   UNL A   1      40.184  30.022  30.493  1.00  0.00     0.010 A 
ATOM     38  C   UNL A   1      40.489  29.788  29.141  1.00  0.00    -0.014 A 
BRANCH  38  39
ATOM     39  C   UNL A   1      41.804  29.246  28.756  1.00  0.00     0.031 A 
ATOM     40  C   UNL A   1      42.979  30.180  28.780  1.00  0.00     0.074 A 
ATOM     41  C   UNL A   1      41.946  27.942  28.476  1.00  0.00     0.049 A 
ATOM     42  N   UNL A   1      44.231  29.947  28.490  1.00  0.00    -0.248 NA
ATOM     43  C   UNL A   1      42.703  31.568  29.193  1.00  0.00     0.031 C 
ATOM     44  C   UNL A   1      40.871  26.952  28.499  1.00  0.00     0.029 A 
ATOM     45  N   UNL A   1      43.060  27.230  28.125  1.00  0.00    -0.354 N 
ATOM     46  C   UNL A   1      44.888  31.157  28.682  1.00  0.00     0.074 A 
ATOM     47  C   UNL A   1      43.895  32.129  29.075  1.00  0.00     0.031 C 
ATOM     48  C   UNL A   1      41.381  25.753  28.170  1.00  0.00     0.029 A 
ATOM     49  C   UNL A   1      42.804  25.905  27.880  1.00  0.00     0.049 A 
ATOM     50  H   UNL A   1      43.956  27.629  28.054  1.00  0.00     0.167 HD
ATOM     51  C   UNL A   1      46.207  31.425  28.549  1.00  0.00     0.037 A 
ATOM     52  C   UNL A   1      43.635  24.937  27.450  1.00  0.00     0.037 A 
ATOM     53  C   UNL A   1      47.176  30.442  28.143  1.00  0.00     0.049 A 
ATOM     54  C   UNL A   1      45.081  25.285  27.210  1.00  0.00     0.074 A 
ATOM     55  C   UNL A   1      48.537  30.593  27.962  1.00  0.00     0.029 A 
ATOM     56  N   UNL A   1      46.873  29.120  27.843  1.00  0.00    -0.354 N 
ATOM     57  N   UNL A   1      45.701  26.426  27.397  1.00  0.00    -0.248 NA
ATOM     58  C   UNL A   1      45.941  24.209  26.701  1.00  0.00     0.031 C 
ATOM     59  C   UNL A   1      49.049  29.377  27.495  1.00  0.00     0.029 A 
ATOM     60  C   UNL A   1      48.018  28.450  27.451  1.00  0.00     0.049 A 
ATOM     61  H   UNL A   1      45.976  28.719  27.902  1.00  0.00     0.167 HD
ATOM     62  C   UNL A   1      47.030  26.200  27.061  1.00  0.00     0.074 A 
ATOM     63  C   UNL A   1      47.125  24.805  26.672  1.00  0.00     0.031 C 
ATOM     64  C   UNL A   1      48.079  27.059  27.075  1.00  0.00     0.037 A 
BRANCH  51  65
ATOM     65  C   UNL A   1      46.654  32.835  28.803  1.00  0.00     0.057 A 
ATOM     66  C   UNL A   1      47.234  33.227  30.018  1.00  0.00     0.134 A 
ATOM     67  C   UNL A   1      46.495  33.820  27.821  1.00  0.00     0.134 A 
ATOM     68  F   UNL A   1      47.398  32.340  31.011  1.00  0.00    -0.206 F 
ATOM     69  C   UNL A   1      47.610  34.551  30.256  1.00  0.00     0.040 A 
ATOM     70  C   UNL A   1      46.895  35.141  28.035  1.00  0.00     0.040 A 
ATOM     71  F   UNL A   1      45.945  33.518  26.635  1.00  0.00    -0.206 F 
ATOM     72  C   UNL A   1      47.445  35.511  29.260  1.00  0.00     0.006 A 
ENDBRANCH  51  65
BRANCH  52  73
ATOM     73  C   UNL A   1      43.123  23.564  27.215  1.00  0.00     0.057 A 
ATOM     74  C   UNL A   1      42.821  23.113  25.925  1.00  0.00     0.134 A 
ATOM     75  C   UNL A   1      42.915  22.670  28.274  1.00  0.00     0.134 A 
ATOM     76  F   UNL A   1      42.982  23.926  24.871  1.00  0.00    -0.206 F 
ATOM     77  C   UNL A   1      42.312  21.833  25.698  1.00  0.00     0.040 A 
ATOM     78  C   UNL A   1      42.435  21.379  28.059  1.00  0.00     0.040 A 
ATOM     79  F   UNL A   1      43.189  23.038  29.535  1.00  0.00    -0.206 F 
ATOM     80  C   UNL A   1      42.123  20.959  26.767  1.00  0.00     0.006 A 
ENDBRANCH  52  73
BRANCH  64  81
ATOM     81  C   UNL A   1      49.422  26.503  26.700  1.00  0.00     0.057 A 
ATOM     82  C   UNL A   1      50.259  25.884  27.637  1.00  0.00     0.134 A 
ATOM     83  C   UNL A   1      49.863  26.553  25.371  1.00  0.00     0.134 A 
ATOM     84  F   UNL A   1      49.901  25.815  28.928  1.00  0.00    -0.206 F 
ATOM     85  C   UNL A   1      51.500  25.360  27.271  1.00  0.00     0.040 A 
ATOM     86  C   UNL A   1      51.086  26.003  24.987  1.00  0.00     0.040 A 
ATOM     87  F   UNL A   1      49.104  27.121  24.422  1.00  0.00    -0.206 F 
ATOM     88  C   UNL A   1      51.912  25.412  25.940  1.00  0.00     0.006 A 
ENDBRANCH  64  81
ENDBRANCH  38  39
ENDBRANCH  31  33
ENDBRANCH  30  31
ENDBRANCH  29  30
ENDBRANCH  28  29
ENDBRANCH  27  28
ENDBRANCH  26  27
ENDBRANCH  25  26
ENDBRANCH   1  25
TORSDOF 22
ENDMDL
