MODEL 1
REMARK VINA RESULT:     -10.1      0.000      0.000
REMARK SMILES N#C/C(=C\c1ccc(-c2cc(C(F)(F)F)ccc2Cl)o1)C(=O)OCCOCCOCCOCCOC(=O)c1ccc(-c2c3nc(c(-c4c(F)cccc4F)c4ccc([nH]4)c(-c4c(F)cccc4F)c4nc(c(-c5c(F)cccc5F)c5ccc2[nH]5)C=C4)C=C3)cc1
REMARK SMILES IDX 28 1 27 2 26 3 25 4 24 5 23 6 21 7 22 8 3 9 4 10 2 11 1 12
REMARK SMILES IDX 5 13 6 14 20 15 7 16 8 17 9 18 10 19 18 20 11 21 17 22 19 23
REMARK SMILES IDX 16 24 12 25 13 26 14 27 15 28 29 29 30 30 31 31 32 32 33 33
REMARK SMILES IDX 34 34 35 35 36 36 37 37 38 38 39 39 91 40 40 41 90 42 41 43
REMARK SMILES IDX 42 44 43 45 84 46 44 47 89 48 83 49 85 50 45 51 88 52 82 53
REMARK SMILES IDX 81 54 46 56 72 57 55 58 71 59 56 60 59 61 70 62 86 63 57 64
REMARK SMILES IDX 58 65 69 67 87 68 60 69 47 70 48 71 53 72 49 73 50 74 52 75
REMARK SMILES IDX 54 76 51 77 73 78 74 79 79 80 75 81 76 82 78 83 80 84 77 85
REMARK SMILES IDX 61 86 62 87 67 88 63 89 64 90 66 91 68 92 65 93
REMARK H PARENT 85 55 59 66
REMARK Flexibility Score: inf
ROOT
ATOM      1  C   UNL A   1      34.097  26.222  25.122  1.00  0.00     0.188 C 
ENDROOT
BRANCH   1   2
ATOM      2  C   UNL A   1      33.705  27.363  26.084  1.00  0.00     0.188 C 
BRANCH   2   3
ATOM      3  O   UNL A   1      33.684  28.704  25.631  1.00  0.00    -0.376 OA
BRANCH   3   4
ATOM      4  C   UNL A   1      32.583  29.366  25.028  1.00  0.00     0.202 C 
BRANCH   4   5
ATOM      5  C   UNL A   1      31.515  28.757  24.102  1.00  0.00     0.261 C 
BRANCH   5   6
ATOM      6  O   UNL A   1      30.508  27.991  24.742  1.00  0.00    -0.459 OA
BRANCH   6   7
ATOM      7  C   UNL A   1      29.781  27.243  23.893  1.00  0.00     0.349 C 
ATOM      8  O   UNL A   1      28.981  27.656  23.068  1.00  0.00    -0.245 OA
BRANCH   7   9
ATOM      9  C   UNL A   1      30.199  25.831  23.976  1.00  0.00     0.141 C 
ATOM     10  C   UNL A   1      30.876  25.351  22.901  1.00  0.00     0.074 C 
BRANCH   9  11
ATOM     11  C   UNL A   1      30.626  25.358  25.356  1.00  0.00     0.107 C 
ATOM     12  N   UNL A   1      30.979  24.965  26.501  1.00  0.00    -0.192 NA
ENDBRANCH   9  11
BRANCH  10  13
ATOM     13  C   UNL A   1      31.871  24.318  23.013  1.00  0.00     0.129 A 
ATOM     14  C   UNL A   1      33.155  24.246  22.480  1.00  0.00     0.051 A 
ATOM     15  O   UNL A   1      31.644  23.115  23.677  1.00  0.00    -0.457 OA
ATOM     16  C   UNL A   1      33.681  22.966  22.754  1.00  0.00     0.051 A 
ATOM     17  C   UNL A   1      32.741  22.314  23.518  1.00  0.00     0.136 A 
BRANCH  17  18
ATOM     18  C   UNL A   1      32.747  20.997  24.156  1.00  0.00     0.036 A 
ATOM     19  C   UNL A   1      32.829  19.826  23.377  1.00  0.00     0.026 A 
ATOM     20  C   UNL A   1      32.794  20.865  25.557  1.00  0.00     0.052 A 
ATOM     21  C   UNL A   1      32.990  18.554  23.976  1.00  0.00     0.056 A 
ATOM     22  C   UNL A   1      32.945  19.610  26.157  1.00  0.00     0.022 A 
ATOM     23  Cl  UNL A   1      32.668  22.223  26.626  1.00  0.00    -0.084 Cl
ATOM     24  C   UNL A   1      33.050  18.463  25.373  1.00  0.00     0.014 A 
BRANCH  21  25
ATOM     25  C   UNL A   1      33.121  17.307  23.127  1.00  0.00     0.416 C 
ATOM     26  F   UNL A   1      34.391  17.107  22.685  1.00  0.00    -0.166 F 
ATOM     27  F   UNL A   1      32.770  16.178  23.801  1.00  0.00    -0.166 F 
ATOM     28  F   UNL A   1      32.337  17.330  22.011  1.00  0.00    -0.166 F 
ENDBRANCH  21  25
ENDBRANCH  17  18
ENDBRANCH  10  13
ENDBRANCH   7   9
ENDBRANCH   6   7
ENDBRANCH   5   6
ENDBRANCH   4   5
ENDBRANCH   3   4
ENDBRANCH   2   3
ENDBRANCH   1   2
BRANCH   1  29
ATOM     29  O   UNL A   1      34.447  25.017  25.762  1.00  0.00    -0.377 OA
BRANCH  29  30
ATOM     30  C   UNL A   1      35.677  24.419  25.376  1.00  0.00     0.188 C 
BRANCH  30  31
ATOM     31  C   UNL A   1      35.957  22.927  25.681  1.00  0.00     0.188 C 
BRANCH  31  32
ATOM     32  O   UNL A   1      36.750  22.236  24.729  1.00  0.00    -0.376 OA
BRANCH  32  33
ATOM     33  C   UNL A   1      36.811  20.818  24.742  1.00  0.00     0.202 C 
BRANCH  33  34
ATOM     34  C   UNL A   1      38.155  20.141  25.066  1.00  0.00     0.261 C 
BRANCH  34  35
ATOM     35  O   UNL A   1      38.706  20.423  26.358  1.00  0.00    -0.460 OA
BRANCH  35  36
ATOM     36  C   UNL A   1      40.045  20.560  26.437  1.00  0.00     0.338 C 
ATOM     37  O   UNL A   1      40.893  19.786  26.027  1.00  0.00    -0.246 OA
BRANCH  36  38
ATOM     38  C   UNL A   1      40.327  21.922  26.930  1.00  0.00     0.060 A 
ATOM     39  C   UNL A   1      39.606  22.997  26.393  1.00  0.00     0.016 A 
ATOM     40  C   UNL A   1      41.287  22.134  27.923  1.00  0.00     0.016 A 
ATOM     41  C   UNL A   1      39.872  24.295  26.819  1.00  0.00     0.010 A 
ATOM     42  C   UNL A   1      41.573  23.438  28.328  1.00  0.00     0.010 A 
ATOM     43  C   UNL A   1      40.894  24.526  27.748  1.00  0.00    -0.014 A 
BRANCH  43  44
ATOM     44  C   UNL A   1      41.403  25.902  27.942  1.00  0.00     0.031 A 
ATOM     45  C   UNL A   1      42.780  26.223  27.430  1.00  0.00     0.074 A 
ATOM     46  C   UNL A   1      40.658  26.852  28.530  1.00  0.00     0.049 A 
ATOM     47  N   UNL A   1      43.469  27.330  27.531  1.00  0.00    -0.248 NA
ATOM     48  C   UNL A   1      43.476  25.143  26.711  1.00  0.00     0.031 C 
ATOM     49  C   UNL A   1      39.295  26.673  29.023  1.00  0.00     0.029 A 
ATOM     50  N   UNL A   1      40.958  28.158  28.821  1.00  0.00    -0.354 N 
ATOM     51  C   UNL A   1      44.677  27.078  26.892  1.00  0.00     0.074 A 
ATOM     52  C   UNL A   1      44.643  25.704  26.444  1.00  0.00     0.031 C 
ATOM     53  C   UNL A   1      38.881  27.826  29.579  1.00  0.00     0.029 A 
ATOM     54  C   UNL A   1      39.963  28.808  29.509  1.00  0.00     0.049 A 
ATOM     55  H   UNL A   1      41.805  28.589  28.562  1.00  0.00     0.167 HD
ATOM     56  C   UNL A   1      45.716  27.921  26.688  1.00  0.00     0.037 A 
ATOM     57  C   UNL A   1      39.945  30.043  30.047  1.00  0.00     0.037 A 
ATOM     58  C   UNL A   1      45.751  29.283  27.149  1.00  0.00     0.049 A 
ATOM     59  C   UNL A   1      41.149  30.937  29.886  1.00  0.00     0.074 A 
ATOM     60  C   UNL A   1      46.755  30.221  26.995  1.00  0.00     0.029 A 
ATOM     61  N   UNL A   1      44.735  29.897  27.868  1.00  0.00    -0.354 N 
ATOM     62  N   UNL A   1      42.280  30.700  29.266  1.00  0.00    -0.248 NA
ATOM     63  C   UNL A   1      41.070  32.273  30.495  1.00  0.00     0.031 C 
ATOM     64  C   UNL A   1      46.373  31.385  27.670  1.00  0.00     0.029 A 
ATOM     65  C   UNL A   1      45.101  31.194  28.187  1.00  0.00     0.049 A 
ATOM     66  H   UNL A   1      43.880  29.474  28.114  1.00  0.00     0.167 HD
ATOM     67  C   UNL A   1      43.033  31.863  29.384  1.00  0.00     0.074 A 
ATOM     68  C   UNL A   1      42.224  32.808  30.124  1.00  0.00     0.031 C 
ATOM     69  C   UNL A   1      44.280  32.126  28.920  1.00  0.00     0.037 A 
BRANCH  56  70
ATOM     70  C   UNL A   1      46.911  27.373  25.962  1.00  0.00     0.057 A 
ATOM     71  C   UNL A   1      47.060  27.500  24.574  1.00  0.00     0.134 A 
ATOM     72  C   UNL A   1      47.930  26.715  26.661  1.00  0.00     0.134 A 
ATOM     73  F   UNL A   1      46.112  28.104  23.840  1.00  0.00    -0.206 F 
ATOM     74  C   UNL A   1      48.162  26.965  23.905  1.00  0.00     0.040 A 
ATOM     75  C   UNL A   1      49.053  26.204  26.008  1.00  0.00     0.040 A 
ATOM     76  F   UNL A   1      47.853  26.559  27.991  1.00  0.00    -0.206 F 
ATOM     77  C   UNL A   1      49.166  26.320  24.625  1.00  0.00     0.006 A 
ENDBRANCH  56  70
BRANCH  57  78
ATOM     78  C   UNL A   1      38.758  30.501  30.812  1.00  0.00     0.057 A 
ATOM     79  C   UNL A   1      38.606  30.207  32.171  1.00  0.00     0.134 A 
ATOM     80  C   UNL A   1      37.733  31.231  30.195  1.00  0.00     0.134 A 
ATOM     81  F   UNL A   1      39.539  29.489  32.814  1.00  0.00    -0.206 F 
ATOM     82  C   UNL A   1      37.474  30.605  32.885  1.00  0.00     0.040 A 
ATOM     83  C   UNL A   1      36.610  31.661  30.903  1.00  0.00     0.040 A 
ATOM     84  F   UNL A   1      37.816  31.548  28.894  1.00  0.00    -0.206 F 
ATOM     85  C   UNL A   1      36.475  31.340  32.251  1.00  0.00     0.006 A 
ENDBRANCH  57  78
BRANCH  69  86
ATOM     86  C   UNL A   1      44.833  33.503  29.161  1.00  0.00     0.057 A 
ATOM     87  C   UNL A   1      45.651  33.797  30.260  1.00  0.00     0.134 A 
ATOM     88  C   UNL A   1      44.579  34.539  28.251  1.00  0.00     0.134 A 
ATOM     89  F   UNL A   1      45.926  32.855  31.174  1.00  0.00    -0.206 F 
ATOM     90  C   UNL A   1      46.173  35.076  30.459  1.00  0.00     0.040 A 
ATOM     91  C   UNL A   1      45.121  35.814  28.423  1.00  0.00     0.040 A 
ATOM     92  F   UNL A   1      43.814  34.325  27.170  1.00  0.00    -0.206 F 
ATOM     93  C   UNL A   1      45.916  36.086  29.535  1.00  0.00     0.006 A 
ENDBRANCH  69  86
ENDBRANCH  43  44
ENDBRANCH  36  38
ENDBRANCH  35  36
ENDBRANCH  34  35
ENDBRANCH  33  34
ENDBRANCH  32  33
ENDBRANCH  31  32
ENDBRANCH  30  31
ENDBRANCH  29  30
ENDBRANCH   1  29
TORSDOF 24
ENDMDL
MODEL 2
REMARK VINA RESULT:     -10.0      2.433      7.472
REMARK SMILES N#C/C(=C\c1ccc(-c2cc(C(F)(F)F)ccc2Cl)o1)C(=O)OCCOCCOCCOCCOC(=O)c1ccc(-c2c3nc(c(-c4c(F)cccc4F)c4ccc([nH]4)c(-c4c(F)cccc4F)c4nc(c(-c5c(F)cccc5F)c5ccc2[nH]5)C=C4)C=C3)cc1
REMARK SMILES IDX 28 1 27 2 26 3 25 4 24 5 23 6 21 7 22 8 3 9 4 10 2 11 1 12
REMARK SMILES IDX 5 13 6 14 20 15 7 16 8 17 9 18 10 19 18 20 11 21 17 22 19 23
REMARK SMILES IDX 16 24 12 25 13 26 14 27 15 28 29 29 30 30 31 31 32 32 33 33
REMARK SMILES IDX 34 34 35 35 36 36 37 37 38 38 39 39 91 40 40 41 90 42 41 43
REMARK SMILES IDX 42 44 43 45 84 46 44 47 89 48 83 49 85 50 45 51 88 52 82 53
REMARK SMILES IDX 81 54 46 56 72 57 55 58 71 59 56 60 59 61 70 62 86 63 57 64
REMARK SMILES IDX 58 65 69 67 87 68 60 69 47 70 48 71 53 72 49 73 50 74 52 75
REMARK SMILES IDX 54 76 51 77 73 78 74 79 79 80 75 81 76 82 78 83 80 84 77 85
REMARK SMILES IDX 61 86 62 87 67 88 63 89 64 90 66 91 68 92 65 93
REMARK H PARENT 85 55 59 66
REMARK Flexibility Score: inf
ROOT
ATOM      1  C   UNL A   1      35.630  31.331  27.746  1.00  0.00     0.188 C 
ENDROOT
BRANCH   1   2
ATOM      2  C   UNL A   1      35.439  29.807  27.886  1.00  0.00     0.188 C 
BRANCH   2   3
ATOM      3  O   UNL A   1      34.540  29.118  27.038  1.00  0.00    -0.376 OA
BRANCH   3   4
ATOM      4  C   UNL A   1      33.558  29.711  26.202  1.00  0.00     0.202 C 
BRANCH   4   5
ATOM      5  C   UNL A   1      32.077  29.313  26.066  1.00  0.00     0.261 C 
BRANCH   5   6
ATOM      6  O   UNL A   1      31.833  28.006  25.572  1.00  0.00    -0.459 OA
BRANCH   6   7
ATOM      7  C   UNL A   1      31.576  27.105  26.537  1.00  0.00     0.349 C 
ATOM      8  O   UNL A   1      31.140  27.346  27.652  1.00  0.00    -0.245 OA
BRANCH   7   9
ATOM      9  C   UNL A   1      31.740  25.737  26.011  1.00  0.00     0.141 C 
ATOM     10  C   UNL A   1      33.018  25.353  25.752  1.00  0.00     0.074 C 
BRANCH   9  11
ATOM     11  C   UNL A   1      30.787  24.701  26.582  1.00  0.00     0.107 C 
ATOM     12  N   UNL A   1      29.995  23.841  27.056  1.00  0.00    -0.192 NA
ENDBRANCH   9  11
BRANCH  10  13
ATOM     13  C   UNL A   1      33.450  23.986  25.862  1.00  0.00     0.129 A 
ATOM     14  C   UNL A   1      34.332  23.393  26.761  1.00  0.00     0.051 A 
ATOM     15  O   UNL A   1      33.060  22.993  24.968  1.00  0.00    -0.457 OA
ATOM     16  C   UNL A   1      34.539  22.055  26.367  1.00  0.00     0.051 A 
ATOM     17  C   UNL A   1      33.718  21.836  25.285  1.00  0.00     0.136 A 
BRANCH  17  18
ATOM     18  C   UNL A   1      33.447  20.634  24.495  1.00  0.00     0.036 A 
ATOM     19  C   UNL A   1      33.999  19.394  24.869  1.00  0.00     0.026 A 
ATOM     20  C   UNL A   1      32.539  20.658  23.418  1.00  0.00     0.052 A 
ATOM     21  C   UNL A   1      33.630  18.196  24.212  1.00  0.00     0.056 A 
ATOM     22  C   UNL A   1      32.175  19.479  22.758  1.00  0.00     0.022 A 
ATOM     23  Cl  UNL A   1      31.818  22.123  22.839  1.00  0.00    -0.084 Cl
ATOM     24  C   UNL A   1      32.710  18.256  23.156  1.00  0.00     0.014 A 
BRANCH  21  25
ATOM     25  C   UNL A   1      34.195  16.863  24.651  1.00  0.00     0.416 C 
ATOM     26  F   UNL A   1      33.982  15.878  23.739  1.00  0.00    -0.166 F 
ATOM     27  F   UNL A   1      35.540  16.908  24.855  1.00  0.00    -0.166 F 
ATOM     28  F   UNL A   1      33.660  16.409  25.821  1.00  0.00    -0.166 F 
ENDBRANCH  21  25
ENDBRANCH  17  18
ENDBRANCH  10  13
ENDBRANCH   7   9
ENDBRANCH   6   7
ENDBRANCH   5   6
ENDBRANCH   4   5
ENDBRANCH   3   4
ENDBRANCH   2   3
ENDBRANCH   1   2
BRANCH   1  29
ATOM     29  O   UNL A   1      34.754  32.102  28.536  1.00  0.00    -0.377 OA
BRANCH  29  30
ATOM     30  C   UNL A   1      34.897  33.514  28.462  1.00  0.00     0.188 C 
BRANCH  30  31
ATOM     31  C   UNL A   1      33.984  34.443  29.299  1.00  0.00     0.188 C 
BRANCH  31  32
ATOM     32  O   UNL A   1      34.472  34.803  30.581  1.00  0.00    -0.376 OA
BRANCH  32  33
ATOM     33  C   UNL A   1      34.140  34.022  31.719  1.00  0.00     0.202 C 
BRANCH  33  34
ATOM     34  C   UNL A   1      34.807  32.646  31.888  1.00  0.00     0.261 C 
BRANCH  34  35
ATOM     35  O   UNL A   1      35.668  32.501  33.024  1.00  0.00    -0.460 OA
BRANCH  35  36
ATOM     36  C   UNL A   1      36.860  33.131  32.974  1.00  0.00     0.338 C 
ATOM     37  O   UNL A   1      37.193  34.133  33.585  1.00  0.00    -0.246 OA
BRANCH  36  38
ATOM     38  C   UNL A   1      37.783  32.280  32.200  1.00  0.00     0.060 A 
ATOM     39  C   UNL A   1      38.697  31.472  32.891  1.00  0.00     0.016 A 
ATOM     40  C   UNL A   1      37.740  32.271  30.804  1.00  0.00     0.016 A 
ATOM     41  C   UNL A   1      39.600  30.681  32.185  1.00  0.00     0.010 A 
ATOM     42  C   UNL A   1      38.664  31.501  30.097  1.00  0.00     0.010 A 
ATOM     43  C   UNL A   1      39.622  30.734  30.786  1.00  0.00    -0.014 A 
BRANCH  43  44
ATOM     44  C   UNL A   1      40.782  30.173  30.057  1.00  0.00     0.031 A 
ATOM     45  C   UNL A   1      41.954  31.076  29.794  1.00  0.00     0.074 A 
ATOM     46  C   UNL A   1      40.810  28.889  29.661  1.00  0.00     0.049 A 
ATOM     47  N   UNL A   1      43.055  30.840  29.128  1.00  0.00    -0.248 NA
ATOM     48  C   UNL A   1      41.868  32.434  30.355  1.00  0.00     0.031 C 
ATOM     49  C   UNL A   1      39.756  27.907  29.900  1.00  0.00     0.029 A 
ATOM     50  N   UNL A   1      41.767  28.201  28.960  1.00  0.00    -0.354 N 
ATOM     51  C   UNL A   1      43.788  32.019  29.188  1.00  0.00     0.074 A 
ATOM     52  C   UNL A   1      42.992  32.979  29.920  1.00  0.00     0.031 C 
ATOM     53  C   UNL A   1      40.114  26.741  29.331  1.00  0.00     0.029 A 
ATOM     54  C   UNL A   1      41.405  26.909  28.664  1.00  0.00     0.049 A 
ATOM     55  H   UNL A   1      42.630  28.593  28.694  1.00  0.00     0.167 HD
ATOM     56  C   UNL A   1      45.020  32.274  28.689  1.00  0.00     0.037 A 
ATOM     57  C   UNL A   1      42.032  25.984  27.913  1.00  0.00     0.037 A 
ATOM     58  C   UNL A   1      45.802  31.319  27.949  1.00  0.00     0.049 A 
ATOM     59  C   UNL A   1      43.364  26.317  27.289  1.00  0.00     0.074 A 
ATOM     60  C   UNL A   1      47.061  31.477  27.400  1.00  0.00     0.029 A 
ATOM     61  N   UNL A   1      45.389  30.030  27.645  1.00  0.00    -0.354 N 
ATOM     62  N   UNL A   1      44.061  27.426  27.365  1.00  0.00    -0.248 NA
ATOM     63  C   UNL A   1      44.000  25.266  26.480  1.00  0.00     0.031 C 
ATOM     64  C   UNL A   1      47.387  30.302  26.713  1.00  0.00     0.029 A 
ATOM     65  C   UNL A   1      46.360  29.390  26.892  1.00  0.00     0.049 A 
ATOM     66  H   UNL A   1      44.534  29.629  27.923  1.00  0.00     0.167 HD
ATOM     67  C   UNL A   1      45.226  27.197  26.642  1.00  0.00     0.074 A 
ATOM     68  C   UNL A   1      45.147  25.839  26.146  1.00  0.00     0.031 C 
ATOM     69  C   UNL A   1      46.268  28.033  26.410  1.00  0.00     0.037 A 
BRANCH  56  70
ATOM     70  C   UNL A   1      45.575  33.652  28.902  1.00  0.00     0.057 A 
ATOM     71  C   UNL A   1      46.366  33.972  30.015  1.00  0.00     0.134 A 
ATOM     72  C   UNL A   1      45.321  34.674  27.979  1.00  0.00     0.134 A 
ATOM     73  F   UNL A   1      46.634  33.045  30.948  1.00  0.00    -0.206 F 
ATOM     74  C   UNL A   1      46.856  35.263  30.217  1.00  0.00     0.040 A 
ATOM     75  C   UNL A   1      45.832  35.961  28.154  1.00  0.00     0.040 A 
ATOM     76  F   UNL A   1      44.573  34.438  26.891  1.00  0.00    -0.206 F 
ATOM     77  C   UNL A   1      46.594  36.261  29.280  1.00  0.00     0.006 A 
ENDBRANCH  56  70
BRANCH  57  78
ATOM     78  C   UNL A   1      41.398  24.661  27.684  1.00  0.00     0.057 A 
ATOM     79  C   UNL A   1      40.389  24.489  26.731  1.00  0.00     0.134 A 
ATOM     80  C   UNL A   1      41.775  23.536  28.430  1.00  0.00     0.134 A 
ATOM     81  F   UNL A   1      39.965  25.532  26.002  1.00  0.00    -0.206 F 
ATOM     82  C   UNL A   1      39.765  23.255  26.538  1.00  0.00     0.040 A 
ATOM     83  C   UNL A   1      41.181  22.289  28.228  1.00  0.00     0.040 A 
ATOM     84  F   UNL A   1      42.737  23.632  29.360  1.00  0.00    -0.206 F 
ATOM     85  C   UNL A   1      40.166  22.149  27.285  1.00  0.00     0.006 A 
ENDBRANCH  57  78
BRANCH  69  86
ATOM     86  C   UNL A   1      47.428  27.494  25.621  1.00  0.00     0.057 A 
ATOM     87  C   UNL A   1      48.492  26.814  26.227  1.00  0.00     0.134 A 
ATOM     88  C   UNL A   1      47.456  27.621  24.225  1.00  0.00     0.134 A 
ATOM     89  F   UNL A   1      48.533  26.666  27.560  1.00  0.00    -0.206 F 
ATOM     90  C   UNL A   1      49.553  26.301  25.478  1.00  0.00     0.040 A 
ATOM     91  C   UNL A   1      48.496  27.086  23.462  1.00  0.00     0.040 A 
ATOM     92  F   UNL A   1      46.464  28.250  23.577  1.00  0.00    -0.206 F 
ATOM     93  C   UNL A   1      49.552  26.430  24.090  1.00  0.00     0.006 A 
ENDBRANCH  69  86
ENDBRANCH  43  44
ENDBRANCH  36  38
ENDBRANCH  35  36
ENDBRANCH  34  35
ENDBRANCH  33  34
ENDBRANCH  32  33
ENDBRANCH  31  32
ENDBRANCH  30  31
ENDBRANCH  29  30
ENDBRANCH   1  29
TORSDOF 24
ENDMDL
MODEL 3
REMARK VINA RESULT:      -9.5      2.604      7.148
REMARK SMILES N#C/C(=C\c1ccc(-c2cc(C(F)(F)F)ccc2Cl)o1)C(=O)OCCOCCOCCOCCOC(=O)c1ccc(-c2c3nc(c(-c4c(F)cccc4F)c4ccc([nH]4)c(-c4c(F)cccc4F)c4nc(c(-c5c(F)cccc5F)c5ccc2[nH]5)C=C4)C=C3)cc1
REMARK SMILES IDX 28 1 27 2 26 3 25 4 24 5 23 6 21 7 22 8 3 9 4 10 2 11 1 12
REMARK SMILES IDX 5 13 6 14 20 15 7 16 8 17 9 18 10 19 18 20 11 21 17 22 19 23
REMARK SMILES IDX 16 24 12 25 13 26 14 27 15 28 29 29 30 30 31 31 32 32 33 33
REMARK SMILES IDX 34 34 35 35 36 36 37 37 38 38 39 39 91 40 40 41 90 42 41 43
REMARK SMILES IDX 42 44 43 45 84 46 44 47 89 48 83 49 85 50 45 51 88 52 82 53
REMARK SMILES IDX 81 54 46 56 72 57 55 58 71 59 56 60 59 61 70 62 86 63 57 64
REMARK SMILES IDX 58 65 69 67 87 68 60 69 47 70 48 71 53 72 49 73 50 74 52 75
REMARK SMILES IDX 54 76 51 77 73 78 74 79 79 80 75 81 76 82 78 83 80 84 77 85
REMARK SMILES IDX 61 86 62 87 67 88 63 89 64 90 66 91 68 92 65 93
REMARK H PARENT 85 55 59 66
REMARK Flexibility Score: inf
ROOT
ATOM      1  C   UNL A   1      32.570  30.884  26.784  1.00  0.00     0.188 C 
ENDROOT
BRANCH   1   2
ATOM      2  C   UNL A   1      31.581  29.923  26.092  1.00  0.00     0.188 C 
BRANCH   2   3
ATOM      3  O   UNL A   1      31.703  29.646  24.710  1.00  0.00    -0.376 OA
BRANCH   3   4
ATOM      4  C   UNL A   1      30.640  29.583  23.771  1.00  0.00     0.202 C 
BRANCH   4   5
ATOM      5  C   UNL A   1      30.657  28.935  22.376  1.00  0.00     0.261 C 
BRANCH   5   6
ATOM      6  O   UNL A   1      30.454  27.532  22.345  1.00  0.00    -0.459 OA
BRANCH   6   7
ATOM      7  C   UNL A   1      31.571  26.821  22.582  1.00  0.00     0.349 C 
ATOM      8  O   UNL A   1      32.646  26.955  22.018  1.00  0.00    -0.245 OA
BRANCH   7   9
ATOM      9  C   UNL A   1      31.376  25.944  23.751  1.00  0.00     0.141 C 
ATOM     10  C   UNL A   1      30.926  24.691  23.481  1.00  0.00     0.074 C 
BRANCH   9  11
ATOM     11  C   UNL A   1      32.394  26.110  24.868  1.00  0.00     0.107 C 
ATOM     12  N   UNL A   1      33.238  26.248  25.794  1.00  0.00    -0.192 NA
ENDBRANCH   9  11
BRANCH  10  13
ATOM     13  C   UNL A   1      31.266  23.556  24.297  1.00  0.00     0.129 A 
ATOM     14  C   UNL A   1      30.667  23.072  25.458  1.00  0.00     0.051 A 
ATOM     15  O   UNL A   1      32.376  22.752  24.053  1.00  0.00    -0.457 OA
ATOM     16  C   UNL A   1      31.458  22.020  25.962  1.00  0.00     0.051 A 
ATOM     17  C   UNL A   1      32.478  21.830  25.058  1.00  0.00     0.136 A 
BRANCH  17  18
ATOM     18  C   UNL A   1      33.561  20.847  25.004  1.00  0.00     0.036 A 
ATOM     19  C   UNL A   1      33.306  19.525  24.592  1.00  0.00     0.026 A 
ATOM     20  C   UNL A   1      34.898  21.221  25.243  1.00  0.00     0.052 A 
ATOM     21  C   UNL A   1      34.360  18.603  24.387  1.00  0.00     0.056 A 
ATOM     22  C   UNL A   1      35.944  20.312  25.050  1.00  0.00     0.022 A 
ATOM     23  Cl  UNL A   1      35.340  22.806  25.787  1.00  0.00    -0.084 Cl
ATOM     24  C   UNL A   1      35.679  19.015  24.618  1.00  0.00     0.014 A 
BRANCH  21  25
ATOM     25  C   UNL A   1      34.078  17.197  23.901  1.00  0.00     0.416 C 
ATOM     26  F   UNL A   1      34.684  16.249  24.663  1.00  0.00    -0.166 F 
ATOM     27  F   UNL A   1      32.750  16.899  23.907  1.00  0.00    -0.166 F 
ATOM     28  F   UNL A   1      34.500  16.974  22.623  1.00  0.00    -0.166 F 
ENDBRANCH  21  25
ENDBRANCH  17  18
ENDBRANCH  10  13
ENDBRANCH   7   9
ENDBRANCH   6   7
ENDBRANCH   5   6
ENDBRANCH   4   5
ENDBRANCH   3   4
ENDBRANCH   2   3
ENDBRANCH   1   2
BRANCH   1  29
ATOM     29  O   UNL A   1      32.048  32.166  27.045  1.00  0.00    -0.377 OA
BRANCH  29  30
ATOM     30  C   UNL A   1      32.967  33.155  27.492  1.00  0.00     0.188 C 
BRANCH  30  31
ATOM     31  C   UNL A   1      34.127  32.778  28.445  1.00  0.00     0.188 C 
BRANCH  31  32
ATOM     32  O   UNL A   1      33.912  33.044  29.822  1.00  0.00    -0.376 OA
BRANCH  32  33
ATOM     33  C   UNL A   1      34.951  32.823  30.764  1.00  0.00     0.202 C 
BRANCH  33  34
ATOM     34  C   UNL A   1      36.248  32.145  30.285  1.00  0.00     0.261 C 
BRANCH  34  35
ATOM     35  O   UNL A   1      36.165  30.737  30.036  1.00  0.00    -0.460 OA
BRANCH  35  36
ATOM     36  C   UNL A   1      36.866  29.926  30.856  1.00  0.00     0.338 C 
ATOM     37  O   UNL A   1      36.429  29.211  31.741  1.00  0.00    -0.246 OA
BRANCH  36  38
ATOM     38  C   UNL A   1      38.257  29.891  30.366  1.00  0.00     0.060 A 
ATOM     39  C   UNL A   1      38.487  29.927  28.983  1.00  0.00     0.016 A 
ATOM     40  C   UNL A   1      39.326  29.836  31.263  1.00  0.00     0.016 A 
ATOM     41  C   UNL A   1      39.788  29.866  28.492  1.00  0.00     0.010 A 
ATOM     42  C   UNL A   1      40.628  29.745  30.769  1.00  0.00     0.010 A 
ATOM     43  C   UNL A   1      40.860  29.720  29.381  1.00  0.00    -0.014 A 
BRANCH  43  44
ATOM     44  C   UNL A   1      42.186  29.315  28.861  1.00  0.00     0.031 A 
ATOM     45  C   UNL A   1      42.373  27.882  28.448  1.00  0.00     0.074 A 
ATOM     46  C   UNL A   1      43.190  30.198  28.733  1.00  0.00     0.049 A 
ATOM     47  N   UNL A   1      43.449  27.272  28.021  1.00  0.00    -0.248 NA
ATOM     48  C   UNL A   1      41.184  27.019  28.533  1.00  0.00     0.031 C 
ATOM     49  C   UNL A   1      43.113  31.620  29.055  1.00  0.00     0.029 A 
ATOM     50  N   UNL A   1      44.480  30.013  28.304  1.00  0.00    -0.354 N 
ATOM     51  C   UNL A   1      43.066  25.957  27.791  1.00  0.00     0.074 A 
ATOM     52  C   UNL A   1      41.673  25.847  28.162  1.00  0.00     0.031 C 
ATOM     53  C   UNL A   1      44.317  32.179  28.834  1.00  0.00     0.029 A 
ATOM     54  C   UNL A   1      45.251  31.146  28.387  1.00  0.00     0.049 A 
ATOM     55  H   UNL A   1      44.820  29.153  27.968  1.00  0.00     0.167 HD
ATOM     56  C   UNL A   1      43.807  24.934  27.303  1.00  0.00     0.037 A 
ATOM     57  C   UNL A   1      46.568  31.318  28.158  1.00  0.00     0.037 A 
ATOM     58  C   UNL A   1      45.197  25.045  26.948  1.00  0.00     0.049 A 
ATOM     59  C   UNL A   1      47.397  30.144  27.700  1.00  0.00     0.074 A 
ATOM     60  C   UNL A   1      46.039  24.071  26.445  1.00  0.00     0.029 A 
ATOM     61  N   UNL A   1      45.952  26.203  27.074  1.00  0.00    -0.354 N 
ATOM     62  N   UNL A   1      47.026  28.908  27.467  1.00  0.00    -0.248 NA
ATOM     63  C   UNL A   1      48.827  30.393  27.468  1.00  0.00     0.031 C 
ATOM     64  C   UNL A   1      47.319  24.622  26.321  1.00  0.00     0.029 A 
ATOM     65  C   UNL A   1      47.258  25.959  26.683  1.00  0.00     0.049 A 
ATOM     66  H   UNL A   1      45.610  27.069  27.394  1.00  0.00     0.167 HD
ATOM     67  C   UNL A   1      48.166  28.241  27.033  1.00  0.00     0.074 A 
ATOM     68  C   UNL A   1      49.238  29.214  27.024  1.00  0.00     0.031 C 
ATOM     69  C   UNL A   1      48.313  26.942  26.673  1.00  0.00     0.037 A 
BRANCH  56  70
ATOM     70  C   UNL A   1      43.129  23.603  27.159  1.00  0.00     0.057 A 
ATOM     71  C   UNL A   1      42.528  23.200  25.958  1.00  0.00     0.134 A 
ATOM     72  C   UNL A   1      43.081  22.707  28.235  1.00  0.00     0.134 A 
ATOM     73  F   UNL A   1      42.523  24.016  24.893  1.00  0.00    -0.206 F 
ATOM     74  C   UNL A   1      41.878  21.970  25.842  1.00  0.00     0.040 A 
ATOM     75  C   UNL A   1      42.461  21.462  28.122  1.00  0.00     0.040 A 
ATOM     76  F   UNL A   1      43.636  23.027  29.413  1.00  0.00    -0.206 F 
ATOM     77  C   UNL A   1      41.849  21.094  26.926  1.00  0.00     0.006 A 
ENDBRANCH  56  70
BRANCH  57  78
ATOM     78  C   UNL A   1      47.193  32.646  28.384  1.00  0.00     0.057 A 
ATOM     79  C   UNL A   1      47.692  33.014  29.638  1.00  0.00     0.134 A 
ATOM     80  C   UNL A   1      47.289  33.588  27.352  1.00  0.00     0.134 A 
ATOM     81  F   UNL A   1      47.608  32.167  30.674  1.00  0.00    -0.206 F 
ATOM     82  C   UNL A   1      48.248  34.275  29.863  1.00  0.00     0.040 A 
ATOM     83  C   UNL A   1      47.868  34.842  27.555  1.00  0.00     0.040 A 
ATOM     84  F   UNL A   1      46.829  33.298  26.125  1.00  0.00    -0.206 F 
ATOM     85  C   UNL A   1      48.342  35.190  28.817  1.00  0.00     0.006 A 
ENDBRANCH  57  78
BRANCH  69  86
ATOM     86  C   UNL A   1      49.670  26.503  26.198  1.00  0.00     0.057 A 
ATOM     87  C   UNL A   1      50.126  26.761  24.899  1.00  0.00     0.134 A 
ATOM     88  C   UNL A   1      50.551  25.850  27.072  1.00  0.00     0.134 A 
ATOM     89  F   UNL A   1      49.330  27.373  24.008  1.00  0.00    -0.206 F 
ATOM     90  C   UNL A   1      51.396  26.365  24.478  1.00  0.00     0.040 A 
ATOM     91  C   UNL A   1      51.836  25.477  26.672  1.00  0.00     0.040 A 
ATOM     92  F   UNL A   1      50.186  25.582  28.335  1.00  0.00    -0.206 F 
ATOM     93  C   UNL A   1      52.258  25.728  25.369  1.00  0.00     0.006 A 
ENDBRANCH  69  86
ENDBRANCH  43  44
ENDBRANCH  36  38
ENDBRANCH  35  36
ENDBRANCH  34  35
ENDBRANCH  33  34
ENDBRANCH  32  33
ENDBRANCH  31  32
ENDBRANCH  30  31
ENDBRANCH  29  30
ENDBRANCH   1  29
TORSDOF 24
ENDMDL
