MODEL 1
REMARK VINA RESULT:     -10.1      0.000      0.000
REMARK SMILES Cc1ccc(C[N@H+]2CCC[C@@H](C(=O)OCCOCCOCCOCCOC(=O)c3ccc(-c4c5nc(c(-c6c(F)cccc6F)c6ccc([nH]6)c(-c6c(F)cccc6F)c6nc(c(-c7c(F)cccc7F)c7ccc4[nH]7)C=C6)C=C5)cc3)C2)o1
REMARK SMILES IDX 20 1 19 2 18 3 17 4 16 5 15 6 14 7 12 8 13 9 11 10 7 11 8 12
REMARK SMILES IDX 83 13 9 15 10 16 6 17 5 18 1 19 2 20 3 21 84 22 4 23 21 24
REMARK SMILES IDX 22 25 23 26 24 27 25 28 26 29 27 30 28 31 29 32 30 33 82 34
REMARK SMILES IDX 31 35 81 36 32 37 33 38 34 39 75 40 35 41 80 42 74 43 76 44
REMARK SMILES IDX 36 45 79 46 73 47 72 48 37 50 63 51 46 52 62 53 47 54 50 55
REMARK SMILES IDX 61 56 77 57 48 58 49 59 60 61 78 62 51 63 38 64 39 65 44 66
REMARK SMILES IDX 40 67 41 68 43 69 45 70 42 71 64 72 65 73 70 74 66 75 67 76
REMARK SMILES IDX 69 77 71 78 68 79 52 80 53 81 58 82 54 83 55 84 57 85 59 86
REMARK SMILES IDX 56 87
REMARK H PARENT 7 14 76 49 50 60
REMARK Flexibility Score: inf
ROOT
ATOM      1  O   UNL A   1      43.024  19.430  26.330  1.00  0.00    -0.377 OA
ENDROOT
BRANCH   1   2
ATOM      2  C   UNL A   1      41.706  19.770  25.945  1.00  0.00     0.188 C 
BRANCH   2   3
ATOM      3  C   UNL A   1      41.152  21.019  26.657  1.00  0.00     0.188 C 
BRANCH   3   4
ATOM      4  O   UNL A   1      40.275  21.897  25.969  1.00  0.00    -0.376 OA
BRANCH   4   5
ATOM      5  C   UNL A   1      38.871  21.820  26.152  1.00  0.00     0.202 C 
BRANCH   5   6
ATOM      6  C   UNL A   1      37.841  21.869  24.998  1.00  0.00     0.261 C 
BRANCH   6   7
ATOM      7  O   UNL A   1      37.348  23.151  24.571  1.00  0.00    -0.463 OA
BRANCH   7   8
ATOM      8  C   UNL A   1      36.034  23.349  24.820  1.00  0.00     0.314 C 
ATOM      9  O   UNL A   1      35.635  24.036  25.755  1.00  0.00    -0.252 OA
BRANCH   8  10
ATOM     10  C   UNL A   1      35.105  22.596  23.852  1.00  0.00     0.154 C 
ATOM     11  N   UNL A   1      33.304  20.844  24.107  1.00  0.00    -0.328 N 
ATOM     12  C   UNL A   1      32.282  21.729  23.546  1.00  0.00     0.262 C 
ATOM     13  C   UNL A   1      34.364  21.617  24.759  1.00  0.00     0.278 C 
ATOM     14  H   UNL A   1      33.697  20.325  23.321  1.00  0.00     0.348 HD
ATOM     15  C   UNL A   1      32.913  22.646  22.502  1.00  0.00     0.062 C 
ATOM     16  C   UNL A   1      34.080  23.442  23.084  1.00  0.00     0.027 C 
BRANCH  11  17
ATOM     17  C   UNL A   1      32.746  19.857  25.060  1.00  0.00     0.338 C 
BRANCH  17  18
ATOM     18  C   UNL A   1      33.244  18.450  24.925  1.00  0.00     0.158 A 
ATOM     19  C   UNL A   1      32.398  15.079  25.750  1.00  0.00     0.087 C 
ATOM     20  C   UNL A   1      33.098  16.278  25.242  1.00  0.00     0.101 A 
ATOM     21  C   UNL A   1      34.195  16.480  24.435  1.00  0.00     0.046 A 
ATOM     22  O   UNL A   1      32.563  17.475  25.595  1.00  0.00    -0.460 OA
ATOM     23  C   UNL A   1      34.291  17.880  24.231  1.00  0.00     0.052 A 
ENDBRANCH  17  18
ENDBRANCH  11  17
ENDBRANCH   8  10
ENDBRANCH   7   8
ENDBRANCH   6   7
ENDBRANCH   5   6
ENDBRANCH   4   5
ENDBRANCH   3   4
ENDBRANCH   2   3
ENDBRANCH   1   2
BRANCH   1  24
ATOM     24  C   UNL A   1      43.817  18.838  25.320  1.00  0.00     0.188 C 
BRANCH  24  25
ATOM     25  C   UNL A   1      44.949  19.695  24.716  1.00  0.00     0.188 C 
BRANCH  25  26
ATOM     26  O   UNL A   1      44.534  20.557  23.663  1.00  0.00    -0.376 OA
BRANCH  26  27
ATOM     27  C   UNL A   1      44.954  21.914  23.678  1.00  0.00     0.202 C 
BRANCH  27  28
ATOM     28  C   UNL A   1      43.929  22.977  24.113  1.00  0.00     0.261 C 
BRANCH  28  29
ATOM     29  O   UNL A   1      44.357  23.899  25.125  1.00  0.00    -0.460 OA
BRANCH  29  30
ATOM     30  C   UNL A   1      44.303  23.486  26.409  1.00  0.00     0.338 C 
ATOM     31  O   UNL A   1      44.886  22.534  26.899  1.00  0.00    -0.246 OA
BRANCH  30  32
ATOM     32  C   UNL A   1      43.585  24.520  27.187  1.00  0.00     0.060 A 
ATOM     33  C   UNL A   1      44.142  25.805  27.267  1.00  0.00     0.016 A 
ATOM     34  C   UNL A   1      42.359  24.242  27.799  1.00  0.00     0.016 A 
ATOM     35  C   UNL A   1      43.492  26.805  27.988  1.00  0.00     0.010 A 
ATOM     36  C   UNL A   1      41.725  25.238  28.549  1.00  0.00     0.010 A 
ATOM     37  C   UNL A   1      42.310  26.511  28.676  1.00  0.00    -0.014 A 
BRANCH  37  38
ATOM     38  C   UNL A   1      41.824  27.452  29.713  1.00  0.00     0.031 A 
ATOM     39  C   UNL A   1      42.537  27.468  31.037  1.00  0.00     0.074 A 
ATOM     40  C   UNL A   1      40.806  28.298  29.482  1.00  0.00     0.049 A 
ATOM     41  N   UNL A   1      42.291  28.173  32.110  1.00  0.00    -0.248 NA
ATOM     42  C   UNL A   1      43.688  26.558  31.164  1.00  0.00     0.031 C 
ATOM     43  C   UNL A   1      40.072  28.418  28.225  1.00  0.00     0.029 A 
ATOM     44  N   UNL A   1      40.214  29.218  30.311  1.00  0.00    -0.354 N 
ATOM     45  C   UNL A   1      43.247  27.785  33.041  1.00  0.00     0.074 A 
ATOM     46  C   UNL A   1      44.056  26.761  32.418  1.00  0.00     0.031 C 
ATOM     47  C   UNL A   1      39.118  29.355  28.369  1.00  0.00     0.029 A 
ATOM     48  C   UNL A   1      39.154  29.874  29.736  1.00  0.00     0.049 A 
ATOM     49  H   UNL A   1      40.520  29.391  31.231  1.00  0.00     0.167 HD
ATOM     50  C   UNL A   1      43.438  28.245  34.300  1.00  0.00     0.037 A 
ATOM     51  C   UNL A   1      38.300  30.773  30.264  1.00  0.00     0.037 A 
ATOM     52  C   UNL A   1      42.623  29.257  34.918  1.00  0.00     0.049 A 
ATOM     53  C   UNL A   1      38.473  31.204  31.698  1.00  0.00     0.074 A 
ATOM     54  C   UNL A   1      42.744  29.806  36.182  1.00  0.00     0.029 A 
ATOM     55  N   UNL A   1      41.527  29.861  34.320  1.00  0.00    -0.354 N 
ATOM     56  N   UNL A   1      39.393  30.853  32.565  1.00  0.00    -0.248 NA
ATOM     57  C   UNL A   1      37.488  32.158  32.227  1.00  0.00     0.031 C 
ATOM     58  C   UNL A   1      41.679  30.693  36.373  1.00  0.00     0.029 A 
ATOM     59  C   UNL A   1      40.938  30.751  35.203  1.00  0.00     0.049 A 
ATOM     60  H   UNL A   1      41.214  29.683  33.404  1.00  0.00     0.167 HD
ATOM     61  C   UNL A   1      39.118  31.565  33.726  1.00  0.00     0.074 A 
ATOM     62  C   UNL A   1      37.951  32.376  33.450  1.00  0.00     0.031 C 
ATOM     63  C   UNL A   1      39.776  31.554  34.913  1.00  0.00     0.037 A 
BRANCH  50  64
ATOM     64  C   UNL A   1      44.541  27.615  35.099  1.00  0.00     0.057 A 
ATOM     65  C   UNL A   1      45.864  28.080  35.046  1.00  0.00     0.134 A 
ATOM     66  C   UNL A   1      44.278  26.521  35.933  1.00  0.00     0.134 A 
ATOM     67  F   UNL A   1      46.190  29.112  34.253  1.00  0.00    -0.206 F 
ATOM     68  C   UNL A   1      46.886  27.457  35.763  1.00  0.00     0.040 A 
ATOM     69  C   UNL A   1      45.286  25.910  36.679  1.00  0.00     0.040 A 
ATOM     70  F   UNL A   1      43.035  26.025  36.033  1.00  0.00    -0.206 F 
ATOM     71  C   UNL A   1      46.597  26.372  36.588  1.00  0.00     0.006 A 
ENDBRANCH  50  64
BRANCH  51  72
ATOM     72  C   UNL A   1      37.198  31.325  29.436  1.00  0.00     0.057 A 
ATOM     73  C   UNL A   1      36.034  30.586  29.190  1.00  0.00     0.134 A 
ATOM     74  C   UNL A   1      37.284  32.598  28.858  1.00  0.00     0.134 A 
ATOM     75  F   UNL A   1      35.903  29.349  29.693  1.00  0.00    -0.206 F 
ATOM     76  C   UNL A   1      35.004  31.086  28.394  1.00  0.00     0.040 A 
ATOM     77  C   UNL A   1      36.250  33.122  28.081  1.00  0.00     0.040 A 
ATOM     78  F   UNL A   1      38.373  33.356  29.052  1.00  0.00    -0.206 F 
ATOM     79  C   UNL A   1      35.107  32.361  27.842  1.00  0.00     0.006 A 
ENDBRANCH  51  72
BRANCH  63  80
ATOM     80  C   UNL A   1      39.277  32.475  35.992  1.00  0.00     0.057 A 
ATOM     81  C   UNL A   1      39.742  33.788  36.125  1.00  0.00     0.134 A 
ATOM     82  C   UNL A   1      38.279  32.051  36.882  1.00  0.00     0.134 A 
ATOM     83  F   UNL A   1      40.703  34.256  35.313  1.00  0.00    -0.206 F 
ATOM     84  C   UNL A   1      39.253  34.639  37.120  1.00  0.00     0.040 A 
ATOM     85  C   UNL A   1      37.760  32.902  37.858  1.00  0.00     0.040 A 
ATOM     86  F   UNL A   1      37.779  30.809  36.803  1.00  0.00    -0.206 F 
ATOM     87  C   UNL A   1      38.253  34.199  37.984  1.00  0.00     0.006 A 
ENDBRANCH  63  80
ENDBRANCH  37  38
ENDBRANCH  30  32
ENDBRANCH  29  30
ENDBRANCH  28  29
ENDBRANCH  27  28
ENDBRANCH  26  27
ENDBRANCH  25  26
ENDBRANCH  24  25
ENDBRANCH   1  24
TORSDOF 22
ENDMDL
MODEL 2
REMARK VINA RESULT:     -10.1      4.874      8.287
REMARK SMILES Cc1ccc(C[N@H+]2CCC[C@@H](C(=O)OCCOCCOCCOCCOC(=O)c3ccc(-c4c5nc(c(-c6c(F)cccc6F)c6ccc([nH]6)c(-c6c(F)cccc6F)c6nc(c(-c7c(F)cccc7F)c7ccc4[nH]7)C=C6)C=C5)cc3)C2)o1
REMARK SMILES IDX 20 1 19 2 18 3 17 4 16 5 15 6 14 7 12 8 13 9 11 10 7 11 8 12
REMARK SMILES IDX 83 13 9 15 10 16 6 17 5 18 1 19 2 20 3 21 84 22 4 23 21 24
REMARK SMILES IDX 22 25 23 26 24 27 25 28 26 29 27 30 28 31 29 32 30 33 82 34
REMARK SMILES IDX 31 35 81 36 32 37 33 38 34 39 75 40 35 41 80 42 74 43 76 44
REMARK SMILES IDX 36 45 79 46 73 47 72 48 37 50 63 51 46 52 62 53 47 54 50 55
REMARK SMILES IDX 61 56 77 57 48 58 49 59 60 61 78 62 51 63 38 64 39 65 44 66
REMARK SMILES IDX 40 67 41 68 43 69 45 70 42 71 64 72 65 73 70 74 66 75 67 76
REMARK SMILES IDX 69 77 71 78 68 79 52 80 53 81 58 82 54 83 55 84 57 85 59 86
REMARK SMILES IDX 56 87
REMARK H PARENT 7 14 76 49 50 60
REMARK Flexibility Score: inf
ROOT
ATOM      1  O   UNL A   1      33.794  19.986  24.520  1.00  0.00    -0.377 OA
ENDROOT
BRANCH   1   2
ATOM      2  C   UNL A   1      32.452  20.327  24.803  1.00  0.00     0.188 C 
BRANCH   2   3
ATOM      3  C   UNL A   1      32.292  21.667  25.545  1.00  0.00     0.188 C 
BRANCH   3   4
ATOM      4  O   UNL A   1      31.480  22.692  24.994  1.00  0.00    -0.376 OA
BRANCH   4   5
ATOM      5  C   UNL A   1      31.504  22.976  23.605  1.00  0.00     0.202 C 
BRANCH   5   6
ATOM      6  C   UNL A   1      32.760  23.454  22.838  1.00  0.00     0.261 C 
BRANCH   6   7
ATOM      7  O   UNL A   1      33.238  24.791  23.069  1.00  0.00    -0.463 OA
BRANCH   7   8
ATOM      8  C   UNL A   1      33.176  25.596  21.984  1.00  0.00     0.314 C 
ATOM      9  O   UNL A   1      33.277  25.170  20.838  1.00  0.00    -0.252 OA
BRANCH   8  10
ATOM     10  C   UNL A   1      33.017  27.085  22.334  1.00  0.00     0.154 C 
ATOM     11  N   UNL A   1      31.064  28.593  22.875  1.00  0.00    -0.328 N 
ATOM     12  C   UNL A   1      31.587  28.890  24.210  1.00  0.00     0.262 C 
ATOM     13  C   UNL A   1      31.503  27.271  22.423  1.00  0.00     0.278 C 
ATOM     14  H   UNL A   1      31.443  29.308  22.253  1.00  0.00     0.348 HD
ATOM     15  C   UNL A   1      33.112  28.882  24.178  1.00  0.00     0.062 C 
ATOM     16  C   UNL A   1      33.656  27.556  23.648  1.00  0.00     0.027 C 
BRANCH  11  17
ATOM     17  C   UNL A   1      29.586  28.679  22.806  1.00  0.00     0.338 C 
BRANCH  17  18
ATOM     18  C   UNL A   1      29.009  30.050  22.626  1.00  0.00     0.158 A 
ATOM     19  C   UNL A   1      27.917  32.328  20.101  1.00  0.00     0.087 C 
ATOM     20  C   UNL A   1      28.257  31.717  21.403  1.00  0.00     0.101 A 
ATOM     21  C   UNL A   1      28.033  32.066  22.716  1.00  0.00     0.046 A 
ATOM     22  O   UNL A   1      28.910  30.528  21.351  1.00  0.00    -0.460 OA
ATOM     23  C   UNL A   1      28.518  30.992  23.505  1.00  0.00     0.052 A 
ENDBRANCH  17  18
ENDBRANCH  11  17
ENDBRANCH   8  10
ENDBRANCH   7   8
ENDBRANCH   6   7
ENDBRANCH   5   6
ENDBRANCH   4   5
ENDBRANCH   3   4
ENDBRANCH   2   3
ENDBRANCH   1   2
BRANCH   1  24
ATOM     24  C   UNL A   1      34.765  20.897  24.996  1.00  0.00     0.188 C 
BRANCH  24  25
ATOM     25  C   UNL A   1      36.235  20.428  24.998  1.00  0.00     0.188 C 
BRANCH  25  26
ATOM     26  O   UNL A   1      37.186  21.482  24.890  1.00  0.00    -0.376 OA
BRANCH  26  27
ATOM     27  C   UNL A   1      38.448  21.337  25.525  1.00  0.00     0.202 C 
BRANCH  27  28
ATOM     28  C   UNL A   1      39.165  19.981  25.394  1.00  0.00     0.261 C 
BRANCH  28  29
ATOM     29  O   UNL A   1      40.035  19.613  26.474  1.00  0.00    -0.460 OA
BRANCH  29  30
ATOM     30  C   UNL A   1      41.360  19.566  26.219  1.00  0.00     0.338 C 
ATOM     31  O   UNL A   1      41.978  18.642  25.718  1.00  0.00    -0.246 OA
BRANCH  30  32
ATOM     32  C   UNL A   1      41.914  20.919  26.446  1.00  0.00     0.060 A 
ATOM     33  C   UNL A   1      42.122  21.344  27.767  1.00  0.00     0.016 A 
ATOM     34  C   UNL A   1      42.262  21.747  25.376  1.00  0.00     0.016 A 
ATOM     35  C   UNL A   1      42.647  22.610  28.020  1.00  0.00     0.010 A 
ATOM     36  C   UNL A   1      42.756  23.030  25.631  1.00  0.00     0.010 A 
ATOM     37  C   UNL A   1      42.914  23.478  26.955  1.00  0.00    -0.014 A 
BRANCH  37  38
ATOM     38  C   UNL A   1      43.124  24.919  27.233  1.00  0.00     0.031 A 
ATOM     39  C   UNL A   1      44.459  25.515  26.880  1.00  0.00     0.074 A 
ATOM     40  C   UNL A   1      42.153  25.691  27.747  1.00  0.00     0.049 A 
ATOM     41  N   UNL A   1      44.900  26.734  27.049  1.00  0.00    -0.248 NA
ATOM     42  C   UNL A   1      45.430  24.604  26.251  1.00  0.00     0.031 C 
ATOM     43  C   UNL A   1      40.802  25.245  28.078  1.00  0.00     0.029 A 
ATOM     44  N   UNL A   1      42.164  27.022  28.083  1.00  0.00    -0.354 N 
ATOM     45  C   UNL A   1      46.200  26.734  26.557  1.00  0.00     0.074 A 
ATOM     46  C   UNL A   1      46.487  25.387  26.115  1.00  0.00     0.031 C 
ATOM     47  C   UNL A   1      40.113  26.286  28.580  1.00  0.00     0.029 A 
ATOM     48  C   UNL A   1      40.986  27.459  28.636  1.00  0.00     0.049 A 
ATOM     49  H   UNL A   1      42.942  27.607  27.941  1.00  0.00     0.167 HD
ATOM     50  C   UNL A   1      47.074  27.764  26.476  1.00  0.00     0.037 A 
ATOM     51  C   UNL A   1      40.661  28.663  29.148  1.00  0.00     0.037 A 
ATOM     52  C   UNL A   1      46.786  29.100  26.926  1.00  0.00     0.049 A 
ATOM     53  C   UNL A   1      41.681  29.772  29.132  1.00  0.00     0.074 A 
ATOM     54  C   UNL A   1      47.596  30.220  26.873  1.00  0.00     0.029 A 
ATOM     55  N   UNL A   1      45.599  29.491  27.528  1.00  0.00    -0.354 N 
ATOM     56  N   UNL A   1      42.899  29.773  28.644  1.00  0.00    -0.248 NA
ATOM     57  C   UNL A   1      41.280  31.049  29.738  1.00  0.00     0.031 C 
ATOM     58  C   UNL A   1      46.924  31.273  27.503  1.00  0.00     0.029 A 
ATOM     59  C   UNL A   1      45.668  30.827  27.885  1.00  0.00     0.049 A 
ATOM     60  H   UNL A   1      44.823  28.905  27.679  1.00  0.00     0.167 HD
ATOM     61  C   UNL A   1      43.395  31.054  28.854  1.00  0.00     0.074 A 
ATOM     62  C   UNL A   1      42.343  31.807  29.505  1.00  0.00     0.031 C 
ATOM     63  C   UNL A   1      44.611  31.565  28.532  1.00  0.00     0.037 A 
BRANCH  50  64
ATOM     64  C   UNL A   1      48.437  27.465  25.922  1.00  0.00     0.057 A 
ATOM     65  C   UNL A   1      49.543  27.215  26.748  1.00  0.00     0.134 A 
ATOM     66  C   UNL A   1      48.648  27.432  24.538  1.00  0.00     0.134 A 
ATOM     67  F   UNL A   1      49.416  27.250  28.083  1.00  0.00    -0.206 F 
ATOM     68  C   UNL A   1      50.812  26.980  26.217  1.00  0.00     0.040 A 
ATOM     69  C   UNL A   1      49.905  27.166  23.996  1.00  0.00     0.040 A 
ATOM     70  F   UNL A   1      47.634  27.661  23.688  1.00  0.00    -0.206 F 
ATOM     71  C   UNL A   1      50.994  26.949  24.836  1.00  0.00     0.006 A 
ENDBRANCH  50  64
BRANCH  51  72
ATOM     72  C   UNL A   1      39.311  28.884  29.726  1.00  0.00     0.057 A 
ATOM     73  C   UNL A   1      38.244  29.319  28.932  1.00  0.00     0.134 A 
ATOM     74  C   UNL A   1      39.057  28.680  31.088  1.00  0.00     0.134 A 
ATOM     75  F   UNL A   1      38.430  29.559  27.625  1.00  0.00    -0.206 F 
ATOM     76  C   UNL A   1      36.978  29.554  29.470  1.00  0.00     0.040 A 
ATOM     77  C   UNL A   1      37.790  28.885  31.636  1.00  0.00     0.040 A 
ATOM     78  F   UNL A   1      40.037  28.267  31.905  1.00  0.00    -0.206 F 
ATOM     79  C   UNL A   1      36.746  29.329  30.826  1.00  0.00     0.006 A 
ENDBRANCH  51  72
BRANCH  63  80
ATOM     80  C   UNL A   1      44.858  33.015  28.839  1.00  0.00     0.057 A 
ATOM     81  C   UNL A   1      44.518  34.035  27.943  1.00  0.00     0.134 A 
ATOM     82  C   UNL A   1      45.403  33.397  30.074  1.00  0.00     0.134 A 
ATOM     83  F   UNL A   1      44.002  33.741  26.739  1.00  0.00    -0.206 F 
ATOM     84  C   UNL A   1      44.735  35.381  28.251  1.00  0.00     0.040 A 
ATOM     85  C   UNL A   1      45.593  34.738  30.406  1.00  0.00     0.040 A 
ATOM     86  F   UNL A   1      45.739  32.472  30.985  1.00  0.00    -0.206 F 
ATOM     87  C   UNL A   1      45.265  35.735  29.490  1.00  0.00     0.006 A 
ENDBRANCH  63  80
ENDBRANCH  37  38
ENDBRANCH  30  32
ENDBRANCH  29  30
ENDBRANCH  28  29
ENDBRANCH  27  28
ENDBRANCH  26  27
ENDBRANCH  25  26
ENDBRANCH  24  25
ENDBRANCH   1  24
TORSDOF 22
ENDMDL
MODEL 3
REMARK VINA RESULT:     -10.0      4.576      7.551
REMARK SMILES Cc1ccc(C[N@H+]2CCC[C@@H](C(=O)OCCOCCOCCOCCOC(=O)c3ccc(-c4c5nc(c(-c6c(F)cccc6F)c6ccc([nH]6)c(-c6c(F)cccc6F)c6nc(c(-c7c(F)cccc7F)c7ccc4[nH]7)C=C6)C=C5)cc3)C2)o1
REMARK SMILES IDX 20 1 19 2 18 3 17 4 16 5 15 6 14 7 12 8 13 9 11 10 7 11 8 12
REMARK SMILES IDX 83 13 9 15 10 16 6 17 5 18 1 19 2 20 3 21 84 22 4 23 21 24
REMARK SMILES IDX 22 25 23 26 24 27 25 28 26 29 27 30 28 31 29 32 30 33 82 34
REMARK SMILES IDX 31 35 81 36 32 37 33 38 34 39 75 40 35 41 80 42 74 43 76 44
REMARK SMILES IDX 36 45 79 46 73 47 72 48 37 50 63 51 46 52 62 53 47 54 50 55
REMARK SMILES IDX 61 56 77 57 48 58 49 59 60 61 78 62 51 63 38 64 39 65 44 66
REMARK SMILES IDX 40 67 41 68 43 69 45 70 42 71 64 72 65 73 70 74 66 75 67 76
REMARK SMILES IDX 69 77 71 78 68 79 52 80 53 81 58 82 54 83 55 84 57 85 59 86
REMARK SMILES IDX 56 87
REMARK H PARENT 7 14 76 49 50 60
REMARK Flexibility Score: inf
ROOT
ATOM      1  O   UNL A   1      33.910  20.392  24.542  1.00  0.00    -0.377 OA
ENDROOT
BRANCH   1   2
ATOM      2  C   UNL A   1      32.546  20.753  24.620  1.00  0.00     0.188 C 
BRANCH   2   3
ATOM      3  C   UNL A   1      32.253  21.867  25.642  1.00  0.00     0.188 C 
BRANCH   3   4
ATOM      4  O   UNL A   1      31.531  23.022  25.245  1.00  0.00    -0.376 OA
BRANCH   4   5
ATOM      5  C   UNL A   1      31.561  23.478  23.902  1.00  0.00     0.202 C 
BRANCH   5   6
ATOM      6  C   UNL A   1      32.829  24.013  23.195  1.00  0.00     0.261 C 
BRANCH   6   7
ATOM      7  O   UNL A   1      33.346  25.296  23.590  1.00  0.00    -0.463 OA
BRANCH   7   8
ATOM      8  C   UNL A   1      33.442  26.189  22.579  1.00  0.00     0.314 C 
ATOM      9  O   UNL A   1      33.699  25.857  21.425  1.00  0.00    -0.252 OA
BRANCH   8  10
ATOM     10  C   UNL A   1      33.248  27.647  23.027  1.00  0.00     0.154 C 
ATOM     11  N   UNL A   1      31.250  29.126  23.475  1.00  0.00    -0.328 N 
ATOM     12  C   UNL A   1      31.628  29.311  24.877  1.00  0.00     0.262 C 
ATOM     13  C   UNL A   1      31.734  27.839  22.968  1.00  0.00     0.278 C 
ATOM     14  H   UNL A   1      31.694  29.884  22.956  1.00  0.00     0.348 HD
ATOM     15  C   UNL A   1      33.148  29.291  25.007  1.00  0.00     0.062 C 
ATOM     16  C   UNL A   1      33.744  28.006  24.434  1.00  0.00     0.027 C 
BRANCH  11  17
ATOM     17  C   UNL A   1      29.788  29.231  23.257  1.00  0.00     0.338 C 
BRANCH  17  18
ATOM     18  C   UNL A   1      29.255  30.605  22.990  1.00  0.00     0.158 A 
ATOM     19  C   UNL A   1      27.868  32.624  20.389  1.00  0.00     0.087 C 
ATOM     20  C   UNL A   1      28.390  32.156  21.691  1.00  0.00     0.101 A 
ATOM     21  C   UNL A   1      28.403  32.679  22.965  1.00  0.00     0.046 A 
ATOM     22  O   UNL A   1      28.969  30.928  21.694  1.00  0.00    -0.460 OA
ATOM     23  C   UNL A   1      28.961  31.680  23.803  1.00  0.00     0.052 A 
ENDBRANCH  17  18
ENDBRANCH  11  17
ENDBRANCH   8  10
ENDBRANCH   7   8
ENDBRANCH   6   7
ENDBRANCH   5   6
ENDBRANCH   4   5
ENDBRANCH   3   4
ENDBRANCH   2   3
ENDBRANCH   1   2
BRANCH   1  24
ATOM     24  C   UNL A   1      34.817  21.323  25.100  1.00  0.00     0.188 C 
BRANCH  24  25
ATOM     25  C   UNL A   1      36.269  20.851  25.322  1.00  0.00     0.188 C 
BRANCH  25  26
ATOM     26  O   UNL A   1      37.241  21.887  25.239  1.00  0.00    -0.376 OA
BRANCH  26  27
ATOM     27  C   UNL A   1      38.546  21.649  25.746  1.00  0.00     0.202 C 
BRANCH  27  28
ATOM     28  C   UNL A   1      39.223  20.314  25.383  1.00  0.00     0.261 C 
BRANCH  28  29
ATOM     29  O   UNL A   1      40.046  19.721  26.397  1.00  0.00    -0.460 OA
BRANCH  29  30
ATOM     30  C   UNL A   1      41.380  19.709  26.190  1.00  0.00     0.338 C 
ATOM     31  O   UNL A   1      42.021  18.867  25.584  1.00  0.00    -0.246 OA
BRANCH  30  32
ATOM     32  C   UNL A   1      41.919  21.014  26.633  1.00  0.00     0.060 A 
ATOM     33  C   UNL A   1      41.847  21.340  27.995  1.00  0.00     0.016 A 
ATOM     34  C   UNL A   1      42.523  21.891  25.728  1.00  0.00     0.016 A 
ATOM     35  C   UNL A   1      42.348  22.558  28.451  1.00  0.00     0.010 A 
ATOM     36  C   UNL A   1      42.996  23.127  26.181  1.00  0.00     0.010 A 
ATOM     37  C   UNL A   1      42.875  23.478  27.538  1.00  0.00    -0.014 A 
BRANCH  37  38
ATOM     38  C   UNL A   1      43.070  24.885  27.962  1.00  0.00     0.031 A 
ATOM     39  C   UNL A   1      44.479  25.362  28.184  1.00  0.00     0.074 A 
ATOM     40  C   UNL A   1      42.038  25.732  28.111  1.00  0.00     0.049 A 
ATOM     41  N   UNL A   1      44.912  26.530  28.583  1.00  0.00    -0.248 NA
ATOM     42  C   UNL A   1      45.545  24.382  27.920  1.00  0.00     0.031 C 
ATOM     43  C   UNL A   1      40.634  25.406  27.872  1.00  0.00     0.029 A 
ATOM     44  N   UNL A   1      42.020  27.046  28.507  1.00  0.00    -0.354 N 
ATOM     45  C   UNL A   1      46.297  26.421  28.627  1.00  0.00     0.074 A 
ATOM     46  C   UNL A   1      46.629  25.065  28.247  1.00  0.00     0.031 C 
ATOM     47  C   UNL A   1      39.887  26.493  28.135  1.00  0.00     0.029 A 
ATOM     48  C   UNL A   1      40.757  27.576  28.592  1.00  0.00     0.049 A 
ATOM     49  H   UNL A   1      42.835  27.559  28.709  1.00  0.00     0.167 HD
ATOM     50  C   UNL A   1      47.211  27.366  28.950  1.00  0.00     0.037 A 
ATOM     51  C   UNL A   1      40.352  28.792  29.013  1.00  0.00     0.037 A 
ATOM     52  C   UNL A   1      46.874  28.710  29.336  1.00  0.00     0.049 A 
ATOM     53  C   UNL A   1      41.381  29.800  29.457  1.00  0.00     0.074 A 
ATOM     54  C   UNL A   1      47.725  29.751  29.665  1.00  0.00     0.029 A 
ATOM     55  N   UNL A   1      45.581  29.195  29.460  1.00  0.00    -0.354 N 
ATOM     56  N   UNL A   1      42.689  29.700  29.473  1.00  0.00    -0.248 NA
ATOM     57  C   UNL A   1      40.875  31.093  29.940  1.00  0.00     0.031 C 
ATOM     58  C   UNL A   1      46.944  30.844  30.053  1.00  0.00     0.029 A 
ATOM     59  C   UNL A   1      45.608  30.509  29.898  1.00  0.00     0.049 A 
ATOM     60  H   UNL A   1      44.764  28.681  29.266  1.00  0.00     0.167 HD
ATOM     61  C   UNL A   1      43.162  30.922  29.935  1.00  0.00     0.074 A 
ATOM     62  C   UNL A   1      42.001  31.753  30.178  1.00  0.00     0.031 C 
ATOM     63  C   UNL A   1      44.443  31.325  30.134  1.00  0.00     0.037 A 
BRANCH  50  64
ATOM     64  C   UNL A   1      48.655  26.955  28.942  1.00  0.00     0.057 A 
ATOM     65  C   UNL A   1      49.467  27.093  27.807  1.00  0.00     0.134 A 
ATOM     66  C   UNL A   1      49.241  26.404  30.089  1.00  0.00     0.134 A 
ATOM     67  F   UNL A   1      48.965  27.595  26.669  1.00  0.00    -0.206 F 
ATOM     68  C   UNL A   1      50.796  26.666  27.804  1.00  0.00     0.040 A 
ATOM     69  C   UNL A   1      50.577  26.004  30.108  1.00  0.00     0.040 A 
ATOM     70  F   UNL A   1      48.522  26.243  31.211  1.00  0.00    -0.206 F 
ATOM     71  C   UNL A   1      51.356  26.125  28.959  1.00  0.00     0.006 A 
ENDBRANCH  50  64
BRANCH  51  72
ATOM     72  C   UNL A   1      38.905  29.123  29.043  1.00  0.00     0.057 A 
ATOM     73  C   UNL A   1      38.152  28.984  30.214  1.00  0.00     0.134 A 
ATOM     74  C   UNL A   1      38.235  29.574  27.898  1.00  0.00     0.134 A 
ATOM     75  F   UNL A   1      38.730  28.531  31.337  1.00  0.00    -0.206 F 
ATOM     76  C   UNL A   1      36.787  29.270  30.246  1.00  0.00     0.040 A 
ATOM     77  C   UNL A   1      36.876  29.889  27.921  1.00  0.00     0.040 A 
ATOM     78  F   UNL A   1      38.898  29.725  26.742  1.00  0.00    -0.206 F 
ATOM     79  C   UNL A   1      36.146  29.731  29.097  1.00  0.00     0.006 A 
ENDBRANCH  51  72
BRANCH  63  80
ATOM     80  C   UNL A   1      44.662  32.737  30.600  1.00  0.00     0.057 A 
ATOM     81  C   UNL A   1      44.870  33.053  31.948  1.00  0.00     0.134 A 
ATOM     82  C   UNL A   1      44.711  33.791  29.676  1.00  0.00     0.134 A 
ATOM     83  F   UNL A   1      44.826  32.094  32.887  1.00  0.00    -0.206 F 
ATOM     84  C   UNL A   1      45.093  34.368  32.364  1.00  0.00     0.040 A 
ATOM     85  C   UNL A   1      44.966  35.103  30.076  1.00  0.00     0.040 A 
ATOM     86  F   UNL A   1      44.532  33.558  28.367  1.00  0.00    -0.206 F 
ATOM     87  C   UNL A   1      45.150  35.395  31.425  1.00  0.00     0.006 A 
ENDBRANCH  63  80
ENDBRANCH  37  38
ENDBRANCH  30  32
ENDBRANCH  29  30
ENDBRANCH  28  29
ENDBRANCH  27  28
ENDBRANCH  26  27
ENDBRANCH  25  26
ENDBRANCH  24  25
ENDBRANCH   1  24
TORSDOF 22
ENDMDL
