MODEL 1
REMARK VINA RESULT:     -11.2      0.000      0.000
REMARK SMILES Cn1ccc(-c2n[nH]c(=O)n2-c2ccc(C(=O)OCCOCCOCCOCCOC(=O)c3ccc(-c4c5nc(c(-c6c(F)cccc6F)c6ccc([nH]6)c(-c6c(F)cccc6F)c6nc(c(-c7c(F)cccc7F)c7ccc4[nH]7)C=C6)C=C5)cc3)cc2)n1
REMARK SMILES IDX 24 1 23 2 22 3 21 4 20 5 19 6 18 7 16 8 17 9 15 10 12 11
REMARK SMILES IDX 13 12 88 13 14 14 87 15 11 16 6 17 7 18 8 19 9 20 10 22 5 23
REMARK SMILES IDX 1 24 2 25 3 26 89 27 4 28 25 29 26 30 27 31 28 32 29 33
REMARK SMILES IDX 30 34 31 35 32 36 33 37 34 38 86 39 35 40 85 41 36 42 37 43
REMARK SMILES IDX 38 44 79 45 39 46 84 47 78 48 80 49 40 50 83 51 77 52 76 53
REMARK SMILES IDX 41 55 67 56 50 57 66 58 51 59 54 60 65 61 81 62 52 63 53 64
REMARK SMILES IDX 64 66 82 67 55 68 42 69 43 70 48 71 44 72 45 73 47 74 49 75
REMARK SMILES IDX 46 76 68 77 69 78 74 79 70 80 71 81 73 82 75 83 72 84 56 85
REMARK SMILES IDX 57 86 62 87 58 88 59 89 61 90 63 91 60 92
REMARK H PARENT 8 21 80 54 54 65
REMARK Flexibility Score: inf
ROOT
ATOM      1  O   UNL A   1      38.795  21.967  25.920  1.00  0.00    -0.377 OA
ENDROOT
BRANCH   1   2
ATOM      2  C   UNL A   1      37.674  21.538  25.158  1.00  0.00     0.188 C 
BRANCH   2   3
ATOM      3  C   UNL A   1      36.241  21.579  25.737  1.00  0.00     0.188 C 
BRANCH   3   4
ATOM      4  O   UNL A   1      35.302  20.830  24.991  1.00  0.00    -0.376 OA
BRANCH   4   5
ATOM      5  C   UNL A   1      33.923  21.030  25.184  1.00  0.00     0.202 C 
BRANCH   5   6
ATOM      6  C   UNL A   1      33.057  21.377  23.967  1.00  0.00     0.261 C 
BRANCH   6   7
ATOM      7  O   UNL A   1      32.736  22.762  23.803  1.00  0.00    -0.460 OA
BRANCH   7   8
ATOM      8  C   UNL A   1      33.683  23.547  23.256  1.00  0.00     0.338 C 
ATOM      9  O   UNL A   1      34.377  23.286  22.276  1.00  0.00    -0.246 OA
BRANCH   8  10
ATOM     10  C   UNL A   1      33.621  24.871  23.909  1.00  0.00     0.060 A 
ATOM     11  C   UNL A   1      33.361  27.358  25.153  1.00  0.00     0.052 A 
ATOM     12  C   UNL A   1      33.250  26.191  25.913  1.00  0.00     0.028 A 
ATOM     13  C   UNL A   1      33.735  27.271  23.801  1.00  0.00     0.028 A 
ATOM     14  C   UNL A   1      33.341  24.948  25.281  1.00  0.00     0.018 A 
ATOM     15  C   UNL A   1      33.878  26.033  23.180  1.00  0.00     0.018 A 
BRANCH  11  16
ATOM     16  N   UNL A   1      32.992  28.596  25.697  1.00  0.00    -0.242 N 
ATOM     17  C   UNL A   1      31.914  29.364  25.358  1.00  0.00     0.189 A 
ATOM     18  N   UNL A   1      31.845  30.517  25.966  1.00  0.00    -0.150 NA
ATOM     19  N   UNL A   1      32.916  30.487  26.822  1.00  0.00    -0.226 N 
ATOM     20  C   UNL A   1      33.622  29.287  26.702  1.00  0.00     0.348 A 
ATOM     21  H   UNL A   1      33.156  31.216  27.441  1.00  0.00     0.195 HD
ATOM     22  O   UNL A   1      34.609  28.984  27.353  1.00  0.00    -0.246 OA
BRANCH  17  23
ATOM     23  C   UNL A   1      30.863  28.893  24.472  1.00  0.00     0.130 A 
ATOM     24  C   UNL A   1      28.434  29.585  22.045  1.00  0.00     0.173 C 
ATOM     25  N   UNL A   1      29.303  28.981  23.027  1.00  0.00    -0.275 N 
ATOM     26  C   UNL A   1      29.356  27.670  23.392  1.00  0.00     0.109 A 
ATOM     27  N   UNL A   1      30.191  29.748  23.678  1.00  0.00    -0.170 NA
ATOM     28  C   UNL A   1      30.383  27.571  24.302  1.00  0.00     0.054 A 
ENDBRANCH  17  23
ENDBRANCH  11  16
ENDBRANCH   8  10
ENDBRANCH   7   8
ENDBRANCH   6   7
ENDBRANCH   5   6
ENDBRANCH   4   5
ENDBRANCH   3   4
ENDBRANCH   2   3
ENDBRANCH   1   2
BRANCH   1  29
ATOM     29  C   UNL A   1      39.962  21.160  26.023  1.00  0.00     0.188 C 
BRANCH  29  30
ATOM     30  C   UNL A   1      40.756  21.015  27.349  1.00  0.00     0.188 C 
BRANCH  30  31
ATOM     31  O   UNL A   1      41.841  20.105  27.325  1.00  0.00    -0.376 OA
BRANCH  31  32
ATOM     32  C   UNL A   1      42.000  19.106  26.343  1.00  0.00     0.202 C 
BRANCH  32  33
ATOM     33  C   UNL A   1      43.335  18.941  25.631  1.00  0.00     0.261 C 
BRANCH  33  34
ATOM     34  O   UNL A   1      43.520  19.824  24.546  1.00  0.00    -0.460 OA
BRANCH  34  35
ATOM     35  C   UNL A   1      44.791  19.958  24.155  1.00  0.00     0.338 C 
ATOM     36  O   UNL A   1      45.579  19.065  23.839  1.00  0.00    -0.246 OA
BRANCH  35  37
ATOM     37  C   UNL A   1      45.162  21.356  24.308  1.00  0.00     0.060 A 
ATOM     38  C   UNL A   1      46.122  21.628  25.281  1.00  0.00     0.016 A 
ATOM     39  C   UNL A   1      44.250  22.316  23.841  1.00  0.00     0.016 A 
ATOM     40  C   UNL A   1      45.969  22.781  26.003  1.00  0.00     0.010 A 
ATOM     41  C   UNL A   1      44.076  23.447  24.587  1.00  0.00     0.010 A 
ATOM     42  C   UNL A   1      44.878  23.609  25.712  1.00  0.00    -0.014 A 
BRANCH  42  43
ATOM     43  C   UNL A   1      44.667  24.755  26.558  1.00  0.00     0.031 A 
ATOM     44  C   UNL A   1      45.816  25.678  26.501  1.00  0.00     0.074 A 
ATOM     45  C   UNL A   1      43.518  24.953  27.226  1.00  0.00     0.049 A 
ATOM     46  N   UNL A   1      46.658  25.939  27.442  1.00  0.00    -0.248 NA
ATOM     47  C   UNL A   1      46.203  26.199  25.178  1.00  0.00     0.031 C 
ATOM     48  C   UNL A   1      42.254  24.221  27.109  1.00  0.00     0.029 A 
ATOM     49  N   UNL A   1      43.216  25.942  28.106  1.00  0.00    -0.354 N 
ATOM     50  C   UNL A   1      47.553  26.842  26.884  1.00  0.00     0.074 A 
ATOM     51  C   UNL A   1      47.364  26.785  25.462  1.00  0.00     0.031 C 
ATOM     52  C   UNL A   1      41.272  24.932  27.711  1.00  0.00     0.029 A 
ATOM     53  C   UNL A   1      41.857  26.094  28.357  1.00  0.00     0.049 A 
ATOM     54  H   UNL A   1      43.902  26.505  28.530  1.00  0.00     0.167 HD
ATOM     55  C   UNL A   1      48.153  27.779  27.664  1.00  0.00     0.037 A 
ATOM     56  C   UNL A   1      41.289  27.159  28.979  1.00  0.00     0.037 A 
ATOM     57  C   UNL A   1      48.146  27.369  29.048  1.00  0.00     0.049 A 
ATOM     58  C   UNL A   1      42.372  27.876  29.705  1.00  0.00     0.074 A 
ATOM     59  C   UNL A   1      48.646  26.281  29.739  1.00  0.00     0.029 A 
ATOM     60  N   UNL A   1      47.213  27.942  29.878  1.00  0.00    -0.354 N 
ATOM     61  N   UNL A   1      42.971  27.409  30.763  1.00  0.00    -0.248 NA
ATOM     62  C   UNL A   1      43.102  28.906  28.978  1.00  0.00     0.031 C 
ATOM     63  C   UNL A   1      47.669  25.988  30.736  1.00  0.00     0.029 A 
ATOM     64  C   UNL A   1      46.660  26.948  30.644  1.00  0.00     0.049 A 
ATOM     65  H   UNL A   1      46.982  28.898  29.917  1.00  0.00     0.167 HD
ATOM     66  C   UNL A   1      44.306  27.745  30.589  1.00  0.00     0.074 A 
ATOM     67  C   UNL A   1      44.313  28.740  29.518  1.00  0.00     0.031 C 
ATOM     68  C   UNL A   1      45.297  26.972  31.121  1.00  0.00     0.037 A 
BRANCH  55  69
ATOM     69  C   UNL A   1      48.322  29.218  27.232  1.00  0.00     0.057 A 
ATOM     70  C   UNL A   1      49.590  29.809  27.361  1.00  0.00     0.134 A 
ATOM     71  C   UNL A   1      47.268  30.124  26.984  1.00  0.00     0.134 A 
ATOM     72  F   UNL A   1      50.679  29.061  27.596  1.00  0.00    -0.206 F 
ATOM     73  C   UNL A   1      49.777  31.197  27.348  1.00  0.00     0.040 A 
ATOM     74  C   UNL A   1      47.452  31.507  26.920  1.00  0.00     0.040 A 
ATOM     75  F   UNL A   1      45.988  29.753  26.885  1.00  0.00    -0.206 F 
ATOM     76  C   UNL A   1      48.703  32.052  27.140  1.00  0.00     0.006 A 
ENDBRANCH  55  69
BRANCH  56  77
ATOM     77  C   UNL A   1      39.971  27.794  28.746  1.00  0.00     0.057 A 
ATOM     78  C   UNL A   1      39.020  27.862  29.776  1.00  0.00     0.134 A 
ATOM     79  C   UNL A   1      39.723  28.604  27.624  1.00  0.00     0.134 A 
ATOM     80  F   UNL A   1      39.181  27.151  30.901  1.00  0.00    -0.206 F 
ATOM     81  C   UNL A   1      37.913  28.720  29.717  1.00  0.00     0.040 A 
ATOM     82  C   UNL A   1      38.617  29.458  27.549  1.00  0.00     0.040 A 
ATOM     83  F   UNL A   1      40.591  28.669  26.607  1.00  0.00    -0.206 F 
ATOM     84  C   UNL A   1      37.717  29.534  28.605  1.00  0.00     0.006 A 
ENDBRANCH  56  77
BRANCH  68  85
ATOM     85  C   UNL A   1      44.899  25.915  32.117  1.00  0.00     0.057 A 
ATOM     86  C   UNL A   1      44.551  24.597  31.780  1.00  0.00     0.134 A 
ATOM     87  C   UNL A   1      44.990  26.213  33.481  1.00  0.00     0.134 A 
ATOM     88  F   UNL A   1      44.539  24.186  30.505  1.00  0.00    -0.206 F 
ATOM     89  C   UNL A   1      44.251  23.642  32.757  1.00  0.00     0.040 A 
ATOM     90  C   UNL A   1      44.731  25.259  34.465  1.00  0.00     0.040 A 
ATOM     91  F   UNL A   1      45.373  27.437  33.881  1.00  0.00    -0.206 F 
ATOM     92  C   UNL A   1      44.346  23.970  34.105  1.00  0.00     0.006 A 
ENDBRANCH  68  85
ENDBRANCH  42  43
ENDBRANCH  35  37
ENDBRANCH  34  35
ENDBRANCH  33  34
ENDBRANCH  32  33
ENDBRANCH  31  32
ENDBRANCH  30  31
ENDBRANCH  29  30
ENDBRANCH   1  29
TORSDOF 22
ENDMDL
MODEL 2
REMARK VINA RESULT:     -10.9      5.647     11.005
REMARK SMILES Cn1ccc(-c2n[nH]c(=O)n2-c2ccc(C(=O)OCCOCCOCCOCCOC(=O)c3ccc(-c4c5nc(c(-c6c(F)cccc6F)c6ccc([nH]6)c(-c6c(F)cccc6F)c6nc(c(-c7c(F)cccc7F)c7ccc4[nH]7)C=C6)C=C5)cc3)cc2)n1
REMARK SMILES IDX 24 1 23 2 22 3 21 4 20 5 19 6 18 7 16 8 17 9 15 10 12 11
REMARK SMILES IDX 13 12 88 13 14 14 87 15 11 16 6 17 7 18 8 19 9 20 10 22 5 23
REMARK SMILES IDX 1 24 2 25 3 26 89 27 4 28 25 29 26 30 27 31 28 32 29 33
REMARK SMILES IDX 30 34 31 35 32 36 33 37 34 38 86 39 35 40 85 41 36 42 37 43
REMARK SMILES IDX 38 44 79 45 39 46 84 47 78 48 80 49 40 50 83 51 77 52 76 53
REMARK SMILES IDX 41 55 67 56 50 57 66 58 51 59 54 60 65 61 81 62 52 63 53 64
REMARK SMILES IDX 64 66 82 67 55 68 42 69 43 70 48 71 44 72 45 73 47 74 49 75
REMARK SMILES IDX 46 76 68 77 69 78 74 79 70 80 71 81 73 82 75 83 72 84 56 85
REMARK SMILES IDX 57 86 62 87 58 88 59 89 61 90 63 91 60 92
REMARK H PARENT 8 21 80 54 54 65
REMARK Flexibility Score: inf
ROOT
ATOM      1  O   UNL A   1      33.497  31.354  27.640  1.00  0.00    -0.377 OA
ENDROOT
BRANCH   1   2
ATOM      2  C   UNL A   1      34.264  30.230  27.225  1.00  0.00     0.188 C 
BRANCH   2   3
ATOM      3  C   UNL A   1      33.662  29.132  26.320  1.00  0.00     0.188 C 
BRANCH   3   4
ATOM      4  O   UNL A   1      32.270  28.951  26.489  1.00  0.00    -0.376 OA
BRANCH   4   5
ATOM      5  C   UNL A   1      31.587  27.966  25.751  1.00  0.00     0.202 C 
BRANCH   5   6
ATOM      6  C   UNL A   1      31.864  26.492  26.068  1.00  0.00     0.261 C 
BRANCH   6   7
ATOM      7  O   UNL A   1      30.742  25.610  25.967  1.00  0.00    -0.460 OA
BRANCH   7   8
ATOM      8  C   UNL A   1      30.533  25.023  24.773  1.00  0.00     0.338 C 
ATOM      9  O   UNL A   1      30.035  25.543  23.776  1.00  0.00    -0.246 OA
BRANCH   8  10
ATOM     10  C   UNL A   1      31.181  23.696  24.788  1.00  0.00     0.060 A 
ATOM     11  C   UNL A   1      32.529  21.251  24.861  1.00  0.00     0.052 A 
ATOM     12  C   UNL A   1      32.126  21.853  26.056  1.00  0.00     0.028 A 
ATOM     13  C   UNL A   1      32.136  21.814  23.635  1.00  0.00     0.028 A 
ATOM     14  C   UNL A   1      31.486  23.095  26.018  1.00  0.00     0.018 A 
ATOM     15  C   UNL A   1      31.452  23.026  23.594  1.00  0.00     0.018 A 
BRANCH  11  16
ATOM     16  N   UNL A   1      33.415  20.164  24.878  1.00  0.00    -0.242 N 
ATOM     17  C   UNL A   1      34.774  20.197  24.743  1.00  0.00     0.189 A 
ATOM     18  N   UNL A   1      35.354  19.029  24.717  1.00  0.00    -0.150 NA
ATOM     19  N   UNL A   1      34.316  18.155  24.916  1.00  0.00    -0.226 N 
ATOM     20  C   UNL A   1      33.105  18.840  25.059  1.00  0.00     0.348 A 
ATOM     21  H   UNL A   1      34.411  17.175  24.954  1.00  0.00     0.195 HD
ATOM     22  O   UNL A   1      32.022  18.314  25.262  1.00  0.00    -0.246 OA
BRANCH  17  23
ATOM     23  C   UNL A   1      35.532  21.438  24.742  1.00  0.00     0.130 A 
ATOM     24  C   UNL A   1      37.665  23.666  26.400  1.00  0.00     0.173 C 
ATOM     25  N   UNL A   1      36.788  22.992  25.472  1.00  0.00    -0.275 N 
ATOM     26  C   UNL A   1      36.429  23.402  24.224  1.00  0.00     0.109 A 
ATOM     27  N   UNL A   1      36.246  21.815  25.819  1.00  0.00    -0.170 NA
ATOM     28  C   UNL A   1      35.644  22.398  23.707  1.00  0.00     0.054 A 
ENDBRANCH  17  23
ENDBRANCH  11  16
ENDBRANCH   8  10
ENDBRANCH   7   8
ENDBRANCH   6   7
ENDBRANCH   5   6
ENDBRANCH   4   5
ENDBRANCH   3   4
ENDBRANCH   2   3
ENDBRANCH   1   2
BRANCH   1  29
ATOM     29  C   UNL A   1      34.046  32.330  28.518  1.00  0.00     0.188 C 
BRANCH  29  30
ATOM     30  C   UNL A   1      34.465  33.742  28.030  1.00  0.00     0.188 C 
BRANCH  30  31
ATOM     31  O   UNL A   1      33.472  34.748  28.117  1.00  0.00    -0.376 OA
BRANCH  31  32
ATOM     32  C   UNL A   1      33.652  35.963  28.811  1.00  0.00     0.202 C 
BRANCH  32  33
ATOM     33  C   UNL A   1      32.955  36.189  30.145  1.00  0.00     0.261 C 
BRANCH  33  34
ATOM     34  O   UNL A   1      32.975  35.068  31.001  1.00  0.00    -0.460 OA
BRANCH  34  35
ATOM     35  C   UNL A   1      32.908  35.366  32.302  1.00  0.00     0.338 C 
ATOM     36  O   UNL A   1      32.117  36.131  32.858  1.00  0.00    -0.246 OA
BRANCH  35  37
ATOM     37  C   UNL A   1      34.044  34.746  32.964  1.00  0.00     0.060 A 
ATOM     38  C   UNL A   1      35.194  35.528  33.060  1.00  0.00     0.016 A 
ATOM     39  C   UNL A   1      34.063  33.344  33.027  1.00  0.00     0.016 A 
ATOM     40  C   UNL A   1      36.396  34.889  32.913  1.00  0.00     0.010 A 
ATOM     41  C   UNL A   1      35.260  32.713  32.843  1.00  0.00     0.010 A 
ATOM     42  C   UNL A   1      36.393  33.506  32.694  1.00  0.00    -0.014 A 
BRANCH  42  43
ATOM     43  C   UNL A   1      37.657  32.871  32.425  1.00  0.00     0.031 A 
ATOM     44  C   UNL A   1      38.523  32.882  33.619  1.00  0.00     0.074 A 
ATOM     45  C   UNL A   1      37.931  32.284  31.248  1.00  0.00     0.049 A 
ATOM     46  N   UNL A   1      39.616  33.544  33.788  1.00  0.00    -0.248 NA
ATOM     47  C   UNL A   1      37.994  32.262  34.848  1.00  0.00     0.031 C 
ATOM     48  C   UNL A   1      37.023  32.004  30.133  1.00  0.00     0.029 A 
ATOM     49  N   UNL A   1      39.095  31.718  30.841  1.00  0.00    -0.354 N 
ATOM     50  C   UNL A   1      40.031  33.235  35.077  1.00  0.00     0.074 A 
ATOM     51  C   UNL A   1      38.903  32.644  35.741  1.00  0.00     0.031 C 
ATOM     52  C   UNL A   1      37.615  31.127  29.288  1.00  0.00     0.029 A 
ATOM     53  C   UNL A   1      38.975  30.885  29.734  1.00  0.00     0.049 A 
ATOM     54  H   UNL A   1      39.954  31.882  31.292  1.00  0.00     0.167 HD
ATOM     55  C   UNL A   1      41.355  33.212  35.381  1.00  0.00     0.037 A 
ATOM     56  C   UNL A   1      39.922  30.012  29.303  1.00  0.00     0.037 A 
ATOM     57  C   UNL A   1      42.108  34.003  34.437  1.00  0.00     0.049 A 
ATOM     58  C   UNL A   1      41.211  30.415  29.926  1.00  0.00     0.074 A 
ATOM     59  C   UNL A   1      42.084  35.329  34.049  1.00  0.00     0.029 A 
ATOM     60  N   UNL A   1      42.795  33.337  33.452  1.00  0.00    -0.354 N 
ATOM     61  N   UNL A   1      41.869  31.492  29.604  1.00  0.00    -0.248 NA
ATOM     62  C   UNL A   1      41.532  29.855  31.232  1.00  0.00     0.031 C 
ATOM     63  C   UNL A   1      42.344  35.314  32.647  1.00  0.00     0.029 A 
ATOM     64  C   UNL A   1      42.576  33.992  32.267  1.00  0.00     0.049 A 
ATOM     65  H   UNL A   1      43.347  32.531  33.574  1.00  0.00     0.167 HD
ATOM     66  C   UNL A   1      42.341  31.991  30.810  1.00  0.00     0.074 A 
ATOM     67  C   UNL A   1      42.178  30.897  31.765  1.00  0.00     0.031 C 
ATOM     68  C   UNL A   1      42.540  33.330  30.983  1.00  0.00     0.037 A 
BRANCH  55  69
ATOM     69  C   UNL A   1      41.980  32.131  36.234  1.00  0.00     0.057 A 
ATOM     70  C   UNL A   1      42.835  32.516  37.280  1.00  0.00     0.134 A 
ATOM     71  C   UNL A   1      42.026  30.758  35.906  1.00  0.00     0.134 A 
ATOM     72  F   UNL A   1      42.887  33.792  37.693  1.00  0.00    -0.206 F 
ATOM     73  C   UNL A   1      43.737  31.629  37.879  1.00  0.00     0.040 A 
ATOM     74  C   UNL A   1      42.887  29.854  36.532  1.00  0.00     0.040 A 
ATOM     75  F   UNL A   1      41.323  30.217  34.905  1.00  0.00    -0.206 F 
ATOM     76  C   UNL A   1      43.774  30.295  37.496  1.00  0.00     0.006 A 
ENDBRANCH  55  69
BRANCH  56  77
ATOM     77  C   UNL A   1      39.759  28.684  28.667  1.00  0.00     0.057 A 
ATOM     78  C   UNL A   1      40.407  28.388  27.458  1.00  0.00     0.134 A 
ATOM     79  C   UNL A   1      39.222  27.587  29.362  1.00  0.00     0.134 A 
ATOM     80  F   UNL A   1      40.980  29.361  26.735  1.00  0.00    -0.206 F 
ATOM     81  C   UNL A   1      40.555  27.075  26.990  1.00  0.00     0.040 A 
ATOM     82  C   UNL A   1      39.355  26.272  28.901  1.00  0.00     0.040 A 
ATOM     83  F   UNL A   1      38.636  27.739  30.557  1.00  0.00    -0.206 F 
ATOM     84  C   UNL A   1      40.040  26.010  27.721  1.00  0.00     0.006 A 
ENDBRANCH  56  77
BRANCH  68  85
ATOM     85  C   UNL A   1      42.496  34.207  29.760  1.00  0.00     0.057 A 
ATOM     86  C   UNL A   1      41.340  34.845  29.282  1.00  0.00     0.134 A 
ATOM     87  C   UNL A   1      43.698  34.512  29.112  1.00  0.00     0.134 A 
ATOM     88  F   UNL A   1      40.160  34.700  29.899  1.00  0.00    -0.206 F 
ATOM     89  C   UNL A   1      41.375  35.699  28.175  1.00  0.00     0.040 A 
ATOM     90  C   UNL A   1      43.752  35.392  28.031  1.00  0.00     0.040 A 
ATOM     91  F   UNL A   1      44.853  33.984  29.548  1.00  0.00    -0.206 F 
ATOM     92  C   UNL A   1      42.585  35.979  27.548  1.00  0.00     0.006 A 
ENDBRANCH  68  85
ENDBRANCH  42  43
ENDBRANCH  35  37
ENDBRANCH  34  35
ENDBRANCH  33  34
ENDBRANCH  32  33
ENDBRANCH  31  32
ENDBRANCH  30  31
ENDBRANCH  29  30
ENDBRANCH   1  29
TORSDOF 22
ENDMDL
MODEL 3
REMARK VINA RESULT:     -10.7      1.219      2.052
REMARK SMILES Cn1ccc(-c2n[nH]c(=O)n2-c2ccc(C(=O)OCCOCCOCCOCCOC(=O)c3ccc(-c4c5nc(c(-c6c(F)cccc6F)c6ccc([nH]6)c(-c6c(F)cccc6F)c6nc(c(-c7c(F)cccc7F)c7ccc4[nH]7)C=C6)C=C5)cc3)cc2)n1
REMARK SMILES IDX 24 1 23 2 22 3 21 4 20 5 19 6 18 7 16 8 17 9 15 10 12 11
REMARK SMILES IDX 13 12 88 13 14 14 87 15 11 16 6 17 7 18 8 19 9 20 10 22 5 23
REMARK SMILES IDX 1 24 2 25 3 26 89 27 4 28 25 29 26 30 27 31 28 32 29 33
REMARK SMILES IDX 30 34 31 35 32 36 33 37 34 38 86 39 35 40 85 41 36 42 37 43
REMARK SMILES IDX 38 44 79 45 39 46 84 47 78 48 80 49 40 50 83 51 77 52 76 53
REMARK SMILES IDX 41 55 67 56 50 57 66 58 51 59 54 60 65 61 81 62 52 63 53 64
REMARK SMILES IDX 64 66 82 67 55 68 42 69 43 70 48 71 44 72 45 73 47 74 49 75
REMARK SMILES IDX 46 76 68 77 69 78 74 79 70 80 71 81 73 82 75 83 72 84 56 85
REMARK SMILES IDX 57 86 62 87 58 88 59 89 61 90 63 91 60 92
REMARK H PARENT 8 21 80 54 54 65
REMARK Flexibility Score: inf
ROOT
ATOM      1  O   UNL A   1      37.892  22.086  25.381  1.00  0.00    -0.377 OA
ENDROOT
BRANCH   1   2
ATOM      2  C   UNL A   1      36.769  21.504  24.730  1.00  0.00     0.188 C 
BRANCH   2   3
ATOM      3  C   UNL A   1      35.511  21.075  25.519  1.00  0.00     0.188 C 
BRANCH   3   4
ATOM      4  O   UNL A   1      34.411  20.733  24.699  1.00  0.00    -0.376 OA
BRANCH   4   5
ATOM      5  C   UNL A   1      33.382  21.665  24.468  1.00  0.00     0.202 C 
BRANCH   5   6
ATOM      6  C   UNL A   1      32.735  21.711  23.079  1.00  0.00     0.261 C 
BRANCH   6   7
ATOM      7  O   UNL A   1      32.338  23.006  22.617  1.00  0.00    -0.460 OA
BRANCH   7   8
ATOM      8  C   UNL A   1      33.239  23.999  22.737  1.00  0.00     0.338 C 
ATOM      9  O   UNL A   1      34.463  23.892  22.672  1.00  0.00    -0.246 OA
BRANCH   8  10
ATOM     10  C   UNL A   1      32.513  25.284  22.765  1.00  0.00     0.060 A 
ATOM     11  C   UNL A   1      31.222  27.755  22.929  1.00  0.00     0.052 A 
ATOM     12  C   UNL A   1      32.507  27.683  22.387  1.00  0.00     0.028 A 
ATOM     13  C   UNL A   1      30.542  26.571  23.260  1.00  0.00     0.028 A 
ATOM     14  C   UNL A   1      33.167  26.452  22.342  1.00  0.00     0.018 A 
ATOM     15  C   UNL A   1      31.177  25.335  23.167  1.00  0.00     0.018 A 
BRANCH  11  16
ATOM     16  N   UNL A   1      30.656  28.998  23.250  1.00  0.00    -0.242 N 
ATOM     17  C   UNL A   1      30.788  29.694  24.417  1.00  0.00     0.189 A 
ATOM     18  N   UNL A   1      30.089  30.794  24.486  1.00  0.00    -0.150 NA
ATOM     19  N   UNL A   1      29.501  30.873  23.249  1.00  0.00    -0.226 N 
ATOM     20  C   UNL A   1      29.870  29.788  22.449  1.00  0.00     0.348 A 
ATOM     21  H   UNL A   1      28.899  31.598  22.963  1.00  0.00     0.195 HD
ATOM     22  O   UNL A   1      29.508  29.610  21.296  1.00  0.00    -0.246 OA
BRANCH  17  23
ATOM     23  C   UNL A   1      31.719  29.303  25.463  1.00  0.00     0.130 A 
ATOM     24  C   UNL A   1      34.476  30.071  27.481  1.00  0.00     0.173 C 
ATOM     25  N   UNL A   1      33.364  29.447  26.805  1.00  0.00    -0.275 N 
ATOM     26  C   UNL A   1      32.859  28.200  27.018  1.00  0.00     0.109 A 
ATOM     27  N   UNL A   1      32.706  30.130  25.856  1.00  0.00    -0.170 NA
ATOM     28  C   UNL A   1      31.766  28.088  26.189  1.00  0.00     0.054 A 
ENDBRANCH  17  23
ENDBRANCH  11  16
ENDBRANCH   8  10
ENDBRANCH   7   8
ENDBRANCH   6   7
ENDBRANCH   5   6
ENDBRANCH   4   5
ENDBRANCH   3   4
ENDBRANCH   2   3
ENDBRANCH   1   2
BRANCH   1  29
ATOM     29  C   UNL A   1      39.007  21.292  25.766  1.00  0.00     0.188 C 
BRANCH  29  30
ATOM     30  C   UNL A   1      40.312  21.914  26.332  1.00  0.00     0.188 C 
BRANCH  30  31
ATOM     31  O   UNL A   1      41.231  21.006  26.911  1.00  0.00    -0.376 OA
BRANCH  31  32
ATOM     32  C   UNL A   1      41.347  19.656  26.516  1.00  0.00     0.202 C 
BRANCH  32  33
ATOM     33  C   UNL A   1      42.638  19.156  25.883  1.00  0.00     0.261 C 
BRANCH  33  34
ATOM     34  O   UNL A   1      43.126  19.980  24.847  1.00  0.00    -0.460 OA
BRANCH  34  35
ATOM     35  C   UNL A   1      44.459  20.070  24.795  1.00  0.00     0.338 C 
ATOM     36  O   UNL A   1      45.276  19.147  24.815  1.00  0.00    -0.246 OA
BRANCH  35  37
ATOM     37  C   UNL A   1      44.816  21.477  24.865  1.00  0.00     0.060 A 
ATOM     38  C   UNL A   1      45.801  21.810  25.794  1.00  0.00     0.016 A 
ATOM     39  C   UNL A   1      43.879  22.402  24.378  1.00  0.00     0.016 A 
ATOM     40  C   UNL A   1      45.655  22.996  26.460  1.00  0.00     0.010 A 
ATOM     41  C   UNL A   1      43.713  23.568  25.070  1.00  0.00     0.010 A 
ATOM     42  C   UNL A   1      44.545  23.796  26.160  1.00  0.00    -0.014 A 
BRANCH  42  43
ATOM     43  C   UNL A   1      44.345  24.982  26.953  1.00  0.00     0.031 A 
ATOM     44  C   UNL A   1      45.461  25.931  26.782  1.00  0.00     0.074 A 
ATOM     45  C   UNL A   1      43.228  25.186  27.672  1.00  0.00     0.049 A 
ATOM     46  N   UNL A   1      46.344  26.268  27.659  1.00  0.00    -0.248 NA
ATOM     47  C   UNL A   1      45.761  26.387  25.413  1.00  0.00     0.031 C 
ATOM     48  C   UNL A   1      41.983  24.414  27.664  1.00  0.00     0.029 A 
ATOM     49  N   UNL A   1      42.943  26.214  28.511  1.00  0.00    -0.354 N 
ATOM     50  C   UNL A   1      47.180  27.163  27.004  1.00  0.00     0.074 A 
ATOM     51  C   UNL A   1      46.917  27.021  25.600  1.00  0.00     0.031 C 
ATOM     52  C   UNL A   1      41.013  25.130  28.280  1.00  0.00     0.029 A 
ATOM     53  C   UNL A   1      41.596  26.343  28.827  1.00  0.00     0.049 A 
ATOM     54  H   UNL A   1      43.634  26.819  28.865  1.00  0.00     0.167 HD
ATOM     55  C   UNL A   1      47.792  28.158  27.697  1.00  0.00     0.037 A 
ATOM     56  C   UNL A   1      41.030  27.425  29.420  1.00  0.00     0.037 A 
ATOM     57  C   UNL A   1      47.871  27.827  29.100  1.00  0.00     0.049 A 
ATOM     58  C   UNL A   1      42.127  28.211  30.045  1.00  0.00     0.074 A 
ATOM     59  C   UNL A   1      48.440  26.793  29.821  1.00  0.00     0.029 A 
ATOM     60  N   UNL A   1      46.967  28.420  29.948  1.00  0.00    -0.354 N 
ATOM     61  N   UNL A   1      42.796  27.821  31.093  1.00  0.00    -0.248 NA
ATOM     62  C   UNL A   1      42.786  29.218  29.224  1.00  0.00     0.031 C 
ATOM     63  C   UNL A   1      47.527  26.531  30.885  1.00  0.00     0.029 A 
ATOM     64  C   UNL A   1      46.487  27.456  30.797  1.00  0.00     0.049 A 
ATOM     65  H   UNL A   1      46.709  29.370  29.947  1.00  0.00     0.167 HD
ATOM     66  C   UNL A   1      44.109  28.184  30.827  1.00  0.00     0.074 A 
ATOM     67  C   UNL A   1      44.028  29.116  29.705  1.00  0.00     0.031 C 
ATOM     68  C   UNL A   1      45.150  27.469  31.346  1.00  0.00     0.037 A 
BRANCH  55  69
ATOM     69  C   UNL A   1      47.893  29.575  27.179  1.00  0.00     0.057 A 
ATOM     70  C   UNL A   1      49.141  30.219  27.236  1.00  0.00     0.134 A 
ATOM     71  C   UNL A   1      46.799  30.426  26.910  1.00  0.00     0.134 A 
ATOM     72  F   UNL A   1      50.264  29.526  27.481  1.00  0.00    -0.206 F 
ATOM     73  C   UNL A   1      49.274  31.609  27.137  1.00  0.00     0.040 A 
ATOM     74  C   UNL A   1      46.928  31.808  26.761  1.00  0.00     0.040 A 
ATOM     75  F   UNL A   1      45.531  30.002  26.871  1.00  0.00    -0.206 F 
ATOM     76  C   UNL A   1      48.163  32.410  26.913  1.00  0.00     0.006 A 
ENDBRANCH  55  69
BRANCH  56  77
ATOM     77  C   UNL A   1      39.682  28.009  29.226  1.00  0.00     0.057 A 
ATOM     78  C   UNL A   1      38.789  28.116  30.303  1.00  0.00     0.134 A 
ATOM     79  C   UNL A   1      39.348  28.742  28.074  1.00  0.00     0.134 A 
ATOM     80  F   UNL A   1      39.034  27.481  31.458  1.00  0.00    -0.206 F 
ATOM     81  C   UNL A   1      37.656  28.939  30.257  1.00  0.00     0.040 A 
ATOM     82  C   UNL A   1      38.215  29.560  28.012  1.00  0.00     0.040 A 
ATOM     83  F   UNL A   1      40.156  28.766  27.006  1.00  0.00    -0.206 F 
ATOM     84  C   UNL A   1      37.374  29.677  29.111  1.00  0.00     0.006 A 
ENDBRANCH  56  77
BRANCH  68  85
ATOM     85  C   UNL A   1      44.839  26.460  32.418  1.00  0.00     0.057 A 
ATOM     86  C   UNL A   1      44.525  25.113  32.174  1.00  0.00     0.134 A 
ATOM     87  C   UNL A   1      44.982  26.841  33.757  1.00  0.00     0.134 A 
ATOM     88  F   UNL A   1      44.469  24.627  30.927  1.00  0.00    -0.206 F 
ATOM     89  C   UNL A   1      44.307  24.207  33.217  1.00  0.00     0.040 A 
ATOM     90  C   UNL A   1      44.805  25.937  34.805  1.00  0.00     0.040 A 
ATOM     91  F   UNL A   1      45.337  28.099  34.067  1.00  0.00    -0.206 F 
ATOM     92  C   UNL A   1      44.452  24.617  34.539  1.00  0.00     0.006 A 
ENDBRANCH  68  85
ENDBRANCH  42  43
ENDBRANCH  35  37
ENDBRANCH  34  35
ENDBRANCH  33  34
ENDBRANCH  32  33
ENDBRANCH  31  32
ENDBRANCH  30  31
ENDBRANCH  29  30
ENDBRANCH   1  29
TORSDOF 22
ENDMDL
