MODEL 1
REMARK VINA RESULT:      -9.6      0.000      0.000
REMARK SMILES O=C(N[C@@H](Cc1c[nH]c2ccccc12)C(=O)N[C@@H](CO)C(=O)OCCOCCOCCOCCOC(=O)c1ccc(-c2c3nc(c(-c4c(F)cccc4F)c4ccc([nH]4)c(-c4c(F)cccc4F)c4nc(c(-c5c(F)cccc5F)c5ccc2[nH]5)C=C4)C=C3)cc1)c1ccc(F)cc1
REMARK SMILES IDX 28 1 27 2 26 3 25 4 24 5 23 6 21 7 22 8 18 9 17 10 15 11
REMARK SMILES IDX 16 12 4 14 3 15 1 16 2 17 92 19 93 20 98 21 94 22 97 23
REMARK SMILES IDX 95 24 96 25 5 26 6 27 7 28 14 29 8 30 9 31 13 32 10 34 12 35
REMARK SMILES IDX 11 36 19 37 20 38 29 40 30 41 31 42 32 43 33 44 34 45 35 46
REMARK SMILES IDX 36 47 37 48 38 49 39 50 91 51 40 52 90 53 41 54 42 55 43 56
REMARK SMILES IDX 84 57 44 58 89 59 83 60 85 61 45 62 88 63 82 64 81 65 46 67
REMARK SMILES IDX 72 68 55 69 71 70 56 71 59 72 70 73 86 74 57 75 58 76 69 78
REMARK SMILES IDX 87 79 60 80 47 81 48 82 53 83 49 84 50 85 52 86 54 87 51 88
REMARK SMILES IDX 73 89 74 90 79 91 75 92 76 93 78 94 80 95 77 96 61 97 62 98
REMARK SMILES IDX 67 99 63 100 64 101 66 102 68 103 65 104
REMARK H PARENT 17 13 3 18 8 33 20 39 85 66 59 77
REMARK Flexibility Score: inf
ROOT
ATOM      1  C   UNL A   1      44.005  23.537  28.201  1.00  0.00     0.188 C 
ENDROOT
BRANCH   1   2
ATOM      2  C   UNL A   1      43.136  22.674  27.286  1.00  0.00     0.188 C 
BRANCH   2   3
ATOM      3  O   UNL A   1      42.518  21.585  27.955  1.00  0.00    -0.376 OA
BRANCH   3   4
ATOM      4  C   UNL A   1      41.339  21.024  27.400  1.00  0.00     0.202 C 
BRANCH   4   5
ATOM      5  C   UNL A   1      40.384  21.916  26.550  1.00  0.00     0.261 C 
BRANCH   5   6
ATOM      6  O   UNL A   1      38.966  21.622  26.480  1.00  0.00    -0.462 OA
BRANCH   6   7
ATOM      7  C   UNL A   1      38.194  22.711  26.290  1.00  0.00     0.331 C 
ATOM      8  O   UNL A   1      38.506  23.813  26.753  1.00  0.00    -0.250 OA
BRANCH   7   9
ATOM      9  C   UNL A   1      36.753  22.459  25.347  1.00  0.00     0.218 C 
BRANCH   9  10
ATOM     10  N   UNL A   1      35.662  21.782  26.498  1.00  0.00    -0.339 N 
ATOM     11  C   UNL A   1      34.278  21.636  26.600  1.00  0.00     0.243 C 
ATOM     12  O   UNL A   1      33.877  21.149  27.672  1.00  0.00    -0.273 OA
ATOM     13  H   UNL A   1      36.132  21.405  27.277  1.00  0.00     0.164 HD
BRANCH  11  14
ATOM     14  C   UNL A   1      33.134  22.147  25.566  1.00  0.00     0.176 C 
BRANCH  14  15
ATOM     15  N   UNL A   1      33.117  21.587  24.189  1.00  0.00    -0.340 N 
ATOM     16  O   UNL A   1      32.289  21.123  22.183  1.00  0.00    -0.269 OA
ATOM     17  C   UNL A   1      32.554  21.989  23.017  1.00  0.00     0.251 C 
ATOM     18  H   UNL A   1      33.620  20.744  24.108  1.00  0.00     0.164 HD
BRANCH  17  19
ATOM     19  C   UNL A   1      32.235  23.389  22.710  1.00  0.00     0.040 A 
ATOM     20  C   UNL A   1      33.075  24.174  21.918  1.00  0.00     0.017 A 
ATOM     21  C   UNL A   1      30.968  23.863  23.090  1.00  0.00     0.017 A 
ATOM     22  C   UNL A   1      32.652  25.447  21.528  1.00  0.00     0.040 A 
ATOM     23  C   UNL A   1      30.553  25.135  22.702  1.00  0.00     0.040 A 
ATOM     24  C   UNL A   1      31.400  25.915  21.924  1.00  0.00     0.123 A 
ATOM     25  F   UNL A   1      30.997  27.130  21.531  1.00  0.00    -0.207 F 
ENDBRANCH  17  19
ENDBRANCH  14  15
BRANCH  14  26
ATOM     26  C   UNL A   1      31.695  22.149  26.081  1.00  0.00     0.072 C 
BRANCH  26  27
ATOM     27  C   UNL A   1      31.240  23.452  26.700  1.00  0.00    -0.020 A 
ATOM     28  C   UNL A   1      29.883  23.764  26.840  1.00  0.00     0.087 A 
ATOM     29  C   UNL A   1      32.012  24.689  26.708  1.00  0.00     0.003 A 
ATOM     30  N   UNL A   1      29.587  25.116  26.689  1.00  0.00    -0.361 N 
ATOM     31  C   UNL A   1      30.707  25.799  26.283  1.00  0.00     0.046 A 
ATOM     32  C   UNL A   1      33.701  25.097  26.125  1.00  0.00     0.010 A 
ATOM     33  H   UNL A   1      28.705  25.523  26.849  1.00  0.00     0.166 HD
ATOM     34  C   UNL A   1      31.031  27.258  25.260  1.00  0.00     0.026 A 
ATOM     35  C   UNL A   1      33.985  26.456  24.989  1.00  0.00     0.001 A 
ATOM     36  C   UNL A   1      32.649  27.517  24.558  1.00  0.00     0.002 A 
ENDBRANCH  26  27
ENDBRANCH  14  26
ENDBRANCH  11  14
ENDBRANCH   9  10
BRANCH   9  37
ATOM     37  C   UNL A   1      36.232  23.326  23.393  1.00  0.00     0.193 C 
BRANCH  37  38
ATOM     38  O   UNL A   1      36.661  22.878  21.955  1.00  0.00    -0.394 OA
ATOM     39  H   UNL A   1      37.594  22.613  21.964  1.00  0.00     0.210 HD
ENDBRANCH  37  38
ENDBRANCH   9  37
ENDBRANCH   7   9
ENDBRANCH   6   7
ENDBRANCH   5   6
ENDBRANCH   4   5
ENDBRANCH   3   4
ENDBRANCH   2   3
ENDBRANCH   1   2
BRANCH   1  40
ATOM     40  O   UNL A   1      44.882  24.431  27.548  1.00  0.00    -0.377 OA
BRANCH  40  41
ATOM     41  C   UNL A   1      45.216  24.185  26.184  1.00  0.00     0.188 C 
BRANCH  41  42
ATOM     42  C   UNL A   1      44.733  25.121  25.055  1.00  0.00     0.188 C 
BRANCH  42  43
ATOM     43  O   UNL A   1      44.508  26.459  25.469  1.00  0.00    -0.376 OA
BRANCH  43  44
ATOM     44  C   UNL A   1      45.648  27.293  25.599  1.00  0.00     0.202 C 
BRANCH  44  45
ATOM     45  C   UNL A   1      45.502  28.511  26.521  1.00  0.00     0.261 C 
BRANCH  45  46
ATOM     46  O   UNL A   1      44.176  29.034  26.712  1.00  0.00    -0.460 OA
BRANCH  46  47
ATOM     47  C   UNL A   1      44.000  30.354  26.939  1.00  0.00     0.338 C 
ATOM     48  O   UNL A   1      43.881  31.238  26.113  1.00  0.00    -0.246 OA
BRANCH  47  49
ATOM     49  C   UNL A   1      43.741  30.514  28.391  1.00  0.00     0.060 A 
ATOM     50  C   UNL A   1      43.241  29.427  29.126  1.00  0.00     0.016 A 
ATOM     51  C   UNL A   1      44.041  31.718  29.031  1.00  0.00     0.016 A 
ATOM     52  C   UNL A   1      43.006  29.556  30.497  1.00  0.00     0.010 A 
ATOM     53  C   UNL A   1      43.770  31.858  30.393  1.00  0.00     0.010 A 
ATOM     54  C   UNL A   1      43.215  30.791  31.122  1.00  0.00    -0.014 A 
BRANCH  54  55
ATOM     55  C   UNL A   1      42.593  31.071  32.437  1.00  0.00     0.031 A 
ATOM     56  C   UNL A   1      41.151  31.502  32.435  1.00  0.00     0.074 A 
ATOM     57  C   UNL A   1      43.273  30.980  33.592  1.00  0.00     0.049 A 
ATOM     58  N   UNL A   1      40.407  31.935  33.417  1.00  0.00    -0.248 NA
ATOM     59  C   UNL A   1      40.458  31.441  31.135  1.00  0.00     0.031 C 
ATOM     60  C   UNL A   1      44.653  30.523  33.733  1.00  0.00     0.029 A 
ATOM     61  N   UNL A   1      42.887  31.294  34.872  1.00  0.00    -0.354 N 
ATOM     62  C   UNL A   1      39.168  32.210  32.852  1.00  0.00     0.074 A 
ATOM     63  C   UNL A   1      39.262  31.915  31.442  1.00  0.00     0.031 C 
ATOM     64  C   UNL A   1      45.009  30.611  35.028  1.00  0.00     0.029 A 
ATOM     65  C   UNL A   1      43.895  31.169  35.796  1.00  0.00     0.049 A 
ATOM     66  H   UNL A   1      41.975  31.581  35.105  1.00  0.00     0.167 HD
ATOM     67  C   UNL A   1      38.048  32.669  33.457  1.00  0.00     0.037 A 
ATOM     68  C   UNL A   1      43.921  31.503  37.102  1.00  0.00     0.037 A 
ATOM     69  C   UNL A   1      37.960  32.976  34.857  1.00  0.00     0.049 A 
ATOM     70  C   UNL A   1      42.690  32.103  37.737  1.00  0.00     0.074 A 
ATOM     71  C   UNL A   1      36.872  33.442  35.570  1.00  0.00     0.029 A 
ATOM     72  N   UNL A   1      39.011  32.858  35.754  1.00  0.00    -0.354 N 
ATOM     73  N   UNL A   1      41.516  32.344  37.204  1.00  0.00    -0.248 NA
ATOM     74  C   UNL A   1      42.788  32.482  39.155  1.00  0.00     0.031 C 
ATOM     75  C   UNL A   1      37.278  33.655  36.891  1.00  0.00     0.029 A 
ATOM     76  C   UNL A   1      38.603  33.267  37.011  1.00  0.00     0.049 A 
ATOM     77  H   UNL A   1      39.912  32.531  35.530  1.00  0.00     0.167 HD
ATOM     78  C   UNL A   1      40.730  32.869  38.224  1.00  0.00     0.074 A 
ATOM     79  C   UNL A   1      41.559  32.909  39.410  1.00  0.00     0.031 C 
ATOM     80  C   UNL A   1      39.438  33.277  38.185  1.00  0.00     0.037 A 
BRANCH  67  81
ATOM     81  C   UNL A   1      36.846  32.902  32.591  1.00  0.00     0.057 A 
ATOM     82  C   UNL A   1      35.957  31.871  32.263  1.00  0.00     0.134 A 
ATOM     83  C   UNL A   1      36.568  34.180  32.091  1.00  0.00     0.134 A 
ATOM     84  F   UNL A   1      36.180  30.619  32.693  1.00  0.00    -0.206 F 
ATOM     85  C   UNL A   1      34.848  32.097  31.448  1.00  0.00     0.040 A 
ATOM     86  C   UNL A   1      35.448  34.425  31.297  1.00  0.00     0.040 A 
ATOM     87  F   UNL A   1      37.382  35.211  32.366  1.00  0.00    -0.206 F 
ATOM     88  C   UNL A   1      34.586  33.379  30.970  1.00  0.00     0.006 A 
ENDBRANCH  67  81
BRANCH  68  89
ATOM     89  C   UNL A   1      45.160  31.311  37.901  1.00  0.00     0.057 A 
ATOM     90  C   UNL A   1      46.061  32.362  38.106  1.00  0.00     0.134 A 
ATOM     91  C   UNL A   1      45.491  30.065  38.448  1.00  0.00     0.134 A 
ATOM     92  F   UNL A   1      45.816  33.573  37.585  1.00  0.00    -0.206 F 
ATOM     93  C   UNL A   1      47.252  32.179  38.813  1.00  0.00     0.040 A 
ATOM     94  C   UNL A   1      46.665  29.873  39.177  1.00  0.00     0.040 A 
ATOM     95  F   UNL A   1      44.673  29.015  38.283  1.00  0.00    -0.206 F 
ATOM     96  C   UNL A   1      47.554  30.931  39.356  1.00  0.00     0.006 A 
ENDBRANCH  68  89
BRANCH  80  97
ATOM     97  C   UNL A   1      38.813  33.750  39.465  1.00  0.00     0.057 A 
ATOM     98  C   UNL A   1      38.104  32.886  40.308  1.00  0.00     0.134 A 
ATOM     99  C   UNL A   1      39.001  35.070  39.898  1.00  0.00     0.134 A 
ATOM    100  F   UNL A   1      37.882  31.613  39.948  1.00  0.00    -0.206 F 
ATOM    101  C   UNL A   1      37.594  33.323  41.532  1.00  0.00     0.040 A 
ATOM    102  C   UNL A   1      38.519  35.510  41.131  1.00  0.00     0.040 A 
ATOM    103  F   UNL A   1      39.683  35.944  39.141  1.00  0.00    -0.206 F 
ATOM    104  C   UNL A   1      37.810  34.635  41.951  1.00  0.00     0.006 A 
ENDBRANCH  80  97
ENDBRANCH  54  55
ENDBRANCH  47  49
ENDBRANCH  46  47
ENDBRANCH  45  46
ENDBRANCH  44  45
ENDBRANCH  43  44
ENDBRANCH  42  43
ENDBRANCH  41  42
ENDBRANCH  40  41
ENDBRANCH   1  40
TORSDOF 28
ENDMDL
MODEL 2
REMARK VINA RESULT:      -9.5      5.725     12.484
REMARK SMILES O=C(N[C@@H](Cc1c[nH]c2ccccc12)C(=O)N[C@@H](CO)C(=O)OCCOCCOCCOCCOC(=O)c1ccc(-c2c3nc(c(-c4c(F)cccc4F)c4ccc([nH]4)c(-c4c(F)cccc4F)c4nc(c(-c5c(F)cccc5F)c5ccc2[nH]5)C=C4)C=C3)cc1)c1ccc(F)cc1
REMARK SMILES IDX 28 1 27 2 26 3 25 4 24 5 23 6 21 7 22 8 18 9 17 10 15 11
REMARK SMILES IDX 16 12 4 14 3 15 1 16 2 17 92 19 93 20 98 21 94 22 97 23
REMARK SMILES IDX 95 24 96 25 5 26 6 27 7 28 14 29 8 30 9 31 13 32 10 34 12 35
REMARK SMILES IDX 11 36 19 37 20 38 29 40 30 41 31 42 32 43 33 44 34 45 35 46
REMARK SMILES IDX 36 47 37 48 38 49 39 50 91 51 40 52 90 53 41 54 42 55 43 56
REMARK SMILES IDX 84 57 44 58 89 59 83 60 85 61 45 62 88 63 82 64 81 65 46 67
REMARK SMILES IDX 72 68 55 69 71 70 56 71 59 72 70 73 86 74 57 75 58 76 69 78
REMARK SMILES IDX 87 79 60 80 47 81 48 82 53 83 49 84 50 85 52 86 54 87 51 88
REMARK SMILES IDX 73 89 74 90 79 91 75 92 76 93 78 94 80 95 77 96 61 97 62 98
REMARK SMILES IDX 67 99 63 100 64 101 66 102 68 103 65 104
REMARK H PARENT 17 13 3 18 8 33 20 39 85 66 59 77
REMARK Flexibility Score: inf
ROOT
ATOM      1  C   UNL A   1      38.571  33.647  29.731  1.00  0.00     0.188 C 
ENDROOT
BRANCH   1   2
ATOM      2  C   UNL A   1      39.842  34.129  30.429  1.00  0.00     0.188 C 
BRANCH   2   3
ATOM      3  O   UNL A   1      40.960  34.234  29.559  1.00  0.00    -0.376 OA
BRANCH   3   4
ATOM      4  C   UNL A   1      42.260  34.046  30.093  1.00  0.00     0.202 C 
BRANCH   4   5
ATOM      5  C   UNL A   1      43.504  34.163  29.161  1.00  0.00     0.261 C 
BRANCH   5   6
ATOM      6  O   UNL A   1      44.059  32.988  28.518  1.00  0.00    -0.462 OA
BRANCH   6   7
ATOM      7  C   UNL A   1      44.392  33.182  27.226  1.00  0.00     0.331 C 
ATOM      8  O   UNL A   1      43.560  33.561  26.394  1.00  0.00    -0.250 OA
BRANCH   7   9
ATOM      9  C   UNL A   1      46.057  32.876  26.821  1.00  0.00     0.218 C 
BRANCH   9  10
ATOM     10  N   UNL A   1      45.963  31.402  25.929  1.00  0.00    -0.339 N 
ATOM     11  C   UNL A   1      46.476  30.112  26.071  1.00  0.00     0.243 C 
ATOM     12  O   UNL A   1      46.231  29.341  25.127  1.00  0.00    -0.273 OA
ATOM     13  H   UNL A   1      45.412  31.494  25.119  1.00  0.00     0.164 HD
BRANCH  11  14
ATOM     14  C   UNL A   1      47.458  29.543  27.233  1.00  0.00     0.176 C 
BRANCH  14  15
ATOM     15  N   UNL A   1      47.042  28.331  27.987  1.00  0.00    -0.340 N 
ATOM     16  O   UNL A   1      45.856  27.129  29.428  1.00  0.00    -0.269 OA
ATOM     17  C   UNL A   1      45.845  27.877  28.450  1.00  0.00     0.251 C 
ATOM     18  H   UNL A   1      47.792  27.729  28.197  1.00  0.00     0.164 HD
BRANCH  17  19
ATOM     19  C   UNL A   1      44.554  28.244  27.855  1.00  0.00     0.040 A 
ATOM     20  C   UNL A   1      43.875  29.402  28.238  1.00  0.00     0.017 A 
ATOM     21  C   UNL A   1      44.107  27.486  26.760  1.00  0.00     0.017 A 
ATOM     22  C   UNL A   1      42.731  29.787  27.533  1.00  0.00     0.040 A 
ATOM     23  C   UNL A   1      42.962  27.871  26.064  1.00  0.00     0.040 A 
ATOM     24  C   UNL A   1      42.286  29.019  26.458  1.00  0.00     0.123 A 
ATOM     25  F   UNL A   1      41.197  29.404  25.780  1.00  0.00    -0.207 F 
ENDBRANCH  17  19
ENDBRANCH  14  15
BRANCH  14  26
ATOM     26  C   UNL A   1      48.932  29.373  26.864  1.00  0.00     0.072 C 
BRANCH  26  27
ATOM     27  C   UNL A   1      49.463  27.963  26.990  1.00  0.00    -0.020 A 
ATOM     28  C   UNL A   1      50.120  27.526  28.146  1.00  0.00     0.087 A 
ATOM     29  C   UNL A   1      49.863  27.116  25.873  1.00  0.00     0.003 A 
ATOM     30  N   UNL A   1      51.146  26.615  27.914  1.00  0.00    -0.361 N 
ATOM     31  C   UNL A   1      51.358  26.482  26.563  1.00  0.00     0.046 A 
ATOM     32  C   UNL A   1      49.796  27.352  24.056  1.00  0.00     0.010 A 
ATOM     33  H   UNL A   1      51.645  26.135  28.614  1.00  0.00     0.166 HD
ATOM     34  C   UNL A   1      52.789  26.132  25.509  1.00  0.00     0.026 A 
ATOM     35  C   UNL A   1      51.263  27.148  23.042  1.00  0.00     0.001 A 
ATOM     36  C   UNL A   1      52.746  26.552  23.777  1.00  0.00     0.002 A 
ENDBRANCH  26  27
ENDBRANCH  14  26
ENDBRANCH  11  14
ENDBRANCH   9  10
BRANCH   9  37
ATOM     37  C   UNL A   1      47.754  34.274  26.876  1.00  0.00     0.193 C 
BRANCH  37  38
ATOM     38  O   UNL A   1      47.768  35.834  26.735  1.00  0.00    -0.394 OA
ATOM     39  H   UNL A   1      47.785  36.238  27.617  1.00  0.00     0.210 HD
ENDBRANCH  37  38
ENDBRANCH   9  37
ENDBRANCH   7   9
ENDBRANCH   6   7
ENDBRANCH   5   6
ENDBRANCH   4   5
ENDBRANCH   3   4
ENDBRANCH   2   3
ENDBRANCH   1   2
BRANCH   1  40
ATOM     40  O   UNL A   1      37.636  32.979  30.554  1.00  0.00    -0.377 OA
BRANCH  40  41
ATOM     41  C   UNL A   1      36.556  33.728  31.107  1.00  0.00     0.188 C 
BRANCH  41  42
ATOM     42  C   UNL A   1      35.224  33.052  31.497  1.00  0.00     0.188 C 
BRANCH  42  43
ATOM     43  O   UNL A   1      34.269  33.007  30.450  1.00  0.00    -0.376 OA
BRANCH  43  44
ATOM     44  C   UNL A   1      34.330  34.036  29.476  1.00  0.00     0.202 C 
BRANCH  44  45
ATOM     45  C   UNL A   1      34.485  33.589  28.016  1.00  0.00     0.261 C 
BRANCH  45  46
ATOM     46  O   UNL A   1      35.470  32.577  27.741  1.00  0.00    -0.460 OA
BRANCH  46  47
ATOM     47  C   UNL A   1      35.106  31.277  27.706  1.00  0.00     0.338 C 
ATOM     48  O   UNL A   1      34.085  30.806  27.243  1.00  0.00    -0.246 OA
BRANCH  47  49
ATOM     49  C   UNL A   1      36.287  30.484  28.127  1.00  0.00     0.060 A 
ATOM     50  C   UNL A   1      36.220  29.720  29.303  1.00  0.00     0.016 A 
ATOM     51  C   UNL A   1      37.436  30.457  27.334  1.00  0.00     0.016 A 
ATOM     52  C   UNL A   1      37.318  28.956  29.707  1.00  0.00     0.010 A 
ATOM     53  C   UNL A   1      38.545  29.724  27.758  1.00  0.00     0.010 A 
ATOM     54  C   UNL A   1      38.504  29.002  28.965  1.00  0.00    -0.014 A 
BRANCH  54  55
ATOM     55  C   UNL A   1      39.778  28.557  29.575  1.00  0.00     0.031 A 
ATOM     56  C   UNL A   1      40.406  27.309  29.016  1.00  0.00     0.074 A 
ATOM     57  C   UNL A   1      40.352  29.206  30.602  1.00  0.00     0.049 A 
ATOM     58  N   UNL A   1      41.435  26.629  29.444  1.00  0.00    -0.248 NA
ATOM     59  C   UNL A   1      39.773  26.749  27.808  1.00  0.00     0.031 C 
ATOM     60  C   UNL A   1      39.875  30.452  31.195  1.00  0.00     0.029 A 
ATOM     61  N   UNL A   1      41.464  28.882  31.341  1.00  0.00    -0.354 N 
ATOM     62  C   UNL A   1      41.564  25.557  28.568  1.00  0.00     0.074 A 
ATOM     63  C   UNL A   1      40.499  25.664  27.598  1.00  0.00     0.031 C 
ATOM     64  C   UNL A   1      40.676  30.775  32.228  1.00  0.00     0.029 A 
ATOM     65  C   UNL A   1      41.693  29.737  32.391  1.00  0.00     0.049 A 
ATOM     66  H   UNL A   1      42.041  28.110  31.138  1.00  0.00     0.167 HD
ATOM     67  C   UNL A   1      42.488  24.569  28.572  1.00  0.00     0.037 A 
ATOM     68  C   UNL A   1      42.599  29.663  33.387  1.00  0.00     0.037 A 
ATOM     69  C   UNL A   1      43.537  24.457  29.546  1.00  0.00     0.049 A 
ATOM     70  C   UNL A   1      43.562  28.501  33.427  1.00  0.00     0.074 A 
ATOM     71  C   UNL A   1      44.527  23.497  29.638  1.00  0.00     0.029 A 
ATOM     72  N   UNL A   1      43.721  25.330  30.608  1.00  0.00    -0.354 N 
ATOM     73  N   UNL A   1      43.690  27.502  32.589  1.00  0.00    -0.248 NA
ATOM     74  C   UNL A   1      44.503  28.454  34.557  1.00  0.00     0.031 C 
ATOM     75  C   UNL A   1      45.282  23.761  30.785  1.00  0.00     0.029 A 
ATOM     76  C   UNL A   1      44.795  24.916  31.375  1.00  0.00     0.049 A 
ATOM     77  H   UNL A   1      43.169  26.125  30.788  1.00  0.00     0.167 HD
ATOM     78  C   UNL A   1      44.743  26.729  33.068  1.00  0.00     0.074 A 
ATOM     79  C   UNL A   1      45.222  27.377  34.270  1.00  0.00     0.031 C 
ATOM     80  C   UNL A   1      45.270  25.590  32.557  1.00  0.00     0.037 A 
BRANCH  67  81
ATOM     81  C   UNL A   1      42.373  23.517  27.512  1.00  0.00     0.057 A 
ATOM     82  C   UNL A   1      41.481  22.442  27.626  1.00  0.00     0.134 A 
ATOM     83  C   UNL A   1      43.156  23.586  26.353  1.00  0.00     0.134 A 
ATOM     84  F   UNL A   1      40.718  22.306  28.722  1.00  0.00    -0.206 F 
ATOM     85  C   UNL A   1      41.390  21.462  26.638  1.00  0.00     0.040 A 
ATOM     86  C   UNL A   1      43.055  22.627  25.345  1.00  0.00     0.040 A 
ATOM     87  F   UNL A   1      44.032  24.588  26.183  1.00  0.00    -0.206 F 
ATOM     88  C   UNL A   1      42.173  21.558  25.489  1.00  0.00     0.006 A 
ENDBRANCH  67  81
BRANCH  68  89
ATOM     89  C   UNL A   1      42.629  30.700  34.451  1.00  0.00     0.057 A 
ATOM     90  C   UNL A   1      43.386  31.869  34.305  1.00  0.00     0.134 A 
ATOM     91  C   UNL A   1      41.933  30.532  35.655  1.00  0.00     0.134 A 
ATOM     92  F   UNL A   1      44.098  32.076  33.188  1.00  0.00    -0.206 F 
ATOM     93  C   UNL A   1      43.460  32.826  35.320  1.00  0.00     0.040 A 
ATOM     94  C   UNL A   1      41.978  31.491  36.668  1.00  0.00     0.040 A 
ATOM     95  F   UNL A   1      41.193  29.433  35.861  1.00  0.00    -0.206 F 
ATOM     96  C   UNL A   1      42.749  32.640  36.505  1.00  0.00     0.006 A 
ENDBRANCH  68  89
BRANCH  80  97
ATOM     97  C   UNL A   1      46.457  24.992  33.254  1.00  0.00     0.057 A 
ATOM     98  C   UNL A   1      47.762  25.437  33.011  1.00  0.00     0.134 A 
ATOM     99  C   UNL A   1      46.278  24.017  34.245  1.00  0.00     0.134 A 
ATOM    100  F   UNL A   1      48.002  26.362  32.069  1.00  0.00    -0.206 F 
ATOM    101  C   UNL A   1      48.849  24.925  33.722  1.00  0.00     0.040 A 
ATOM    102  C   UNL A   1      47.353  23.517  34.980  1.00  0.00     0.040 A 
ATOM    103  F   UNL A   1      45.051  23.557  34.534  1.00  0.00    -0.206 F 
ATOM    104  C   UNL A   1      48.644  23.971  34.718  1.00  0.00     0.006 A 
ENDBRANCH  80  97
ENDBRANCH  54  55
ENDBRANCH  47  49
ENDBRANCH  46  47
ENDBRANCH  45  46
ENDBRANCH  44  45
ENDBRANCH  43  44
ENDBRANCH  42  43
ENDBRANCH  41  42
ENDBRANCH  40  41
ENDBRANCH   1  40
TORSDOF 28
ENDMDL
MODEL 3
REMARK VINA RESULT:      -8.7      6.808     11.186
REMARK SMILES O=C(N[C@@H](Cc1c[nH]c2ccccc12)C(=O)N[C@@H](CO)C(=O)OCCOCCOCCOCCOC(=O)c1ccc(-c2c3nc(c(-c4c(F)cccc4F)c4ccc([nH]4)c(-c4c(F)cccc4F)c4nc(c(-c5c(F)cccc5F)c5ccc2[nH]5)C=C4)C=C3)cc1)c1ccc(F)cc1
REMARK SMILES IDX 28 1 27 2 26 3 25 4 24 5 23 6 21 7 22 8 18 9 17 10 15 11
REMARK SMILES IDX 16 12 4 14 3 15 1 16 2 17 92 19 93 20 98 21 94 22 97 23
REMARK SMILES IDX 95 24 96 25 5 26 6 27 7 28 14 29 8 30 9 31 13 32 10 34 12 35
REMARK SMILES IDX 11 36 19 37 20 38 29 40 30 41 31 42 32 43 33 44 34 45 35 46
REMARK SMILES IDX 36 47 37 48 38 49 39 50 91 51 40 52 90 53 41 54 42 55 43 56
REMARK SMILES IDX 84 57 44 58 89 59 83 60 85 61 45 62 88 63 82 64 81 65 46 67
REMARK SMILES IDX 72 68 55 69 71 70 56 71 59 72 70 73 86 74 57 75 58 76 69 78
REMARK SMILES IDX 87 79 60 80 47 81 48 82 53 83 49 84 50 85 52 86 54 87 51 88
REMARK SMILES IDX 73 89 74 90 79 91 75 92 76 93 78 94 80 95 77 96 61 97 62 98
REMARK SMILES IDX 67 99 63 100 64 101 66 102 68 103 65 104
REMARK H PARENT 17 13 3 18 8 33 20 39 85 66 59 77
REMARK Flexibility Score: inf
ROOT
ATOM      1  C   UNL A   1      40.182  34.630  29.616  1.00  0.00     0.188 C 
ENDROOT
BRANCH   1   2
ATOM      2  C   UNL A   1      41.575  34.014  29.743  1.00  0.00     0.188 C 
BRANCH   2   3
ATOM      3  O   UNL A   1      42.573  34.946  30.133  1.00  0.00    -0.376 OA
BRANCH   3   4
ATOM      4  C   UNL A   1      43.249  34.746  31.363  1.00  0.00     0.202 C 
BRANCH   4   5
ATOM      5  C   UNL A   1      43.867  33.352  31.690  1.00  0.00     0.261 C 
BRANCH   5   6
ATOM      6  O   UNL A   1      43.783  32.802  33.028  1.00  0.00    -0.462 OA
BRANCH   6   7
ATOM      7  C   UNL A   1      44.580  31.733  33.227  1.00  0.00     0.331 C 
ATOM      8  O   UNL A   1      45.600  31.553  32.552  1.00  0.00    -0.250 OA
BRANCH   7   9
ATOM      9  C   UNL A   1      44.085  30.647  34.494  1.00  0.00     0.218 C 
BRANCH   9  10
ATOM     10  N   UNL A   1      43.823  29.169  33.643  1.00  0.00    -0.339 N 
ATOM     11  C   UNL A   1      43.142  27.978  33.893  1.00  0.00     0.243 C 
ATOM     12  O   UNL A   1      43.278  27.100  33.022  1.00  0.00    -0.273 OA
ATOM     13  H   UNL A   1      44.264  29.166  32.763  1.00  0.00     0.164 HD
BRANCH  11  14
ATOM     14  C   UNL A   1      42.320  27.551  35.227  1.00  0.00     0.176 C 
BRANCH  14  15
ATOM     15  N   UNL A   1      41.340  28.512  35.799  1.00  0.00    -0.340 N 
ATOM     16  O   UNL A   1      40.342  30.471  36.107  1.00  0.00    -0.269 OA
ATOM     17  C   UNL A   1      40.701  29.608  35.305  1.00  0.00     0.251 C 
ATOM     18  H   UNL A   1      41.104  28.315  36.734  1.00  0.00     0.164 HD
BRANCH  17  19
ATOM     19  C   UNL A   1      40.434  29.815  33.876  1.00  0.00     0.040 A 
ATOM     20  C   UNL A   1      39.659  28.919  33.138  1.00  0.00     0.017 A 
ATOM     21  C   UNL A   1      40.837  31.039  33.313  1.00  0.00     0.017 A 
ATOM     22  C   UNL A   1      39.306  29.241  31.826  1.00  0.00     0.040 A 
ATOM     23  C   UNL A   1      40.487  31.353  32.002  1.00  0.00     0.040 A 
ATOM     24  C   UNL A   1      39.724  30.450  31.271  1.00  0.00     0.123 A 
ATOM     25  F   UNL A   1      39.368  30.757  30.017  1.00  0.00    -0.207 F 
ENDBRANCH  17  19
ENDBRANCH  14  15
BRANCH  14  26
ATOM     26  C   UNL A   1      41.659  26.172  35.215  1.00  0.00     0.072 C 
BRANCH  26  27
ATOM     27  C   UNL A   1      42.304  25.148  36.121  1.00  0.00    -0.020 A 
ATOM     28  C   UNL A   1      42.710  25.469  37.421  1.00  0.00     0.087 A 
ATOM     29  C   UNL A   1      43.053  23.982  35.668  1.00  0.00     0.003 A 
ATOM     30  N   UNL A   1      43.860  24.807  37.843  1.00  0.00    -0.361 N 
ATOM     31  C   UNL A   1      44.403  24.099  36.799  1.00  0.00     0.046 A 
ATOM     32  C   UNL A   1      43.397  23.305  34.000  1.00  0.00     0.010 A 
ATOM     33  H   UNL A   1      44.229  24.841  38.756  1.00  0.00     0.166 HD
ATOM     34  C   UNL A   1      46.075  23.613  36.300  1.00  0.00     0.026 A 
ATOM     35  C   UNL A   1      45.077  22.971  33.464  1.00  0.00     0.001 A 
ATOM     36  C   UNL A   1      46.400  23.137  34.612  1.00  0.00     0.002 A 
ENDBRANCH  26  27
ENDBRANCH  14  26
ENDBRANCH  11  14
ENDBRANCH   9  10
BRANCH   9  37
ATOM     37  C   UNL A   1      44.319  30.888  36.668  1.00  0.00     0.193 C 
BRANCH  37  38
ATOM     38  O   UNL A   1      43.557  30.180  37.839  1.00  0.00    -0.394 OA
ATOM     39  H   UNL A   1      42.602  30.217  37.672  1.00  0.00     0.210 HD
ENDBRANCH  37  38
ENDBRANCH   9  37
ENDBRANCH   7   9
ENDBRANCH   6   7
ENDBRANCH   5   6
ENDBRANCH   4   5
ENDBRANCH   3   4
ENDBRANCH   2   3
ENDBRANCH   1   2
BRANCH   1  40
ATOM     40  O   UNL A   1      39.424  34.680  30.807  1.00  0.00    -0.377 OA
BRANCH  40  41
ATOM     41  C   UNL A   1      38.087  34.183  30.785  1.00  0.00     0.188 C 
BRANCH  41  42
ATOM     42  C   UNL A   1      37.398  33.783  29.463  1.00  0.00     0.188 C 
BRANCH  42  43
ATOM     43  O   UNL A   1      37.391  32.387  29.212  1.00  0.00    -0.376 OA
BRANCH  43  44
ATOM     44  C   UNL A   1      36.131  31.781  28.977  1.00  0.00     0.202 C 
BRANCH  44  45
ATOM     45  C   UNL A   1      34.989  32.188  29.918  1.00  0.00     0.261 C 
BRANCH  45  46
ATOM     46  O   UNL A   1      35.206  32.008  31.329  1.00  0.00    -0.460 OA
BRANCH  46  47
ATOM     47  C   UNL A   1      34.731  32.921  32.204  1.00  0.00     0.338 C 
ATOM     48  O   UNL A   1      33.646  33.469  32.186  1.00  0.00    -0.246 OA
BRANCH  47  49
ATOM     49  C   UNL A   1      35.685  32.972  33.338  1.00  0.00     0.060 A 
ATOM     50  C   UNL A   1      35.544  33.972  34.314  1.00  0.00     0.016 A 
ATOM     51  C   UNL A   1      36.682  32.002  33.464  1.00  0.00     0.016 A 
ATOM     52  C   UNL A   1      36.424  34.025  35.397  1.00  0.00     0.010 A 
ATOM     53  C   UNL A   1      37.584  32.078  34.526  1.00  0.00     0.010 A 
ATOM     54  C   UNL A   1      37.483  33.112  35.474  1.00  0.00    -0.014 A 
BRANCH  54  55
ATOM     55  C   UNL A   1      38.645  33.395  36.349  1.00  0.00     0.031 A 
ATOM     56  C   UNL A   1      38.499  33.064  37.809  1.00  0.00     0.074 A 
ATOM     57  C   UNL A   1      39.777  33.950  35.887  1.00  0.00     0.049 A 
ATOM     58  N   UNL A   1      39.297  33.329  38.809  1.00  0.00    -0.248 NA
ATOM     59  C   UNL A   1      37.274  32.337  38.191  1.00  0.00     0.031 C 
ATOM     60  C   UNL A   1      40.063  34.266  34.490  1.00  0.00     0.029 A 
ATOM     61  N   UNL A   1      40.898  34.365  36.564  1.00  0.00    -0.354 N 
ATOM     62  C   UNL A   1      38.665  32.814  39.935  1.00  0.00     0.074 A 
ATOM     63  C   UNL A   1      37.413  32.241  39.503  1.00  0.00     0.031 C 
ATOM     64  C   UNL A   1      41.272  34.852  34.416  1.00  0.00     0.029 A 
ATOM     65  C   UNL A   1      41.824  34.988  35.765  1.00  0.00     0.049 A 
ATOM     66  H   UNL A   1      41.025  34.229  37.531  1.00  0.00     0.167 HD
ATOM     67  C   UNL A   1      39.091  32.821  41.219  1.00  0.00     0.037 A 
ATOM     68  C   UNL A   1      42.966  35.625  36.094  1.00  0.00     0.037 A 
ATOM     69  C   UNL A   1      40.331  33.405  41.650  1.00  0.00     0.049 A 
ATOM     70  C   UNL A   1      43.378  35.703  37.544  1.00  0.00     0.074 A 
ATOM     71  C   UNL A   1      40.858  33.462  42.926  1.00  0.00     0.029 A 
ATOM     72  N   UNL A   1      41.230  34.047  40.811  1.00  0.00    -0.354 N 
ATOM     73  N   UNL A   1      42.787  35.202  38.602  1.00  0.00    -0.248 NA
ATOM     74  C   UNL A   1      44.613  36.442  37.847  1.00  0.00     0.031 C 
ATOM     75  C   UNL A   1      42.055  34.183  42.869  1.00  0.00     0.029 A 
ATOM     76  C   UNL A   1      42.298  34.525  41.548  1.00  0.00     0.049 A 
ATOM     77  H   UNL A   1      41.123  34.147  39.838  1.00  0.00     0.167 HD
ATOM     78  C   UNL A   1      43.592  35.533  39.687  1.00  0.00     0.074 A 
ATOM     79  C   UNL A   1      44.716  36.277  39.159  1.00  0.00     0.031 C 
ATOM     80  C   UNL A   1      43.420  35.244  40.999  1.00  0.00     0.037 A 
BRANCH  67  81
ATOM     81  C   UNL A   1      38.186  32.212  42.247  1.00  0.00     0.057 A 
ATOM     82  C   UNL A   1      37.074  32.896  42.755  1.00  0.00     0.134 A 
ATOM     83  C   UNL A   1      38.423  30.917  42.724  1.00  0.00     0.134 A 
ATOM     84  F   UNL A   1      36.805  34.148  42.355  1.00  0.00    -0.206 F 
ATOM     85  C   UNL A   1      36.245  32.322  43.720  1.00  0.00     0.040 A 
ATOM     86  C   UNL A   1      37.586  30.323  43.668  1.00  0.00     0.040 A 
ATOM     87  F   UNL A   1      39.473  30.209  42.280  1.00  0.00    -0.206 F 
ATOM     88  C   UNL A   1      36.496  31.029  44.173  1.00  0.00     0.006 A 
ENDBRANCH  67  81
BRANCH  68  89
ATOM     89  C   UNL A   1      43.796  36.269  35.042  1.00  0.00     0.057 A 
ATOM     90  C   UNL A   1      43.402  37.471  34.443  1.00  0.00     0.134 A 
ATOM     91  C   UNL A   1      44.982  35.682  34.586  1.00  0.00     0.134 A 
ATOM     92  F   UNL A   1      42.261  38.069  34.815  1.00  0.00    -0.206 F 
ATOM     93  C   UNL A   1      44.149  38.058  33.418  1.00  0.00     0.040 A 
ATOM     94  C   UNL A   1      45.752  36.269  33.581  1.00  0.00     0.040 A 
ATOM     95  F   UNL A   1      45.413  34.527  35.114  1.00  0.00    -0.206 F 
ATOM     96  C   UNL A   1      45.332  37.458  32.988  1.00  0.00     0.006 A 
ENDBRANCH  68  89
BRANCH  80  97
ATOM     97  C   UNL A   1      44.490  35.678  41.959  1.00  0.00     0.057 A 
ATOM     98  C   UNL A   1      45.598  34.874  42.247  1.00  0.00     0.134 A 
ATOM     99  C   UNL A   1      44.448  36.956  42.534  1.00  0.00     0.134 A 
ATOM    100  F   UNL A   1      45.694  33.637  41.736  1.00  0.00    -0.206 F 
ATOM    101  C   UNL A   1      46.624  35.323  43.082  1.00  0.00     0.040 A 
ATOM    102  C   UNL A   1      45.479  37.425  43.347  1.00  0.00     0.040 A 
ATOM    103  F   UNL A   1      43.418  37.780  42.286  1.00  0.00    -0.206 F 
ATOM    104  C   UNL A   1      46.571  36.605  43.626  1.00  0.00     0.006 A 
ENDBRANCH  80  97
ENDBRANCH  54  55
ENDBRANCH  47  49
ENDBRANCH  46  47
ENDBRANCH  45  46
ENDBRANCH  44  45
ENDBRANCH  43  44
ENDBRANCH  42  43
ENDBRANCH  41  42
ENDBRANCH  40  41
ENDBRANCH   1  40
TORSDOF 28
ENDMDL
