MODEL 1
REMARK VINA RESULT:      -8.6      0.000      0.000
REMARK SMILES CCCN1CCC[C@@]2(CCN(c3ccc(C(=O)OCCOCCOCCOCCOC(=O)c4ccc(-c5c6nc(c(-c7c(F)cccc7F)c7ccc([nH]7)c(-c7c(F)cccc7F)c7nc(c(-c8c(F)cccc8F)c8ccc5[nH]8)C=C7)C=C6)cc4)cn3)C2)C1=O
REMARK SMILES IDX 23 1 22 2 21 3 20 4 19 5 18 6 16 7 17 8 15 9 12 10 13 11
REMARK SMILES IDX 88 12 14 13 87 14 11 15 4 16 5 17 90 18 6 19 8 20 91 21 7 22
REMARK SMILES IDX 9 23 89 24 10 25 3 26 2 27 1 28 24 29 25 30 26 31 27 32
REMARK SMILES IDX 28 33 29 34 30 35 31 36 32 37 33 38 34 39 86 40 35 41 85 42
REMARK SMILES IDX 36 43 37 44 38 45 79 46 39 47 84 48 78 49 80 50 40 51 83 52
REMARK SMILES IDX 77 53 76 54 41 56 67 57 50 58 66 59 51 60 54 61 65 62 81 63
REMARK SMILES IDX 52 64 53 65 64 67 82 68 55 69 42 70 43 71 48 72 44 73 45 74
REMARK SMILES IDX 47 75 49 76 46 77 68 78 69 79 74 80 70 81 71 82 73 83 75 84
REMARK SMILES IDX 72 85 56 86 57 87 62 88 58 89 59 90 61 91 63 92 60 93
REMARK H PARENT 80 55 54 66
REMARK Flexibility Score: inf
ROOT
ATOM      1  C   UNL A   1      35.977  32.194  32.320  1.00  0.00     0.188 C 
ENDROOT
BRANCH   1   2
ATOM      2  C   UNL A   1      34.835  32.768  33.184  1.00  0.00     0.188 C 
BRANCH   2   3
ATOM      3  O   UNL A   1      34.109  33.795  32.533  1.00  0.00    -0.376 OA
BRANCH   3   4
ATOM      4  C   UNL A   1      34.648  34.447  31.401  1.00  0.00     0.202 C 
BRANCH   4   5
ATOM      5  C   UNL A   1      34.048  34.266  29.997  1.00  0.00     0.261 C 
BRANCH   5   6
ATOM      6  O   UNL A   1      34.110  32.959  29.425  1.00  0.00    -0.460 OA
BRANCH   6   7
ATOM      7  C   UNL A   1      34.834  32.797  28.297  1.00  0.00     0.339 C 
ATOM      8  O   UNL A   1      35.664  33.557  27.844  1.00  0.00    -0.246 OA
BRANCH   7   9
ATOM      9  C   UNL A   1      34.575  31.430  27.807  1.00  0.00     0.078 A 
ATOM     10  C   UNL A   1      33.957  28.947  26.787  1.00  0.00     0.128 A 
ATOM     11  C   UNL A   1      35.238  29.195  27.286  1.00  0.00     0.048 A 
ATOM     12  N   UNL A   1      33.020  29.915  26.730  1.00  0.00    -0.238 NA
ATOM     13  C   UNL A   1      35.559  30.449  27.793  1.00  0.00     0.021 A 
ATOM     14  C   UNL A   1      33.338  31.126  27.255  1.00  0.00     0.129 A 
BRANCH  10  15
ATOM     15  N   UNL A   1      33.614  27.634  26.519  1.00  0.00    -0.356 N 
ATOM     16  N   UNL A   1      30.518  26.780  23.635  1.00  0.00    -0.342 N 
ATOM     17  C   UNL A   1      29.408  26.128  24.316  1.00  0.00     0.119 C 
ATOM     18  C   UNL A   1      31.834  26.413  23.905  1.00  0.00     0.230 C 
ATOM     19  C   UNL A   1      29.660  25.892  25.795  1.00  0.00     0.023 C 
ATOM     20  C   UNL A   1      32.131  26.130  25.383  1.00  0.00     0.069 C 
ATOM     21  O   UNL A   1      32.719  26.459  23.053  1.00  0.00    -0.274 OA
ATOM     22  C   UNL A   1      31.034  25.259  26.003  1.00  0.00     0.021 C 
ATOM     23  C   UNL A   1      33.542  25.532  25.571  1.00  0.00     0.040 C 
ATOM     24  C   UNL A   1      32.219  27.499  26.098  1.00  0.00     0.135 C 
ATOM     25  C   UNL A   1      34.447  26.764  25.708  1.00  0.00     0.119 C 
BRANCH  16  26
ATOM     26  C   UNL A   1      30.248  27.631  22.477  1.00  0.00     0.119 C 
BRANCH  26  27
ATOM     27  C   UNL A   1      30.172  29.132  22.750  1.00  0.00     0.018 C 
ATOM     28  C   UNL A   1      29.193  29.865  21.844  1.00  0.00     0.006 C 
ENDBRANCH  26  27
ENDBRANCH  16  26
ENDBRANCH  10  15
ENDBRANCH   7   9
ENDBRANCH   6   7
ENDBRANCH   5   6
ENDBRANCH   4   5
ENDBRANCH   3   4
ENDBRANCH   2   3
ENDBRANCH   1   2
BRANCH   1  29
ATOM     29  O   UNL A   1      37.172  31.860  33.009  1.00  0.00    -0.377 OA
BRANCH  29  30
ATOM     30  C   UNL A   1      37.516  30.487  33.197  1.00  0.00     0.188 C 
BRANCH  30  31
ATOM     31  C   UNL A   1      38.980  29.980  33.288  1.00  0.00     0.188 C 
BRANCH  31  32
ATOM     32  O   UNL A   1      39.127  28.572  33.297  1.00  0.00    -0.376 OA
BRANCH  32  33
ATOM     33  C   UNL A   1      38.237  27.795  32.518  1.00  0.00     0.202 C 
BRANCH  33  34
ATOM     34  C   UNL A   1      38.539  27.701  31.017  1.00  0.00     0.261 C 
BRANCH  34  35
ATOM     35  O   UNL A   1      37.988  28.745  30.200  1.00  0.00    -0.460 OA
BRANCH  35  36
ATOM     36  C   UNL A   1      38.716  29.138  29.128  1.00  0.00     0.338 C 
ATOM     37  O   UNL A   1      38.687  28.676  28.009  1.00  0.00    -0.246 OA
BRANCH  36  38
ATOM     38  C   UNL A   1      39.440  30.367  29.517  1.00  0.00     0.060 A 
ATOM     39  C   UNL A   1      40.838  30.339  29.600  1.00  0.00     0.016 A 
ATOM     40  C   UNL A   1      38.737  31.544  29.785  1.00  0.00     0.016 A 
ATOM     41  C   UNL A   1      41.537  31.485  29.982  1.00  0.00     0.010 A 
ATOM     42  C   UNL A   1      39.437  32.684  30.189  1.00  0.00     0.010 A 
ATOM     43  C   UNL A   1      40.836  32.651  30.318  1.00  0.00    -0.014 A 
BRANCH  43  44
ATOM     44  C   UNL A   1      41.544  33.776  30.978  1.00  0.00     0.031 A 
ATOM     45  C   UNL A   1      41.492  33.869  32.479  1.00  0.00     0.074 A 
ATOM     46  C   UNL A   1      42.223  34.691  30.266  1.00  0.00     0.049 A 
ATOM     47  N   UNL A   1      41.971  34.793  33.271  1.00  0.00    -0.248 NA
ATOM     48  C   UNL A   1      40.805  32.771  33.179  1.00  0.00     0.031 C 
ATOM     49  C   UNL A   1      42.380  34.690  28.813  1.00  0.00     0.029 A 
ATOM     50  N   UNL A   1      42.900  35.814  30.677  1.00  0.00    -0.354 N 
ATOM     51  C   UNL A   1      41.633  34.394  34.559  1.00  0.00     0.074 A 
ATOM     52  C   UNL A   1      40.887  33.161  34.441  1.00  0.00     0.031 C 
ATOM     53  C   UNL A   1      43.093  35.771  28.451  1.00  0.00     0.029 A 
ATOM     54  C   UNL A   1      43.411  36.559  29.641  1.00  0.00     0.049 A 
ATOM     55  H   UNL A   1      43.009  36.060  31.624  1.00  0.00     0.167 HD
ATOM     56  C   UNL A   1      41.926  34.999  35.734  1.00  0.00     0.037 A 
ATOM     57  C   UNL A   1      44.035  37.752  29.655  1.00  0.00     0.037 A 
ATOM     58  C   UNL A   1      42.669  36.225  35.849  1.00  0.00     0.049 A 
ATOM     59  C   UNL A   1      44.281  38.444  30.973  1.00  0.00     0.074 A 
ATOM     60  C   UNL A   1      43.037  36.905  36.997  1.00  0.00     0.029 A 
ATOM     61  N   UNL A   1      43.149  36.962  34.776  1.00  0.00    -0.354 N 
ATOM     62  N   UNL A   1      43.988  38.044  32.187  1.00  0.00    -0.248 NA
ATOM     63  C   UNL A   1      44.949  39.753  30.921  1.00  0.00     0.031 C 
ATOM     64  C   UNL A   1      43.685  38.084  36.617  1.00  0.00     0.029 A 
ATOM     65  C   UNL A   1      43.781  38.106  35.235  1.00  0.00     0.049 A 
ATOM     66  H   UNL A   1      43.053  36.709  33.830  1.00  0.00     0.167 HD
ATOM     67  C   UNL A   1      44.465  39.032  33.041  1.00  0.00     0.074 A 
ATOM     68  C   UNL A   1      45.080  40.043  32.208  1.00  0.00     0.031 C 
ATOM     69  C   UNL A   1      44.402  39.097  34.394  1.00  0.00     0.037 A 
BRANCH  56  70
ATOM     70  C   UNL A   1      41.416  34.360  36.993  1.00  0.00     0.057 A 
ATOM     71  C   UNL A   1      42.190  33.457  37.734  1.00  0.00     0.134 A 
ATOM     72  C   UNL A   1      40.153  34.695  37.498  1.00  0.00     0.134 A 
ATOM     73  F   UNL A   1      43.401  33.082  37.300  1.00  0.00    -0.206 F 
ATOM     74  C   UNL A   1      41.717  32.897  38.923  1.00  0.00     0.040 A 
ATOM     75  C   UNL A   1      39.682  34.164  38.699  1.00  0.00     0.040 A 
ATOM     76  F   UNL A   1      39.362  35.556  36.839  1.00  0.00    -0.206 F 
ATOM     77  C   UNL A   1      40.463  33.258  39.413  1.00  0.00     0.006 A 
ENDBRANCH  56  70
BRANCH  57  78
ATOM     78  C   UNL A   1      44.451  38.399  28.381  1.00  0.00     0.057 A 
ATOM     79  C   UNL A   1      45.736  38.218  27.857  1.00  0.00     0.134 A 
ATOM     80  C   UNL A   1      43.588  39.254  27.684  1.00  0.00     0.134 A 
ATOM     81  F   UNL A   1      46.620  37.433  28.492  1.00  0.00    -0.206 F 
ATOM     82  C   UNL A   1      46.159  38.885  26.705  1.00  0.00     0.040 A 
ATOM     83  C   UNL A   1      43.987  39.903  26.513  1.00  0.00     0.040 A 
ATOM     84  F   UNL A   1      42.343  39.473  28.131  1.00  0.00    -0.206 F 
ATOM     85  C   UNL A   1      45.281  39.728  26.027  1.00  0.00     0.006 A 
ENDBRANCH  57  78
BRANCH  69  86
ATOM     86  C   UNL A   1      45.054  40.274  35.065  1.00  0.00     0.057 A 
ATOM     87  C   UNL A   1      44.366  41.469  35.308  1.00  0.00     0.134 A 
ATOM     88  C   UNL A   1      46.380  40.190  35.513  1.00  0.00     0.134 A 
ATOM     89  F   UNL A   1      43.098  41.621  34.897  1.00  0.00    -0.206 F 
ATOM     90  C   UNL A   1      44.980  42.548  35.948  1.00  0.00     0.040 A 
ATOM     91  C   UNL A   1      46.994  41.250  36.183  1.00  0.00     0.040 A 
ATOM     92  F   UNL A   1      47.093  39.070  35.325  1.00  0.00    -0.206 F 
ATOM     93  C   UNL A   1      46.296  42.436  36.395  1.00  0.00     0.006 A 
ENDBRANCH  69  86
ENDBRANCH  43  44
ENDBRANCH  36  38
ENDBRANCH  35  36
ENDBRANCH  34  35
ENDBRANCH  33  34
ENDBRANCH  32  33
ENDBRANCH  31  32
ENDBRANCH  30  31
ENDBRANCH  29  30
ENDBRANCH   1  29
TORSDOF 23
ENDMDL
MODEL 2
REMARK VINA RESULT:      -8.5      6.852     10.023
REMARK SMILES CCCN1CCC[C@@]2(CCN(c3ccc(C(=O)OCCOCCOCCOCCOC(=O)c4ccc(-c5c6nc(c(-c7c(F)cccc7F)c7ccc([nH]7)c(-c7c(F)cccc7F)c7nc(c(-c8c(F)cccc8F)c8ccc5[nH]8)C=C7)C=C6)cc4)cn3)C2)C1=O
REMARK SMILES IDX 23 1 22 2 21 3 20 4 19 5 18 6 16 7 17 8 15 9 12 10 13 11
REMARK SMILES IDX 88 12 14 13 87 14 11 15 4 16 5 17 90 18 6 19 8 20 91 21 7 22
REMARK SMILES IDX 9 23 89 24 10 25 3 26 2 27 1 28 24 29 25 30 26 31 27 32
REMARK SMILES IDX 28 33 29 34 30 35 31 36 32 37 33 38 34 39 86 40 35 41 85 42
REMARK SMILES IDX 36 43 37 44 38 45 79 46 39 47 84 48 78 49 80 50 40 51 83 52
REMARK SMILES IDX 77 53 76 54 41 56 67 57 50 58 66 59 51 60 54 61 65 62 81 63
REMARK SMILES IDX 52 64 53 65 64 67 82 68 55 69 42 70 43 71 48 72 44 73 45 74
REMARK SMILES IDX 47 75 49 76 46 77 68 78 69 79 74 80 70 81 71 82 73 83 75 84
REMARK SMILES IDX 72 85 56 86 57 87 62 88 58 89 59 90 61 91 63 92 60 93
REMARK H PARENT 80 55 54 66
REMARK Flexibility Score: inf
ROOT
ATOM      1  C   UNL A   1      40.338  27.004  27.270  1.00  0.00     0.188 C 
ENDROOT
BRANCH   1   2
ATOM      2  C   UNL A   1      39.338  27.300  28.406  1.00  0.00     0.188 C 
BRANCH   2   3
ATOM      3  O   UNL A   1      39.016  28.675  28.517  1.00  0.00    -0.376 OA
BRANCH   3   4
ATOM      4  C   UNL A   1      37.757  29.079  29.017  1.00  0.00     0.202 C 
BRANCH   4   5
ATOM      5  C   UNL A   1      37.165  30.462  28.703  1.00  0.00     0.261 C 
BRANCH   5   6
ATOM      6  O   UNL A   1      36.351  30.573  27.535  1.00  0.00    -0.460 OA
BRANCH   6   7
ATOM      7  C   UNL A   1      35.077  30.991  27.690  1.00  0.00     0.339 C 
ATOM      8  O   UNL A   1      34.704  32.072  28.096  1.00  0.00    -0.246 OA
BRANCH   7   9
ATOM      9  C   UNL A   1      34.206  29.960  27.094  1.00  0.00     0.078 A 
ATOM     10  C   UNL A   1      32.466  28.169  25.930  1.00  0.00     0.128 A 
ATOM     11  C   UNL A   1      33.814  27.832  26.080  1.00  0.00     0.048 A 
ATOM     12  N   UNL A   1      31.997  29.382  26.284  1.00  0.00    -0.238 NA
ATOM     13  C   UNL A   1      34.699  28.736  26.657  1.00  0.00     0.021 A 
ATOM     14  C   UNL A   1      32.866  30.243  26.874  1.00  0.00     0.129 A 
BRANCH  10  15
ATOM     15  N   UNL A   1      31.587  27.161  25.577  1.00  0.00    -0.356 N 
ATOM     16  N   UNL A   1      32.905  23.051  25.654  1.00  0.00    -0.342 N 
ATOM     17  C   UNL A   1      32.862  22.518  24.299  1.00  0.00     0.119 C 
ATOM     18  C   UNL A   1      31.861  23.831  26.147  1.00  0.00     0.230 C 
ATOM     19  C   UNL A   1      32.334  23.508  23.276  1.00  0.00     0.023 C 
ATOM     20  C   UNL A   1      31.271  24.825  25.139  1.00  0.00     0.069 C 
ATOM     21  O   UNL A   1      31.541  23.829  27.334  1.00  0.00    -0.274 OA
ATOM     22  C   UNL A   1      31.046  24.154  23.780  1.00  0.00     0.021 C 
ATOM     23  C   UNL A   1      29.995  25.496  25.689  1.00  0.00     0.040 C 
ATOM     24  C   UNL A   1      32.273  25.996  25.016  1.00  0.00     0.135 C 
ATOM     25  C   UNL A   1      30.524  26.714  26.458  1.00  0.00     0.119 C 
BRANCH  16  26
ATOM     26  C   UNL A   1      33.913  22.553  26.588  1.00  0.00     0.119 C 
BRANCH  26  27
ATOM     27  C   UNL A   1      35.337  23.062  26.374  1.00  0.00     0.018 C 
ATOM     28  C   UNL A   1      35.413  24.308  25.503  1.00  0.00     0.006 C 
ENDBRANCH  26  27
ENDBRANCH  16  26
ENDBRANCH  10  15
ENDBRANCH   7   9
ENDBRANCH   6   7
ENDBRANCH   5   6
ENDBRANCH   4   5
ENDBRANCH   3   4
ENDBRANCH   2   3
ENDBRANCH   1   2
BRANCH   1  29
ATOM     29  O   UNL A   1      40.183  25.755  26.613  1.00  0.00    -0.377 OA
BRANCH  29  30
ATOM     30  C   UNL A   1      39.193  24.834  27.073  1.00  0.00     0.188 C 
BRANCH  30  31
ATOM     31  C   UNL A   1      39.114  23.359  26.598  1.00  0.00     0.188 C 
BRANCH  31  32
ATOM     32  O   UNL A   1      40.013  22.473  27.240  1.00  0.00    -0.376 OA
BRANCH  32  33
ATOM     33  C   UNL A   1      41.084  21.936  26.487  1.00  0.00     0.202 C 
BRANCH  33  34
ATOM     34  C   UNL A   1      42.197  22.911  26.083  1.00  0.00     0.261 C 
BRANCH  34  35
ATOM     35  O   UNL A   1      43.253  23.089  27.039  1.00  0.00    -0.460 OA
BRANCH  35  36
ATOM     36  C   UNL A   1      44.523  23.042  26.570  1.00  0.00     0.338 C 
ATOM     37  O   UNL A   1      45.112  22.080  26.132  1.00  0.00    -0.246 OA
BRANCH  36  38
ATOM     38  C   UNL A   1      45.021  24.434  26.518  1.00  0.00     0.060 A 
ATOM     39  C   UNL A   1      45.049  25.104  25.288  1.00  0.00     0.016 A 
ATOM     40  C   UNL A   1      45.448  25.074  27.684  1.00  0.00     0.016 A 
ATOM     41  C   UNL A   1      45.534  26.411  25.217  1.00  0.00     0.010 A 
ATOM     42  C   UNL A   1      45.952  26.375  27.607  1.00  0.00     0.010 A 
ATOM     43  C   UNL A   1      46.025  27.037  26.369  1.00  0.00    -0.014 A 
BRANCH  43  44
ATOM     44  C   UNL A   1      46.782  28.309  26.256  1.00  0.00     0.031 A 
ATOM     45  C   UNL A   1      48.271  28.237  26.047  1.00  0.00     0.074 A 
ATOM     46  C   UNL A   1      46.166  29.501  26.328  1.00  0.00     0.049 A 
ATOM     47  N   UNL A   1      49.149  29.203  25.988  1.00  0.00    -0.248 NA
ATOM     48  C   UNL A   1      48.844  26.890  25.887  1.00  0.00     0.031 C 
ATOM     49  C   UNL A   1      44.727  29.703  26.489  1.00  0.00     0.029 A 
ATOM     50  N   UNL A   1      46.683  30.772  26.287  1.00  0.00    -0.354 N 
ATOM     51  C   UNL A   1      50.378  28.583  25.795  1.00  0.00     0.074 A 
ATOM     52  C   UNL A   1      50.136  27.157  25.775  1.00  0.00     0.031 C 
ATOM     53  C   UNL A   1      44.478  31.023  26.551  1.00  0.00     0.029 A 
ATOM     54  C   UNL A   1      45.740  31.756  26.472  1.00  0.00     0.049 A 
ATOM     55  H   UNL A   1      47.637  30.961  26.140  1.00  0.00     0.167 HD
ATOM     56  C   UNL A   1      51.596  29.152  25.642  1.00  0.00     0.037 A 
ATOM     57  C   UNL A   1      45.888  33.090  26.592  1.00  0.00     0.037 A 
ATOM     58  C   UNL A   1      51.834  30.570  25.662  1.00  0.00     0.049 A 
ATOM     59  C   UNL A   1      47.268  33.693  26.495  1.00  0.00     0.074 A 
ATOM     60  C   UNL A   1      53.030  31.245  25.492  1.00  0.00     0.029 A 
ATOM     61  N   UNL A   1      50.858  31.532  25.875  1.00  0.00    -0.354 N 
ATOM     62  N   UNL A   1      48.418  33.102  26.280  1.00  0.00    -0.248 NA
ATOM     63  C   UNL A   1      47.368  35.151  26.654  1.00  0.00     0.031 C 
ATOM     64  C   UNL A   1      52.789  32.611  25.664  1.00  0.00     0.029 A 
ATOM     65  C   UNL A   1      51.432  32.793  25.873  1.00  0.00     0.049 A 
ATOM     66  H   UNL A   1      49.901  31.346  26.008  1.00  0.00     0.167 HD
ATOM     67  C   UNL A   1      49.369  34.115  26.244  1.00  0.00     0.074 A 
ATOM     68  C   UNL A   1      48.659  35.361  26.444  1.00  0.00     0.031 C 
ATOM     69  C   UNL A   1      50.710  34.026  26.060  1.00  0.00     0.037 A 
BRANCH  56  70
ATOM     70  C   UNL A   1      52.775  28.239  25.469  1.00  0.00     0.057 A 
ATOM     71  C   UNL A   1      53.223  27.835  24.204  1.00  0.00     0.134 A 
ATOM     72  C   UNL A   1      53.503  27.800  26.582  1.00  0.00     0.134 A 
ATOM     73  F   UNL A   1      52.563  28.206  23.097  1.00  0.00    -0.206 F 
ATOM     74  C   UNL A   1      54.343  27.014  24.055  1.00  0.00     0.040 A 
ATOM     75  C   UNL A   1      54.640  27.003  26.444  1.00  0.00     0.040 A 
ATOM     76  F   UNL A   1      53.130  28.152  27.822  1.00  0.00    -0.206 F 
ATOM     77  C   UNL A   1      55.060  26.604  25.177  1.00  0.00     0.006 A 
ENDBRANCH  56  70
BRANCH  57  78
ATOM     78  C   UNL A   1      44.708  33.958  26.850  1.00  0.00     0.057 A 
ATOM     79  C   UNL A   1      44.262  34.214  28.152  1.00  0.00     0.134 A 
ATOM     80  C   UNL A   1      43.968  34.510  25.797  1.00  0.00     0.134 A 
ATOM     81  F   UNL A   1      44.911  33.691  29.203  1.00  0.00    -0.206 F 
ATOM     82  C   UNL A   1      43.108  34.962  28.397  1.00  0.00     0.040 A 
ATOM     83  C   UNL A   1      42.831  35.287  26.029  1.00  0.00     0.040 A 
ATOM     84  F   UNL A   1      44.339  34.304  24.525  1.00  0.00    -0.206 F 
ATOM     85  C   UNL A   1      42.392  35.505  27.333  1.00  0.00     0.006 A 
ENDBRANCH  57  78
BRANCH  69  86
ATOM     86  C   UNL A   1      51.493  35.308  26.017  1.00  0.00     0.057 A 
ATOM     87  C   UNL A   1      51.703  36.015  24.826  1.00  0.00     0.134 A 
ATOM     88  C   UNL A   1      52.006  35.866  27.197  1.00  0.00     0.134 A 
ATOM     89  F   UNL A   1      51.248  35.533  23.660  1.00  0.00    -0.206 F 
ATOM     90  C   UNL A   1      52.419  37.214  24.806  1.00  0.00     0.040 A 
ATOM     91  C   UNL A   1      52.694  37.081  27.194  1.00  0.00     0.040 A 
ATOM     92  F   UNL A   1      51.830  35.249  28.375  1.00  0.00    -0.206 F 
ATOM     93  C   UNL A   1      52.909  37.754  25.994  1.00  0.00     0.006 A 
ENDBRANCH  69  86
ENDBRANCH  43  44
ENDBRANCH  36  38
ENDBRANCH  35  36
ENDBRANCH  34  35
ENDBRANCH  33  34
ENDBRANCH  32  33
ENDBRANCH  31  32
ENDBRANCH  30  31
ENDBRANCH  29  30
ENDBRANCH   1  29
TORSDOF 23
ENDMDL
MODEL 3
REMARK VINA RESULT:      -8.1      1.604      2.889
REMARK SMILES CCCN1CCC[C@@]2(CCN(c3ccc(C(=O)OCCOCCOCCOCCOC(=O)c4ccc(-c5c6nc(c(-c7c(F)cccc7F)c7ccc([nH]7)c(-c7c(F)cccc7F)c7nc(c(-c8c(F)cccc8F)c8ccc5[nH]8)C=C7)C=C6)cc4)cn3)C2)C1=O
REMARK SMILES IDX 23 1 22 2 21 3 20 4 19 5 18 6 16 7 17 8 15 9 12 10 13 11
REMARK SMILES IDX 88 12 14 13 87 14 11 15 4 16 5 17 90 18 6 19 8 20 91 21 7 22
REMARK SMILES IDX 9 23 89 24 10 25 3 26 2 27 1 28 24 29 25 30 26 31 27 32
REMARK SMILES IDX 28 33 29 34 30 35 31 36 32 37 33 38 34 39 86 40 35 41 85 42
REMARK SMILES IDX 36 43 37 44 38 45 79 46 39 47 84 48 78 49 80 50 40 51 83 52
REMARK SMILES IDX 77 53 76 54 41 56 67 57 50 58 66 59 51 60 54 61 65 62 81 63
REMARK SMILES IDX 52 64 53 65 64 67 82 68 55 69 42 70 43 71 48 72 44 73 45 74
REMARK SMILES IDX 47 75 49 76 46 77 68 78 69 79 74 80 70 81 71 82 73 83 75 84
REMARK SMILES IDX 72 85 56 86 57 87 62 88 58 89 59 90 61 91 63 92 60 93
REMARK H PARENT 80 55 54 66
REMARK Flexibility Score: inf
ROOT
ATOM      1  C   UNL A   1      35.055  32.742  32.140  1.00  0.00     0.188 C 
ENDROOT
BRANCH   1   2
ATOM      2  C   UNL A   1      34.663  33.337  30.773  1.00  0.00     0.188 C 
BRANCH   2   3
ATOM      3  O   UNL A   1      35.629  33.095  29.765  1.00  0.00    -0.376 OA
BRANCH   3   4
ATOM      4  C   UNL A   1      35.285  32.368  28.602  1.00  0.00     0.202 C 
BRANCH   4   5
ATOM      5  C   UNL A   1      33.846  31.899  28.334  1.00  0.00     0.261 C 
BRANCH   5   6
ATOM      6  O   UNL A   1      33.552  31.414  27.023  1.00  0.00    -0.460 OA
BRANCH   6   7
ATOM      7  C   UNL A   1      32.257  31.199  26.705  1.00  0.00     0.339 C 
ATOM      8  O   UNL A   1      31.367  32.023  26.662  1.00  0.00    -0.246 OA
BRANCH   7   9
ATOM      9  C   UNL A   1      32.152  29.807  26.229  1.00  0.00     0.078 A 
ATOM     10  C   UNL A   1      31.891  27.272  25.182  1.00  0.00     0.128 A 
ATOM     11  C   UNL A   1      32.817  27.512  26.201  1.00  0.00     0.048 A 
ATOM     12  N   UNL A   1      31.156  28.268  24.646  1.00  0.00    -0.238 NA
ATOM     13  C   UNL A   1      32.960  28.791  26.726  1.00  0.00     0.021 A 
ATOM     14  C   UNL A   1      31.286  29.505  25.188  1.00  0.00     0.129 A 
BRANCH  10  15
ATOM     15  N   UNL A   1      31.614  25.956  24.862  1.00  0.00    -0.356 N 
ATOM     16  N   UNL A   1      34.733  22.985  25.151  1.00  0.00    -0.342 N 
ATOM     17  C   UNL A   1      34.998  22.452  23.822  1.00  0.00     0.119 C 
ATOM     18  C   UNL A   1      33.425  23.184  25.590  1.00  0.00     0.230 C 
ATOM     19  C   UNL A   1      34.099  23.033  22.745  1.00  0.00     0.023 C 
ATOM     20  C   UNL A   1      32.469  23.740  24.528  1.00  0.00     0.069 C 
ATOM     21  O   UNL A   1      33.102  23.068  26.771  1.00  0.00    -0.274 OA
ATOM     22  C   UNL A   1      32.641  22.999  23.198  1.00  0.00     0.021 C 
ATOM     23  C   UNL A   1      31.008  23.736  25.026  1.00  0.00     0.040 C 
ATOM     24  C   UNL A   1      32.793  25.244  24.368  1.00  0.00     0.135 C 
ATOM     25  C   UNL A   1      30.862  25.083  25.746  1.00  0.00     0.119 C 
BRANCH  16  26
ATOM     26  C   UNL A   1      35.821  23.061  26.124  1.00  0.00     0.119 C 
BRANCH  26  27
ATOM     27  C   UNL A   1      37.223  23.257  25.548  1.00  0.00     0.018 C 
ATOM     28  C   UNL A   1      38.108  22.025  25.672  1.00  0.00     0.006 C 
ENDBRANCH  26  27
ENDBRANCH  16  26
ENDBRANCH  10  15
ENDBRANCH   7   9
ENDBRANCH   6   7
ENDBRANCH   5   6
ENDBRANCH   4   5
ENDBRANCH   3   4
ENDBRANCH   2   3
ENDBRANCH   1   2
BRANCH   1  29
ATOM     29  O   UNL A   1      35.993  31.676  32.111  1.00  0.00    -0.377 OA
BRANCH  29  30
ATOM     30  C   UNL A   1      36.860  31.470  33.226  1.00  0.00     0.188 C 
BRANCH  30  31
ATOM     31  C   UNL A   1      38.103  30.543  33.180  1.00  0.00     0.188 C 
BRANCH  31  32
ATOM     32  O   UNL A   1      37.837  29.171  33.411  1.00  0.00    -0.376 OA
BRANCH  32  33
ATOM     33  C   UNL A   1      38.434  28.215  32.554  1.00  0.00     0.202 C 
BRANCH  33  34
ATOM     34  C   UNL A   1      37.936  28.186  31.104  1.00  0.00     0.261 C 
BRANCH  34  35
ATOM     35  O   UNL A   1      38.943  28.338  30.091  1.00  0.00    -0.460 OA
BRANCH  35  36
ATOM     36  C   UNL A   1      38.722  29.274  29.138  1.00  0.00     0.338 C 
ATOM     37  O   UNL A   1      37.946  29.211  28.210  1.00  0.00    -0.246 OA
BRANCH  36  38
ATOM     38  C   UNL A   1      39.476  30.485  29.529  1.00  0.00     0.060 A 
ATOM     39  C   UNL A   1      40.862  30.397  29.711  1.00  0.00     0.016 A 
ATOM     40  C   UNL A   1      38.814  31.702  29.702  1.00  0.00     0.016 A 
ATOM     41  C   UNL A   1      41.587  31.526  30.098  1.00  0.00     0.010 A 
ATOM     42  C   UNL A   1      39.538  32.825  30.109  1.00  0.00     0.010 A 
ATOM     43  C   UNL A   1      40.922  32.734  30.338  1.00  0.00    -0.014 A 
BRANCH  43  44
ATOM     44  C   UNL A   1      41.635  33.853  31.002  1.00  0.00     0.031 A 
ATOM     45  C   UNL A   1      41.570  33.952  32.502  1.00  0.00     0.074 A 
ATOM     46  C   UNL A   1      42.333  34.758  30.295  1.00  0.00     0.049 A 
ATOM     47  N   UNL A   1      42.050  34.872  33.297  1.00  0.00    -0.248 NA
ATOM     48  C   UNL A   1      40.862  32.863  33.198  1.00  0.00     0.031 C 
ATOM     49  C   UNL A   1      42.505  34.751  28.844  1.00  0.00     0.029 A 
ATOM     50  N   UNL A   1      43.019  35.874  30.710  1.00  0.00    -0.354 N 
ATOM     51  C   UNL A   1      41.695  34.481  34.582  1.00  0.00     0.074 A 
ATOM     52  C   UNL A   1      40.936  33.256  34.460  1.00  0.00     0.031 C 
ATOM     53  C   UNL A   1      43.235  35.822  28.486  1.00  0.00     0.029 A 
ATOM     54  C   UNL A   1      43.549  36.610  29.677  1.00  0.00     0.049 A 
ATOM     55  H   UNL A   1      43.121  36.122  31.656  1.00  0.00     0.167 HD
ATOM     56  C   UNL A   1      41.983  35.086  35.758  1.00  0.00     0.037 A 
ATOM     57  C   UNL A   1      44.187  37.796  29.694  1.00  0.00     0.037 A 
ATOM     58  C   UNL A   1      42.739  36.304  35.878  1.00  0.00     0.049 A 
ATOM     59  C   UNL A   1      44.428  38.489  31.013  1.00  0.00     0.074 A 
ATOM     60  C   UNL A   1      43.103  36.982  37.027  1.00  0.00     0.029 A 
ATOM     61  N   UNL A   1      43.238  37.031  34.808  1.00  0.00    -0.354 N 
ATOM     62  N   UNL A   1      44.117  38.096  32.224  1.00  0.00    -0.248 NA
ATOM     63  C   UNL A   1      45.111  39.790  30.964  1.00  0.00     0.031 C 
ATOM     64  C   UNL A   1      43.769  38.152  36.651  1.00  0.00     0.029 A 
ATOM     65  C   UNL A   1      43.879  38.169  35.270  1.00  0.00     0.049 A 
ATOM     66  H   UNL A   1      43.149  36.777  33.861  1.00  0.00     0.167 HD
ATOM     67  C   UNL A   1      44.597  39.080  33.081  1.00  0.00     0.074 A 
ATOM     68  C   UNL A   1      45.232  40.082  32.251  1.00  0.00     0.031 C 
ATOM     69  C   UNL A   1      44.520  39.150  34.433  1.00  0.00     0.037 A 
BRANCH  56  70
ATOM     70  C   UNL A   1      41.452  34.457  37.014  1.00  0.00     0.057 A 
ATOM     71  C   UNL A   1      40.203  34.800  37.547  1.00  0.00     0.134 A 
ATOM     72  C   UNL A   1      42.182  33.456  37.670  1.00  0.00     0.134 A 
ATOM     73  F   UNL A   1      39.460  35.760  36.977  1.00  0.00    -0.206 F 
ATOM     74  C   UNL A   1      39.706  34.182  38.696  1.00  0.00     0.040 A 
ATOM     75  C   UNL A   1      41.682  32.811  38.802  1.00  0.00     0.040 A 
ATOM     76  F   UNL A   1      43.384  33.078  37.211  1.00  0.00    -0.206 F 
ATOM     77  C   UNL A   1      40.442  33.178  39.321  1.00  0.00     0.006 A 
ENDBRANCH  56  70
BRANCH  57  78
ATOM     78  C   UNL A   1      44.624  38.434  28.423  1.00  0.00     0.057 A 
ATOM     79  C   UNL A   1      45.924  38.268  27.933  1.00  0.00     0.134 A 
ATOM     80  C   UNL A   1      43.764  39.266  27.694  1.00  0.00     0.134 A 
ATOM     81  F   UNL A   1      46.804  37.506  28.598  1.00  0.00    -0.206 F 
ATOM     82  C   UNL A   1      46.364  38.929  26.783  1.00  0.00     0.040 A 
ATOM     83  C   UNL A   1      44.181  39.907  26.525  1.00  0.00     0.040 A 
ATOM     84  F   UNL A   1      42.505  39.469  28.107  1.00  0.00    -0.206 F 
ATOM     85  C   UNL A   1      45.489  39.748  26.074  1.00  0.00     0.006 A 
ENDBRANCH  57  78
BRANCH  69  86
ATOM     86  C   UNL A   1      45.179  40.321  35.107  1.00  0.00     0.057 A 
ATOM     87  C   UNL A   1      44.508  41.532  35.323  1.00  0.00     0.134 A 
ATOM     88  C   UNL A   1      46.492  40.217  35.587  1.00  0.00     0.134 A 
ATOM     89  F   UNL A   1      43.253  41.703  34.881  1.00  0.00    -0.206 F 
ATOM     90  C   UNL A   1      45.128  42.606  35.966  1.00  0.00     0.040 A 
ATOM     91  C   UNL A   1      47.111  41.272  36.260  1.00  0.00     0.040 A 
ATOM     92  F   UNL A   1      47.188  39.082  35.426  1.00  0.00    -0.206 F 
ATOM     93  C   UNL A   1      46.432  42.474  36.444  1.00  0.00     0.006 A 
ENDBRANCH  69  86
ENDBRANCH  43  44
ENDBRANCH  36  38
ENDBRANCH  35  36
ENDBRANCH  34  35
ENDBRANCH  33  34
ENDBRANCH  32  33
ENDBRANCH  31  32
ENDBRANCH  30  31
ENDBRANCH  29  30
ENDBRANCH   1  29
TORSDOF 23
ENDMDL
