MODEL 1
REMARK VINA RESULT:     -10.3      0.000      0.000
REMARK SMILES Cc1cc(=O)cc(C)n1-c1ccc(Cl)cc1C(=O)OCCOCCOCCOCCOC(=O)c1ccc(-c2c3nc(c(-c4c(F)cccc4F)c4ccc([nH]4)c(-c4c(F)cccc4F)c4nc(c(-c5c(F)cccc5F)c5ccc2[nH]5)C=C4)C=C3)cc1
REMARK SMILES IDX 26 1 25 2 24 3 23 4 22 5 21 6 20 7 19 8 17 9 18 10 16 11
REMARK SMILES IDX 10 12 11 13 12 14 15 15 13 16 14 17 9 18 1 19 2 20 3 21 4 22
REMARK SMILES IDX 7 23 5 24 6 25 8 26 27 27 28 28 29 29 30 30 31 31 32 32
REMARK SMILES IDX 33 33 34 34 35 35 87 36 36 37 86 38 37 39 38 40 39 41 80 42
REMARK SMILES IDX 40 43 85 44 79 45 81 46 41 47 84 48 78 49 77 50 42 52 68 53
REMARK SMILES IDX 51 54 67 55 52 56 55 57 66 58 82 59 53 60 54 61 65 63 83 64
REMARK SMILES IDX 56 65 43 66 44 67 49 68 45 69 46 70 48 71 50 72 47 73 69 74
REMARK SMILES IDX 70 75 75 76 71 77 72 78 74 79 76 80 73 81 57 82 58 83 63 84
REMARK SMILES IDX 59 85 60 86 62 87 64 88 61 89
REMARK H PARENT 81 51 55 62
REMARK Flexibility Score: inf
ROOT
ATOM      1  C   UNL A   1      33.650  35.636  28.754  1.00  0.00     0.188 C 
ENDROOT
BRANCH   1   2
ATOM      2  O   UNL A   1      35.000  35.253  28.514  1.00  0.00    -0.377 OA
BRANCH   2   3
ATOM      3  C   UNL A   1      35.368  33.880  28.546  1.00  0.00     0.188 C 
BRANCH   3   4
ATOM      4  C   UNL A   1      34.637  32.847  27.654  1.00  0.00     0.188 C 
BRANCH   4   5
ATOM      5  O   UNL A   1      34.465  31.575  28.250  1.00  0.00    -0.376 OA
BRANCH   5   6
ATOM      6  C   UNL A   1      33.677  30.592  27.610  1.00  0.00     0.202 C 
BRANCH   6   7
ATOM      7  C   UNL A   1      34.209  29.163  27.461  1.00  0.00     0.261 C 
BRANCH   7   8
ATOM      8  O   UNL A   1      33.866  28.506  26.241  1.00  0.00    -0.460 OA
BRANCH   8   9
ATOM      9  C   UNL A   1      33.106  27.399  26.337  1.00  0.00     0.340 C 
ATOM     10  O   UNL A   1      32.124  27.258  27.047  1.00  0.00    -0.246 OA
BRANCH   9  11
ATOM     11  C   UNL A   1      33.547  26.391  25.344  1.00  0.00     0.085 A 
ATOM     12  C   UNL A   1      33.041  26.279  24.025  1.00  0.00     0.060 A 
ATOM     13  C   UNL A   1      33.615  25.284  23.202  1.00  0.00     0.029 A 
ATOM     14  C   UNL A   1      34.559  24.374  23.690  1.00  0.00     0.023 A 
ATOM     15  C   UNL A   1      34.508  25.481  25.827  1.00  0.00     0.038 A 
ATOM     16  C   UNL A   1      34.984  24.463  25.010  1.00  0.00     0.042 A 
ATOM     17  Cl  UNL A   1      36.087  23.304  25.637  1.00  0.00    -0.084 Cl
BRANCH  12  18
ATOM     18  N   UNL A   1      31.963  27.079  23.497  1.00  0.00    -0.317 N 
ATOM     19  C   UNL A   1      33.587  28.885  22.668  1.00  0.00     0.065 C 
ATOM     20  C   UNL A   1      32.194  28.362  22.930  1.00  0.00     0.024 A 
ATOM     21  C   UNL A   1      31.187  29.182  22.570  1.00  0.00     0.073 A 
ATOM     22  C   UNL A   1      29.790  28.757  22.740  1.00  0.00     0.182 A 
ATOM     23  C   UNL A   1      30.610  26.632  23.618  1.00  0.00     0.024 A 
ATOM     24  O   UNL A   1      28.859  29.499  22.451  1.00  0.00    -0.290 OA
ATOM     25  C   UNL A   1      29.563  27.403  23.260  1.00  0.00     0.073 A 
ATOM     26  C   UNL A   1      30.248  25.283  24.204  1.00  0.00     0.065 C 
ENDBRANCH  12  18
ENDBRANCH   9  11
ENDBRANCH   8   9
ENDBRANCH   7   8
ENDBRANCH   6   7
ENDBRANCH   5   6
ENDBRANCH   4   5
ENDBRANCH   3   4
ENDBRANCH   2   3
ENDBRANCH   1   2
BRANCH   1  27
ATOM     27  C   UNL A   1      32.951  35.279  30.087  1.00  0.00     0.188 C 
BRANCH  27  28
ATOM     28  O   UNL A   1      33.681  35.641  31.247  1.00  0.00    -0.376 OA
BRANCH  28  29
ATOM     29  C   UNL A   1      34.061  34.604  32.134  1.00  0.00     0.202 C 
BRANCH  29  30
ATOM     30  C   UNL A   1      34.600  33.308  31.514  1.00  0.00     0.261 C 
BRANCH  30  31
ATOM     31  O   UNL A   1      34.867  32.230  32.424  1.00  0.00    -0.460 OA
BRANCH  31  32
ATOM     32  C   UNL A   1      36.042  32.255  33.087  1.00  0.00     0.338 C 
ATOM     33  O   UNL A   1      36.253  32.698  34.204  1.00  0.00    -0.246 OA
BRANCH  32  34
ATOM     34  C   UNL A   1      37.009  31.472  32.296  1.00  0.00     0.060 A 
ATOM     35  C   UNL A   1      37.904  30.618  32.957  1.00  0.00     0.016 A 
ATOM     36  C   UNL A   1      37.022  31.574  30.902  1.00  0.00     0.016 A 
ATOM     37  C   UNL A   1      38.837  29.886  32.225  1.00  0.00     0.010 A 
ATOM     38  C   UNL A   1      37.979  30.865  30.173  1.00  0.00     0.010 A 
ATOM     39  C   UNL A   1      38.912  30.050  30.835  1.00  0.00    -0.014 A 
BRANCH  39  40
ATOM     40  C   UNL A   1      40.114  29.568  30.118  1.00  0.00     0.031 A 
ATOM     41  C   UNL A   1      41.277  30.511  29.987  1.00  0.00     0.074 A 
ATOM     42  C   UNL A   1      40.195  28.317  29.633  1.00  0.00     0.049 A 
ATOM     43  N   UNL A   1      42.426  30.340  29.386  1.00  0.00    -0.248 NA
ATOM     44  C   UNL A   1      41.122  31.831  30.624  1.00  0.00     0.031 C 
ATOM     45  C   UNL A   1      39.158  27.297  29.748  1.00  0.00     0.029 A 
ATOM     46  N   UNL A   1      41.208  27.698  28.946  1.00  0.00    -0.354 N 
ATOM     47  C   UNL A   1      43.128  31.523  29.578  1.00  0.00     0.074 A 
ATOM     48  C   UNL A   1      42.264  32.420  30.312  1.00  0.00     0.031 C 
ATOM     49  C   UNL A   1      39.590  26.172  29.150  1.00  0.00     0.029 A 
ATOM     50  C   UNL A   1      40.919  26.406  28.584  1.00  0.00     0.049 A 
ATOM     51  H   UNL A   1      42.063  28.139  28.733  1.00  0.00     0.167 HD
ATOM     52  C   UNL A   1      44.387  31.830  29.190  1.00  0.00     0.037 A 
ATOM     53  C   UNL A   1      41.640  25.524  27.866  1.00  0.00     0.037 A 
ATOM     54  C   UNL A   1      45.239  30.939  28.449  1.00  0.00     0.049 A 
ATOM     55  C   UNL A   1      42.998  25.924  27.349  1.00  0.00     0.074 A 
ATOM     56  C   UNL A   1      46.528  31.160  27.998  1.00  0.00     0.029 A 
ATOM     57  N   UNL A   1      44.883  29.661  28.044  1.00  0.00    -0.354 N 
ATOM     58  N   UNL A   1      43.658  27.042  27.534  1.00  0.00    -0.248 NA
ATOM     59  C   UNL A   1      43.709  24.942  26.518  1.00  0.00     0.031 C 
ATOM     60  C   UNL A   1      46.931  30.036  27.272  1.00  0.00     0.029 A 
ATOM     61  C   UNL A   1      45.918  29.091  27.322  1.00  0.00     0.049 A 
ATOM     62  H   UNL A   1      44.023  29.225  28.240  1.00  0.00     0.167 HD
ATOM     63  C   UNL A   1      44.867  26.890  26.865  1.00  0.00     0.074 A 
ATOM     64  C   UNL A   1      44.856  25.566  26.280  1.00  0.00     0.031 C 
ATOM     65  C   UNL A   1      45.893  27.769  26.746  1.00  0.00     0.037 A 
BRANCH  52  66
ATOM     66  C   UNL A   1      44.906  33.193  29.543  1.00  0.00     0.057 A 
ATOM     67  C   UNL A   1      45.637  33.425  30.716  1.00  0.00     0.134 A 
ATOM     68  C   UNL A   1      44.698  34.281  28.687  1.00  0.00     0.134 A 
ATOM     69  F   UNL A   1      45.854  32.429  31.590  1.00  0.00    -0.206 F 
ATOM     70  C   UNL A   1      46.124  34.693  31.034  1.00  0.00     0.040 A 
ATOM     71  C   UNL A   1      45.205  35.547  28.979  1.00  0.00     0.040 A 
ATOM     72  F   UNL A   1      44.006  34.128  27.547  1.00  0.00    -0.206 F 
ATOM     73  C   UNL A   1      45.916  35.757  30.159  1.00  0.00     0.006 A 
ENDBRANCH  52  66
BRANCH  53  74
ATOM     74  C   UNL A   1      41.092  24.169  27.601  1.00  0.00     0.057 A 
ATOM     75  C   UNL A   1      40.086  23.969  26.650  1.00  0.00     0.134 A 
ATOM     76  C   UNL A   1      41.573  23.041  28.278  1.00  0.00     0.134 A 
ATOM     77  F   UNL A   1      39.563  25.014  25.991  1.00  0.00    -0.206 F 
ATOM     78  C   UNL A   1      39.578  22.698  26.378  1.00  0.00     0.040 A 
ATOM     79  C   UNL A   1      41.094  21.760  27.996  1.00  0.00     0.040 A 
ATOM     80  F   UNL A   1      42.526  23.167  29.212  1.00  0.00    -0.206 F 
ATOM     81  C   UNL A   1      40.092  21.587  27.044  1.00  0.00     0.006 A 
ENDBRANCH  53  74
BRANCH  65  82
ATOM     82  C   UNL A   1      47.105  27.333  25.970  1.00  0.00     0.057 A 
ATOM     83  C   UNL A   1      48.188  26.699  26.589  1.00  0.00     0.134 A 
ATOM     84  C   UNL A   1      47.147  27.470  24.576  1.00  0.00     0.134 A 
ATOM     85  F   UNL A   1      48.213  26.542  27.922  1.00  0.00    -0.206 F 
ATOM     86  C   UNL A   1      49.276  26.226  25.852  1.00  0.00     0.040 A 
ATOM     87  C   UNL A   1      48.214  26.976  23.825  1.00  0.00     0.040 A 
ATOM     88  F   UNL A   1      46.135  28.055  23.917  1.00  0.00    -0.206 F 
ATOM     89  C   UNL A   1      49.285  26.355  24.464  1.00  0.00     0.006 A 
ENDBRANCH  65  82
ENDBRANCH  39  40
ENDBRANCH  32  34
ENDBRANCH  31  32
ENDBRANCH  30  31
ENDBRANCH  29  30
ENDBRANCH  28  29
ENDBRANCH  27  28
ENDBRANCH   1  27
TORSDOF 21
ENDMDL
MODEL 2
REMARK VINA RESULT:     -10.2      4.379      6.737
REMARK SMILES Cc1cc(=O)cc(C)n1-c1ccc(Cl)cc1C(=O)OCCOCCOCCOCCOC(=O)c1ccc(-c2c3nc(c(-c4c(F)cccc4F)c4ccc([nH]4)c(-c4c(F)cccc4F)c4nc(c(-c5c(F)cccc5F)c5ccc2[nH]5)C=C4)C=C3)cc1
REMARK SMILES IDX 26 1 25 2 24 3 23 4 22 5 21 6 20 7 19 8 17 9 18 10 16 11
REMARK SMILES IDX 10 12 11 13 12 14 15 15 13 16 14 17 9 18 1 19 2 20 3 21 4 22
REMARK SMILES IDX 7 23 5 24 6 25 8 26 27 27 28 28 29 29 30 30 31 31 32 32
REMARK SMILES IDX 33 33 34 34 35 35 87 36 36 37 86 38 37 39 38 40 39 41 80 42
REMARK SMILES IDX 40 43 85 44 79 45 81 46 41 47 84 48 78 49 77 50 42 52 68 53
REMARK SMILES IDX 51 54 67 55 52 56 55 57 66 58 82 59 53 60 54 61 65 63 83 64
REMARK SMILES IDX 56 65 43 66 44 67 49 68 45 69 46 70 48 71 50 72 47 73 69 74
REMARK SMILES IDX 70 75 75 76 71 77 72 78 74 79 76 80 73 81 57 82 58 83 63 84
REMARK SMILES IDX 59 85 60 86 62 87 64 88 61 89
REMARK H PARENT 81 51 55 62
REMARK Flexibility Score: inf
ROOT
ATOM      1  C   UNL A   1      35.287  32.651  28.497  1.00  0.00     0.188 C 
ENDROOT
BRANCH   1   2
ATOM      2  O   UNL A   1      34.038  31.965  28.519  1.00  0.00    -0.377 OA
BRANCH   2   3
ATOM      3  C   UNL A   1      33.187  32.000  27.380  1.00  0.00     0.188 C 
BRANCH   3   4
ATOM      4  C   UNL A   1      32.503  30.710  26.867  1.00  0.00     0.188 C 
BRANCH   4   5
ATOM      5  O   UNL A   1      32.782  29.554  27.634  1.00  0.00    -0.376 OA
BRANCH   5   6
ATOM      6  C   UNL A   1      33.835  28.690  27.259  1.00  0.00     0.202 C 
BRANCH   6   7
ATOM      7  C   UNL A   1      33.650  27.721  26.086  1.00  0.00     0.261 C 
BRANCH   7   8
ATOM      8  O   UNL A   1      33.186  26.417  26.435  1.00  0.00    -0.460 OA
BRANCH   8   9
ATOM      9  C   UNL A   1      31.877  26.165  26.252  1.00  0.00     0.340 C 
ATOM     10  O   UNL A   1      30.949  26.728  26.810  1.00  0.00    -0.246 OA
BRANCH   9  11
ATOM     11  C   UNL A   1      31.696  25.182  25.158  1.00  0.00     0.085 A 
ATOM     12  C   UNL A   1      31.277  25.503  23.842  1.00  0.00     0.060 A 
ATOM     13  C   UNL A   1      31.205  24.438  22.916  1.00  0.00     0.029 A 
ATOM     14  C   UNL A   1      31.425  23.109  23.298  1.00  0.00     0.023 A 
ATOM     15  C   UNL A   1      31.930  23.844  25.534  1.00  0.00     0.038 A 
ATOM     16  C   UNL A   1      31.764  22.817  24.613  1.00  0.00     0.042 A 
ATOM     17  Cl  UNL A   1      31.963  21.183  25.105  1.00  0.00    -0.084 Cl
BRANCH  12  18
ATOM     18  N   UNL A   1      30.886  26.823  23.412  1.00  0.00    -0.317 N 
ATOM     19  C   UNL A   1      28.463  26.452  24.171  1.00  0.00     0.065 C 
ATOM     20  C   UNL A   1      29.535  27.260  23.476  1.00  0.00     0.024 A 
ATOM     21  C   UNL A   1      29.130  28.429  22.943  1.00  0.00     0.073 A 
ATOM     22  C   UNL A   1      30.099  29.315  22.281  1.00  0.00     0.182 A 
ATOM     23  C   UNL A   1      31.848  27.700  22.819  1.00  0.00     0.024 A 
ATOM     24  O   UNL A   1      29.747  30.366  21.760  1.00  0.00    -0.290 OA
ATOM     25  C   UNL A   1      31.504  28.888  22.283  1.00  0.00     0.073 A 
ATOM     26  C   UNL A   1      33.314  27.339  22.700  1.00  0.00     0.065 C 
ENDBRANCH  12  18
ENDBRANCH   9  11
ENDBRANCH   8   9
ENDBRANCH   7   8
ENDBRANCH   6   7
ENDBRANCH   5   6
ENDBRANCH   4   5
ENDBRANCH   3   4
ENDBRANCH   2   3
ENDBRANCH   1   2
BRANCH   1  27
ATOM     27  C   UNL A   1      35.374  34.148  28.873  1.00  0.00     0.188 C 
BRANCH  27  28
ATOM     28  O   UNL A   1      34.639  35.010  28.021  1.00  0.00    -0.376 OA
BRANCH  28  29
ATOM     29  C   UNL A   1      34.029  36.147  28.605  1.00  0.00     0.202 C 
BRANCH  29  30
ATOM     30  C   UNL A   1      32.931  35.901  29.648  1.00  0.00     0.261 C 
BRANCH  30  31
ATOM     31  O   UNL A   1      33.207  36.354  30.982  1.00  0.00    -0.460 OA
BRANCH  31  32
ATOM     32  C   UNL A   1      32.800  35.569  32.001  1.00  0.00     0.338 C 
ATOM     33  O   UNL A   1      31.652  35.301  32.317  1.00  0.00    -0.246 OA
BRANCH  32  34
ATOM     34  C   UNL A   1      34.000  34.925  32.566  1.00  0.00     0.060 A 
ATOM     35  C   UNL A   1      35.244  35.560  32.438  1.00  0.00     0.016 A 
ATOM     36  C   UNL A   1      33.892  33.701  33.232  1.00  0.00     0.016 A 
ATOM     37  C   UNL A   1      36.390  34.955  32.949  1.00  0.00     0.010 A 
ATOM     38  C   UNL A   1      35.046  33.081  33.715  1.00  0.00     0.010 A 
ATOM     39  C   UNL A   1      36.301  33.688  33.541  1.00  0.00    -0.014 A 
BRANCH  39  40
ATOM     40  C   UNL A   1      37.538  32.901  33.747  1.00  0.00     0.031 A 
ATOM     41  C   UNL A   1      38.324  33.148  35.005  1.00  0.00     0.074 A 
ATOM     42  C   UNL A   1      37.934  31.963  32.871  1.00  0.00     0.049 A 
ATOM     43  N   UNL A   1      39.448  32.610  35.405  1.00  0.00    -0.248 NA
ATOM     44  C   UNL A   1      37.763  34.137  35.941  1.00  0.00     0.031 C 
ATOM     45  C   UNL A   1      37.227  31.595  31.648  1.00  0.00     0.029 A 
ATOM     46  N   UNL A   1      39.036  31.146  32.886  1.00  0.00    -0.354 N 
ATOM     47  C   UNL A   1      39.722  33.191  36.636  1.00  0.00     0.074 A 
ATOM     48  C   UNL A   1      38.674  34.152  36.900  1.00  0.00     0.031 C 
ATOM     49  C   UNL A   1      37.914  30.621  31.027  1.00  0.00     0.029 A 
ATOM     50  C   UNL A   1      39.124  30.320  31.793  1.00  0.00     0.049 A 
ATOM     51  H   UNL A   1      39.701  31.151  33.613  1.00  0.00     0.167 HD
ATOM     52  C   UNL A   1      40.748  32.935  37.480  1.00  0.00     0.037 A 
ATOM     53  C   UNL A   1      40.081  29.438  31.447  1.00  0.00     0.037 A 
ATOM     54  C   UNL A   1      41.795  31.989  37.207  1.00  0.00     0.049 A 
ATOM     55  C   UNL A   1      41.273  29.247  32.349  1.00  0.00     0.074 A 
ATOM     56  C   UNL A   1      42.887  31.665  37.993  1.00  0.00     0.029 A 
ATOM     57  N   UNL A   1      41.885  31.219  36.056  1.00  0.00    -0.354 N 
ATOM     58  N   UNL A   1      41.528  29.796  33.513  1.00  0.00    -0.248 NA
ATOM     59  C   UNL A   1      42.315  28.318  31.888  1.00  0.00     0.031 C 
ATOM     60  C   UNL A   1      43.667  30.741  37.292  1.00  0.00     0.029 A 
ATOM     61  C   UNL A   1      43.030  30.442  36.097  1.00  0.00     0.049 A 
ATOM     62  H   UNL A   1      41.232  31.226  35.320  1.00  0.00     0.167 HD
ATOM     63  C   UNL A   1      42.742  29.264  33.932  1.00  0.00     0.074 A 
ATOM     64  C   UNL A   1      43.168  28.338  32.904  1.00  0.00     0.031 C 
ATOM     65  C   UNL A   1      43.441  29.522  35.066  1.00  0.00     0.037 A 
BRANCH  52  66
ATOM     66  C   UNL A   1      40.796  33.710  38.764  1.00  0.00     0.057 A 
ATOM     67  C   UNL A   1      40.042  33.332  39.883  1.00  0.00     0.134 A 
ATOM     68  C   UNL A   1      41.625  34.830  38.893  1.00  0.00     0.134 A 
ATOM     69  F   UNL A   1      39.211  32.280  39.820  1.00  0.00    -0.206 F 
ATOM     70  C   UNL A   1      40.098  34.052  41.078  1.00  0.00     0.040 A 
ATOM     71  C   UNL A   1      41.712  35.541  40.091  1.00  0.00     0.040 A 
ATOM     72  F   UNL A   1      42.374  35.247  37.860  1.00  0.00    -0.206 F 
ATOM     73  C   UNL A   1      40.942  35.154  41.186  1.00  0.00     0.006 A 
ENDBRANCH  52  66
BRANCH  53  74
ATOM     74  C   UNL A   1      39.945  28.660  30.190  1.00  0.00     0.057 A 
ATOM     75  C   UNL A   1      40.527  29.104  28.998  1.00  0.00     0.134 A 
ATOM     76  C   UNL A   1      39.246  27.447  30.153  1.00  0.00     0.134 A 
ATOM     77  F   UNL A   1      41.184  30.274  28.963  1.00  0.00    -0.206 F 
ATOM     78  C   UNL A   1      40.423  28.372  27.815  1.00  0.00     0.040 A 
ATOM     79  C   UNL A   1      39.158  26.689  28.983  1.00  0.00     0.040 A 
ATOM     80  F   UNL A   1      38.651  26.973  31.257  1.00  0.00    -0.206 F 
ATOM     81  C   UNL A   1      39.746  27.154  27.808  1.00  0.00     0.006 A 
ENDBRANCH  53  74
BRANCH  65  82
ATOM     82  C   UNL A   1      44.733  28.784  35.277  1.00  0.00     0.057 A 
ATOM     83  C   UNL A   1      44.772  27.525  35.888  1.00  0.00     0.134 A 
ATOM     84  C   UNL A   1      45.938  29.300  34.781  1.00  0.00     0.134 A 
ATOM     85  F   UNL A   1      43.655  26.978  36.391  1.00  0.00    -0.206 F 
ATOM     86  C   UNL A   1      45.966  26.811  36.011  1.00  0.00     0.040 A 
ATOM     87  C   UNL A   1      47.132  28.582  34.871  1.00  0.00     0.040 A 
ATOM     88  F   UNL A   1      45.970  30.493  34.170  1.00  0.00    -0.206 F 
ATOM     89  C   UNL A   1      47.148  27.335  35.491  1.00  0.00     0.006 A 
ENDBRANCH  65  82
ENDBRANCH  39  40
ENDBRANCH  32  34
ENDBRANCH  31  32
ENDBRANCH  30  31
ENDBRANCH  29  30
ENDBRANCH  28  29
ENDBRANCH  27  28
ENDBRANCH   1  27
TORSDOF 21
ENDMDL
MODEL 3
REMARK VINA RESULT:     -10.0      1.573      2.494
REMARK SMILES Cc1cc(=O)cc(C)n1-c1ccc(Cl)cc1C(=O)OCCOCCOCCOCCOC(=O)c1ccc(-c2c3nc(c(-c4c(F)cccc4F)c4ccc([nH]4)c(-c4c(F)cccc4F)c4nc(c(-c5c(F)cccc5F)c5ccc2[nH]5)C=C4)C=C3)cc1
REMARK SMILES IDX 26 1 25 2 24 3 23 4 22 5 21 6 20 7 19 8 17 9 18 10 16 11
REMARK SMILES IDX 10 12 11 13 12 14 15 15 13 16 14 17 9 18 1 19 2 20 3 21 4 22
REMARK SMILES IDX 7 23 5 24 6 25 8 26 27 27 28 28 29 29 30 30 31 31 32 32
REMARK SMILES IDX 33 33 34 34 35 35 87 36 36 37 86 38 37 39 38 40 39 41 80 42
REMARK SMILES IDX 40 43 85 44 79 45 81 46 41 47 84 48 78 49 77 50 42 52 68 53
REMARK SMILES IDX 51 54 67 55 52 56 55 57 66 58 82 59 53 60 54 61 65 63 83 64
REMARK SMILES IDX 56 65 43 66 44 67 49 68 45 69 46 70 48 71 50 72 47 73 69 74
REMARK SMILES IDX 70 75 75 76 71 77 72 78 74 79 76 80 73 81 57 82 58 83 63 84
REMARK SMILES IDX 59 85 60 86 62 87 64 88 61 89
REMARK H PARENT 81 51 55 62
REMARK Flexibility Score: inf
ROOT
ATOM      1  C   UNL A   1      33.973  35.222  28.484  1.00  0.00     0.188 C 
ENDROOT
BRANCH   1   2
ATOM      2  O   UNL A   1      35.379  34.993  28.462  1.00  0.00    -0.377 OA
BRANCH   2   3
ATOM      3  C   UNL A   1      35.886  33.669  28.581  1.00  0.00     0.188 C 
BRANCH   3   4
ATOM      4  C   UNL A   1      35.330  32.530  27.693  1.00  0.00     0.188 C 
BRANCH   4   5
ATOM      5  O   UNL A   1      34.272  31.793  28.276  1.00  0.00    -0.376 OA
BRANCH   5   6
ATOM      6  C   UNL A   1      33.770  30.640  27.634  1.00  0.00     0.202 C 
BRANCH   6   7
ATOM      7  C   UNL A   1      32.458  30.713  26.846  1.00  0.00     0.261 C 
BRANCH   7   8
ATOM      8  O   UNL A   1      32.031  29.487  26.252  1.00  0.00    -0.460 OA
BRANCH   8   9
ATOM      9  C   UNL A   1      32.252  29.338  24.932  1.00  0.00     0.340 C 
ATOM     10  O   UNL A   1      33.329  29.431  24.367  1.00  0.00    -0.246 OA
BRANCH   9  11
ATOM     11  C   UNL A   1      31.008  28.904  24.254  1.00  0.00     0.085 A 
ATOM     12  C   UNL A   1      30.698  27.564  23.913  1.00  0.00     0.060 A 
ATOM     13  C   UNL A   1      29.441  27.332  23.309  1.00  0.00     0.029 A 
ATOM     14  C   UNL A   1      28.584  28.381  22.957  1.00  0.00     0.023 A 
ATOM     15  C   UNL A   1      30.136  29.956  23.911  1.00  0.00     0.038 A 
ATOM     16  C   UNL A   1      28.948  29.692  23.240  1.00  0.00     0.042 A 
ATOM     17  Cl  UNL A   1      27.935  30.990  22.745  1.00  0.00    -0.084 Cl
BRANCH  12  18
ATOM     18  N   UNL A   1      31.592  26.448  24.103  1.00  0.00    -0.317 N 
ATOM     19  C   UNL A   1      32.794  26.914  21.885  1.00  0.00     0.065 C 
ATOM     20  C   UNL A   1      32.534  26.068  23.109  1.00  0.00     0.024 A 
ATOM     21  C   UNL A   1      33.270  24.944  23.207  1.00  0.00     0.073 A 
ATOM     22  C   UNL A   1      33.130  24.067  24.379  1.00  0.00     0.182 A 
ATOM     23  C   UNL A   1      31.484  25.633  25.273  1.00  0.00     0.024 A 
ATOM     24  O   UNL A   1      33.764  23.024  24.473  1.00  0.00    -0.290 OA
ATOM     25  C   UNL A   1      32.205  24.505  25.433  1.00  0.00     0.073 A 
ATOM     26  C   UNL A   1      30.517  25.945  26.397  1.00  0.00     0.065 C 
ENDBRANCH  12  18
ENDBRANCH   9  11
ENDBRANCH   8   9
ENDBRANCH   7   8
ENDBRANCH   6   7
ENDBRANCH   5   6
ENDBRANCH   4   5
ENDBRANCH   3   4
ENDBRANCH   2   3
ENDBRANCH   1   2
BRANCH   1  27
ATOM     27  C   UNL A   1      33.161  35.037  29.788  1.00  0.00     0.188 C 
BRANCH  27  28
ATOM     28  O   UNL A   1      33.824  35.481  30.959  1.00  0.00    -0.376 OA
BRANCH  28  29
ATOM     29  C   UNL A   1      34.111  34.518  31.957  1.00  0.00     0.202 C 
BRANCH  29  30
ATOM     30  C   UNL A   1      34.765  33.205  31.502  1.00  0.00     0.261 C 
BRANCH  30  31
ATOM     31  O   UNL A   1      34.962  32.208  32.516  1.00  0.00    -0.460 OA
BRANCH  31  32
ATOM     32  C   UNL A   1      36.135  32.225  33.183  1.00  0.00     0.338 C 
ATOM     33  O   UNL A   1      36.346  32.667  34.301  1.00  0.00    -0.246 OA
BRANCH  32  34
ATOM     34  C   UNL A   1      37.099  31.433  32.396  1.00  0.00     0.060 A 
ATOM     35  C   UNL A   1      38.075  30.680  33.063  1.00  0.00     0.016 A 
ATOM     36  C   UNL A   1      37.028  31.428  31.000  1.00  0.00     0.016 A 
ATOM     37  C   UNL A   1      39.005  29.943  32.333  1.00  0.00     0.010 A 
ATOM     38  C   UNL A   1      37.980  30.715  30.270  1.00  0.00     0.010 A 
ATOM     39  C   UNL A   1      38.994  30.002  30.934  1.00  0.00    -0.014 A 
BRANCH  39  40
ATOM     40  C   UNL A   1      40.178  29.528  30.183  1.00  0.00     0.031 A 
ATOM     41  C   UNL A   1      41.335  30.476  30.030  1.00  0.00     0.074 A 
ATOM     42  C   UNL A   1      40.251  28.281  29.687  1.00  0.00     0.049 A 
ATOM     43  N   UNL A   1      42.470  30.312  29.399  1.00  0.00    -0.248 NA
ATOM     44  C   UNL A   1      41.193  31.790  30.680  1.00  0.00     0.031 C 
ATOM     45  C   UNL A   1      39.219  27.257  29.821  1.00  0.00     0.029 A 
ATOM     46  N   UNL A   1      41.248  27.670  28.972  1.00  0.00    -0.354 N 
ATOM     47  C   UNL A   1      43.173  31.495  29.582  1.00  0.00     0.074 A 
ATOM     48  C   UNL A   1      42.325  32.385  30.343  1.00  0.00     0.031 C 
ATOM     49  C   UNL A   1      39.638  26.138  29.205  1.00  0.00     0.029 A 
ATOM     50  C   UNL A   1      40.952  26.379  28.608  1.00  0.00     0.049 A 
ATOM     51  H   UNL A   1      42.096  28.114  28.740  1.00  0.00     0.167 HD
ATOM     52  C   UNL A   1      44.422  31.808  29.165  1.00  0.00     0.037 A 
ATOM     53  C   UNL A   1      41.658  25.504  27.866  1.00  0.00     0.037 A 
ATOM     54  C   UNL A   1      45.256  30.925  28.397  1.00  0.00     0.049 A 
ATOM     55  C   UNL A   1      43.001  25.911  27.319  1.00  0.00     0.074 A 
ATOM     56  C   UNL A   1      46.533  31.152  27.915  1.00  0.00     0.029 A 
ATOM     57  N   UNL A   1      44.894  29.649  27.991  1.00  0.00    -0.354 N 
ATOM     58  N   UNL A   1      43.663  27.030  27.494  1.00  0.00    -0.248 NA
ATOM     59  C   UNL A   1      43.694  24.937  26.463  1.00  0.00     0.031 C 
ATOM     60  C   UNL A   1      46.921  30.034  27.171  1.00  0.00     0.029 A 
ATOM     61  C   UNL A   1      45.912  29.087  27.240  1.00  0.00     0.049 A 
ATOM     62  H   UNL A   1      44.040  29.209  28.206  1.00  0.00     0.167 HD
ATOM     63  C   UNL A   1      44.856  26.885  26.795  1.00  0.00     0.074 A 
ATOM     64  C   UNL A   1      44.833  25.565  26.201  1.00  0.00     0.031 C 
ATOM     65  C   UNL A   1      45.876  27.768  26.656  1.00  0.00     0.037 A 
BRANCH  52  66
ATOM     66  C   UNL A   1      44.946  33.170  29.514  1.00  0.00     0.057 A 
ATOM     67  C   UNL A   1      45.692  33.399  30.679  1.00  0.00     0.134 A 
ATOM     68  C   UNL A   1      44.727  34.260  28.664  1.00  0.00     0.134 A 
ATOM     69  F   UNL A   1      45.919  32.401  31.547  1.00  0.00    -0.206 F 
ATOM     70  C   UNL A   1      46.183  34.666  30.993  1.00  0.00     0.040 A 
ATOM     71  C   UNL A   1      45.238  35.526  28.952  1.00  0.00     0.040 A 
ATOM     72  F   UNL A   1      44.021  34.110  27.532  1.00  0.00    -0.206 F 
ATOM     73  C   UNL A   1      45.965  35.732  30.123  1.00  0.00     0.006 A 
ENDBRANCH  52  66
BRANCH  53  74
ATOM     74  C   UNL A   1      41.107  24.150  27.605  1.00  0.00     0.057 A 
ATOM     75  C   UNL A   1      40.088  23.951  26.667  1.00  0.00     0.134 A 
ATOM     76  C   UNL A   1      41.597  23.020  28.273  1.00  0.00     0.134 A 
ATOM     77  F   UNL A   1      39.556  24.998  26.018  1.00  0.00    -0.206 F 
ATOM     78  C   UNL A   1      39.577  22.681  26.399  1.00  0.00     0.040 A 
ATOM     79  C   UNL A   1      41.115  21.740  27.995  1.00  0.00     0.040 A 
ATOM     80  F   UNL A   1      42.562  23.144  29.196  1.00  0.00    -0.206 F 
ATOM     81  C   UNL A   1      40.100  21.568  27.056  1.00  0.00     0.006 A 
ENDBRANCH  53  74
BRANCH  65  82
ATOM     82  C   UNL A   1      47.069  27.341  25.848  1.00  0.00     0.057 A 
ATOM     83  C   UNL A   1      48.118  26.606  26.412  1.00  0.00     0.134 A 
ATOM     84  C   UNL A   1      47.124  27.591  24.470  1.00  0.00     0.134 A 
ATOM     85  F   UNL A   1      48.130  26.338  27.727  1.00  0.00    -0.206 F 
ATOM     86  C   UNL A   1      49.185  26.145  25.639  1.00  0.00     0.040 A 
ATOM     87  C   UNL A   1      48.170  27.111  23.681  1.00  0.00     0.040 A 
ATOM     88  F   UNL A   1      46.144  28.276  23.861  1.00  0.00    -0.206 F 
ATOM     89  C   UNL A   1      49.207  26.388  24.266  1.00  0.00     0.006 A 
ENDBRANCH  65  82
ENDBRANCH  39  40
ENDBRANCH  32  34
ENDBRANCH  31  32
ENDBRANCH  30  31
ENDBRANCH  29  30
ENDBRANCH  28  29
ENDBRANCH  27  28
ENDBRANCH   1  27
TORSDOF 21
ENDMDL
