MODEL 1
REMARK VINA RESULT:      -9.8      0.000      0.000
REMARK SMILES CCN1C(=O)C[C@@H](C(=O)OCCOCCOCCOCCOC(=O)c2ccc(-c3c4nc(c(-c5c(F)cccc5F)c5ccc([nH]5)c(-c5c(F)cccc5F)c5nc(c(-c6c(F)cccc6F)c6ccc3[nH]6)C=C5)C=C4)cc2)[C@H]1c1ccccc1C1CC1
REMARK SMILES IDX 16 1 15 2 14 3 13 4 12 5 11 6 10 7 8 8 9 9 7 10 3 11 4 12
REMARK SMILES IDX 79 13 5 14 6 15 2 16 1 17 80 18 81 19 85 20 82 21 84 22
REMARK SMILES IDX 83 23 86 24 87 25 88 26 17 27 18 28 19 29 20 30 21 31 22 32
REMARK SMILES IDX 23 33 24 34 25 35 26 36 78 37 27 38 77 39 28 40 29 41 30 42
REMARK SMILES IDX 71 43 31 44 76 45 70 46 72 47 32 48 75 49 69 50 68 51 33 53
REMARK SMILES IDX 59 54 42 55 58 56 43 57 46 58 57 59 73 60 44 61 45 62 56 64
REMARK SMILES IDX 74 65 47 66 34 67 35 68 40 69 36 70 37 71 39 72 41 73 38 74
REMARK SMILES IDX 60 75 61 76 66 77 62 78 63 79 65 80 67 81 64 82 48 83 49 84
REMARK SMILES IDX 54 85 50 86 51 87 53 88 55 89 52 90
REMARK H PARENT 72 52 46 63
REMARK Flexibility Score: inf
ROOT
ATOM      1  O   UNL A   1      30.672  29.886  24.700  1.00  0.00    -0.377 OA
ENDROOT
BRANCH   1   2
ATOM      2  C   UNL A   1      30.423  29.314  23.434  1.00  0.00     0.188 C 
BRANCH   2   3
ATOM      3  C   UNL A   1      29.641  27.988  23.492  1.00  0.00     0.188 C 
BRANCH   3   4
ATOM      4  O   UNL A   1      29.743  27.127  24.614  1.00  0.00    -0.376 OA
BRANCH   4   5
ATOM      5  C   UNL A   1      30.072  25.747  24.544  1.00  0.00     0.202 C 
BRANCH   5   6
ATOM      6  C   UNL A   1      30.885  24.962  25.577  1.00  0.00     0.261 C 
BRANCH   6   7
ATOM      7  O   UNL A   1      32.188  25.461  25.829  1.00  0.00    -0.463 OA
BRANCH   7   8
ATOM      8  C   UNL A   1      33.133  24.532  26.091  1.00  0.00     0.312 C 
ATOM      9  O   UNL A   1      32.970  23.553  26.807  1.00  0.00    -0.252 OA
BRANCH   8  10
ATOM     10  C   UNL A   1      34.395  24.857  25.322  1.00  0.00     0.135 C 
ATOM     11  N   UNL A   1      33.610  24.923  23.163  1.00  0.00    -0.335 N 
ATOM     12  C   UNL A   1      33.555  26.246  23.626  1.00  0.00     0.224 C 
ATOM     13  C   UNL A   1      34.510  24.147  23.988  1.00  0.00     0.130 C 
ATOM     14  O   UNL A   1      33.025  27.212  23.105  1.00  0.00    -0.275 OA
ATOM     15  C   UNL A   1      34.340  26.324  24.917  1.00  0.00     0.118 C 
BRANCH  11  16
ATOM     16  C   UNL A   1      32.983  24.389  21.967  1.00  0.00     0.117 C 
ATOM     17  C   UNL A   1      32.853  25.356  20.806  1.00  0.00     0.027 C 
ENDBRANCH  11  16
BRANCH  13  18
ATOM     18  C   UNL A   1      34.444  22.630  24.049  1.00  0.00    -0.021 A 
ATOM     19  C   UNL A   1      33.178  22.017  23.869  1.00  0.00     0.006 A 
ATOM     20  C   UNL A   1      35.539  21.822  24.478  1.00  0.00    -0.040 A 
ATOM     21  C   UNL A   1      32.922  20.708  24.270  1.00  0.00     0.000 A 
ATOM     22  C   UNL A   1      35.221  20.500  24.893  1.00  0.00     0.004 A 
ATOM     23  C   UNL A   1      33.940  19.957  24.822  1.00  0.00     0.000 A 
BRANCH  20  24
ATOM     24  C   UNL A   1      37.034  22.147  24.537  1.00  0.00     0.019 C 
ATOM     25  C   UNL A   1      37.819  22.673  25.706  1.00  0.00     0.009 C 
ATOM     26  C   UNL A   1      38.018  21.252  25.241  1.00  0.00     0.009 C 
ENDBRANCH  20  24
ENDBRANCH  13  18
ENDBRANCH   8  10
ENDBRANCH   7   8
ENDBRANCH   6   7
ENDBRANCH   5   6
ENDBRANCH   4   5
ENDBRANCH   3   4
ENDBRANCH   2   3
ENDBRANCH   1   2
BRANCH   1  27
ATOM     27  C   UNL A   1      31.967  29.680  25.254  1.00  0.00     0.188 C 
BRANCH  27  28
ATOM     28  C   UNL A   1      32.121  29.475  26.779  1.00  0.00     0.188 C 
BRANCH  28  29
ATOM     29  O   UNL A   1      33.421  29.737  27.286  1.00  0.00    -0.376 OA
BRANCH  29  30
ATOM     30  C   UNL A   1      33.918  31.064  27.252  1.00  0.00     0.202 C 
BRANCH  30  31
ATOM     31  C   UNL A   1      34.154  31.764  28.600  1.00  0.00     0.261 C 
BRANCH  31  32
ATOM     32  O   UNL A   1      35.521  32.038  28.940  1.00  0.00    -0.460 OA
BRANCH  32  33
ATOM     33  C   UNL A   1      35.984  31.536  30.103  1.00  0.00     0.338 C 
ATOM     34  O   UNL A   1      35.462  31.616  31.202  1.00  0.00    -0.246 OA
BRANCH  33  35
ATOM     35  C   UNL A   1      37.153  30.689  29.794  1.00  0.00     0.060 A 
ATOM     36  C   UNL A   1      37.881  30.121  30.848  1.00  0.00     0.016 A 
ATOM     37  C   UNL A   1      37.532  30.465  28.469  1.00  0.00     0.016 A 
ATOM     38  C   UNL A   1      39.018  29.360  30.581  1.00  0.00     0.010 A 
ATOM     39  C   UNL A   1      38.685  29.724  28.203  1.00  0.00     0.010 A 
ATOM     40  C   UNL A   1      39.454  29.203  29.259  1.00  0.00    -0.014 A 
BRANCH  40  41
ATOM     41  C   UNL A   1      40.822  28.699  28.995  1.00  0.00     0.031 A 
ATOM     42  C   UNL A   1      41.966  29.671  29.104  1.00  0.00     0.074 A 
ATOM     43  C   UNL A   1      41.053  27.409  28.691  1.00  0.00     0.049 A 
ATOM     44  N   UNL A   1      43.236  29.495  28.848  1.00  0.00    -0.248 NA
ATOM     45  C   UNL A   1      41.628  31.029  29.567  1.00  0.00     0.031 C 
ATOM     46  C   UNL A   1      40.039  26.361  28.612  1.00  0.00     0.029 A 
ATOM     47  N   UNL A   1      42.226  26.768  28.383  1.00  0.00    -0.354 N 
ATOM     48  C   UNL A   1      43.845  30.715  29.116  1.00  0.00     0.074 A 
ATOM     49  C   UNL A   1      42.805  31.634  29.520  1.00  0.00     0.031 C 
ATOM     50  C   UNL A   1      40.633  25.206  28.260  1.00  0.00     0.029 A 
ATOM     51  C   UNL A   1      42.061  25.444  28.053  1.00  0.00     0.049 A 
ATOM     52  H   UNL A   1      43.105  27.213  28.398  1.00  0.00     0.167 HD
ATOM     53  C   UNL A   1      45.158  31.038  29.044  1.00  0.00     0.037 A 
ATOM     54  C   UNL A   1      42.958  24.543  27.607  1.00  0.00     0.037 A 
ATOM     55  C   UNL A   1      46.191  30.125  28.638  1.00  0.00     0.049 A 
ATOM     56  C   UNL A   1      44.399  24.960  27.437  1.00  0.00     0.074 A 
ATOM     57  C   UNL A   1      47.550  30.359  28.521  1.00  0.00     0.029 A 
ATOM     58  N   UNL A   1      45.979  28.803  28.278  1.00  0.00    -0.354 N 
ATOM     59  N   UNL A   1      44.968  26.112  27.701  1.00  0.00    -0.248 NA
ATOM     60  C   UNL A   1      45.324  23.947  26.907  1.00  0.00     0.031 C 
ATOM     61  C   UNL A   1      48.153  29.192  28.044  1.00  0.00     0.029 A 
ATOM     62  C   UNL A   1      47.179  28.214  27.922  1.00  0.00     0.049 A 
ATOM     63  H   UNL A   1      45.104  28.351  28.277  1.00  0.00     0.167 HD
ATOM     64  C   UNL A   1      46.319  25.948  27.411  1.00  0.00     0.074 A 
ATOM     65  C   UNL A   1      46.486  24.581  26.964  1.00  0.00     0.031 C 
ATOM     66  C   UNL A   1      47.331  26.844  27.505  1.00  0.00     0.037 A 
BRANCH  53  67
ATOM     67  C   UNL A   1      45.550  32.441  29.400  1.00  0.00     0.057 A 
ATOM     68  C   UNL A   1      45.537  33.474  28.454  1.00  0.00     0.134 A 
ATOM     69  C   UNL A   1      45.892  32.776  30.717  1.00  0.00     0.134 A 
ATOM     70  F   UNL A   1      45.237  33.217  27.171  1.00  0.00    -0.206 F 
ATOM     71  C   UNL A   1      45.862  34.786  28.801  1.00  0.00     0.040 A 
ATOM     72  C   UNL A   1      46.191  34.089  31.082  1.00  0.00     0.040 A 
ATOM     73  F   UNL A   1      45.922  31.835  31.673  1.00  0.00    -0.206 F 
ATOM     74  C   UNL A   1      46.179  35.098  30.122  1.00  0.00     0.006 A 
ENDBRANCH  53  67
BRANCH  54  75
ATOM     75  C   UNL A   1      42.536  23.162  27.253  1.00  0.00     0.057 A 
ATOM     76  C   UNL A   1      42.378  22.770  25.917  1.00  0.00     0.134 A 
ATOM     77  C   UNL A   1      42.206  22.224  28.239  1.00  0.00     0.134 A 
ATOM     78  F   UNL A   1      42.653  23.629  24.924  1.00  0.00    -0.206 F 
ATOM     79  C   UNL A   1      41.872  21.515  25.576  1.00  0.00     0.040 A 
ATOM     80  C   UNL A   1      41.730  20.953  27.913  1.00  0.00     0.040 A 
ATOM     81  F   UNL A   1      42.336  22.531  29.538  1.00  0.00    -0.206 F 
ATOM     82  C   UNL A   1      41.548  20.601  26.577  1.00  0.00     0.006 A 
ENDBRANCH  54  75
BRANCH  66  83
ATOM     83  C   UNL A   1      48.717  26.363  27.182  1.00  0.00     0.057 A 
ATOM     84  C   UNL A   1      49.515  25.699  28.122  1.00  0.00     0.134 A 
ATOM     85  C   UNL A   1      49.242  26.529  25.893  1.00  0.00     0.134 A 
ATOM     86  F   UNL A   1      49.076  25.515  29.377  1.00  0.00    -0.206 F 
ATOM     87  C   UNL A   1      50.795  25.244  27.802  1.00  0.00     0.040 A 
ATOM     88  C   UNL A   1      50.508  26.050  25.551  1.00  0.00     0.040 A 
ATOM     89  F   UNL A   1      48.527  27.144  24.939  1.00  0.00    -0.206 F 
ATOM     90  C   UNL A   1      51.291  25.413  26.511  1.00  0.00     0.006 A 
ENDBRANCH  66  83
ENDBRANCH  40  41
ENDBRANCH  33  35
ENDBRANCH  32  33
ENDBRANCH  31  32
ENDBRANCH  30  31
ENDBRANCH  29  30
ENDBRANCH  28  29
ENDBRANCH  27  28
ENDBRANCH   1  27
TORSDOF 23
ENDMDL
MODEL 2
REMARK VINA RESULT:      -9.8      3.906      5.958
REMARK SMILES CCN1C(=O)C[C@@H](C(=O)OCCOCCOCCOCCOC(=O)c2ccc(-c3c4nc(c(-c5c(F)cccc5F)c5ccc([nH]5)c(-c5c(F)cccc5F)c5nc(c(-c6c(F)cccc6F)c6ccc3[nH]6)C=C5)C=C4)cc2)[C@H]1c1ccccc1C1CC1
REMARK SMILES IDX 16 1 15 2 14 3 13 4 12 5 11 6 10 7 8 8 9 9 7 10 3 11 4 12
REMARK SMILES IDX 79 13 5 14 6 15 2 16 1 17 80 18 81 19 85 20 82 21 84 22
REMARK SMILES IDX 83 23 86 24 87 25 88 26 17 27 18 28 19 29 20 30 21 31 22 32
REMARK SMILES IDX 23 33 24 34 25 35 26 36 78 37 27 38 77 39 28 40 29 41 30 42
REMARK SMILES IDX 71 43 31 44 76 45 70 46 72 47 32 48 75 49 69 50 68 51 33 53
REMARK SMILES IDX 59 54 42 55 58 56 43 57 46 58 57 59 73 60 44 61 45 62 56 64
REMARK SMILES IDX 74 65 47 66 34 67 35 68 40 69 36 70 37 71 39 72 41 73 38 74
REMARK SMILES IDX 60 75 61 76 66 77 62 78 63 79 65 80 67 81 64 82 48 83 49 84
REMARK SMILES IDX 54 85 50 86 51 87 53 88 55 89 52 90
REMARK H PARENT 72 52 46 63
REMARK Flexibility Score: inf
ROOT
ATOM      1  O   UNL A   1      32.131  28.039  24.342  1.00  0.00    -0.377 OA
ENDROOT
BRANCH   1   2
ATOM      2  C   UNL A   1      32.172  27.671  22.980  1.00  0.00     0.188 C 
BRANCH   2   3
ATOM      3  C   UNL A   1      33.579  27.295  22.478  1.00  0.00     0.188 C 
BRANCH   3   4
ATOM      4  O   UNL A   1      33.764  26.262  21.525  1.00  0.00    -0.376 OA
BRANCH   4   5
ATOM      5  C   UNL A   1      32.784  25.290  21.188  1.00  0.00     0.202 C 
BRANCH   5   6
ATOM      6  C   UNL A   1      32.956  23.771  21.272  1.00  0.00     0.261 C 
BRANCH   6   7
ATOM      7  O   UNL A   1      33.839  23.316  22.283  1.00  0.00    -0.463 OA
BRANCH   7   8
ATOM      8  C   UNL A   1      33.493  23.630  23.551  1.00  0.00     0.312 C 
ATOM      9  O   UNL A   1      34.157  24.330  24.303  1.00  0.00    -0.252 OA
BRANCH   8  10
ATOM     10  C   UNL A   1      32.139  23.034  23.872  1.00  0.00     0.135 C 
ATOM     11  N   UNL A   1      32.361  22.576  26.114  1.00  0.00    -0.335 N 
ATOM     12  C   UNL A   1      31.780  23.850  26.043  1.00  0.00     0.224 C 
ATOM     13  C   UNL A   1      32.185  21.882  24.856  1.00  0.00     0.130 C 
ATOM     14  O   UNL A   1      31.604  24.656  26.942  1.00  0.00    -0.275 OA
ATOM     15  C   UNL A   1      31.323  24.081  24.619  1.00  0.00     0.118 C 
BRANCH  11  16
ATOM     16  C   UNL A   1      32.948  21.946  27.282  1.00  0.00     0.117 C 
ATOM     17  C   UNL A   1      34.004  22.760  28.006  1.00  0.00     0.027 C 
ENDBRANCH  11  16
BRANCH  13  18
ATOM     18  C   UNL A   1      33.065  20.712  24.449  1.00  0.00    -0.021 A 
ATOM     19  C   UNL A   1      32.426  19.542  23.967  1.00  0.00     0.006 A 
ATOM     20  C   UNL A   1      34.465  20.663  24.722  1.00  0.00    -0.040 A 
ATOM     21  C   UNL A   1      33.069  18.306  23.927  1.00  0.00     0.000 A 
ATOM     22  C   UNL A   1      35.068  19.376  24.684  1.00  0.00     0.004 A 
ATOM     23  C   UNL A   1      34.387  18.216  24.325  1.00  0.00     0.000 A 
BRANCH  20  24
ATOM     24  C   UNL A   1      35.446  21.799  25.026  1.00  0.00     0.019 C 
ATOM     25  C   UNL A   1      36.794  21.703  25.681  1.00  0.00     0.009 C 
ATOM     26  C   UNL A   1      36.691  22.017  24.210  1.00  0.00     0.009 C 
ENDBRANCH  20  24
ENDBRANCH  13  18
ENDBRANCH   8  10
ENDBRANCH   7   8
ENDBRANCH   6   7
ENDBRANCH   5   6
ENDBRANCH   4   5
ENDBRANCH   3   4
ENDBRANCH   2   3
ENDBRANCH   1   2
BRANCH   1  27
ATOM     27  C   UNL A   1      31.562  29.308  24.647  1.00  0.00     0.188 C 
BRANCH  27  28
ATOM     28  C   UNL A   1      31.690  29.876  26.080  1.00  0.00     0.188 C 
BRANCH  28  29
ATOM     29  O   UNL A   1      31.581  31.289  26.171  1.00  0.00    -0.376 OA
BRANCH  29  30
ATOM     30  C   UNL A   1      32.229  31.961  27.238  1.00  0.00     0.202 C 
BRANCH  30  31
ATOM     31  C   UNL A   1      32.310  33.494  27.160  1.00  0.00     0.261 C 
BRANCH  31  32
ATOM     32  O   UNL A   1      32.459  34.184  28.409  1.00  0.00    -0.460 OA
BRANCH  32  33
ATOM     33  C   UNL A   1      33.608  34.860  28.613  1.00  0.00     0.338 C 
ATOM     34  O   UNL A   1      33.747  36.067  28.712  1.00  0.00    -0.246 OA
BRANCH  33  35
ATOM     35  C   UNL A   1      34.667  33.871  28.896  1.00  0.00     0.060 A 
ATOM     36  C   UNL A   1      34.363  32.754  29.687  1.00  0.00     0.016 A 
ATOM     37  C   UNL A   1      35.956  34.051  28.389  1.00  0.00     0.016 A 
ATOM     38  C   UNL A   1      35.359  31.835  30.010  1.00  0.00     0.010 A 
ATOM     39  C   UNL A   1      36.959  33.143  28.735  1.00  0.00     0.010 A 
ATOM     40  C   UNL A   1      36.673  32.055  29.578  1.00  0.00    -0.014 A 
BRANCH  40  41
ATOM     41  C   UNL A   1      37.783  31.286  30.190  1.00  0.00     0.031 A 
ATOM     42  C   UNL A   1      38.123  31.563  31.630  1.00  0.00     0.074 A 
ATOM     43  C   UNL A   1      38.457  30.349  29.500  1.00  0.00     0.049 A 
ATOM     44  N   UNL A   1      39.092  31.082  32.364  1.00  0.00    -0.248 NA
ATOM     45  C   UNL A   1      37.246  32.512  32.338  1.00  0.00     0.031 C 
ATOM     46  C   UNL A   1      38.186  29.950  28.121  1.00  0.00     0.029 A 
ATOM     47  N   UNL A   1      39.522  29.568  29.875  1.00  0.00    -0.354 N 
ATOM     48  C   UNL A   1      38.942  31.671  33.615  1.00  0.00     0.074 A 
ATOM     49  C   UNL A   1      37.813  32.569  33.533  1.00  0.00     0.031 C 
ATOM     50  C   UNL A   1      39.075  29.007  27.759  1.00  0.00     0.029 A 
ATOM     51  C   UNL A   1      39.999  28.766  28.867  1.00  0.00     0.049 A 
ATOM     52  H   UNL A   1      39.908  29.581  30.781  1.00  0.00     0.167 HD
ATOM     53  C   UNL A   1      39.674  31.470  34.736  1.00  0.00     0.037 A 
ATOM     54  C   UNL A   1      41.075  27.955  28.839  1.00  0.00     0.037 A 
ATOM     55  C   UNL A   1      40.800  30.580  34.815  1.00  0.00     0.049 A 
ATOM     56  C   UNL A   1      41.935  27.830  30.073  1.00  0.00     0.074 A 
ATOM     57  C   UNL A   1      41.615  30.315  35.902  1.00  0.00     0.029 A 
ATOM     58  N   UNL A   1      41.272  29.811  33.763  1.00  0.00    -0.354 N 
ATOM     59  N   UNL A   1      41.782  28.382  31.254  1.00  0.00    -0.248 NA
ATOM     60  C   UNL A   1      43.119  26.964  29.971  1.00  0.00     0.031 C 
ATOM     61  C   UNL A   1      42.609  29.423  35.494  1.00  0.00     0.029 A 
ATOM     62  C   UNL A   1      42.378  29.085  34.169  1.00  0.00     0.049 A 
ATOM     63  H   UNL A   1      40.879  29.785  32.860  1.00  0.00     0.167 HD
ATOM     64  C   UNL A   1      42.821  27.897  32.041  1.00  0.00     0.074 A 
ATOM     65  C   UNL A   1      43.590  26.997  31.209  1.00  0.00     0.031 C 
ATOM     66  C   UNL A   1      43.115  28.172  33.335  1.00  0.00     0.037 A 
BRANCH  53  67
ATOM     67  C   UNL A   1      39.288  32.238  35.965  1.00  0.00     0.057 A 
ATOM     68  C   UNL A   1      39.819  33.504  36.241  1.00  0.00     0.134 A 
ATOM     69  C   UNL A   1      38.334  31.728  36.856  1.00  0.00     0.134 A 
ATOM     70  F   UNL A   1      40.751  34.041  35.438  1.00  0.00    -0.206 F 
ATOM     71  C   UNL A   1      39.423  34.232  37.365  1.00  0.00     0.040 A 
ATOM     72  C   UNL A   1      37.910  32.459  37.967  1.00  0.00     0.040 A 
ATOM     73  F   UNL A   1      37.785  30.522  36.649  1.00  0.00    -0.206 F 
ATOM     74  C   UNL A   1      38.457  33.713  38.225  1.00  0.00     0.006 A 
ENDBRANCH  53  67
BRANCH  54  75
ATOM     75  C   UNL A   1      41.437  27.215  27.601  1.00  0.00     0.057 A 
ATOM     76  C   UNL A   1      41.073  25.873  27.424  1.00  0.00     0.134 A 
ATOM     77  C   UNL A   1      42.220  27.804  26.601  1.00  0.00     0.134 A 
ATOM     78  F   UNL A   1      40.345  25.242  28.356  1.00  0.00    -0.206 F 
ATOM     79  C   UNL A   1      41.506  25.137  26.320  1.00  0.00     0.040 A 
ATOM     80  C   UNL A   1      42.633  27.089  25.476  1.00  0.00     0.040 A 
ATOM     81  F   UNL A   1      42.602  29.085  26.706  1.00  0.00    -0.206 F 
ATOM     82  C   UNL A   1      42.288  25.746  25.340  1.00  0.00     0.006 A 
ENDBRANCH  54  75
BRANCH  66  83
ATOM     83  C   UNL A   1      44.276  27.445  33.953  1.00  0.00     0.057 A 
ATOM     84  C   UNL A   1      44.134  26.188  34.556  1.00  0.00     0.134 A 
ATOM     85  C   UNL A   1      45.565  27.994  33.902  1.00  0.00     0.134 A 
ATOM     86  F   UNL A   1      42.926  25.611  34.646  1.00  0.00    -0.206 F 
ATOM     87  C   UNL A   1      45.225  25.519  35.112  1.00  0.00     0.040 A 
ATOM     88  C   UNL A   1      46.668  27.319  34.425  1.00  0.00     0.040 A 
ATOM     89  F   UNL A   1      45.775  29.187  33.327  1.00  0.00    -0.206 F 
ATOM     90  C   UNL A   1      46.498  26.081  35.040  1.00  0.00     0.006 A 
ENDBRANCH  66  83
ENDBRANCH  40  41
ENDBRANCH  33  35
ENDBRANCH  32  33
ENDBRANCH  31  32
ENDBRANCH  30  31
ENDBRANCH  29  30
ENDBRANCH  28  29
ENDBRANCH  27  28
ENDBRANCH   1  27
TORSDOF 23
ENDMDL
MODEL 3
REMARK VINA RESULT:      -9.6      4.137      7.733
REMARK SMILES CCN1C(=O)C[C@@H](C(=O)OCCOCCOCCOCCOC(=O)c2ccc(-c3c4nc(c(-c5c(F)cccc5F)c5ccc([nH]5)c(-c5c(F)cccc5F)c5nc(c(-c6c(F)cccc6F)c6ccc3[nH]6)C=C5)C=C4)cc2)[C@H]1c1ccccc1C1CC1
REMARK SMILES IDX 16 1 15 2 14 3 13 4 12 5 11 6 10 7 8 8 9 9 7 10 3 11 4 12
REMARK SMILES IDX 79 13 5 14 6 15 2 16 1 17 80 18 81 19 85 20 82 21 84 22
REMARK SMILES IDX 83 23 86 24 87 25 88 26 17 27 18 28 19 29 20 30 21 31 22 32
REMARK SMILES IDX 23 33 24 34 25 35 26 36 78 37 27 38 77 39 28 40 29 41 30 42
REMARK SMILES IDX 71 43 31 44 76 45 70 46 72 47 32 48 75 49 69 50 68 51 33 53
REMARK SMILES IDX 59 54 42 55 58 56 43 57 46 58 57 59 73 60 44 61 45 62 56 64
REMARK SMILES IDX 74 65 47 66 34 67 35 68 40 69 36 70 37 71 39 72 41 73 38 74
REMARK SMILES IDX 60 75 61 76 66 77 62 78 63 79 65 80 67 81 64 82 48 83 49 84
REMARK SMILES IDX 54 85 50 86 51 87 53 88 55 89 52 90
REMARK H PARENT 72 52 46 63
REMARK Flexibility Score: inf
ROOT
ATOM      1  O   UNL A   1      32.190  28.077  24.452  1.00  0.00    -0.377 OA
ENDROOT
BRANCH   1   2
ATOM      2  C   UNL A   1      32.242  27.906  23.051  1.00  0.00     0.188 C 
BRANCH   2   3
ATOM      3  C   UNL A   1      33.652  27.600  22.512  1.00  0.00     0.188 C 
BRANCH   3   4
ATOM      4  O   UNL A   1      33.881  26.500  21.646  1.00  0.00    -0.376 OA
BRANCH   4   5
ATOM      5  C   UNL A   1      32.884  25.574  21.239  1.00  0.00     0.202 C 
BRANCH   5   6
ATOM      6  C   UNL A   1      32.882  24.070  21.527  1.00  0.00     0.261 C 
BRANCH   6   7
ATOM      7  O   UNL A   1      33.798  23.641  22.520  1.00  0.00    -0.463 OA
BRANCH   7   8
ATOM      8  C   UNL A   1      33.435  23.884  23.799  1.00  0.00     0.312 C 
ATOM      9  O   UNL A   1      34.097  24.527  24.601  1.00  0.00    -0.252 OA
BRANCH   8  10
ATOM     10  C   UNL A   1      32.069  23.290  24.062  1.00  0.00     0.135 C 
ATOM     11  N   UNL A   1      32.256  22.674  26.269  1.00  0.00    -0.335 N 
ATOM     12  C   UNL A   1      31.696  23.960  26.281  1.00  0.00     0.224 C 
ATOM     13  C   UNL A   1      32.084  22.072  24.964  1.00  0.00     0.130 C 
ATOM     14  O   UNL A   1      31.522  24.704  27.232  1.00  0.00    -0.275 OA
ATOM     15  C   UNL A   1      31.261  24.296  24.871  1.00  0.00     0.118 C 
BRANCH  11  16
ATOM     16  C   UNL A   1      32.819  21.955  27.398  1.00  0.00     0.117 C 
ATOM     17  C   UNL A   1      34.026  22.600  28.052  1.00  0.00     0.027 C 
ENDBRANCH  11  16
BRANCH  13  18
ATOM     18  C   UNL A   1      32.950  20.918  24.487  1.00  0.00    -0.021 A 
ATOM     19  C   UNL A   1      32.297  19.777  23.956  1.00  0.00     0.006 A 
ATOM     20  C   UNL A   1      34.354  20.848  24.736  1.00  0.00    -0.040 A 
ATOM     21  C   UNL A   1      32.931  18.542  23.846  1.00  0.00     0.000 A 
ATOM     22  C   UNL A   1      34.948  19.560  24.626  1.00  0.00     0.004 A 
ATOM     23  C   UNL A   1      34.254  18.424  24.220  1.00  0.00     0.000 A 
BRANCH  20  24
ATOM     24  C   UNL A   1      35.346  21.961  25.082  1.00  0.00     0.019 C 
ATOM     25  C   UNL A   1      36.686  21.828  25.750  1.00  0.00     0.009 C 
ATOM     26  C   UNL A   1      36.604  22.183  24.287  1.00  0.00     0.009 C 
ENDBRANCH  20  24
ENDBRANCH  13  18
ENDBRANCH   8  10
ENDBRANCH   7   8
ENDBRANCH   6   7
ENDBRANCH   5   6
ENDBRANCH   4   5
ENDBRANCH   3   4
ENDBRANCH   2   3
ENDBRANCH   1   2
BRANCH   1  27
ATOM     27  C   UNL A   1      31.470  29.205  24.936  1.00  0.00     0.188 C 
BRANCH  27  28
ATOM     28  C   UNL A   1      31.784  29.764  26.344  1.00  0.00     0.188 C 
BRANCH  28  29
ATOM     29  O   UNL A   1      31.648  31.171  26.468  1.00  0.00    -0.376 OA
BRANCH  29  30
ATOM     30  C   UNL A   1      32.598  31.888  27.238  1.00  0.00     0.202 C 
BRANCH  30  31
ATOM     31  C   UNL A   1      32.510  33.422  27.216  1.00  0.00     0.261 C 
BRANCH  31  32
ATOM     32  O   UNL A   1      32.384  34.067  28.492  1.00  0.00    -0.460 OA
BRANCH  32  33
ATOM     33  C   UNL A   1      33.394  34.869  28.887  1.00  0.00     0.338 C 
ATOM     34  O   UNL A   1      33.356  36.074  29.060  1.00  0.00    -0.246 OA
BRANCH  33  35
ATOM     35  C   UNL A   1      34.529  34.005  29.271  1.00  0.00     0.060 A 
ATOM     36  C   UNL A   1      34.311  32.957  30.176  1.00  0.00     0.016 A 
ATOM     37  C   UNL A   1      35.802  34.236  28.746  1.00  0.00     0.016 A 
ATOM     38  C   UNL A   1      35.378  32.162  30.592  1.00  0.00     0.010 A 
ATOM     39  C   UNL A   1      36.874  33.455  29.184  1.00  0.00     0.010 A 
ATOM     40  C   UNL A   1      36.672  32.442  30.137  1.00  0.00    -0.014 A 
BRANCH  40  41
ATOM     41  C   UNL A   1      37.837  31.836  30.825  1.00  0.00     0.031 A 
ATOM     42  C   UNL A   1      38.595  30.752  30.107  1.00  0.00     0.074 A 
ATOM     43  C   UNL A   1      38.232  32.249  32.042  1.00  0.00     0.049 A 
ATOM     44  N   UNL A   1      39.594  30.017  30.523  1.00  0.00    -0.248 NA
ATOM     45  C   UNL A   1      38.166  30.458  28.728  1.00  0.00     0.031 C 
ATOM     46  C   UNL A   1      37.618  33.327  32.814  1.00  0.00     0.029 A 
ATOM     47  N   UNL A   1      39.249  31.796  32.845  1.00  0.00    -0.354 N 
ATOM     48  C   UNL A   1      39.909  29.177  29.462  1.00  0.00     0.074 A 
ATOM     49  C   UNL A   1      38.976  29.465  28.396  1.00  0.00     0.031 C 
ATOM     50  C   UNL A   1      38.261  33.441  33.990  1.00  0.00     0.029 A 
ATOM     51  C   UNL A   1      39.305  32.420  34.068  1.00  0.00     0.049 A 
ATOM     52  H   UNL A   1      39.878  31.090  32.571  1.00  0.00     0.167 HD
ATOM     53  C   UNL A   1      40.897  28.255  29.379  1.00  0.00     0.037 A 
ATOM     54  C   UNL A   1      40.093  32.172  35.132  1.00  0.00     0.037 A 
ATOM     55  C   UNL A   1      41.821  27.966  30.442  1.00  0.00     0.049 A 
ATOM     56  C   UNL A   1      41.118  31.067  35.049  1.00  0.00     0.074 A 
ATOM     57  C   UNL A   1      42.851  27.042  30.461  1.00  0.00     0.029 A 
ATOM     58  N   UNL A   1      41.825  28.597  31.676  1.00  0.00    -0.354 N 
ATOM     59  N   UNL A   1      41.416  30.283  34.040  1.00  0.00    -0.248 NA
ATOM     60  C   UNL A   1      41.920  30.814  36.255  1.00  0.00     0.031 C 
ATOM     61  C   UNL A   1      43.446  27.079  31.724  1.00  0.00     0.029 A 
ATOM     62  C   UNL A   1      42.827  28.069  32.471  1.00  0.00     0.049 A 
ATOM     63  H   UNL A   1      41.206  29.314  31.947  1.00  0.00     0.167 HD
ATOM     64  C   UNL A   1      42.464  29.479  34.475  1.00  0.00     0.074 A 
ATOM     65  C   UNL A   1      42.758  29.878  35.835  1.00  0.00     0.031 C 
ATOM     66  C   UNL A   1      43.124  28.497  33.813  1.00  0.00     0.037 A 
BRANCH  53  67
ATOM     67  C   UNL A   1      41.022  27.482  28.100  1.00  0.00     0.057 A 
ATOM     68  C   UNL A   1      41.845  27.915  27.053  1.00  0.00     0.134 A 
ATOM     69  C   UNL A   1      40.353  26.262  27.935  1.00  0.00     0.134 A 
ATOM     70  F   UNL A   1      42.497  29.085  27.140  1.00  0.00    -0.206 F 
ATOM     71  C   UNL A   1      41.990  27.169  25.882  1.00  0.00     0.040 A 
ATOM     72  C   UNL A   1      40.513  25.493  26.781  1.00  0.00     0.040 A 
ATOM     73  F   UNL A   1      39.551  25.788  28.900  1.00  0.00    -0.206 F 
ATOM     74  C   UNL A   1      41.331  25.948  25.749  1.00  0.00     0.006 A 
ENDBRANCH  53  67
BRANCH  54  75
ATOM     75  C   UNL A   1      39.938  32.950  36.391  1.00  0.00     0.057 A 
ATOM     76  C   UNL A   1      38.956  32.619  37.333  1.00  0.00     0.134 A 
ATOM     77  C   UNL A   1      40.714  34.087  36.645  1.00  0.00     0.134 A 
ATOM     78  F   UNL A   1      38.163  31.556  37.137  1.00  0.00    -0.206 F 
ATOM     79  C   UNL A   1      38.726  33.411  38.460  1.00  0.00     0.040 A 
ATOM     80  C   UNL A   1      40.517  34.870  37.784  1.00  0.00     0.040 A 
ATOM     81  F   UNL A   1      41.673  34.461  35.786  1.00  0.00    -0.206 F 
ATOM     82  C   UNL A   1      39.510  34.540  38.689  1.00  0.00     0.006 A 
ENDBRANCH  54  75
BRANCH  66  83
ATOM     83  C   UNL A   1      44.270  27.831  34.521  1.00  0.00     0.057 A 
ATOM     84  C   UNL A   1      44.105  26.655  35.265  1.00  0.00     0.134 A 
ATOM     85  C   UNL A   1      45.567  28.353  34.417  1.00  0.00     0.134 A 
ATOM     86  F   UNL A   1      42.888  26.109  35.412  1.00  0.00    -0.206 F 
ATOM     87  C   UNL A   1      45.182  26.040  35.904  1.00  0.00     0.040 A 
ATOM     88  C   UNL A   1      46.656  27.728  35.025  1.00  0.00     0.040 A 
ATOM     89  F   UNL A   1      45.799  29.467  33.709  1.00  0.00    -0.206 F 
ATOM     90  C   UNL A   1      46.464  26.572  35.778  1.00  0.00     0.006 A 
ENDBRANCH  66  83
ENDBRANCH  40  41
ENDBRANCH  33  35
ENDBRANCH  32  33
ENDBRANCH  31  32
ENDBRANCH  30  31
ENDBRANCH  29  30
ENDBRANCH  28  29
ENDBRANCH  27  28
ENDBRANCH   1  27
TORSDOF 23
ENDMDL
