MODEL 1
REMARK VINA RESULT:      -9.0      0.000      0.000
REMARK SMILES CN(C)C(=O)CCNC(=O)NC[C@H]1CC[C@@H](C(=O)OCCOCCOCCOCCOC(=O)c2ccc(-c3c4nc(c(-c5c(F)cccc5F)c5ccc([nH]5)c(-c5c(F)cccc5F)c5nc(c(-c6c(F)cccc6F)c6ccc3[nH]6)C=C5)C=C4)cc2)CC1
REMARK SMILES IDX 23 1 22 2 21 3 20 4 19 5 17 6 18 7 16 8 13 9 14 10 89 11
REMARK SMILES IDX 15 12 88 13 12 14 11 15 8 16 9 17 10 19 7 21 6 22 4 23 1 24
REMARK SMILES IDX 2 25 3 26 5 27 24 28 25 29 26 30 27 31 28 32 29 33 30 34
REMARK SMILES IDX 31 35 32 36 33 37 34 38 35 39 87 40 36 41 86 42 37 43 38 44
REMARK SMILES IDX 39 45 80 46 40 47 85 48 79 49 81 50 41 51 84 52 78 53 77 54
REMARK SMILES IDX 42 56 68 57 51 58 67 59 52 60 55 61 66 62 82 63 53 64 54 65
REMARK SMILES IDX 65 67 83 68 56 69 43 70 44 71 49 72 45 73 46 74 48 75 50 76
REMARK SMILES IDX 47 77 69 78 70 79 75 80 71 81 72 82 74 83 76 84 73 85 57 86
REMARK SMILES IDX 58 87 63 88 59 89 60 90 62 91 64 92 61 93
REMARK H PARENT 8 18 11 20 81 55 55 66
REMARK Flexibility Score: inf
ROOT
ATOM      1  C   UNL A   1      38.544  21.684  25.384  1.00  0.00     0.188 C 
ENDROOT
BRANCH   1   2
ATOM      2  O   UNL A   1      37.573  22.640  25.010  1.00  0.00    -0.376 OA
BRANCH   2   3
ATOM      3  C   UNL A   1      36.702  23.197  25.981  1.00  0.00     0.202 C 
BRANCH   3   4
ATOM      4  C   UNL A   1      35.162  23.182  25.882  1.00  0.00     0.261 C 
BRANCH   4   5
ATOM      5  O   UNL A   1      34.440  21.978  26.229  1.00  0.00    -0.463 OA
BRANCH   5   6
ATOM      6  C   UNL A   1      34.204  21.116  25.210  1.00  0.00     0.309 C 
ATOM      7  O   UNL A   1      35.094  20.653  24.501  1.00  0.00    -0.252 OA
BRANCH   6   8
ATOM      8  C   UNL A   1      32.731  20.825  24.897  1.00  0.00     0.099 C 
ATOM      9  C   UNL A   1      31.246  23.113  23.648  1.00  0.00     0.008 C 
ATOM     10  C   UNL A   1      32.357  22.347  22.904  1.00  0.00     0.006 C 
ATOM     11  C   UNL A   1      31.353  22.968  25.176  1.00  0.00     0.006 C 
ATOM     12  C   UNL A   1      32.522  20.910  23.385  1.00  0.00     0.015 C 
ATOM     13  C   UNL A   1      31.569  21.527  25.604  1.00  0.00     0.015 C 
BRANCH   9  14
ATOM     14  C   UNL A   1      31.206  24.562  23.121  1.00  0.00     0.121 C 
BRANCH  14  15
ATOM     15  N   UNL A   1      31.799  24.758  21.822  1.00  0.00    -0.338 N 
ATOM     16  N   UNL A   1      33.659  26.147  22.249  1.00  0.00    -0.338 N 
ATOM     17  C   UNL A   1      32.843  25.490  21.413  1.00  0.00     0.314 C 
ATOM     18  H   UNL A   1      34.349  26.654  21.765  1.00  0.00     0.165 HD
ATOM     19  O   UNL A   1      33.076  25.553  20.204  1.00  0.00    -0.249 OA
ATOM     20  H   UNL A   1      31.353  24.260  21.099  1.00  0.00     0.165 HD
BRANCH  16  21
ATOM     21  C   UNL A   1      33.787  26.298  23.695  1.00  0.00     0.127 C 
BRANCH  21  22
ATOM     22  C   UNL A   1      33.350  27.622  24.319  1.00  0.00     0.121 C 
BRANCH  22  23
ATOM     23  C   UNL A   1      32.497  28.372  23.332  1.00  0.00     0.223 C 
ATOM     24  C   UNL A   1      30.375  29.500  22.955  1.00  0.00     0.146 C 
ATOM     25  N   UNL A   1      31.170  28.514  23.666  1.00  0.00    -0.349 N 
ATOM     26  C   UNL A   1      30.499  27.630  24.594  1.00  0.00     0.146 C 
ATOM     27  O   UNL A   1      32.997  28.888  22.333  1.00  0.00    -0.275 OA
ENDBRANCH  22  23
ENDBRANCH  21  22
ENDBRANCH  16  21
ENDBRANCH  14  15
ENDBRANCH   9  14
ENDBRANCH   6   8
ENDBRANCH   5   6
ENDBRANCH   4   5
ENDBRANCH   3   4
ENDBRANCH   2   3
ENDBRANCH   1   2
BRANCH   1  28
ATOM     28  C   UNL A   1      39.481  21.996  26.555  1.00  0.00     0.188 C 
BRANCH  28  29
ATOM     29  O   UNL A   1      40.181  20.892  27.092  1.00  0.00    -0.377 OA
BRANCH  29  30
ATOM     30  C   UNL A   1      40.381  19.748  26.273  1.00  0.00     0.188 C 
BRANCH  30  31
ATOM     31  C   UNL A   1      41.744  19.032  26.250  1.00  0.00     0.188 C 
BRANCH  31  32
ATOM     32  O   UNL A   1      42.606  19.430  25.193  1.00  0.00    -0.376 OA
BRANCH  32  33
ATOM     33  C   UNL A   1      43.636  20.366  25.484  1.00  0.00     0.202 C 
BRANCH  33  34
ATOM     34  C   UNL A   1      43.278  21.856  25.350  1.00  0.00     0.261 C 
BRANCH  34  35
ATOM     35  O   UNL A   1      44.245  22.800  25.850  1.00  0.00    -0.460 OA
BRANCH  35  36
ATOM     36  C   UNL A   1      44.033  23.348  27.056  1.00  0.00     0.338 C 
ATOM     37  O   UNL A   1      43.555  22.794  28.048  1.00  0.00    -0.246 OA
BRANCH  36  38
ATOM     38  C   UNL A   1      44.582  24.715  27.079  1.00  0.00     0.060 A 
ATOM     39  C   UNL A   1      44.504  25.506  25.926  1.00  0.00     0.016 A 
ATOM     40  C   UNL A   1      45.260  25.187  28.208  1.00  0.00     0.016 A 
ATOM     41  C   UNL A   1      45.158  26.741  25.884  1.00  0.00     0.010 A 
ATOM     42  C   UNL A   1      45.936  26.414  28.152  1.00  0.00     0.010 A 
ATOM     43  C   UNL A   1      45.926  27.182  26.977  1.00  0.00    -0.014 A 
BRANCH  43  44
ATOM     44  C   UNL A   1      46.827  28.352  26.790  1.00  0.00     0.031 A 
ATOM     45  C   UNL A   1      46.313  29.731  27.008  1.00  0.00     0.074 A 
ATOM     46  C   UNL A   1      48.075  28.252  26.305  1.00  0.00     0.049 A 
ATOM     47  N   UNL A   1      46.961  30.856  26.875  1.00  0.00    -0.248 NA
ATOM     48  C   UNL A   1      44.876  29.868  27.259  1.00  0.00     0.031 C 
ATOM     49  C   UNL A   1      48.560  27.089  25.603  1.00  0.00     0.029 A 
ATOM     50  N   UNL A   1      49.147  29.120  26.288  1.00  0.00    -0.354 N 
ATOM     51  C   UNL A   1      45.994  31.840  26.902  1.00  0.00     0.074 A 
ATOM     52  C   UNL A   1      44.723  31.178  27.129  1.00  0.00     0.031 C 
ATOM     53  C   UNL A   1      49.870  27.249  25.369  1.00  0.00     0.029 A 
ATOM     54  C   UNL A   1      50.326  28.501  25.922  1.00  0.00     0.049 A 
ATOM     55  H   UNL A   1      49.079  30.076  26.512  1.00  0.00     0.167 HD
ATOM     56  C   UNL A   1      46.162  33.163  26.677  1.00  0.00     0.037 A 
ATOM     57  C   UNL A   1      51.615  28.888  26.026  1.00  0.00     0.037 A 
ATOM     58  C   UNL A   1      47.431  33.793  26.404  1.00  0.00     0.049 A 
ATOM     59  C   UNL A   1      51.834  30.360  26.137  1.00  0.00     0.074 A 
ATOM     60  C   UNL A   1      47.695  35.136  26.199  1.00  0.00     0.029 A 
ATOM     61  N   UNL A   1      48.648  33.130  26.278  1.00  0.00    -0.354 N 
ATOM     62  N   UNL A   1      50.927  31.297  26.245  1.00  0.00    -0.248 NA
ATOM     63  C   UNL A   1      53.207  30.854  25.974  1.00  0.00     0.031 C 
ATOM     64  C   UNL A   1      49.061  35.286  25.931  1.00  0.00     0.029 A 
ATOM     65  C   UNL A   1      49.665  34.043  26.022  1.00  0.00     0.049 A 
ATOM     66  H   UNL A   1      48.771  32.157  26.359  1.00  0.00     0.167 HD
ATOM     67  C   UNL A   1      51.597  32.487  26.053  1.00  0.00     0.074 A 
ATOM     68  C   UNL A   1      53.008  32.165  25.946  1.00  0.00     0.031 C 
ATOM     69  C   UNL A   1      51.066  33.722  25.899  1.00  0.00     0.037 A 
BRANCH  56  70
ATOM     70  C   UNL A   1      44.913  33.988  26.657  1.00  0.00     0.057 A 
ATOM     71  C   UNL A   1      44.115  34.095  25.511  1.00  0.00     0.134 A 
ATOM     72  C   UNL A   1      44.526  34.719  27.787  1.00  0.00     0.134 A 
ATOM     73  F   UNL A   1      44.452  33.446  24.386  1.00  0.00    -0.206 F 
ATOM     74  C   UNL A   1      42.997  34.927  25.478  1.00  0.00     0.040 A 
ATOM     75  C   UNL A   1      43.390  35.528  27.777  1.00  0.00     0.040 A 
ATOM     76  F   UNL A   1      45.252  34.670  28.915  1.00  0.00    -0.206 F 
ATOM     77  C   UNL A   1      42.629  35.643  26.615  1.00  0.00     0.006 A 
ENDBRANCH  56  70
BRANCH  57  78
ATOM     78  C   UNL A   1      52.772  27.938  26.002  1.00  0.00     0.057 A 
ATOM     79  C   UNL A   1      53.376  27.613  24.772  1.00  0.00     0.134 A 
ATOM     80  C   UNL A   1      53.315  27.323  27.134  1.00  0.00     0.134 A 
ATOM     81  F   UNL A   1      52.889  28.118  23.627  1.00  0.00    -0.206 F 
ATOM     82  C   UNL A   1      54.462  26.735  24.677  1.00  0.00     0.040 A 
ATOM     83  C   UNL A   1      54.435  26.486  27.061  1.00  0.00     0.040 A 
ATOM     84  F   UNL A   1      52.762  27.506  28.341  1.00  0.00    -0.206 F 
ATOM     85  C   UNL A   1      55.009  26.185  25.830  1.00  0.00     0.006 A 
ENDBRANCH  57  78
BRANCH  69  86
ATOM     86  C   UNL A   1      52.041  34.816  25.602  1.00  0.00     0.057 A 
ATOM     87  C   UNL A   1      52.495  35.695  26.596  1.00  0.00     0.134 A 
ATOM     88  C   UNL A   1      52.501  35.014  24.297  1.00  0.00     0.134 A 
ATOM     89  F   UNL A   1      52.065  35.573  27.861  1.00  0.00    -0.206 F 
ATOM     90  C   UNL A   1      53.352  36.753  26.293  1.00  0.00     0.040 A 
ATOM     91  C   UNL A   1      53.379  36.053  23.987  1.00  0.00     0.040 A 
ATOM     92  F   UNL A   1      52.097  34.209  23.303  1.00  0.00    -0.206 F 
ATOM     93  C   UNL A   1      53.798  36.931  24.984  1.00  0.00     0.006 A 
ENDBRANCH  69  86
ENDBRANCH  43  44
ENDBRANCH  36  38
ENDBRANCH  35  36
ENDBRANCH  34  35
ENDBRANCH  33  34
ENDBRANCH  32  33
ENDBRANCH  31  32
ENDBRANCH  30  31
ENDBRANCH  29  30
ENDBRANCH  28  29
ENDBRANCH   1  28
TORSDOF 25
ENDMDL
MODEL 2
REMARK VINA RESULT:      -8.8      4.846      9.056
REMARK SMILES CN(C)C(=O)CCNC(=O)NC[C@H]1CC[C@@H](C(=O)OCCOCCOCCOCCOC(=O)c2ccc(-c3c4nc(c(-c5c(F)cccc5F)c5ccc([nH]5)c(-c5c(F)cccc5F)c5nc(c(-c6c(F)cccc6F)c6ccc3[nH]6)C=C5)C=C4)cc2)CC1
REMARK SMILES IDX 23 1 22 2 21 3 20 4 19 5 17 6 18 7 16 8 13 9 14 10 89 11
REMARK SMILES IDX 15 12 88 13 12 14 11 15 8 16 9 17 10 19 7 21 6 22 4 23 1 24
REMARK SMILES IDX 2 25 3 26 5 27 24 28 25 29 26 30 27 31 28 32 29 33 30 34
REMARK SMILES IDX 31 35 32 36 33 37 34 38 35 39 87 40 36 41 86 42 37 43 38 44
REMARK SMILES IDX 39 45 80 46 40 47 85 48 79 49 81 50 41 51 84 52 78 53 77 54
REMARK SMILES IDX 42 56 68 57 51 58 67 59 52 60 55 61 66 62 82 63 53 64 54 65
REMARK SMILES IDX 65 67 83 68 56 69 43 70 44 71 49 72 45 73 46 74 48 75 50 76
REMARK SMILES IDX 47 77 69 78 70 79 75 80 71 81 72 82 74 83 76 84 73 85 57 86
REMARK SMILES IDX 58 87 63 88 59 89 60 90 62 91 64 92 61 93
REMARK H PARENT 8 18 11 20 81 55 55 66
REMARK Flexibility Score: inf
ROOT
ATOM      1  C   UNL A   1      34.452  34.340  28.155  1.00  0.00     0.188 C 
ENDROOT
BRANCH   1   2
ATOM      2  O   UNL A   1      34.812  33.080  27.624  1.00  0.00    -0.376 OA
BRANCH   2   3
ATOM      3  C   UNL A   1      34.098  31.912  27.998  1.00  0.00     0.202 C 
BRANCH   3   4
ATOM      4  C   UNL A   1      33.618  30.829  27.009  1.00  0.00     0.261 C 
BRANCH   4   5
ATOM      5  O   UNL A   1      33.976  29.448  27.240  1.00  0.00    -0.463 OA
BRANCH   5   6
ATOM      6  C   UNL A   1      33.378  28.540  26.432  1.00  0.00     0.309 C 
ATOM      7  O   UNL A   1      33.990  27.637  25.866  1.00  0.00    -0.252 OA
BRANCH   6   8
ATOM      8  C   UNL A   1      31.886  28.759  26.153  1.00  0.00     0.099 C 
ATOM      9  C   UNL A   1      30.573  26.555  24.596  1.00  0.00     0.008 C 
ATOM     10  C   UNL A   1      31.065  26.362  26.043  1.00  0.00     0.006 C 
ATOM     11  C   UNL A   1      31.274  27.727  23.888  1.00  0.00     0.006 C 
ATOM     12  C   UNL A   1      31.088  27.656  26.849  1.00  0.00     0.015 C 
ATOM     13  C   UNL A   1      31.319  28.978  24.748  1.00  0.00     0.015 C 
BRANCH   9  14
ATOM     14  C   UNL A   1      30.644  25.199  23.864  1.00  0.00     0.121 C 
BRANCH  14  15
ATOM     15  N   UNL A   1      31.782  25.031  22.995  1.00  0.00    -0.338 N 
ATOM     16  N   UNL A   1      33.108  23.421  24.099  1.00  0.00    -0.338 N 
ATOM     17  C   UNL A   1      32.894  24.296  23.106  1.00  0.00     0.314 C 
ATOM     18  H   UNL A   1      33.993  22.997  24.031  1.00  0.00     0.165 HD
ATOM     19  O   UNL A   1      33.765  24.417  22.242  1.00  0.00    -0.249 OA
ATOM     20  H   UNL A   1      31.731  25.556  22.164  1.00  0.00     0.165 HD
BRANCH  16  21
ATOM     21  C   UNL A   1      32.360  22.934  25.254  1.00  0.00     0.127 C 
BRANCH  21  22
ATOM     22  C   UNL A   1      32.768  21.593  25.860  1.00  0.00     0.121 C 
BRANCH  22  23
ATOM     23  C   UNL A   1      34.270  21.517  25.916  1.00  0.00     0.223 C 
ATOM     24  C   UNL A   1      36.273  20.535  24.945  1.00  0.00     0.146 C 
ATOM     25  N   UNL A   1      34.849  20.478  25.223  1.00  0.00    -0.349 N 
ATOM     26  C   UNL A   1      34.130  19.270  24.883  1.00  0.00     0.146 C 
ATOM     27  O   UNL A   1      34.923  22.390  26.487  1.00  0.00    -0.275 OA
ENDBRANCH  22  23
ENDBRANCH  21  22
ENDBRANCH  16  21
ENDBRANCH  14  15
ENDBRANCH   9  14
ENDBRANCH   6   8
ENDBRANCH   5   6
ENDBRANCH   4   5
ENDBRANCH   3   4
ENDBRANCH   2   3
ENDBRANCH   1   2
BRANCH   1  28
ATOM     28  C   UNL A   1      33.125  34.476  28.909  1.00  0.00     0.188 C 
BRANCH  28  29
ATOM     29  O   UNL A   1      33.154  35.301  30.057  1.00  0.00    -0.377 OA
BRANCH  29  30
ATOM     30  C   UNL A   1      34.244  35.172  30.961  1.00  0.00     0.188 C 
BRANCH  30  31
ATOM     31  C   UNL A   1      34.033  34.553  32.354  1.00  0.00     0.188 C 
BRANCH  31  32
ATOM     32  O   UNL A   1      33.968  33.134  32.371  1.00  0.00    -0.376 OA
BRANCH  32  33
ATOM     33  C   UNL A   1      34.888  32.411  31.563  1.00  0.00     0.202 C 
BRANCH  33  34
ATOM     34  C   UNL A   1      35.610  31.224  32.224  1.00  0.00     0.261 C 
BRANCH  34  35
ATOM     35  O   UNL A   1      36.657  31.546  33.159  1.00  0.00    -0.460 OA
BRANCH  35  36
ATOM     36  C   UNL A   1      37.634  32.373  32.759  1.00  0.00     0.338 C 
ATOM     37  O   UNL A   1      37.801  33.544  33.106  1.00  0.00    -0.246 OA
BRANCH  36  38
ATOM     38  C   UNL A   1      38.591  31.636  31.916  1.00  0.00     0.060 A 
ATOM     39  C   UNL A   1      39.395  30.646  32.494  1.00  0.00     0.016 A 
ATOM     40  C   UNL A   1      38.765  31.985  30.573  1.00  0.00     0.016 A 
ATOM     41  C   UNL A   1      40.414  30.050  31.744  1.00  0.00     0.010 A 
ATOM     42  C   UNL A   1      39.805  31.403  29.832  1.00  0.00     0.010 A 
ATOM     43  C   UNL A   1      40.663  30.463  30.423  1.00  0.00    -0.014 A 
BRANCH  43  44
ATOM     44  C   UNL A   1      41.920  30.016  29.761  1.00  0.00     0.031 A 
ATOM     45  C   UNL A   1      43.134  30.875  29.808  1.00  0.00     0.074 A 
ATOM     46  C   UNL A   1      41.999  28.916  28.995  1.00  0.00     0.049 A 
ATOM     47  N   UNL A   1      44.301  30.641  29.273  1.00  0.00    -0.248 NA
ATOM     48  C   UNL A   1      42.976  32.209  30.395  1.00  0.00     0.031 C 
ATOM     49  C   UNL A   1      40.844  28.244  28.454  1.00  0.00     0.029 A 
ATOM     50  N   UNL A   1      43.065  28.186  28.511  1.00  0.00    -0.354 N 
ATOM     51  C   UNL A   1      44.983  31.838  29.345  1.00  0.00     0.074 A 
ATOM     52  C   UNL A   1      44.118  32.777  30.036  1.00  0.00     0.031 C 
ATOM     53  C   UNL A   1      41.250  27.117  27.853  1.00  0.00     0.029 A 
ATOM     54  C   UNL A   1      42.679  26.968  27.986  1.00  0.00     0.049 A 
ATOM     55  H   UNL A   1      43.998  28.498  28.537  1.00  0.00     0.167 HD
ATOM     56  C   UNL A   1      46.190  32.130  28.809  1.00  0.00     0.037 A 
ATOM     57  C   UNL A   1      43.385  25.865  27.661  1.00  0.00     0.037 A 
ATOM     58  C   UNL A   1      47.011  31.192  28.082  1.00  0.00     0.049 A 
ATOM     59  C   UNL A   1      44.837  26.089  27.395  1.00  0.00     0.074 A 
ATOM     60  C   UNL A   1      48.266  31.397  27.534  1.00  0.00     0.029 A 
ATOM     61  N   UNL A   1      46.661  29.879  27.782  1.00  0.00    -0.354 N 
ATOM     62  N   UNL A   1      45.513  27.201  27.538  1.00  0.00    -0.248 NA
ATOM     63  C   UNL A   1      45.588  24.991  26.773  1.00  0.00     0.031 C 
ATOM     64  C   UNL A   1      48.667  30.221  26.889  1.00  0.00     0.029 A 
ATOM     65  C   UNL A   1      47.688  29.260  27.079  1.00  0.00     0.049 A 
ATOM     66  H   UNL A   1      45.810  29.452  28.032  1.00  0.00     0.167 HD
ATOM     67  C   UNL A   1      46.729  26.977  26.927  1.00  0.00     0.074 A 
ATOM     68  C   UNL A   1      46.748  25.583  26.521  1.00  0.00     0.031 C 
ATOM     69  C   UNL A   1      47.701  27.879  26.660  1.00  0.00     0.037 A 
BRANCH  56  70
ATOM     70  C   UNL A   1      46.642  33.550  28.945  1.00  0.00     0.057 A 
ATOM     71  C   UNL A   1      47.387  33.988  30.048  1.00  0.00     0.134 A 
ATOM     72  C   UNL A   1      46.291  34.503  27.981  1.00  0.00     0.134 A 
ATOM     73  F   UNL A   1      47.724  33.129  31.023  1.00  0.00    -0.206 F 
ATOM     74  C   UNL A   1      47.737  35.328  30.205  1.00  0.00     0.040 A 
ATOM     75  C   UNL A   1      46.664  35.841  28.110  1.00  0.00     0.040 A 
ATOM     76  F   UNL A   1      45.569  34.154  26.906  1.00  0.00    -0.206 F 
ATOM     77  C   UNL A   1      47.380  36.258  29.231  1.00  0.00     0.006 A 
ENDBRANCH  56  70
BRANCH  57  78
ATOM     78  C   UNL A   1      42.782  24.500  27.534  1.00  0.00     0.057 A 
ATOM     79  C   UNL A   1      42.276  24.079  26.289  1.00  0.00     0.134 A 
ATOM     80  C   UNL A   1      42.670  23.583  28.583  1.00  0.00     0.134 A 
ATOM     81  F   UNL A   1      42.296  24.913  25.237  1.00  0.00    -0.206 F 
ATOM     82  C   UNL A   1      41.702  22.817  26.098  1.00  0.00     0.040 A 
ATOM     83  C   UNL A   1      42.149  22.297  28.396  1.00  0.00     0.040 A 
ATOM     84  F   UNL A   1      43.050  23.917  29.825  1.00  0.00    -0.206 F 
ATOM     85  C   UNL A   1      41.658  21.912  27.152  1.00  0.00     0.006 A 
ENDBRANCH  57  78
BRANCH  69  86
ATOM     86  C   UNL A   1      48.874  27.362  25.890  1.00  0.00     0.057 A 
ATOM     87  C   UNL A   1      48.897  27.357  24.489  1.00  0.00     0.134 A 
ATOM     88  C   UNL A   1      49.978  26.831  26.562  1.00  0.00     0.134 A 
ATOM     89  F   UNL A   1      47.853  27.828  23.788  1.00  0.00    -0.206 F 
ATOM     90  C   UNL A   1      49.969  26.811  23.782  1.00  0.00     0.040 A 
ATOM     91  C   UNL A   1      51.067  26.306  25.866  1.00  0.00     0.040 A 
ATOM     92  F   UNL A   1      50.010  26.803  27.903  1.00  0.00    -0.206 F 
ATOM     93  C   UNL A   1      51.059  26.286  24.474  1.00  0.00     0.006 A 
ENDBRANCH  69  86
ENDBRANCH  43  44
ENDBRANCH  36  38
ENDBRANCH  35  36
ENDBRANCH  34  35
ENDBRANCH  33  34
ENDBRANCH  32  33
ENDBRANCH  31  32
ENDBRANCH  30  31
ENDBRANCH  29  30
ENDBRANCH  28  29
ENDBRANCH   1  28
TORSDOF 25
ENDMDL
MODEL 3
REMARK VINA RESULT:      -8.6      5.932     10.712
REMARK SMILES CN(C)C(=O)CCNC(=O)NC[C@H]1CC[C@@H](C(=O)OCCOCCOCCOCCOC(=O)c2ccc(-c3c4nc(c(-c5c(F)cccc5F)c5ccc([nH]5)c(-c5c(F)cccc5F)c5nc(c(-c6c(F)cccc6F)c6ccc3[nH]6)C=C5)C=C4)cc2)CC1
REMARK SMILES IDX 23 1 22 2 21 3 20 4 19 5 17 6 18 7 16 8 13 9 14 10 89 11
REMARK SMILES IDX 15 12 88 13 12 14 11 15 8 16 9 17 10 19 7 21 6 22 4 23 1 24
REMARK SMILES IDX 2 25 3 26 5 27 24 28 25 29 26 30 27 31 28 32 29 33 30 34
REMARK SMILES IDX 31 35 32 36 33 37 34 38 35 39 87 40 36 41 86 42 37 43 38 44
REMARK SMILES IDX 39 45 80 46 40 47 85 48 79 49 81 50 41 51 84 52 78 53 77 54
REMARK SMILES IDX 42 56 68 57 51 58 67 59 52 60 55 61 66 62 82 63 53 64 54 65
REMARK SMILES IDX 65 67 83 68 56 69 43 70 44 71 49 72 45 73 46 74 48 75 50 76
REMARK SMILES IDX 47 77 69 78 70 79 75 80 71 81 72 82 74 83 76 84 73 85 57 86
REMARK SMILES IDX 58 87 63 88 59 89 60 90 62 91 64 92 61 93
REMARK H PARENT 8 18 11 20 81 55 55 66
REMARK Flexibility Score: inf
ROOT
ATOM      1  C   UNL A   1      37.839  31.245  28.757  1.00  0.00     0.188 C 
ENDROOT
BRANCH   1   2
ATOM      2  O   UNL A   1      37.990  29.857  28.535  1.00  0.00    -0.376 OA
BRANCH   2   3
ATOM      3  C   UNL A   1      37.771  28.933  29.589  1.00  0.00     0.202 C 
BRANCH   3   4
ATOM      4  C   UNL A   1      38.860  28.018  30.188  1.00  0.00     0.261 C 
BRANCH   4   5
ATOM      5  O   UNL A   1      39.208  26.791  29.508  1.00  0.00    -0.463 OA
BRANCH   5   6
ATOM      6  C   UNL A   1      40.125  26.903  28.517  1.00  0.00     0.309 C 
ATOM      7  O   UNL A   1      41.082  27.672  28.570  1.00  0.00    -0.252 OA
BRANCH   6   8
ATOM      8  C   UNL A   1      39.849  26.094  27.244  1.00  0.00     0.099 C 
ATOM      9  C   UNL A   1      41.709  23.780  26.812  1.00  0.00     0.008 C 
ATOM     10  C   UNL A   1      40.670  23.802  27.949  1.00  0.00     0.006 C 
ATOM     11  C   UNL A   1      42.057  25.190  26.305  1.00  0.00     0.006 C 
ATOM     12  C   UNL A   1      39.457  24.671  27.640  1.00  0.00     0.015 C 
ATOM     13  C   UNL A   1      40.819  26.037  26.061  1.00  0.00     0.015 C 
BRANCH   9  14
ATOM     14  C   UNL A   1      42.910  22.920  27.255  1.00  0.00     0.121 C 
BRANCH  14  15
ATOM     15  N   UNL A   1      43.037  21.651  26.583  1.00  0.00    -0.338 N 
ATOM     16  N   UNL A   1      44.240  22.165  24.619  1.00  0.00    -0.338 N 
ATOM     17  C   UNL A   1      43.570  21.309  25.404  1.00  0.00     0.314 C 
ATOM     18  H   UNL A   1      44.531  21.741  23.779  1.00  0.00     0.165 HD
ATOM     19  O   UNL A   1      43.453  20.142  25.024  1.00  0.00    -0.249 OA
ATOM     20  H   UNL A   1      42.659  20.893  27.085  1.00  0.00     0.165 HD
BRANCH  16  21
ATOM     21  C   UNL A   1      44.651  23.563  24.693  1.00  0.00     0.127 C 
BRANCH  21  22
ATOM     22  C   UNL A   1      45.921  23.897  25.475  1.00  0.00     0.121 C 
BRANCH  22  23
ATOM     23  C   UNL A   1      46.738  24.884  24.684  1.00  0.00     0.223 C 
ATOM     24  C   UNL A   1      47.684  27.124  24.628  1.00  0.00     0.146 C 
ATOM     25  N   UNL A   1      46.679  26.192  25.107  1.00  0.00    -0.349 N 
ATOM     26  C   UNL A   1      45.581  26.710  25.893  1.00  0.00     0.146 C 
ATOM     27  O   UNL A   1      47.469  24.506  23.770  1.00  0.00    -0.275 OA
ENDBRANCH  22  23
ENDBRANCH  21  22
ENDBRANCH  16  21
ENDBRANCH  14  15
ENDBRANCH   9  14
ENDBRANCH   6   8
ENDBRANCH   5   6
ENDBRANCH   4   5
ENDBRANCH   3   4
ENDBRANCH   2   3
ENDBRANCH   1   2
BRANCH   1  28
ATOM     28  C   UNL A   1      36.699  31.734  29.657  1.00  0.00     0.188 C 
BRANCH  28  29
ATOM     29  O   UNL A   1      35.427  31.813  29.047  1.00  0.00    -0.377 OA
BRANCH  29  30
ATOM     30  C   UNL A   1      34.428  32.621  29.656  1.00  0.00     0.188 C 
BRANCH  30  31
ATOM     31  C   UNL A   1      34.783  34.009  30.218  1.00  0.00     0.188 C 
BRANCH  31  32
ATOM     32  O   UNL A   1      35.412  33.991  31.492  1.00  0.00    -0.376 OA
BRANCH  32  33
ATOM     33  C   UNL A   1      34.812  33.222  32.525  1.00  0.00     0.202 C 
BRANCH  33  34
ATOM     34  C   UNL A   1      35.176  33.598  33.972  1.00  0.00     0.261 C 
BRANCH  34  35
ATOM     35  O   UNL A   1      36.410  33.061  34.487  1.00  0.00    -0.460 OA
BRANCH  35  36
ATOM     36  C   UNL A   1      37.550  33.713  34.211  1.00  0.00     0.338 C 
ATOM     37  O   UNL A   1      37.759  34.922  34.329  1.00  0.00    -0.246 OA
BRANCH  36  38
ATOM     38  C   UNL A   1      38.599  32.742  33.856  1.00  0.00     0.060 A 
ATOM     39  C   UNL A   1      39.833  32.793  34.515  1.00  0.00     0.016 A 
ATOM     40  C   UNL A   1      38.403  31.840  32.806  1.00  0.00     0.016 A 
ATOM     41  C   UNL A   1      40.889  31.985  34.080  1.00  0.00     0.010 A 
ATOM     42  C   UNL A   1      39.471  31.050  32.357  1.00  0.00     0.010 A 
ATOM     43  C   UNL A   1      40.734  31.146  32.963  1.00  0.00    -0.014 A 
BRANCH  43  44
ATOM     44  C   UNL A   1      41.946  30.523  32.363  1.00  0.00     0.031 A 
ATOM     45  C   UNL A   1      42.705  31.239  31.303  1.00  0.00     0.074 A 
ATOM     46  C   UNL A   1      42.341  29.269  32.634  1.00  0.00     0.049 A 
ATOM     47  N   UNL A   1      43.771  30.833  30.669  1.00  0.00    -0.248 NA
ATOM     48  C   UNL A   1      42.117  32.483  30.796  1.00  0.00     0.031 C 
ATOM     49  C   UNL A   1      41.485  28.284  33.247  1.00  0.00     0.029 A 
ATOM     50  N   UNL A   1      43.523  28.591  32.415  1.00  0.00    -0.354 N 
ATOM     51  C   UNL A   1      43.917  31.700  29.606  1.00  0.00     0.074 A 
ATOM     52  C   UNL A   1      42.866  32.693  29.723  1.00  0.00     0.031 C 
ATOM     53  C   UNL A   1      42.212  27.188  33.502  1.00  0.00     0.029 A 
ATOM     54  C   UNL A   1      43.582  27.394  33.101  1.00  0.00     0.049 A 
ATOM     55  H   UNL A   1      44.244  28.924  31.834  1.00  0.00     0.167 HD
ATOM     56  C   UNL A   1      44.808  31.614  28.592  1.00  0.00     0.037 A 
ATOM     57  C   UNL A   1      44.613  26.568  33.381  1.00  0.00     0.037 A 
ATOM     58  C   UNL A   1      45.815  30.587  28.471  1.00  0.00     0.049 A 
ATOM     59  C   UNL A   1      45.793  26.687  32.475  1.00  0.00     0.074 A 
ATOM     60  C   UNL A   1      46.781  30.446  27.491  1.00  0.00     0.029 A 
ATOM     61  N   UNL A   1      45.979  29.514  29.342  1.00  0.00    -0.354 N 
ATOM     62  N   UNL A   1      45.979  27.558  31.516  1.00  0.00    -0.248 NA
ATOM     63  C   UNL A   1      46.816  25.637  32.555  1.00  0.00     0.031 C 
ATOM     64  C   UNL A   1      47.516  29.284  27.755  1.00  0.00     0.029 A 
ATOM     65  C   UNL A   1      47.047  28.725  28.931  1.00  0.00     0.049 A 
ATOM     66  H   UNL A   1      45.421  29.341  30.134  1.00  0.00     0.167 HD
ATOM     67  C   UNL A   1      47.073  27.104  30.809  1.00  0.00     0.074 A 
ATOM     68  C   UNL A   1      47.587  25.949  31.523  1.00  0.00     0.031 C 
ATOM     69  C   UNL A   1      47.549  27.567  29.630  1.00  0.00     0.037 A 
BRANCH  56  70
ATOM     70  C   UNL A   1      44.667  32.636  27.507  1.00  0.00     0.057 A 
ATOM     71  C   UNL A   1      45.203  33.925  27.631  1.00  0.00     0.134 A 
ATOM     72  C   UNL A   1      43.950  32.341  26.342  1.00  0.00     0.134 A 
ATOM     73  F   UNL A   1      45.871  34.279  28.739  1.00  0.00    -0.206 F 
ATOM     74  C   UNL A   1      45.000  34.894  26.649  1.00  0.00     0.040 A 
ATOM     75  C   UNL A   1      43.769  33.292  25.338  1.00  0.00     0.040 A 
ATOM     76  F   UNL A   1      43.401  31.129  26.165  1.00  0.00    -0.206 F 
ATOM     77  C   UNL A   1      44.286  34.576  25.496  1.00  0.00     0.006 A 
ENDBRANCH  56  70
BRANCH  57  78
ATOM     78  C   UNL A   1      44.596  25.567  34.494  1.00  0.00     0.057 A 
ATOM     79  C   UNL A   1      44.189  24.245  34.231  1.00  0.00     0.134 A 
ATOM     80  C   UNL A   1      44.956  25.846  35.815  1.00  0.00     0.134 A 
ATOM     81  F   UNL A   1      43.777  23.898  33.001  1.00  0.00    -0.206 F 
ATOM     82  C   UNL A   1      44.152  23.258  35.222  1.00  0.00     0.040 A 
ATOM     83  C   UNL A   1      44.978  24.857  36.806  1.00  0.00     0.040 A 
ATOM     84  F   UNL A   1      45.284  27.093  36.185  1.00  0.00    -0.206 F 
ATOM     85  C   UNL A   1      44.569  23.559  36.513  1.00  0.00     0.006 A 
ENDBRANCH  57  78
BRANCH  69  86
ATOM     86  C   UNL A   1      48.697  26.806  29.049  1.00  0.00     0.057 A 
ATOM     87  C   UNL A   1      50.023  27.236  29.200  1.00  0.00     0.134 A 
ATOM     88  C   UNL A   1      48.468  25.649  28.299  1.00  0.00     0.134 A 
ATOM     89  F   UNL A   1      50.303  28.356  29.884  1.00  0.00    -0.206 F 
ATOM     90  C   UNL A   1      51.080  26.555  28.596  1.00  0.00     0.040 A 
ATOM     91  C   UNL A   1      49.520  24.945  27.712  1.00  0.00     0.040 A 
ATOM     92  F   UNL A   1      47.220  25.193  28.115  1.00  0.00    -0.206 F 
ATOM     93  C   UNL A   1      50.828  25.403  27.852  1.00  0.00     0.006 A 
ENDBRANCH  69  86
ENDBRANCH  43  44
ENDBRANCH  36  38
ENDBRANCH  35  36
ENDBRANCH  34  35
ENDBRANCH  33  34
ENDBRANCH  32  33
ENDBRANCH  31  32
ENDBRANCH  30  31
ENDBRANCH  29  30
ENDBRANCH  28  29
ENDBRANCH   1  28
TORSDOF 25
ENDMDL
