MODEL 1
REMARK VINA RESULT:     -10.4      0.000      0.000
REMARK SMILES CC(C)Cc1ccc(-c2cc(Cl)cc3c2O[C@@H](C(F)(F)F)C(C(=O)OCCOCCOCCOCCOC(=O)c2ccc(-c4c5nc(c(-c6c(F)cccc6F)c6ccc([nH]6)c(-c6c(F)cccc6F)c6nc(c(-c7c(F)cccc7F)c7ccc4[nH]7)C=C6)C=C5)cc2)=C3)cc1
REMARK SMILES IDX 30 1 29 2 28 3 27 4 26 5 25 6 23 7 24 8 22 9 9 10 10 11
REMARK SMILES IDX 15 12 11 13 14 14 16 15 12 16 13 17 94 18 17 19 8 20 5 21
REMARK SMILES IDX 6 22 96 23 7 24 95 25 4 26 2 27 1 28 3 29 18 30 19 31 20 32
REMARK SMILES IDX 21 33 31 34 32 35 33 36 34 37 35 38 36 39 37 40 38 41 39 42
REMARK SMILES IDX 40 43 41 44 93 45 42 46 92 47 43 48 44 49 45 50 86 51 46 52
REMARK SMILES IDX 91 53 85 54 87 55 47 56 90 57 84 58 83 59 48 61 74 62 57 63
REMARK SMILES IDX 73 64 58 65 61 66 72 67 88 68 59 69 60 70 71 72 89 73 62 74
REMARK SMILES IDX 49 75 50 76 55 77 51 78 52 79 54 80 56 81 53 82 75 83 76 84
REMARK SMILES IDX 81 85 77 86 78 87 80 88 82 89 79 90 63 91 64 92 69 93 65 94
REMARK SMILES IDX 66 95 68 96 70 97 67 98
REMARK H PARENT 87 60 61 71
REMARK Flexibility Score: inf
ROOT
ATOM      1  C   UNL A   1      32.289  29.219  25.854  1.00  0.00     0.188 C 
ENDROOT
BRANCH   1   2
ATOM      2  C   UNL A   1      31.211  29.653  24.852  1.00  0.00     0.188 C 
BRANCH   2   3
ATOM      3  O   UNL A   1      30.877  28.654  23.892  1.00  0.00    -0.376 OA
BRANCH   3   4
ATOM      4  C   UNL A   1      29.536  28.168  23.881  1.00  0.00     0.202 C 
BRANCH   4   5
ATOM      5  C   UNL A   1      29.344  26.655  23.725  1.00  0.00     0.261 C 
BRANCH   5   6
ATOM      6  O   UNL A   1      30.129  25.946  24.711  1.00  0.00    -0.460 OA
BRANCH   6   7
ATOM      7  C   UNL A   1      31.079  25.130  24.227  1.00  0.00     0.338 C 
ATOM      8  O   UNL A   1      30.864  24.141  23.536  1.00  0.00    -0.246 OA
BRANCH   7   9
ATOM      9  C   UNL A   1      32.450  25.644  24.470  1.00  0.00     0.087 C 
ATOM     10  C   UNL A   1      35.515  22.832  24.472  1.00  0.00     0.026 A 
ATOM     11  C   UNL A   1      34.885  21.600  24.756  1.00  0.00     0.033 A 
ATOM     12  C   UNL A   1      34.672  23.965  24.535  1.00  0.00     0.135 A 
ATOM     13  C   UNL A   1      33.679  21.564  25.455  1.00  0.00     0.042 A 
ATOM     14  C   UNL A   1      33.586  23.953  25.424  1.00  0.00     0.019 A 
ATOM     15  O   UNL A   1      34.633  24.862  23.458  1.00  0.00    -0.475 OA
ATOM     16  Cl  UNL A   1      32.975  20.049  25.854  1.00  0.00    -0.084 Cl
ATOM     17  C   UNL A   1      33.084  22.743  25.887  1.00  0.00     0.032 A 
ATOM     18  C   UNL A   1      32.872  25.223  25.677  1.00  0.00     0.027 C 
ATOM     19  C   UNL A   1      33.560  25.902  23.466  1.00  0.00     0.316 C 
BRANCH  10  20
ATOM     20  C   UNL A   1      36.956  22.845  24.930  1.00  0.00    -0.015 A 
ATOM     21  C   UNL A   1      39.288  22.555  26.598  1.00  0.00    -0.048 A 
ATOM     22  C   UNL A   1      38.890  21.538  25.722  1.00  0.00     0.004 A 
ATOM     23  C   UNL A   1      38.559  23.749  26.572  1.00  0.00     0.004 A 
ATOM     24  C   UNL A   1      37.752  21.682  24.901  1.00  0.00     0.009 A 
ATOM     25  C   UNL A   1      37.425  23.894  25.746  1.00  0.00     0.009 A 
BRANCH  21  26
ATOM     26  C   UNL A   1      40.484  22.385  27.519  1.00  0.00     0.038 C 
BRANCH  26  27
ATOM     27  C   UNL A   1      41.859  22.893  27.011  1.00  0.00    -0.013 C 
ATOM     28  C   UNL A   1      42.605  21.868  26.152  1.00  0.00     0.008 C 
ATOM     29  C   UNL A   1      41.665  24.172  26.179  1.00  0.00     0.008 C 
ENDBRANCH  26  27
ENDBRANCH  21  26
ENDBRANCH  10  20
BRANCH  19  30
ATOM     30  C   UNL A   1      33.159  26.458  22.074  1.00  0.00     0.430 C 
ATOM     31  F   UNL A   1      33.937  27.536  21.778  1.00  0.00    -0.167 F 
ATOM     32  F   UNL A   1      33.383  25.547  21.096  1.00  0.00    -0.167 F 
ATOM     33  F   UNL A   1      31.890  26.868  21.943  1.00  0.00    -0.167 F 
ENDBRANCH  19  30
ENDBRANCH   7   9
ENDBRANCH   6   7
ENDBRANCH   5   6
ENDBRANCH   4   5
ENDBRANCH   3   4
ENDBRANCH   2   3
ENDBRANCH   1   2
BRANCH   1  34
ATOM     34  O   UNL A   1      33.202  30.251  26.174  1.00  0.00    -0.377 OA
BRANCH  34  35
ATOM     35  C   UNL A   1      33.012  30.949  27.401  1.00  0.00     0.188 C 
BRANCH  35  36
ATOM     36  C   UNL A   1      33.942  32.101  27.847  1.00  0.00     0.188 C 
BRANCH  36  37
ATOM     37  O   UNL A   1      33.325  33.069  28.690  1.00  0.00    -0.376 OA
BRANCH  37  38
ATOM     38  C   UNL A   1      33.920  34.359  28.733  1.00  0.00     0.202 C 
BRANCH  38  39
ATOM     39  C   UNL A   1      33.024  35.431  29.365  1.00  0.00     0.261 C 
BRANCH  39  40
ATOM     40  O   UNL A   1      32.407  35.045  30.601  1.00  0.00    -0.460 OA
BRANCH  40  41
ATOM     41  C   UNL A   1      32.812  35.679  31.724  1.00  0.00     0.338 C 
ATOM     42  O   UNL A   1      32.249  36.587  32.307  1.00  0.00    -0.246 OA
BRANCH  41  43
ATOM     43  C   UNL A   1      33.977  34.941  32.248  1.00  0.00     0.060 A 
ATOM     44  C   UNL A   1      35.256  35.488  32.087  1.00  0.00     0.016 A 
ATOM     45  C   UNL A   1      33.796  33.740  32.939  1.00  0.00     0.016 A 
ATOM     46  C   UNL A   1      36.366  34.820  32.606  1.00  0.00     0.010 A 
ATOM     47  C   UNL A   1      34.909  33.063  33.437  1.00  0.00     0.010 A 
ATOM     48  C   UNL A   1      36.199  33.588  33.252  1.00  0.00    -0.014 A 
BRANCH  48  49
ATOM     49  C   UNL A   1      37.371  32.743  33.569  1.00  0.00     0.031 A 
ATOM     50  C   UNL A   1      38.136  33.039  34.827  1.00  0.00     0.074 A 
ATOM     51  C   UNL A   1      37.773  31.761  32.744  1.00  0.00     0.049 A 
ATOM     52  N   UNL A   1      39.247  32.512  35.269  1.00  0.00    -0.248 NA
ATOM     53  C   UNL A   1      37.570  34.081  35.700  1.00  0.00     0.031 C 
ATOM     54  C   UNL A   1      37.103  31.363  31.509  1.00  0.00     0.029 A 
ATOM     55  N   UNL A   1      38.867  30.935  32.817  1.00  0.00    -0.354 N 
ATOM     56  C   UNL A   1      39.515  33.158  36.468  1.00  0.00     0.074 A 
ATOM     57  C   UNL A   1      38.468  34.134  36.671  1.00  0.00     0.031 C 
ATOM     58  C   UNL A   1      37.816  30.385  30.924  1.00  0.00     0.029 A 
ATOM     59  C   UNL A   1      39.008  30.113  31.726  1.00  0.00     0.049 A 
ATOM     60  H   UNL A   1      39.492  30.933  33.578  1.00  0.00     0.167 HD
ATOM     61  C   UNL A   1      40.541  32.953  37.326  1.00  0.00     0.037 A 
ATOM     62  C   UNL A   1      40.003  29.264  31.403  1.00  0.00     0.037 A 
ATOM     63  C   UNL A   1      41.593  31.996  37.113  1.00  0.00     0.049 A 
ATOM     64  C   UNL A   1      41.179  29.110  32.333  1.00  0.00     0.074 A 
ATOM     65  C   UNL A   1      42.666  31.697  37.933  1.00  0.00     0.029 A 
ATOM     66  N   UNL A   1      41.710  31.193  35.989  1.00  0.00    -0.354 N 
ATOM     67  N   UNL A   1      41.406  29.694  33.486  1.00  0.00    -0.248 NA
ATOM     68  C   UNL A   1      42.240  28.181  31.915  1.00  0.00     0.031 C 
ATOM     69  C   UNL A   1      43.461  30.749  37.281  1.00  0.00     0.029 A 
ATOM     70  C   UNL A   1      42.856  30.421  36.078  1.00  0.00     0.049 A 
ATOM     71  H   UNL A   1      41.073  31.175  35.238  1.00  0.00     0.167 HD
ATOM     72  C   UNL A   1      42.619  29.188  33.939  1.00  0.00     0.074 A 
ATOM     73  C   UNL A   1      43.075  28.240  32.944  1.00  0.00     0.031 C 
ATOM     74  C   UNL A   1      43.294  29.480  35.079  1.00  0.00     0.037 A 
BRANCH  61  75
ATOM     75  C   UNL A   1      40.586  33.810  38.555  1.00  0.00     0.057 A 
ATOM     76  C   UNL A   1      39.963  33.423  39.749  1.00  0.00     0.134 A 
ATOM     77  C   UNL A   1      41.263  35.035  38.545  1.00  0.00     0.134 A 
ATOM     78  F   UNL A   1      39.281  32.269  39.817  1.00  0.00    -0.206 F 
ATOM     79  C   UNL A   1      39.991  34.236  40.883  1.00  0.00     0.040 A 
ATOM     80  C   UNL A   1      41.320  35.845  39.680  1.00  0.00     0.040 A 
ATOM     81  F   UNL A   1      41.880  35.464  37.434  1.00  0.00    -0.206 F 
ATOM     82  C   UNL A   1      40.677  35.449  40.852  1.00  0.00     0.006 A 
ENDBRANCH  61  75
BRANCH  62  83
ATOM     83  C   UNL A   1      39.951  28.514  30.122  1.00  0.00     0.057 A 
ATOM     84  C   UNL A   1      39.292  27.284  30.028  1.00  0.00     0.134 A 
ATOM     85  C   UNL A   1      40.581  28.999  28.969  1.00  0.00     0.134 A 
ATOM     86  F   UNL A   1      38.694  26.754  31.105  1.00  0.00    -0.206 F 
ATOM     87  C   UNL A   1      39.270  26.556  28.837  1.00  0.00     0.040 A 
ATOM     88  C   UNL A   1      40.546  28.294  27.765  1.00  0.00     0.040 A 
ATOM     89  F   UNL A   1      41.234  30.169  28.996  1.00  0.00    -0.206 F 
ATOM     90  C   UNL A   1      39.893  27.065  27.699  1.00  0.00     0.006 A 
ENDBRANCH  62  83
BRANCH  74  91
ATOM     91  C   UNL A   1      44.583  28.751  35.327  1.00  0.00     0.057 A 
ATOM     92  C   UNL A   1      45.823  29.306  34.986  1.00  0.00     0.134 A 
ATOM     93  C   UNL A   1      44.585  27.508  35.972  1.00  0.00     0.134 A 
ATOM     94  F   UNL A   1      45.888  30.489  34.357  1.00  0.00    -0.206 F 
ATOM     95  C   UNL A   1      47.018  28.641  35.264  1.00  0.00     0.040 A 
ATOM     96  C   UNL A   1      45.774  26.846  36.278  1.00  0.00     0.040 A 
ATOM     97  F   UNL A   1      43.431  26.926  36.335  1.00  0.00    -0.206 F 
ATOM     98  C   UNL A   1      46.996  27.412  35.920  1.00  0.00     0.006 A 
ENDBRANCH  74  91
ENDBRANCH  48  49
ENDBRANCH  41  43
ENDBRANCH  40  41
ENDBRANCH  39  40
ENDBRANCH  38  39
ENDBRANCH  37  38
ENDBRANCH  36  37
ENDBRANCH  35  36
ENDBRANCH  34  35
ENDBRANCH   1  34
TORSDOF 24
ENDMDL
MODEL 2
REMARK VINA RESULT:     -10.3      5.033      9.217
REMARK SMILES CC(C)Cc1ccc(-c2cc(Cl)cc3c2O[C@@H](C(F)(F)F)C(C(=O)OCCOCCOCCOCCOC(=O)c2ccc(-c4c5nc(c(-c6c(F)cccc6F)c6ccc([nH]6)c(-c6c(F)cccc6F)c6nc(c(-c7c(F)cccc7F)c7ccc4[nH]7)C=C6)C=C5)cc2)=C3)cc1
REMARK SMILES IDX 30 1 29 2 28 3 27 4 26 5 25 6 23 7 24 8 22 9 9 10 10 11
REMARK SMILES IDX 15 12 11 13 14 14 16 15 12 16 13 17 94 18 17 19 8 20 5 21
REMARK SMILES IDX 6 22 96 23 7 24 95 25 4 26 2 27 1 28 3 29 18 30 19 31 20 32
REMARK SMILES IDX 21 33 31 34 32 35 33 36 34 37 35 38 36 39 37 40 38 41 39 42
REMARK SMILES IDX 40 43 41 44 93 45 42 46 92 47 43 48 44 49 45 50 86 51 46 52
REMARK SMILES IDX 91 53 85 54 87 55 47 56 90 57 84 58 83 59 48 61 74 62 57 63
REMARK SMILES IDX 73 64 58 65 61 66 72 67 88 68 59 69 60 70 71 72 89 73 62 74
REMARK SMILES IDX 49 75 50 76 55 77 51 78 52 79 54 80 56 81 53 82 75 83 76 84
REMARK SMILES IDX 81 85 77 86 78 87 80 88 82 89 79 90 63 91 64 92 69 93 65 94
REMARK SMILES IDX 66 95 68 96 70 97 67 98
REMARK H PARENT 87 60 61 71
REMARK Flexibility Score: inf
ROOT
ATOM      1  C   UNL A   1      33.211  31.049  27.273  1.00  0.00     0.188 C 
ENDROOT
BRANCH   1   2
ATOM      2  C   UNL A   1      32.334  29.858  26.866  1.00  0.00     0.188 C 
BRANCH   2   3
ATOM      3  O   UNL A   1      31.696  30.014  25.601  1.00  0.00    -0.376 OA
BRANCH   3   4
ATOM      4  C   UNL A   1      32.404  29.574  24.444  1.00  0.00     0.202 C 
BRANCH   4   5
ATOM      5  C   UNL A   1      31.566  29.151  23.231  1.00  0.00     0.261 C 
BRANCH   5   6
ATOM      6  O   UNL A   1      32.248  28.117  22.487  1.00  0.00    -0.460 OA
BRANCH   6   7
ATOM      7  C   UNL A   1      32.686  27.070  23.205  1.00  0.00     0.338 C 
ATOM      8  O   UNL A   1      33.618  27.109  23.998  1.00  0.00    -0.246 OA
BRANCH   7   9
ATOM      9  C   UNL A   1      31.808  25.881  23.072  1.00  0.00     0.087 C 
ATOM     10  C   UNL A   1      33.074  22.413  24.987  1.00  0.00     0.026 A 
ATOM     11  C   UNL A   1      34.470  22.566  25.141  1.00  0.00     0.033 A 
ATOM     12  C   UNL A   1      32.437  23.435  24.247  1.00  0.00     0.135 A 
ATOM     13  C   UNL A   1      35.193  23.390  24.281  1.00  0.00     0.042 A 
ATOM     14  C   UNL A   1      33.159  24.090  23.237  1.00  0.00     0.019 A 
ATOM     15  O   UNL A   1      31.314  24.082  24.781  1.00  0.00    -0.475 OA
ATOM     16  Cl  UNL A   1      36.900  23.497  24.444  1.00  0.00    -0.084 Cl
ATOM     17  C   UNL A   1      34.549  24.070  23.255  1.00  0.00     0.032 A 
ATOM     18  C   UNL A   1      32.420  24.964  22.300  1.00  0.00     0.027 C 
ATOM     19  C   UNL A   1      30.826  25.307  24.079  1.00  0.00     0.316 C 
BRANCH  10  20
ATOM     20  C   UNL A   1      32.674  20.957  24.902  1.00  0.00    -0.015 A 
ATOM     21  C   UNL A   1      32.820  18.112  24.468  1.00  0.00    -0.048 A 
ATOM     22  C   UNL A   1      33.011  18.664  25.740  1.00  0.00     0.004 A 
ATOM     23  C   UNL A   1      32.472  18.986  23.434  1.00  0.00     0.004 A 
ATOM     24  C   UNL A   1      32.934  20.056  25.955  1.00  0.00     0.009 A 
ATOM     25  C   UNL A   1      32.389  20.377  23.649  1.00  0.00     0.009 A 
BRANCH  21  26
ATOM     26  C   UNL A   1      32.949  16.618  24.225  1.00  0.00     0.038 C 
BRANCH  26  27
ATOM     27  C   UNL A   1      33.516  15.749  25.378  1.00  0.00    -0.013 C 
ATOM     28  C   UNL A   1      32.859  14.370  25.480  1.00  0.00     0.008 C 
ATOM     29  C   UNL A   1      35.029  15.550  25.182  1.00  0.00     0.008 C 
ENDBRANCH  26  27
ENDBRANCH  21  26
ENDBRANCH  10  20
BRANCH  19  30
ATOM     30  C   UNL A   1      30.026  26.305  24.956  1.00  0.00     0.430 C 
ATOM     31  F   UNL A   1      29.361  27.181  24.153  1.00  0.00    -0.167 F 
ATOM     32  F   UNL A   1      29.082  25.669  25.690  1.00  0.00    -0.167 F 
ATOM     33  F   UNL A   1      30.743  27.053  25.807  1.00  0.00    -0.167 F 
ENDBRANCH  19  30
ENDBRANCH   7   9
ENDBRANCH   6   7
ENDBRANCH   5   6
ENDBRANCH   4   5
ENDBRANCH   3   4
ENDBRANCH   2   3
ENDBRANCH   1   2
BRANCH   1  34
ATOM     34  O   UNL A   1      34.499  30.669  27.715  1.00  0.00    -0.377 OA
BRANCH  34  35
ATOM     35  C   UNL A   1      35.337  31.681  28.266  1.00  0.00     0.188 C 
BRANCH  35  36
ATOM     36  C   UNL A   1      34.780  32.825  29.144  1.00  0.00     0.188 C 
BRANCH  36  37
ATOM     37  O   UNL A   1      34.303  32.413  30.422  1.00  0.00    -0.376 OA
BRANCH  37  38
ATOM     38  C   UNL A   1      34.976  32.934  31.560  1.00  0.00     0.202 C 
BRANCH  38  39
ATOM     39  C   UNL A   1      35.776  31.883  32.339  1.00  0.00     0.261 C 
BRANCH  39  40
ATOM     40  O   UNL A   1      37.001  31.475  31.713  1.00  0.00    -0.460 OA
BRANCH  40  41
ATOM     41  C   UNL A   1      37.073  30.206  31.254  1.00  0.00     0.338 C 
ATOM     42  O   UNL A   1      36.171  29.391  31.182  1.00  0.00    -0.246 OA
BRANCH  41  43
ATOM     43  C   UNL A   1      38.412  30.029  30.660  1.00  0.00     0.060 A 
ATOM     44  C   UNL A   1      38.555  30.118  29.270  1.00  0.00     0.016 A 
ATOM     45  C   UNL A   1      39.524  29.829  31.482  1.00  0.00     0.016 A 
ATOM     46  C   UNL A   1      39.819  29.987  28.694  1.00  0.00     0.010 A 
ATOM     47  C   UNL A   1      40.783  29.676  30.902  1.00  0.00     0.010 A 
ATOM     48  C   UNL A   1      40.932  29.730  29.506  1.00  0.00    -0.014 A 
BRANCH  48  49
ATOM     49  C   UNL A   1      42.222  29.326  28.904  1.00  0.00     0.031 A 
ATOM     50  C   UNL A   1      42.385  27.894  28.481  1.00  0.00     0.074 A 
ATOM     51  C   UNL A   1      43.238  30.195  28.769  1.00  0.00     0.049 A 
ATOM     52  N   UNL A   1      43.443  27.277  28.025  1.00  0.00    -0.248 NA
ATOM     53  C   UNL A   1      41.190  27.042  28.597  1.00  0.00     0.031 C 
ATOM     54  C   UNL A   1      43.193  31.612  29.119  1.00  0.00     0.029 A 
ATOM     55  N   UNL A   1      44.519  29.996  28.320  1.00  0.00    -0.354 N 
ATOM     56  C   UNL A   1      43.044  25.965  27.804  1.00  0.00     0.074 A 
ATOM     57  C   UNL A   1      41.657  25.869  28.201  1.00  0.00     0.031 C 
ATOM     58  C   UNL A   1      44.404  32.152  28.897  1.00  0.00     0.029 A 
ATOM     59  C   UNL A   1      45.315  31.111  28.421  1.00  0.00     0.049 A 
ATOM     60  H   UNL A   1      44.838  29.137  27.960  1.00  0.00     0.167 HD
ATOM     61  C   UNL A   1      43.769  24.935  27.310  1.00  0.00     0.037 A 
ATOM     62  C   UNL A   1      46.633  31.260  28.186  1.00  0.00     0.037 A 
ATOM     63  C   UNL A   1      45.153  25.028  26.935  1.00  0.00     0.049 A 
ATOM     64  C   UNL A   1      47.441  30.078  27.714  1.00  0.00     0.074 A 
ATOM     65  C   UNL A   1      45.970  24.046  26.404  1.00  0.00     0.029 A 
ATOM     66  N   UNL A   1      45.929  26.169  27.068  1.00  0.00    -0.354 N 
ATOM     67  N   UNL A   1      47.048  28.851  27.468  1.00  0.00    -0.248 NA
ATOM     68  C   UNL A   1      48.878  30.302  27.491  1.00  0.00     0.031 C 
ATOM     69  C   UNL A   1      47.255  24.579  26.263  1.00  0.00     0.029 A 
ATOM     70  C   UNL A   1      47.226  25.907  26.659  1.00  0.00     0.049 A 
ATOM     71  H   UNL A   1      45.607  27.036  27.403  1.00  0.00     0.167 HD
ATOM     72  C   UNL A   1      48.179  28.165  27.041  1.00  0.00     0.074 A 
ATOM     73  C   UNL A   1      49.272  29.115  27.050  1.00  0.00     0.031 C 
ATOM     74  C   UNL A   1      48.302  26.865  26.672  1.00  0.00     0.037 A 
BRANCH  61  75
ATOM     75  C   UNL A   1      43.075  23.611  27.185  1.00  0.00     0.057 A 
ATOM     76  C   UNL A   1      42.878  22.773  28.290  1.00  0.00     0.134 A 
ATOM     77  C   UNL A   1      42.596  23.173  25.945  1.00  0.00     0.134 A 
ATOM     78  F   UNL A   1      43.333  23.128  29.503  1.00  0.00    -0.206 F 
ATOM     79  C   UNL A   1      42.251  21.533  28.162  1.00  0.00     0.040 A 
ATOM     80  C   UNL A   1      41.945  21.946  25.809  1.00  0.00     0.040 A 
ATOM     81  F   UNL A   1      42.753  23.928  24.848  1.00  0.00    -0.206 F 
ATOM     82  C   UNL A   1      41.776  21.119  26.919  1.00  0.00     0.006 A 
ENDBRANCH  61  75
BRANCH  62  83
ATOM     83  C   UNL A   1      47.285  32.573  28.423  1.00  0.00     0.057 A 
ATOM     84  C   UNL A   1      47.322  33.556  27.428  1.00  0.00     0.134 A 
ATOM     85  C   UNL A   1      47.908  32.865  29.643  1.00  0.00     0.134 A 
ATOM     86  F   UNL A   1      46.768  33.324  26.229  1.00  0.00    -0.206 F 
ATOM     87  C   UNL A   1      47.965  34.778  27.632  1.00  0.00     0.040 A 
ATOM     88  C   UNL A   1      48.532  34.093  29.869  1.00  0.00     0.040 A 
ATOM     89  F   UNL A   1      47.912  31.963  30.635  1.00  0.00    -0.206 F 
ATOM     90  C   UNL A   1      48.567  35.052  28.859  1.00  0.00     0.006 A 
ENDBRANCH  62  83
BRANCH  74  91
ATOM     91  C   UNL A   1      49.656  26.398  26.224  1.00  0.00     0.057 A 
ATOM     92  C   UNL A   1      50.152  26.687  24.947  1.00  0.00     0.134 A 
ATOM     93  C   UNL A   1      50.498  25.704  27.103  1.00  0.00     0.134 A 
ATOM     94  F   UNL A   1      49.392  27.339  24.054  1.00  0.00    -0.206 F 
ATOM     95  C   UNL A   1      51.431  26.289  24.555  1.00  0.00     0.040 A 
ATOM     96  C   UNL A   1      51.787  25.323  26.731  1.00  0.00     0.040 A 
ATOM     97  F   UNL A   1      50.087  25.404  28.345  1.00  0.00    -0.206 F 
ATOM     98  C   UNL A   1      52.256  25.613  25.452  1.00  0.00     0.006 A 
ENDBRANCH  74  91
ENDBRANCH  48  49
ENDBRANCH  41  43
ENDBRANCH  40  41
ENDBRANCH  39  40
ENDBRANCH  38  39
ENDBRANCH  37  38
ENDBRANCH  36  37
ENDBRANCH  35  36
ENDBRANCH  34  35
ENDBRANCH   1  34
TORSDOF 24
ENDMDL
MODEL 3
REMARK VINA RESULT:     -10.1      4.554      8.649
REMARK SMILES CC(C)Cc1ccc(-c2cc(Cl)cc3c2O[C@@H](C(F)(F)F)C(C(=O)OCCOCCOCCOCCOC(=O)c2ccc(-c4c5nc(c(-c6c(F)cccc6F)c6ccc([nH]6)c(-c6c(F)cccc6F)c6nc(c(-c7c(F)cccc7F)c7ccc4[nH]7)C=C6)C=C5)cc2)=C3)cc1
REMARK SMILES IDX 30 1 29 2 28 3 27 4 26 5 25 6 23 7 24 8 22 9 9 10 10 11
REMARK SMILES IDX 15 12 11 13 14 14 16 15 12 16 13 17 94 18 17 19 8 20 5 21
REMARK SMILES IDX 6 22 96 23 7 24 95 25 4 26 2 27 1 28 3 29 18 30 19 31 20 32
REMARK SMILES IDX 21 33 31 34 32 35 33 36 34 37 35 38 36 39 37 40 38 41 39 42
REMARK SMILES IDX 40 43 41 44 93 45 42 46 92 47 43 48 44 49 45 50 86 51 46 52
REMARK SMILES IDX 91 53 85 54 87 55 47 56 90 57 84 58 83 59 48 61 74 62 57 63
REMARK SMILES IDX 73 64 58 65 61 66 72 67 88 68 59 69 60 70 71 72 89 73 62 74
REMARK SMILES IDX 49 75 50 76 55 77 51 78 52 79 54 80 56 81 53 82 75 83 76 84
REMARK SMILES IDX 81 85 77 86 78 87 80 88 82 89 79 90 63 91 64 92 69 93 65 94
REMARK SMILES IDX 66 95 68 96 70 97 67 98
REMARK H PARENT 87 60 61 71
REMARK Flexibility Score: inf
ROOT
ATOM      1  C   UNL A   1      33.840  32.813  27.880  1.00  0.00     0.188 C 
ENDROOT
BRANCH   1   2
ATOM      2  C   UNL A   1      33.988  31.319  27.565  1.00  0.00     0.188 C 
BRANCH   2   3
ATOM      3  O   UNL A   1      32.755  30.605  27.550  1.00  0.00    -0.376 OA
BRANCH   3   4
ATOM      4  C   UNL A   1      31.835  30.893  26.498  1.00  0.00     0.202 C 
BRANCH   4   5
ATOM      5  C   UNL A   1      31.628  29.808  25.435  1.00  0.00     0.261 C 
BRANCH   5   6
ATOM      6  O   UNL A   1      32.634  28.779  25.567  1.00  0.00    -0.460 OA
BRANCH   6   7
ATOM      7  C   UNL A   1      32.197  27.514  25.454  1.00  0.00     0.338 C 
ATOM      8  O   UNL A   1      31.052  27.149  25.688  1.00  0.00    -0.246 OA
BRANCH   7   9
ATOM      9  C   UNL A   1      33.208  26.615  24.845  1.00  0.00     0.087 C 
ATOM     10  C   UNL A   1      32.036  22.679  24.189  1.00  0.00     0.026 A 
ATOM     11  C   UNL A   1      30.968  22.457  25.087  1.00  0.00     0.033 A 
ATOM     12  C   UNL A   1      32.677  23.931  24.317  1.00  0.00     0.135 A 
ATOM     13  C   UNL A   1      30.855  23.208  26.256  1.00  0.00     0.042 A 
ATOM     14  C   UNL A   1      32.719  24.545  25.579  1.00  0.00     0.019 A 
ATOM     15  O   UNL A   1      32.857  24.739  23.185  1.00  0.00    -0.475 OA
ATOM     16  Cl  UNL A   1      29.590  22.866  27.366  1.00  0.00    -0.084 Cl
ATOM     17  C   UNL A   1      31.799  24.183  26.556  1.00  0.00     0.032 A 
ATOM     18  C   UNL A   1      33.607  25.713  25.762  1.00  0.00     0.027 C 
ATOM     19  C   UNL A   1      33.315  26.143  23.405  1.00  0.00     0.316 C 
BRANCH  10  20
ATOM     20  C   UNL A   1      32.775  21.399  23.870  1.00  0.00    -0.015 A 
ATOM     21  C   UNL A   1      33.671  18.663  24.004  1.00  0.00    -0.048 A 
ATOM     22  C   UNL A   1      32.629  19.045  23.151  1.00  0.00     0.004 A 
ATOM     23  C   UNL A   1      34.316  19.673  24.725  1.00  0.00     0.004 A 
ATOM     24  C   UNL A   1      32.194  20.385  23.080  1.00  0.00     0.009 A 
ATOM     25  C   UNL A   1      33.885  21.013  24.650  1.00  0.00     0.009 A 
BRANCH  21  26
ATOM     26  C   UNL A   1      34.110  17.213  24.118  1.00  0.00     0.038 C 
BRANCH  26  27
ATOM     27  C   UNL A   1      33.107  16.205  24.738  1.00  0.00    -0.013 C 
ATOM     28  C   UNL A   1      33.782  14.984  25.368  1.00  0.00     0.008 C 
ATOM     29  C   UNL A   1      32.269  16.907  25.821  1.00  0.00     0.008 C 
ENDBRANCH  26  27
ENDBRANCH  21  26
ENDBRANCH  10  20
BRANCH  19  30
ATOM     30  C   UNL A   1      32.943  27.150  22.286  1.00  0.00     0.430 C 
ATOM     31  F   UNL A   1      33.143  28.420  22.736  1.00  0.00    -0.167 F 
ATOM     32  F   UNL A   1      33.741  27.000  21.202  1.00  0.00    -0.167 F 
ATOM     33  F   UNL A   1      31.677  27.107  21.848  1.00  0.00    -0.167 F 
ENDBRANCH  19  30
ENDBRANCH   7   9
ENDBRANCH   6   7
ENDBRANCH   5   6
ENDBRANCH   4   5
ENDBRANCH   3   4
ENDBRANCH   2   3
ENDBRANCH   1   2
BRANCH   1  34
ATOM     34  O   UNL A   1      35.061  33.523  27.804  1.00  0.00    -0.377 OA
BRANCH  34  35
ATOM     35  C   UNL A   1      35.874  33.572  28.973  1.00  0.00     0.188 C 
BRANCH  35  36
ATOM     36  C   UNL A   1      35.272  33.729  30.389  1.00  0.00     0.188 C 
BRANCH  36  37
ATOM     37  O   UNL A   1      35.003  32.501  31.059  1.00  0.00    -0.376 OA
BRANCH  37  38
ATOM     38  C   UNL A   1      34.708  32.575  32.447  1.00  0.00     0.202 C 
BRANCH  38  39
ATOM     39  C   UNL A   1      35.572  33.587  33.209  1.00  0.00     0.261 C 
BRANCH  39  40
ATOM     40  O   UNL A   1      36.987  33.408  33.049  1.00  0.00    -0.460 OA
BRANCH  40  41
ATOM     41  C   UNL A   1      37.547  32.323  33.627  1.00  0.00     0.338 C 
ATOM     42  O   UNL A   1      37.227  31.793  34.676  1.00  0.00    -0.246 OA
BRANCH  41  43
ATOM     43  C   UNL A   1      38.505  31.756  32.659  1.00  0.00     0.060 A 
ATOM     44  C   UNL A   1      39.464  30.839  33.109  1.00  0.00     0.016 A 
ATOM     45  C   UNL A   1      38.420  32.093  31.306  1.00  0.00     0.016 A 
ATOM     46  C   UNL A   1      40.357  30.267  32.202  1.00  0.00     0.010 A 
ATOM     47  C   UNL A   1      39.328  31.537  30.405  1.00  0.00     0.010 A 
ATOM     48  C   UNL A   1      40.314  30.642  30.852  1.00  0.00    -0.014 A 
BRANCH  48  49
ATOM     49  C   UNL A   1      41.408  30.258  29.934  1.00  0.00     0.031 A 
ATOM     50  C   UNL A   1      41.397  28.869  29.364  1.00  0.00     0.074 A 
ATOM     51  C   UNL A   1      42.409  31.106  29.640  1.00  0.00     0.049 A 
ATOM     52  N   UNL A   1      42.289  28.266  28.623  1.00  0.00    -0.248 NA
ATOM     53  C   UNL A   1      40.219  28.046  29.683  1.00  0.00     0.031 C 
ATOM     54  C   UNL A   1      42.518  32.484  30.111  1.00  0.00     0.029 A 
ATOM     55  N   UNL A   1      43.541  30.913  28.889  1.00  0.00    -0.354 N 
ATOM     56  C   UNL A   1      41.784  26.994  28.390  1.00  0.00     0.074 A 
ATOM     57  C   UNL A   1      40.521  26.902  29.090  1.00  0.00     0.031 C 
ATOM     58  C   UNL A   1      43.672  33.006  29.659  1.00  0.00     0.029 A 
ATOM     59  C   UNL A   1      44.395  31.989  28.896  1.00  0.00     0.049 A 
ATOM     60  H   UNL A   1      43.725  30.082  28.393  1.00  0.00     0.167 HD
ATOM     61  C   UNL A   1      42.322  25.994  27.655  1.00  0.00     0.037 A 
ATOM     62  C   UNL A   1      45.630  32.120  28.374  1.00  0.00     0.037 A 
ATOM     63  C   UNL A   1      43.586  26.081  26.976  1.00  0.00     0.049 A 
ATOM     64  C   UNL A   1      46.246  30.964  27.627  1.00  0.00     0.074 A 
ATOM     65  C   UNL A   1      44.208  25.130  26.187  1.00  0.00     0.029 A 
ATOM     66  N   UNL A   1      44.428  27.181  27.021  1.00  0.00    -0.354 N 
ATOM     67  N   UNL A   1      45.745  29.779  27.376  1.00  0.00    -0.248 NA
ATOM     68  C   UNL A   1      47.603  31.165  27.095  1.00  0.00     0.031 C 
ATOM     69  C   UNL A   1      45.452  25.636  25.796  1.00  0.00     0.029 A 
ATOM     70  C   UNL A   1      45.582  26.921  26.300  1.00  0.00     0.049 A 
ATOM     71  H   UNL A   1      44.236  28.022  27.495  1.00  0.00     0.167 HD
ATOM     72  C   UNL A   1      46.711  29.103  26.639  1.00  0.00     0.074 A 
ATOM     73  C   UNL A   1      47.824  30.014  26.474  1.00  0.00     0.031 C 
ATOM     74  C   UNL A   1      46.680  27.841  26.143  1.00  0.00     0.037 A 
BRANCH  61  75
ATOM     75  C   UNL A   1      41.552  24.710  27.582  1.00  0.00     0.057 A 
ATOM     76  C   UNL A   1      41.870  23.611  28.392  1.00  0.00     0.134 A 
ATOM     77  C   UNL A   1      40.477  24.572  26.696  1.00  0.00     0.134 A 
ATOM     78  F   UNL A   1      42.902  23.673  29.248  1.00  0.00    -0.206 F 
ATOM     79  C   UNL A   1      41.162  22.412  28.303  1.00  0.00     0.040 A 
ATOM     80  C   UNL A   1      39.746  23.386  26.616  1.00  0.00     0.040 A 
ATOM     81  F   UNL A   1      40.122  25.586  25.893  1.00  0.00    -0.206 F 
ATOM     82  C   UNL A   1      40.092  22.299  27.418  1.00  0.00     0.006 A 
ENDBRANCH  61  75
BRANCH  62  83
ATOM     83  C   UNL A   1      46.385  33.384  28.563  1.00  0.00     0.057 A 
ATOM     84  C   UNL A   1      47.194  33.585  29.687  1.00  0.00     0.134 A 
ATOM     85  C   UNL A   1      46.296  34.430  27.636  1.00  0.00     0.134 A 
ATOM     86  F   UNL A   1      47.297  32.632  30.625  1.00  0.00    -0.206 F 
ATOM     87  C   UNL A   1      47.878  34.785  29.890  1.00  0.00     0.040 A 
ATOM     88  C   UNL A   1      46.995  35.625  27.814  1.00  0.00     0.040 A 
ATOM     89  F   UNL A   1      45.533  34.301  26.541  1.00  0.00    -0.206 F 
ATOM     90  C   UNL A   1      47.784  35.808  28.947  1.00  0.00     0.006 A 
ENDBRANCH  62  83
BRANCH  74  91
ATOM     91  C   UNL A   1      47.869  27.377  25.352  1.00  0.00     0.057 A 
ATOM     92  C   UNL A   1      47.979  27.615  23.977  1.00  0.00     0.134 A 
ATOM     93  C   UNL A   1      48.944  26.742  25.988  1.00  0.00     0.134 A 
ATOM     94  F   UNL A   1      46.980  28.209  23.307  1.00  0.00    -0.206 F 
ATOM     95  C   UNL A   1      49.110  27.222  23.259  1.00  0.00     0.040 A 
ATOM     96  C   UNL A   1      50.089  26.368  25.286  1.00  0.00     0.040 A 
ATOM     97  F   UNL A   1      48.905  26.494  27.307  1.00  0.00    -0.206 F 
ATOM     98  C   UNL A   1      50.173  26.605  23.916  1.00  0.00     0.006 A 
ENDBRANCH  74  91
ENDBRANCH  48  49
ENDBRANCH  41  43
ENDBRANCH  40  41
ENDBRANCH  39  40
ENDBRANCH  38  39
ENDBRANCH  37  38
ENDBRANCH  36  37
ENDBRANCH  35  36
ENDBRANCH  34  35
ENDBRANCH   1  34
TORSDOF 24
ENDMDL
