MODEL 1
REMARK VINA RESULT:      -9.9      0.000      0.000
REMARK SMILES CCOc1cc(C[NH+]2CCC3(CC2)[C@H](C(=O)OCCOCCOCCOCCOC(=O)c2ccc(-c4c5nc(c(-c6c(F)cccc6F)c6ccc([nH]6)c(-c6c(F)cccc6F)c6nc(c(-c7c(F)cccc7F)c7ccc4[nH]7)C=C6)C=C5)cc2)CC(=O)N3C)ccc1OC
REMARK SMILES IDX 22 1 21 2 20 3 19 4 18 5 17 6 15 7 16 8 14 9 8 10 9 11 13 12
REMARK SMILES IDX 10 14 12 15 11 16 89 17 86 18 87 19 90 20 88 21 7 22 6 23
REMARK SMILES IDX 4 24 5 25 93 26 92 27 91 28 3 29 2 30 1 31 94 32 95 33 23 34
REMARK SMILES IDX 24 35 25 36 26 37 27 38 28 39 29 40 30 41 31 42 32 43 33 44
REMARK SMILES IDX 85 45 34 46 84 47 35 48 36 49 37 50 78 51 38 52 83 53 77 54
REMARK SMILES IDX 79 55 39 56 82 57 76 58 75 59 40 61 66 62 49 63 65 64 50 65
REMARK SMILES IDX 53 66 64 67 80 68 51 69 52 70 63 72 81 73 54 74 41 75 42 76
REMARK SMILES IDX 47 77 43 78 44 79 46 80 48 81 45 82 67 83 68 84 73 85 69 86
REMARK SMILES IDX 70 87 72 88 74 89 71 90 55 91 56 92 61 93 57 94 58 95 60 96
REMARK SMILES IDX 62 97 59 98
REMARK H PARENT 8 13 79 60 53 71
REMARK Flexibility Score: inf
ROOT
ATOM      1  C   UNL A   1      34.191  21.100  25.897  1.00  0.00     0.188 C 
ENDROOT
BRANCH   1   2
ATOM      2  C   UNL A   1      33.218  20.180  25.174  1.00  0.00     0.188 C 
BRANCH   2   3
ATOM      3  O   UNL A   1      32.128  20.891  24.581  1.00  0.00    -0.376 OA
BRANCH   3   4
ATOM      4  C   UNL A   1      32.519  21.746  23.509  1.00  0.00     0.202 C 
BRANCH   4   5
ATOM      5  C   UNL A   1      31.937  23.164  23.659  1.00  0.00     0.261 C 
BRANCH   5   6
ATOM      6  O   UNL A   1      32.614  24.031  24.623  1.00  0.00    -0.463 OA
BRANCH   6   7
ATOM      7  C   UNL A   1      31.905  24.325  25.738  1.00  0.00     0.311 C 
ATOM      8  O   UNL A   1      31.685  23.477  26.607  1.00  0.00    -0.252 OA
BRANCH   7   9
ATOM      9  C   UNL A   1      31.494  25.793  25.993  1.00  0.00     0.134 C 
ATOM     10  N   UNL A   1      33.762  29.317  26.036  1.00  0.00    -0.331 N 
ATOM     11  C   UNL A   1      34.093  28.493  24.887  1.00  0.00     0.265 C 
ATOM     12  C   UNL A   1      32.348  29.600  26.068  1.00  0.00     0.265 C 
ATOM     13  H   UNL A   1      34.249  30.197  25.868  1.00  0.00     0.348 HD
ATOM     14  C   UNL A   1      33.366  27.148  24.848  1.00  0.00     0.091 C 
ATOM     15  C   UNL A   1      31.465  28.350  26.114  1.00  0.00     0.091 C 
ATOM     16  C   UNL A   1      31.878  27.118  25.229  1.00  0.00     0.067 C 
ATOM     17  N   UNL A   1      30.932  27.086  24.107  1.00  0.00    -0.339 N 
ATOM     18  C   UNL A   1      29.964  25.804  25.840  1.00  0.00     0.118 C 
ATOM     19  C   UNL A   1      29.775  26.377  24.459  1.00  0.00     0.223 C 
ATOM     20  C   UNL A   1      30.791  28.166  23.149  1.00  0.00     0.147 C 
ATOM     21  O   UNL A   1      28.732  26.338  23.826  1.00  0.00    -0.275 OA
BRANCH  10  22
ATOM     22  C   UNL A   1      34.549  29.279  27.284  1.00  0.00     0.299 C 
BRANCH  22  23
ATOM     23  C   UNL A   1      35.312  30.513  27.743  1.00  0.00     0.010 A 
ATOM     24  C   UNL A   1      35.250  32.729  28.736  1.00  0.00     0.161 A 
ATOM     25  C   UNL A   1      34.682  31.744  27.925  1.00  0.00     0.060 A 
ATOM     26  C   UNL A   1      36.567  32.596  29.154  1.00  0.00     0.160 A 
ATOM     27  C   UNL A   1      37.329  31.545  28.648  1.00  0.00     0.051 A 
ATOM     28  C   UNL A   1      36.694  30.490  27.974  1.00  0.00     0.013 A 
BRANCH  24  29
ATOM     29  O   UNL A   1      34.374  33.603  29.321  1.00  0.00    -0.490 OA
BRANCH  29  30
ATOM     30  C   UNL A   1      33.479  34.236  28.410  1.00  0.00     0.226 C 
ATOM     31  C   UNL A   1      33.035  35.561  29.005  1.00  0.00     0.049 C 
ENDBRANCH  29  30
ENDBRANCH  24  29
BRANCH  26  32
ATOM     32  O   UNL A   1      37.146  33.421  30.078  1.00  0.00    -0.493 OA
ATOM     33  C   UNL A   1      38.543  33.594  29.800  1.00  0.00     0.278 C 
ENDBRANCH  26  32
ENDBRANCH  22  23
ENDBRANCH  10  22
ENDBRANCH   7   9
ENDBRANCH   6   7
ENDBRANCH   5   6
ENDBRANCH   4   5
ENDBRANCH   3   4
ENDBRANCH   2   3
ENDBRANCH   1   2
BRANCH   1  34
ATOM     34  O   UNL A   1      35.562  20.785  25.720  1.00  0.00    -0.377 OA
BRANCH  34  35
ATOM     35  C   UNL A   1      36.378  21.469  24.794  1.00  0.00     0.188 C 
BRANCH  35  36
ATOM     36  C   UNL A   1      37.862  21.657  25.105  1.00  0.00     0.188 C 
BRANCH  36  37
ATOM     37  O   UNL A   1      38.237  22.801  25.869  1.00  0.00    -0.376 OA
BRANCH  37  38
ATOM     38  C   UNL A   1      39.354  22.696  26.751  1.00  0.00     0.202 C 
BRANCH  38  39
ATOM     39  C   UNL A   1      40.673  22.249  26.127  1.00  0.00     0.261 C 
BRANCH  39  40
ATOM     40  O   UNL A   1      41.599  23.343  26.074  1.00  0.00    -0.460 OA
BRANCH  40  41
ATOM     41  C   UNL A   1      42.645  23.261  26.930  1.00  0.00     0.338 C 
ATOM     42  O   UNL A   1      43.078  22.274  27.480  1.00  0.00    -0.246 OA
BRANCH  41  43
ATOM     43  C   UNL A   1      43.343  24.562  26.920  1.00  0.00     0.060 A 
ATOM     44  C   UNL A   1      43.671  25.113  25.673  1.00  0.00     0.016 A 
ATOM     45  C   UNL A   1      43.677  25.219  28.105  1.00  0.00     0.016 A 
ATOM     46  C   UNL A   1      44.390  26.300  25.609  1.00  0.00     0.010 A 
ATOM     47  C   UNL A   1      44.419  26.396  28.043  1.00  0.00     0.010 A 
ATOM     48  C   UNL A   1      44.818  26.905  26.795  1.00  0.00    -0.014 A 
BRANCH  48  49
ATOM     49  C   UNL A   1      45.905  27.900  26.729  1.00  0.00     0.031 A 
ATOM     50  C   UNL A   1      45.518  29.351  26.774  1.00  0.00     0.074 A 
ATOM     51  C   UNL A   1      47.190  27.518  26.668  1.00  0.00     0.049 A 
ATOM     52  N   UNL A   1      46.269  30.415  26.681  1.00  0.00    -0.248 NA
ATOM     53  C   UNL A   1      44.083  29.639  26.942  1.00  0.00     0.031 C 
ATOM     54  C   UNL A   1      47.663  26.135  26.676  1.00  0.00     0.029 A 
ATOM     55  N   UNL A   1      48.332  28.268  26.577  1.00  0.00    -0.354 N 
ATOM     56  C   UNL A   1      45.398  31.494  26.771  1.00  0.00     0.074 A 
ATOM     57  C   UNL A   1      44.062  30.961  26.893  1.00  0.00     0.031 C 
ATOM     58  C   UNL A   1      49.003  26.136  26.574  1.00  0.00     0.029 A 
ATOM     59  C   UNL A   1      49.472  27.514  26.459  1.00  0.00     0.049 A 
ATOM     60  H   UNL A   1      48.334  29.253  26.595  1.00  0.00     0.167 HD
ATOM     61  C   UNL A   1      45.694  32.814  26.759  1.00  0.00     0.037 A 
ATOM     62  C   UNL A   1      50.743  27.907  26.252  1.00  0.00     0.037 A 
ATOM     63  C   UNL A   1      47.031  33.323  26.625  1.00  0.00     0.049 A 
ATOM     64  C   UNL A   1      51.038  29.383  26.159  1.00  0.00     0.074 A 
ATOM     65  C   UNL A   1      47.456  34.639  26.600  1.00  0.00     0.029 A 
ATOM     66  N   UNL A   1      48.162  32.530  26.479  1.00  0.00    -0.354 N 
ATOM     67  N   UNL A   1      50.216  30.401  26.262  1.00  0.00    -0.248 NA
ATOM     68  C   UNL A   1      52.437  29.764  25.928  1.00  0.00     0.031 C 
ATOM     69  C   UNL A   1      48.837  34.642  26.380  1.00  0.00     0.029 A 
ATOM     70  C   UNL A   1      49.282  33.329  26.338  1.00  0.00     0.049 A 
ATOM     71  H   UNL A   1      48.166  31.546  26.477  1.00  0.00     0.167 HD
ATOM     72  C   UNL A   1      51.001  31.541  26.144  1.00  0.00     0.074 A 
ATOM     73  C   UNL A   1      52.365  31.087  25.971  1.00  0.00     0.031 C 
ATOM     74  C   UNL A   1      50.631  32.845  26.181  1.00  0.00     0.037 A 
BRANCH  61  75
ATOM     75  C   UNL A   1      44.552  33.782  26.853  1.00  0.00     0.057 A 
ATOM     76  C   UNL A   1      43.872  34.249  25.719  1.00  0.00     0.134 A 
ATOM     77  C   UNL A   1      44.118  34.250  28.100  1.00  0.00     0.134 A 
ATOM     78  F   UNL A   1      44.251  33.860  24.492  1.00  0.00    -0.206 F 
ATOM     79  C   UNL A   1      42.820  35.161  25.821  1.00  0.00     0.040 A 
ATOM     80  C   UNL A   1      43.047  35.138  28.217  1.00  0.00     0.040 A 
ATOM     81  F   UNL A   1      44.725  33.848  29.227  1.00  0.00    -0.206 F 
ATOM     82  C   UNL A   1      42.399  35.602  27.075  1.00  0.00     0.006 A 
ENDBRANCH  61  75
BRANCH  62  83
ATOM     83  C   UNL A   1      51.822  26.897  26.106  1.00  0.00     0.057 A 
ATOM     84  C   UNL A   1      52.087  26.288  24.876  1.00  0.00     0.134 A 
ATOM     85  C   UNL A   1      52.607  26.508  27.199  1.00  0.00     0.134 A 
ATOM     86  F   UNL A   1      51.359  26.603  23.795  1.00  0.00    -0.206 F 
ATOM     87  C   UNL A   1      53.081  25.315  24.739  1.00  0.00     0.040 A 
ATOM     88  C   UNL A   1      53.623  25.559  27.071  1.00  0.00     0.040 A 
ATOM     89  F   UNL A   1      52.407  27.056  28.407  1.00  0.00    -0.206 F 
ATOM     90  C   UNL A   1      53.856  24.954  25.839  1.00  0.00     0.006 A 
ENDBRANCH  62  83
BRANCH  74  91
ATOM     91  C   UNL A   1      51.722  33.873  26.090  1.00  0.00     0.057 A 
ATOM     92  C   UNL A   1      52.318  34.429  27.227  1.00  0.00     0.134 A 
ATOM     93  C   UNL A   1      52.219  34.267  24.840  1.00  0.00     0.134 A 
ATOM     94  F   UNL A   1      51.883  34.102  28.453  1.00  0.00    -0.206 F 
ATOM     95  C   UNL A   1      53.354  35.360  27.125  1.00  0.00     0.040 A 
ATOM     96  C   UNL A   1      53.275  35.170  24.726  1.00  0.00     0.040 A 
ATOM     97  F   UNL A   1      51.701  33.760  23.711  1.00  0.00    -0.206 F 
ATOM     98  C   UNL A   1      53.840  35.725  25.871  1.00  0.00     0.006 A 
ENDBRANCH  74  91
ENDBRANCH  48  49
ENDBRANCH  41  43
ENDBRANCH  40  41
ENDBRANCH  39  40
ENDBRANCH  38  39
ENDBRANCH  37  38
ENDBRANCH  36  37
ENDBRANCH  35  36
ENDBRANCH  34  35
ENDBRANCH   1  34
TORSDOF 25
ENDMDL
MODEL 2
REMARK VINA RESULT:      -9.0      3.346      9.867
REMARK SMILES CCOc1cc(C[NH+]2CCC3(CC2)[C@H](C(=O)OCCOCCOCCOCCOC(=O)c2ccc(-c4c5nc(c(-c6c(F)cccc6F)c6ccc([nH]6)c(-c6c(F)cccc6F)c6nc(c(-c7c(F)cccc7F)c7ccc4[nH]7)C=C6)C=C5)cc2)CC(=O)N3C)ccc1OC
REMARK SMILES IDX 22 1 21 2 20 3 19 4 18 5 17 6 15 7 16 8 14 9 8 10 9 11 13 12
REMARK SMILES IDX 10 14 12 15 11 16 89 17 86 18 87 19 90 20 88 21 7 22 6 23
REMARK SMILES IDX 4 24 5 25 93 26 92 27 91 28 3 29 2 30 1 31 94 32 95 33 23 34
REMARK SMILES IDX 24 35 25 36 26 37 27 38 28 39 29 40 30 41 31 42 32 43 33 44
REMARK SMILES IDX 85 45 34 46 84 47 35 48 36 49 37 50 78 51 38 52 83 53 77 54
REMARK SMILES IDX 79 55 39 56 82 57 76 58 75 59 40 61 66 62 49 63 65 64 50 65
REMARK SMILES IDX 53 66 64 67 80 68 51 69 52 70 63 72 81 73 54 74 41 75 42 76
REMARK SMILES IDX 47 77 43 78 44 79 46 80 48 81 45 82 67 83 68 84 73 85 69 86
REMARK SMILES IDX 70 87 72 88 74 89 71 90 55 91 56 92 61 93 57 94 58 95 60 96
REMARK SMILES IDX 62 97 59 98
REMARK H PARENT 8 13 79 60 53 71
REMARK Flexibility Score: inf
ROOT
ATOM      1  C   UNL A   1      33.568  33.693  28.053  1.00  0.00     0.188 C 
ENDROOT
BRANCH   1   2
ATOM      2  C   UNL A   1      32.158  33.615  27.486  1.00  0.00     0.188 C 
BRANCH   2   3
ATOM      3  O   UNL A   1      31.930  32.412  26.746  1.00  0.00    -0.376 OA
BRANCH   3   4
ATOM      4  C   UNL A   1      32.587  31.270  27.295  1.00  0.00     0.202 C 
BRANCH   4   5
ATOM      5  C   UNL A   1      33.217  30.385  26.202  1.00  0.00     0.261 C 
BRANCH   5   6
ATOM      6  O   UNL A   1      32.584  29.083  25.996  1.00  0.00    -0.463 OA
BRANCH   6   7
ATOM      7  C   UNL A   1      33.430  28.060  25.738  1.00  0.00     0.311 C 
ATOM      8  O   UNL A   1      34.360  27.781  26.499  1.00  0.00    -0.252 OA
BRANCH   7   9
ATOM      9  C   UNL A   1      33.131  27.129  24.540  1.00  0.00     0.134 C 
ATOM     10  N   UNL A   1      32.991  22.949  24.273  1.00  0.00    -0.331 N 
ATOM     11  C   UNL A   1      32.284  23.424  25.450  1.00  0.00     0.265 C 
ATOM     12  C   UNL A   1      32.469  23.571  23.081  1.00  0.00     0.265 C 
ATOM     13  H   UNL A   1      32.768  21.955  24.226  1.00  0.00     0.348 HD
ATOM     14  C   UNL A   1      32.364  24.937  25.661  1.00  0.00     0.091 C 
ATOM     15  C   UNL A   1      32.547  25.100  23.093  1.00  0.00     0.091 C 
ATOM     16  C   UNL A   1      32.216  25.848  24.434  1.00  0.00     0.067 C 
ATOM     17  N   UNL A   1      30.893  26.457  24.246  1.00  0.00    -0.339 N 
ATOM     18  C   UNL A   1      32.475  28.040  23.489  1.00  0.00     0.118 C 
ATOM     19  C   UNL A   1      31.012  27.714  23.636  1.00  0.00     0.223 C 
ATOM     20  C   UNL A   1      29.692  25.690  23.974  1.00  0.00     0.147 C 
ATOM     21  O   UNL A   1      30.100  28.379  23.172  1.00  0.00    -0.275 OA
BRANCH  10  22
ATOM     22  C   UNL A   1      34.392  22.491  24.330  1.00  0.00     0.299 C 
BRANCH  22  23
ATOM     23  C   UNL A   1      34.709  21.046  24.689  1.00  0.00     0.010 A 
ATOM     24  C   UNL A   1      33.940  18.750  24.882  1.00  0.00     0.161 A 
ATOM     25  C   UNL A   1      33.706  20.123  24.984  1.00  0.00     0.060 A 
ATOM     26  C   UNL A   1      35.240  18.286  24.743  1.00  0.00     0.160 A 
ATOM     27  C   UNL A   1      36.292  19.195  24.837  1.00  0.00     0.051 A 
ATOM     28  C   UNL A   1      36.025  20.572  24.775  1.00  0.00     0.013 A 
BRANCH  24  29
ATOM     29  O   UNL A   1      32.845  17.974  24.613  1.00  0.00    -0.490 OA
BRANCH  29  30
ATOM     30  C   UNL A   1      32.393  17.192  25.715  1.00  0.00     0.226 C 
ATOM     31  C   UNL A   1      32.164  15.768  25.240  1.00  0.00     0.049 C 
ENDBRANCH  29  30
ENDBRANCH  24  29
BRANCH  26  32
ATOM     32  O   UNL A   1      35.544  16.981  24.471  1.00  0.00    -0.493 OA
ATOM     33  C   UNL A   1      35.848  16.267  25.678  1.00  0.00     0.278 C 
ENDBRANCH  26  32
ENDBRANCH  22  23
ENDBRANCH  10  22
ENDBRANCH   7   9
ENDBRANCH   6   7
ENDBRANCH   5   6
ENDBRANCH   4   5
ENDBRANCH   3   4
ENDBRANCH   2   3
ENDBRANCH   1   2
BRANCH   1  34
ATOM     34  O   UNL A   1      33.982  34.987  28.457  1.00  0.00    -0.377 OA
BRANCH  34  35
ATOM     35  C   UNL A   1      33.525  35.586  29.651  1.00  0.00     0.188 C 
BRANCH  35  36
ATOM     36  C   UNL A   1      33.695  34.837  30.972  1.00  0.00     0.188 C 
BRANCH  36  37
ATOM     37  O   UNL A   1      34.643  33.773  31.010  1.00  0.00    -0.376 OA
BRANCH  37  38
ATOM     38  C   UNL A   1      36.025  34.095  31.154  1.00  0.00     0.202 C 
BRANCH  38  39
ATOM     39  C   UNL A   1      36.979  32.923  31.362  1.00  0.00     0.261 C 
BRANCH  39  40
ATOM     40  O   UNL A   1      36.538  31.779  30.618  1.00  0.00    -0.460 OA
BRANCH  40  41
ATOM     41  C   UNL A   1      36.708  30.584  31.233  1.00  0.00     0.338 C 
ATOM     42  O   UNL A   1      35.976  30.052  32.036  1.00  0.00    -0.246 OA
BRANCH  41  43
ATOM     43  C   UNL A   1      37.848  29.901  30.590  1.00  0.00     0.060 A 
ATOM     44  C   UNL A   1      38.718  29.172  31.414  1.00  0.00     0.016 A 
ATOM     45  C   UNL A   1      38.065  29.984  29.213  1.00  0.00     0.016 A 
ATOM     46  C   UNL A   1      39.844  28.569  30.870  1.00  0.00     0.010 A 
ATOM     47  C   UNL A   1      39.208  29.401  28.670  1.00  0.00     0.010 A 
ATOM     48  C   UNL A   1      40.121  28.740  29.509  1.00  0.00    -0.014 A 
BRANCH  48  49
ATOM     49  C   UNL A   1      41.488  28.470  29.026  1.00  0.00     0.031 A 
ATOM     50  C   UNL A   1      41.786  27.083  28.532  1.00  0.00     0.074 A 
ATOM     51  C   UNL A   1      42.417  29.439  28.999  1.00  0.00     0.049 A 
ATOM     52  N   UNL A   1      42.912  26.575  28.107  1.00  0.00    -0.248 NA
ATOM     53  C   UNL A   1      40.656  26.137  28.521  1.00  0.00     0.031 C 
ATOM     54  C   UNL A   1      42.204  30.826  29.406  1.00  0.00     0.029 A 
ATOM     55  N   UNL A   1      43.731  29.393  28.618  1.00  0.00    -0.354 N 
ATOM     56  C   UNL A   1      42.626  25.253  27.788  1.00  0.00     0.074 A 
ATOM     57  C   UNL A   1      41.234  25.025  28.095  1.00  0.00     0.031 C 
ATOM     58  C   UNL A   1      43.359  31.499  29.270  1.00  0.00     0.029 A 
ATOM     59  C   UNL A   1      44.394  30.581  28.801  1.00  0.00     0.049 A 
ATOM     60  H   UNL A   1      44.158  28.587  28.248  1.00  0.00     0.167 HD
ATOM     61  C   UNL A   1      43.456  24.317  27.275  1.00  0.00     0.037 A 
ATOM     62  C   UNL A   1      45.697  30.871  28.632  1.00  0.00     0.037 A 
ATOM     63  C   UNL A   1      44.843  24.561  26.986  1.00  0.00     0.049 A 
ATOM     64  C   UNL A   1      46.621  29.787  28.137  1.00  0.00     0.074 A 
ATOM     65  C   UNL A   1      45.783  23.692  26.464  1.00  0.00     0.029 A 
ATOM     66  N   UNL A   1      45.489  25.770  27.210  1.00  0.00    -0.354 N 
ATOM     67  N   UNL A   1      46.346  28.544  27.820  1.00  0.00    -0.248 NA
ATOM     68  C   UNL A   1      48.035  30.148  27.973  1.00  0.00     0.031 C 
ATOM     69  C   UNL A   1      47.012  24.358  26.428  1.00  0.00     0.029 A 
ATOM     70  C   UNL A   1      46.822  25.662  26.860  1.00  0.00     0.049 A 
ATOM     71  H   UNL A   1      45.061  26.582  27.564  1.00  0.00     0.167 HD
ATOM     72  C   UNL A   1      47.541  27.986  27.385  1.00  0.00     0.074 A 
ATOM     73  C   UNL A   1      48.541  29.030  27.472  1.00  0.00     0.031 C 
ATOM     74  C   UNL A   1      47.791  26.726  26.947  1.00  0.00     0.037 A 
BRANCH  61  75
ATOM     75  C   UNL A   1      42.894  22.946  27.037  1.00  0.00     0.057 A 
ATOM     76  C   UNL A   1      42.580  22.479  25.753  1.00  0.00     0.134 A 
ATOM     77  C   UNL A   1      42.670  22.074  28.111  1.00  0.00     0.134 A 
ATOM     78  F   UNL A   1      42.748  23.270  24.683  1.00  0.00    -0.206 F 
ATOM     79  C   UNL A   1      42.045  21.206  25.548  1.00  0.00     0.040 A 
ATOM     80  C   UNL A   1      42.163  20.788  27.915  1.00  0.00     0.040 A 
ATOM     81  F   UNL A   1      42.943  22.456  29.367  1.00  0.00    -0.206 F 
ATOM     82  C   UNL A   1      41.842  20.353  26.632  1.00  0.00     0.006 A 
ENDBRANCH  61  75
BRANCH  62  83
ATOM     83  C   UNL A   1      46.205  32.231  28.942  1.00  0.00     0.057 A 
ATOM     84  C   UNL A   1      46.194  33.249  27.983  1.00  0.00     0.134 A 
ATOM     85  C   UNL A   1      46.725  32.543  30.205  1.00  0.00     0.134 A 
ATOM     86  F   UNL A   1      45.725  33.010  26.750  1.00  0.00    -0.206 F 
ATOM     87  C   UNL A   1      46.697  34.523  28.261  1.00  0.00     0.040 A 
ATOM     88  C   UNL A   1      47.204  33.820  30.506  1.00  0.00     0.040 A 
ATOM     89  F   UNL A   1      46.762  31.614  31.171  1.00  0.00    -0.206 F 
ATOM     90  C   UNL A   1      47.198  34.811  29.528  1.00  0.00     0.006 A 
ENDBRANCH  62  83
BRANCH  74  91
ATOM     91  C   UNL A   1      49.185  26.426  26.475  1.00  0.00     0.057 A 
ATOM     92  C   UNL A   1      49.642  26.809  25.209  1.00  0.00     0.134 A 
ATOM     93  C   UNL A   1      50.098  25.792  27.328  1.00  0.00     0.134 A 
ATOM     94  F   UNL A   1      48.815  27.412  24.340  1.00  0.00    -0.206 F 
ATOM     95  C   UNL A   1      50.951  26.550  24.798  1.00  0.00     0.040 A 
ATOM     96  C   UNL A   1      51.417  25.558  26.942  1.00  0.00     0.040 A 
ATOM     97  F   UNL A   1      49.728  25.411  28.561  1.00  0.00    -0.206 F 
ATOM     98  C   UNL A   1      51.844  25.931  25.669  1.00  0.00     0.006 A 
ENDBRANCH  74  91
ENDBRANCH  48  49
ENDBRANCH  41  43
ENDBRANCH  40  41
ENDBRANCH  39  40
ENDBRANCH  38  39
ENDBRANCH  37  38
ENDBRANCH  36  37
ENDBRANCH  35  36
ENDBRANCH  34  35
ENDBRANCH   1  34
TORSDOF 25
ENDMDL
MODEL 3
REMARK VINA RESULT:      -9.0      6.603     11.297
REMARK SMILES CCOc1cc(C[NH+]2CCC3(CC2)[C@H](C(=O)OCCOCCOCCOCCOC(=O)c2ccc(-c4c5nc(c(-c6c(F)cccc6F)c6ccc([nH]6)c(-c6c(F)cccc6F)c6nc(c(-c7c(F)cccc7F)c7ccc4[nH]7)C=C6)C=C5)cc2)CC(=O)N3C)ccc1OC
REMARK SMILES IDX 22 1 21 2 20 3 19 4 18 5 17 6 15 7 16 8 14 9 8 10 9 11 13 12
REMARK SMILES IDX 10 14 12 15 11 16 89 17 86 18 87 19 90 20 88 21 7 22 6 23
REMARK SMILES IDX 4 24 5 25 93 26 92 27 91 28 3 29 2 30 1 31 94 32 95 33 23 34
REMARK SMILES IDX 24 35 25 36 26 37 27 38 28 39 29 40 30 41 31 42 32 43 33 44
REMARK SMILES IDX 85 45 34 46 84 47 35 48 36 49 37 50 78 51 38 52 83 53 77 54
REMARK SMILES IDX 79 55 39 56 82 57 76 58 75 59 40 61 66 62 49 63 65 64 50 65
REMARK SMILES IDX 53 66 64 67 80 68 51 69 52 70 63 72 81 73 54 74 41 75 42 76
REMARK SMILES IDX 47 77 43 78 44 79 46 80 48 81 45 82 67 83 68 84 73 85 69 86
REMARK SMILES IDX 70 87 72 88 74 89 71 90 55 91 56 92 61 93 57 94 58 95 60 96
REMARK SMILES IDX 62 97 59 98
REMARK H PARENT 8 13 79 60 53 71
REMARK Flexibility Score: inf
ROOT
ATOM      1  C   UNL A   1      36.406  33.225  28.698  1.00  0.00     0.188 C 
ENDROOT
BRANCH   1   2
ATOM      2  C   UNL A   1      34.944  33.575  28.935  1.00  0.00     0.188 C 
BRANCH   2   3
ATOM      3  O   UNL A   1      34.076  32.450  28.771  1.00  0.00    -0.376 OA
BRANCH   3   4
ATOM      4  C   UNL A   1      34.449  31.594  27.693  1.00  0.00     0.202 C 
BRANCH   4   5
ATOM      5  C   UNL A   1      33.382  30.517  27.414  1.00  0.00     0.261 C 
BRANCH   5   6
ATOM      6  O   UNL A   1      33.865  29.137  27.384  1.00  0.00    -0.463 OA
BRANCH   6   7
ATOM      7  C   UNL A   1      32.908  28.190  27.251  1.00  0.00     0.311 C 
ATOM      8  O   UNL A   1      31.895  28.190  27.956  1.00  0.00    -0.252 OA
BRANCH   7   9
ATOM      9  C   UNL A   1      33.019  27.176  26.089  1.00  0.00     0.134 C 
ATOM     10  N   UNL A   1      30.583  23.936  25.024  1.00  0.00    -0.331 N 
ATOM     11  C   UNL A   1      29.788  25.112  25.333  1.00  0.00     0.265 C 
ATOM     12  C   UNL A   1      31.547  24.232  23.993  1.00  0.00     0.265 C 
ATOM     13  H   UNL A   1      29.914  23.270  24.639  1.00  0.00     0.348 HD
ATOM     14  C   UNL A   1      30.604  26.313  25.814  1.00  0.00     0.091 C 
ATOM     15  C   UNL A   1      32.508  25.370  24.348  1.00  0.00     0.091 C 
ATOM     16  C   UNL A   1      31.925  26.624  25.095  1.00  0.00     0.067 C 
ATOM     17  N   UNL A   1      31.873  27.703  24.101  1.00  0.00    -0.339 N 
ATOM     18  C   UNL A   1      34.010  27.816  25.103  1.00  0.00     0.118 C 
ATOM     19  C   UNL A   1      33.102  28.376  24.040  1.00  0.00     0.223 C 
ATOM     20  C   UNL A   1      31.087  27.631  22.884  1.00  0.00     0.147 C 
ATOM     21  O   UNL A   1      33.442  29.182  23.188  1.00  0.00    -0.275 OA
BRANCH  10  22
ATOM     22  C   UNL A   1      30.848  22.883  26.022  1.00  0.00     0.299 C 
BRANCH  22  23
ATOM     23  C   UNL A   1      32.267  22.371  26.233  1.00  0.00     0.010 A 
ATOM     24  C   UNL A   1      34.054  20.888  25.522  1.00  0.00     0.161 A 
ATOM     25  C   UNL A   1      32.695  21.151  25.710  1.00  0.00     0.060 A 
ATOM     26  C   UNL A   1      34.999  21.727  26.095  1.00  0.00     0.160 A 
ATOM     27  C   UNL A   1      34.569  22.739  26.950  1.00  0.00     0.051 A 
ATOM     28  C   UNL A   1      33.208  23.081  26.990  1.00  0.00     0.013 A 
BRANCH  24  29
ATOM     29  O   UNL A   1      34.360  20.000  24.526  1.00  0.00    -0.490 OA
BRANCH  29  30
ATOM     30  C   UNL A   1      33.673  18.754  24.618  1.00  0.00     0.226 C 
ATOM     31  C   UNL A   1      32.532  18.753  23.616  1.00  0.00     0.049 C 
ENDBRANCH  29  30
ENDBRANCH  24  29
BRANCH  26  32
ATOM     32  O   UNL A   1      36.337  21.641  25.825  1.00  0.00    -0.493 OA
ATOM     33  C   UNL A   1      36.848  22.905  25.379  1.00  0.00     0.278 C 
ENDBRANCH  26  32
ENDBRANCH  22  23
ENDBRANCH  10  22
ENDBRANCH   7   9
ENDBRANCH   6   7
ENDBRANCH   5   6
ENDBRANCH   4   5
ENDBRANCH   3   4
ENDBRANCH   2   3
ENDBRANCH   1   2
BRANCH   1  34
ATOM     34  O   UNL A   1      37.176  33.028  29.872  1.00  0.00    -0.377 OA
BRANCH  34  35
ATOM     35  C   UNL A   1      36.741  32.197  30.927  1.00  0.00     0.188 C 
BRANCH  35  36
ATOM     36  C   UNL A   1      37.307  30.782  31.041  1.00  0.00     0.188 C 
BRANCH  36  37
ATOM     37  O   UNL A   1      37.105  29.900  29.939  1.00  0.00    -0.376 OA
BRANCH  37  38
ATOM     38  C   UNL A   1      38.110  29.831  28.928  1.00  0.00     0.202 C 
BRANCH  38  39
ATOM     39  C   UNL A   1      39.294  28.908  29.207  1.00  0.00     0.261 C 
BRANCH  39  40
ATOM     40  O   UNL A   1      40.527  29.556  28.865  1.00  0.00    -0.460 OA
BRANCH  40  41
ATOM     41  C   UNL A   1      41.343  29.838  29.908  1.00  0.00     0.338 C 
ATOM     42  O   UNL A   1      41.926  29.058  30.627  1.00  0.00    -0.246 OA
BRANCH  41  43
ATOM     43  C   UNL A   1      41.604  31.291  29.900  1.00  0.00     0.060 A 
ATOM     44  C   UNL A   1      42.900  31.717  29.573  1.00  0.00     0.016 A 
ATOM     45  C   UNL A   1      40.605  32.213  30.217  1.00  0.00     0.016 A 
ATOM     46  C   UNL A   1      43.217  33.068  29.619  1.00  0.00     0.010 A 
ATOM     47  C   UNL A   1      40.928  33.566  30.288  1.00  0.00     0.010 A 
ATOM     48  C   UNL A   1      42.246  33.984  30.039  1.00  0.00    -0.014 A 
BRANCH  48  49
ATOM     49  C   UNL A   1      42.681  35.321  30.484  1.00  0.00     0.031 A 
ATOM     50  C   UNL A   1      43.048  35.482  31.932  1.00  0.00     0.074 A 
ATOM     51  C   UNL A   1      42.779  36.342  29.618  1.00  0.00     0.049 A 
ATOM     52  N   UNL A   1      43.408  36.555  32.584  1.00  0.00    -0.248 NA
ATOM     53  C   UNL A   1      42.994  34.264  32.759  1.00  0.00     0.031 C 
ATOM     54  C   UNL A   1      42.498  36.265  28.186  1.00  0.00     0.029 A 
ATOM     55  N   UNL A   1      43.133  37.648  29.827  1.00  0.00    -0.354 N 
ATOM     56  C   UNL A   1      43.616  36.141  33.895  1.00  0.00     0.074 A 
ATOM     57  C   UNL A   1      43.311  34.731  33.956  1.00  0.00     0.031 C 
ATOM     58  C   UNL A   1      42.675  37.483  27.645  1.00  0.00     0.029 A 
ATOM     59  C   UNL A   1      43.045  38.424  28.699  1.00  0.00     0.049 A 
ATOM     60  H   UNL A   1      43.425  37.995  30.701  1.00  0.00     0.167 HD
ATOM     61  C   UNL A   1      44.031  36.877  34.951  1.00  0.00     0.037 A 
ATOM     62  C   UNL A   1      43.218  39.751  28.556  1.00  0.00     0.037 A 
ATOM     63  C   UNL A   1      44.319  38.283  34.871  1.00  0.00     0.049 A 
ATOM     64  C   UNL A   1      43.601  40.566  29.765  1.00  0.00     0.074 A 
ATOM     65  C   UNL A   1      44.747  39.135  35.871  1.00  0.00     0.029 A 
ATOM     66  N   UNL A   1      44.191  39.045  33.717  1.00  0.00    -0.354 N 
ATOM     67  N   UNL A   1      43.813  40.170  30.998  1.00  0.00    -0.248 NA
ATOM     68  C   UNL A   1      43.774  42.010  29.562  1.00  0.00     0.031 C 
ATOM     69  C   UNL A   1      44.822  40.426  35.336  1.00  0.00     0.029 A 
ATOM     70  C   UNL A   1      44.508  40.364  33.987  1.00  0.00     0.049 A 
ATOM     71  H   UNL A   1      43.916  38.698  32.838  1.00  0.00     0.167 HD
ATOM     72  C   UNL A   1      44.179  41.307  31.708  1.00  0.00     0.074 A 
ATOM     73  C   UNL A   1      44.167  42.405  30.764  1.00  0.00     0.031 C 
ATOM     74  C   UNL A   1      44.500  41.433  33.020  1.00  0.00     0.037 A 
BRANCH  61  75
ATOM     75  C   UNL A   1      44.156  36.182  36.275  1.00  0.00     0.057 A 
ATOM     76  C   UNL A   1      45.330  35.522  36.664  1.00  0.00     0.134 A 
ATOM     77  C   UNL A   1      43.088  36.181  37.180  1.00  0.00     0.134 A 
ATOM     78  F   UNL A   1      46.384  35.464  35.836  1.00  0.00    -0.206 F 
ATOM     79  C   UNL A   1      45.429  34.868  37.894  1.00  0.00     0.040 A 
ATOM     80  C   UNL A   1      43.184  35.557  38.426  1.00  0.00     0.040 A 
ATOM     81  F   UNL A   1      41.933  36.790  36.872  1.00  0.00    -0.206 F 
ATOM     82  C   UNL A   1      44.355  34.891  38.782  1.00  0.00     0.006 A 
ENDBRANCH  61  75
BRANCH  62  83
ATOM     83  C   UNL A   1      43.020  40.390  27.230  1.00  0.00     0.057 A 
ATOM     84  C   UNL A   1      41.740  40.681  26.745  1.00  0.00     0.134 A 
ATOM     85  C   UNL A   1      44.108  40.716  26.409  1.00  0.00     0.134 A 
ATOM     86  F   UNL A   1      40.657  40.377  27.475  1.00  0.00    -0.206 F 
ATOM     87  C   UNL A   1      41.546  41.254  25.486  1.00  0.00     0.040 A 
ATOM     88  C   UNL A   1      43.930  41.316  25.161  1.00  0.00     0.040 A 
ATOM     89  F   UNL A   1      45.361  40.467  26.815  1.00  0.00    -0.206 F 
ATOM     90  C   UNL A   1      42.645  41.579  24.694  1.00  0.00     0.006 A 
ENDBRANCH  62  83
BRANCH  74  91
ATOM     91  C   UNL A   1      44.922  42.793  33.497  1.00  0.00     0.057 A 
ATOM     92  C   UNL A   1      46.268  43.142  33.657  1.00  0.00     0.134 A 
ATOM     93  C   UNL A   1      43.962  43.783  33.746  1.00  0.00     0.134 A 
ATOM     94  F   UNL A   1      47.236  42.238  33.444  1.00  0.00    -0.206 F 
ATOM     95  C   UNL A   1      46.643  44.422  34.071  1.00  0.00     0.040 A 
ATOM     96  C   UNL A   1      44.326  45.074  34.127  1.00  0.00     0.040 A 
ATOM     97  F   UNL A   1      42.655  43.518  33.598  1.00  0.00    -0.206 F 
ATOM     98  C   UNL A   1      45.671  45.393  34.298  1.00  0.00     0.006 A 
ENDBRANCH  74  91
ENDBRANCH  48  49
ENDBRANCH  41  43
ENDBRANCH  40  41
ENDBRANCH  39  40
ENDBRANCH  38  39
ENDBRANCH  37  38
ENDBRANCH  36  37
ENDBRANCH  35  36
ENDBRANCH  34  35
ENDBRANCH   1  34
TORSDOF 25
ENDMDL
