MODEL 1
REMARK VINA RESULT:     -11.1      0.000      0.000
REMARK SMILES CC[C@@H](C)N1C(=O)c2ccc(C(=O)OCCOCCOCCOCCOC(=O)c3ccc(-c4c5nc(c(-c6c(F)cccc6F)c6ccc([nH]6)c(-c6c(F)cccc6F)c6nc(c(-c7c(F)cccc7F)c7ccc4[nH]7)C=C6)C=C5)cc3)cc2S1(=O)=O
REMARK SMILES IDX 20 1 19 2 18 3 17 4 16 5 15 6 14 7 12 8 13 9 11 10 5 11 6 12
REMARK SMILES IDX 85 13 7 14 8 15 84 16 86 17 87 18 9 19 83 20 10 21 3 22 4 23
REMARK SMILES IDX 2 24 1 25 21 26 22 27 23 28 24 29 25 30 26 31 27 32 28 33
REMARK SMILES IDX 29 34 30 35 82 36 31 37 81 38 32 39 33 40 34 41 75 42 35 43
REMARK SMILES IDX 80 44 74 45 76 46 36 47 79 48 73 49 72 50 37 52 63 53 46 54
REMARK SMILES IDX 62 55 47 56 50 57 61 58 77 59 48 60 49 61 60 63 78 64 51 65
REMARK SMILES IDX 38 66 39 67 44 68 40 69 41 70 43 71 45 72 42 73 64 74 65 75
REMARK SMILES IDX 70 76 66 77 67 78 69 79 71 80 68 81 52 82 53 83 58 84 54 85
REMARK SMILES IDX 55 86 57 87 59 88 56 89
REMARK H PARENT 76 51 50 62
REMARK Flexibility Score: inf
ROOT
ATOM      1  O   UNL A   1      44.741  18.079  25.431  1.00  0.00    -0.377 OA
ENDROOT
BRANCH   1   2
ATOM      2  C   UNL A   1      43.651  18.887  25.025  1.00  0.00     0.188 C 
BRANCH   2   3
ATOM      3  C   UNL A   1      42.530  19.014  26.071  1.00  0.00     0.188 C 
BRANCH   3   4
ATOM      4  O   UNL A   1      42.403  20.329  26.605  1.00  0.00    -0.376 OA
BRANCH   4   5
ATOM      5  C   UNL A   1      41.080  20.786  26.856  1.00  0.00     0.202 C 
BRANCH   5   6
ATOM      6  C   UNL A   1      39.989  20.150  25.984  1.00  0.00     0.261 C 
BRANCH   6   7
ATOM      7  O   UNL A   1      38.835  20.975  25.755  1.00  0.00    -0.460 OA
BRANCH   7   8
ATOM      8  C   UNL A   1      37.811  20.428  25.068  1.00  0.00     0.338 C 
ATOM      9  O   UNL A   1      37.669  19.258  24.761  1.00  0.00    -0.246 OA
BRANCH   8  10
ATOM     10  C   UNL A   1      36.763  21.462  24.903  1.00  0.00     0.061 A 
ATOM     11  N   UNL A   1      32.473  23.615  25.183  1.00  0.00    -0.229 N 
ATOM     12  C   UNL A   1      33.556  24.188  24.451  1.00  0.00     0.269 C 
ATOM     13  S   UNL A   1      32.928  22.167  25.942  1.00  0.00     0.267 S 
ATOM     14  O   UNL A   1      33.508  25.167  23.729  1.00  0.00    -0.268 OA
ATOM     15  C   UNL A   1      34.773  23.374  24.615  1.00  0.00     0.061 A 
ATOM     16  C   UNL A   1      34.561  22.226  25.357  1.00  0.00     0.101 A 
ATOM     17  O   UNL A   1      32.956  22.360  27.367  1.00  0.00    -0.201 OA
ATOM     18  O   UNL A   1      32.293  21.042  25.288  1.00  0.00    -0.201 OA
ATOM     19  C   UNL A   1      36.011  23.618  24.036  1.00  0.00     0.016 A 
ATOM     20  C   UNL A   1      35.519  21.239  25.504  1.00  0.00     0.038 A 
ATOM     21  C   UNL A   1      37.018  22.657  24.196  1.00  0.00     0.016 A 
BRANCH  11  22
ATOM     22  C   UNL A   1      31.027  23.948  24.976  1.00  0.00     0.100 C 
ATOM     23  C   UNL A   1      30.650  23.751  23.502  1.00  0.00     0.032 C 
BRANCH  22  24
ATOM     24  C   UNL A   1      30.654  25.380  25.421  1.00  0.00     0.023 C 
ATOM     25  C   UNL A   1      29.831  26.154  24.396  1.00  0.00     0.006 C 
ENDBRANCH  22  24
ENDBRANCH  11  22
ENDBRANCH   8  10
ENDBRANCH   7   8
ENDBRANCH   6   7
ENDBRANCH   5   6
ENDBRANCH   4   5
ENDBRANCH   3   4
ENDBRANCH   2   3
ENDBRANCH   1   2
BRANCH   1  26
ATOM     26  C   UNL A   1      46.051  18.645  25.422  1.00  0.00     0.188 C 
BRANCH  26  27
ATOM     27  C   UNL A   1      46.407  19.906  24.602  1.00  0.00     0.188 C 
BRANCH  27  28
ATOM     28  O   UNL A   1      46.394  21.119  25.347  1.00  0.00    -0.376 OA
BRANCH  28  29
ATOM     29  C   UNL A   1      46.322  22.325  24.596  1.00  0.00     0.202 C 
BRANCH  29  30
ATOM     30  C   UNL A   1      45.800  23.513  25.412  1.00  0.00     0.261 C 
BRANCH  30  31
ATOM     31  O   UNL A   1      44.765  24.271  24.765  1.00  0.00    -0.460 OA
BRANCH  31  32
ATOM     32  C   UNL A   1      43.490  23.893  25.001  1.00  0.00     0.338 C 
ATOM     33  O   UNL A   1      42.938  22.872  24.636  1.00  0.00    -0.246 OA
BRANCH  32  34
ATOM     34  C   UNL A   1      42.905  24.861  25.947  1.00  0.00     0.060 A 
ATOM     35  C   UNL A   1      43.379  26.179  25.947  1.00  0.00     0.016 A 
ATOM     36  C   UNL A   1      41.892  24.465  26.822  1.00  0.00     0.016 A 
ATOM     37  C   UNL A   1      42.856  27.102  26.854  1.00  0.00     0.010 A 
ATOM     38  C   UNL A   1      41.383  25.385  27.739  1.00  0.00     0.010 A 
ATOM     39  C   UNL A   1      41.884  26.697  27.777  1.00  0.00    -0.014 A 
BRANCH  39  40
ATOM     40  C   UNL A   1      41.506  27.585  28.900  1.00  0.00     0.031 A 
ATOM     41  C   UNL A   1      42.263  27.465  30.192  1.00  0.00     0.074 A 
ATOM     42  C   UNL A   1      40.498  28.466  28.783  1.00  0.00     0.049 A 
ATOM     43  N   UNL A   1      42.065  28.076  31.332  1.00  0.00    -0.248 NA
ATOM     44  C   UNL A   1      43.395  26.524  30.200  1.00  0.00     0.031 C 
ATOM     45  C   UNL A   1      39.708  28.694  27.574  1.00  0.00     0.029 A 
ATOM     46  N   UNL A   1      39.958  29.322  29.709  1.00  0.00    -0.354 N 
ATOM     47  C   UNL A   1      43.044  27.593  32.190  1.00  0.00     0.074 A 
ATOM     48  C   UNL A   1      43.817  26.620  31.451  1.00  0.00     0.031 C 
ATOM     49  C   UNL A   1      38.770  29.622  27.839  1.00  0.00     0.029 A 
ATOM     50  C   UNL A   1      38.875  30.024  29.240  1.00  0.00     0.049 A 
ATOM     51  H   UNL A   1      40.312  29.423  30.622  1.00  0.00     0.167 HD
ATOM     52  C   UNL A   1      43.281  27.936  33.477  1.00  0.00     0.037 A 
ATOM     53  C   UNL A   1      38.050  30.876  29.882  1.00  0.00     0.037 A 
ATOM     54  C   UNL A   1      42.504  28.895  34.216  1.00  0.00     0.049 A 
ATOM     55  C   UNL A   1      38.286  31.181  31.337  1.00  0.00     0.074 A 
ATOM     56  C   UNL A   1      42.676  29.322  35.521  1.00  0.00     0.029 A 
ATOM     57  N   UNL A   1      41.399  29.565  33.716  1.00  0.00    -0.354 N 
ATOM     58  N   UNL A   1      39.232  30.745  32.133  1.00  0.00    -0.248 NA
ATOM     59  C   UNL A   1      37.334  32.098  31.986  1.00  0.00     0.031 C 
ATOM     60  C   UNL A   1      41.646  30.219  35.825  1.00  0.00     0.029 A 
ATOM     61  C   UNL A   1      40.861  30.384  34.695  1.00  0.00     0.049 A 
ATOM     62  H   UNL A   1      41.049  29.473  32.801  1.00  0.00     0.167 HD
ATOM     63  C   UNL A   1      39.006  31.350  33.364  1.00  0.00     0.074 A 
ATOM     64  C   UNL A   1      37.841  32.194  33.207  1.00  0.00     0.031 C 
ATOM     65  C   UNL A   1      39.702  31.221  34.521  1.00  0.00     0.037 A 
BRANCH  52  66
ATOM     66  C   UNL A   1      44.415  27.246  34.173  1.00  0.00     0.057 A 
ATOM     67  C   UNL A   1      45.700  27.802  34.220  1.00  0.00     0.134 A 
ATOM     68  C   UNL A   1      44.216  26.021  34.820  1.00  0.00     0.134 A 
ATOM     69  F   UNL A   1      45.961  28.965  33.603  1.00  0.00    -0.206 F 
ATOM     70  C   UNL A   1      46.751  27.154  34.869  1.00  0.00     0.040 A 
ATOM     71  C   UNL A   1      45.254  25.374  35.493  1.00  0.00     0.040 A 
ATOM     72  F   UNL A   1      43.009  25.434  34.812  1.00  0.00    -0.206 F 
ATOM     73  C   UNL A   1      46.527  25.939  35.514  1.00  0.00     0.006 A 
ENDBRANCH  52  66
BRANCH  53  74
ATOM     74  C   UNL A   1      36.908  31.492  29.161  1.00  0.00     0.057 A 
ATOM     75  C   UNL A   1      35.741  30.767  28.898  1.00  0.00     0.134 A 
ATOM     76  C   UNL A   1      36.969  32.809  28.691  1.00  0.00     0.134 A 
ATOM     77  F   UNL A   1      35.635  29.491  29.300  1.00  0.00    -0.206 F 
ATOM     78  C   UNL A   1      34.681  31.322  28.180  1.00  0.00     0.040 A 
ATOM     79  C   UNL A   1      35.907  33.386  27.992  1.00  0.00     0.040 A 
ATOM     80  F   UNL A   1      38.061  33.556  28.907  1.00  0.00    -0.206 F 
ATOM     81  C   UNL A   1      34.762  32.638  27.728  1.00  0.00     0.006 A 
ENDBRANCH  53  74
BRANCH  65  82
ATOM     82  C   UNL A   1      39.242  32.031  35.697  1.00  0.00     0.057 A 
ATOM     83  C   UNL A   1      38.323  31.528  36.627  1.00  0.00     0.134 A 
ATOM     84  C   UNL A   1      39.758  33.313  35.925  1.00  0.00     0.134 A 
ATOM     85  F   UNL A   1      37.783  30.312  36.459  1.00  0.00    -0.206 F 
ATOM     86  C   UNL A   1      37.920  32.279  37.731  1.00  0.00     0.040 A 
ATOM     87  C   UNL A   1      39.381  34.063  37.040  1.00  0.00     0.040 A 
ATOM     88  F   UNL A   1      40.649  33.850  35.078  1.00  0.00    -0.206 F 
ATOM     89  C   UNL A   1      38.455  33.549  37.944  1.00  0.00     0.006 A 
ENDBRANCH  65  82
ENDBRANCH  39  40
ENDBRANCH  32  34
ENDBRANCH  31  32
ENDBRANCH  30  31
ENDBRANCH  29  30
ENDBRANCH  28  29
ENDBRANCH  27  28
ENDBRANCH  26  27
ENDBRANCH   1  26
TORSDOF 22
ENDMDL
MODEL 2
REMARK VINA RESULT:     -10.1      3.611      9.140
REMARK SMILES CC[C@@H](C)N1C(=O)c2ccc(C(=O)OCCOCCOCCOCCOC(=O)c3ccc(-c4c5nc(c(-c6c(F)cccc6F)c6ccc([nH]6)c(-c6c(F)cccc6F)c6nc(c(-c7c(F)cccc7F)c7ccc4[nH]7)C=C6)C=C5)cc3)cc2S1(=O)=O
REMARK SMILES IDX 20 1 19 2 18 3 17 4 16 5 15 6 14 7 12 8 13 9 11 10 5 11 6 12
REMARK SMILES IDX 85 13 7 14 8 15 84 16 86 17 87 18 9 19 83 20 10 21 3 22 4 23
REMARK SMILES IDX 2 24 1 25 21 26 22 27 23 28 24 29 25 30 26 31 27 32 28 33
REMARK SMILES IDX 29 34 30 35 82 36 31 37 81 38 32 39 33 40 34 41 75 42 35 43
REMARK SMILES IDX 80 44 74 45 76 46 36 47 79 48 73 49 72 50 37 52 63 53 46 54
REMARK SMILES IDX 62 55 47 56 50 57 61 58 77 59 48 60 49 61 60 63 78 64 51 65
REMARK SMILES IDX 38 66 39 67 44 68 40 69 41 70 43 71 45 72 42 73 64 74 65 75
REMARK SMILES IDX 70 76 66 77 67 78 69 79 71 80 68 81 52 82 53 83 58 84 54 85
REMARK SMILES IDX 55 86 57 87 59 88 56 89
REMARK H PARENT 76 51 50 62
REMARK Flexibility Score: inf
ROOT
ATOM      1  O   UNL A   1      33.365  28.125  24.609  1.00  0.00    -0.377 OA
ENDROOT
BRANCH   1   2
ATOM      2  C   UNL A   1      32.292  28.962  24.215  1.00  0.00     0.188 C 
BRANCH   2   3
ATOM      3  C   UNL A   1      30.916  28.274  24.223  1.00  0.00     0.188 C 
BRANCH   3   4
ATOM      4  O   UNL A   1      30.905  27.026  23.534  1.00  0.00    -0.376 OA
BRANCH   4   5
ATOM      5  C   UNL A   1      30.089  26.003  24.091  1.00  0.00     0.202 C 
BRANCH   5   6
ATOM      6  C   UNL A   1      30.307  25.728  25.585  1.00  0.00     0.261 C 
BRANCH   6   7
ATOM      7  O   UNL A   1      31.474  24.952  25.897  1.00  0.00    -0.460 OA
BRANCH   7   8
ATOM      8  C   UNL A   1      31.285  23.787  26.550  1.00  0.00     0.338 C 
ATOM      9  O   UNL A   1      30.348  23.486  27.266  1.00  0.00    -0.246 OA
BRANCH   8  10
ATOM     10  C   UNL A   1      32.325  22.833  26.100  1.00  0.00     0.061 A 
ATOM     11  N   UNL A   1      34.299  18.821  24.331  1.00  0.00    -0.229 N 
ATOM     12  C   UNL A   1      35.095  19.876  24.870  1.00  0.00     0.269 C 
ATOM     13  S   UNL A   1      32.647  19.206  24.360  1.00  0.00     0.267 S 
ATOM     14  O   UNL A   1      36.295  19.853  25.071  1.00  0.00    -0.268 OA
ATOM     15  C   UNL A   1      34.244  21.018  25.246  1.00  0.00     0.061 A 
ATOM     16  C   UNL A   1      32.894  20.772  25.068  1.00  0.00     0.101 A 
ATOM     17  O   UNL A   1      32.175  19.394  23.014  1.00  0.00    -0.201 OA
ATOM     18  O   UNL A   1      31.965  18.403  25.354  1.00  0.00    -0.201 OA
ATOM     19  C   UNL A   1      34.671  22.211  25.815  1.00  0.00     0.016 A 
ATOM     20  C   UNL A   1      31.908  21.639  25.502  1.00  0.00     0.038 A 
ATOM     21  C   UNL A   1      33.700  23.131  26.232  1.00  0.00     0.016 A 
BRANCH  11  22
ATOM     22  C   UNL A   1      34.751  17.400  24.176  1.00  0.00     0.100 C 
ATOM     23  C   UNL A   1      34.019  16.744  22.997  1.00  0.00     0.032 C 
BRANCH  22  24
ATOM     24  C   UNL A   1      34.554  16.547  25.450  1.00  0.00     0.023 C 
ATOM     25  C   UNL A   1      33.486  15.466  25.314  1.00  0.00     0.006 C 
ENDBRANCH  22  24
ENDBRANCH  11  22
ENDBRANCH   8  10
ENDBRANCH   7   8
ENDBRANCH   6   7
ENDBRANCH   5   6
ENDBRANCH   4   5
ENDBRANCH   3   4
ENDBRANCH   2   3
ENDBRANCH   1   2
BRANCH   1  26
ATOM     26  C   UNL A   1      33.492  27.783  25.989  1.00  0.00     0.188 C 
BRANCH  26  27
ATOM     27  C   UNL A   1      33.722  28.841  27.091  1.00  0.00     0.188 C 
BRANCH  27  28
ATOM     28  O   UNL A   1      33.806  30.181  26.617  1.00  0.00    -0.376 OA
BRANCH  28  29
ATOM     29  C   UNL A   1      33.899  31.200  27.605  1.00  0.00     0.202 C 
BRANCH  29  30
ATOM     30  C   UNL A   1      32.871  32.320  27.414  1.00  0.00     0.261 C 
BRANCH  30  31
ATOM     31  O   UNL A   1      33.436  33.638  27.315  1.00  0.00    -0.460 OA
BRANCH  31  32
ATOM     32  C   UNL A   1      33.387  34.411  28.421  1.00  0.00     0.338 C 
ATOM     33  O   UNL A   1      32.493  35.160  28.765  1.00  0.00    -0.246 OA
BRANCH  32  34
ATOM     34  C   UNL A   1      34.549  34.062  29.260  1.00  0.00     0.060 A 
ATOM     35  C   UNL A   1      35.838  34.280  28.757  1.00  0.00     0.016 A 
ATOM     36  C   UNL A   1      34.360  33.529  30.536  1.00  0.00     0.016 A 
ATOM     37  C   UNL A   1      36.948  33.930  29.526  1.00  0.00     0.010 A 
ATOM     38  C   UNL A   1      35.471  33.164  31.296  1.00  0.00     0.010 A 
ATOM     39  C   UNL A   1      36.768  33.337  30.782  1.00  0.00    -0.014 A 
BRANCH  39  40
ATOM     40  C   UNL A   1      37.916  32.734  31.494  1.00  0.00     0.031 A 
ATOM     41  C   UNL A   1      38.576  31.525  30.894  1.00  0.00     0.074 A 
ATOM     42  C   UNL A   1      38.353  33.236  32.663  1.00  0.00     0.049 A 
ATOM     43  N   UNL A   1      39.542  30.783  31.369  1.00  0.00    -0.248 NA
ATOM     44  C   UNL A   1      38.074  31.094  29.578  1.00  0.00     0.031 C 
ATOM     45  C   UNL A   1      37.814  34.419  33.331  1.00  0.00     0.029 A 
ATOM     46  N   UNL A   1      39.346  32.795  33.500  1.00  0.00    -0.354 N 
ATOM     47  C   UNL A   1      39.762  29.799  30.414  1.00  0.00     0.074 A 
ATOM     48  C   UNL A   1      38.811  30.019  29.347  1.00  0.00     0.031 C 
ATOM     49  C   UNL A   1      38.475  34.600  34.488  1.00  0.00     0.029 A 
ATOM     50  C   UNL A   1      39.457  33.530  34.654  1.00  0.00     0.049 A 
ATOM     51  H   UNL A   1      39.923  32.024  33.294  1.00  0.00     0.167 HD
ATOM     52  C   UNL A   1      40.678  28.803  30.425  1.00  0.00     0.037 A 
ATOM     53  C   UNL A   1      40.246  33.341  35.731  1.00  0.00     0.037 A 
ATOM     54  C   UNL A   1      41.614  28.575  31.492  1.00  0.00     0.049 A 
ATOM     55  C   UNL A   1      41.202  32.178  35.753  1.00  0.00     0.074 A 
ATOM     56  C   UNL A   1      42.594  27.602  31.587  1.00  0.00     0.029 A 
ATOM     57  N   UNL A   1      41.678  29.324  32.656  1.00  0.00    -0.354 N 
ATOM     58  N   UNL A   1      41.426  31.270  34.834  1.00  0.00    -0.248 NA
ATOM     59  C   UNL A   1      42.017  32.013  36.968  1.00  0.00     0.031 C 
ATOM     60  C   UNL A   1      43.220  27.735  32.831  1.00  0.00     0.029 A 
ATOM     61  C   UNL A   1      42.663  28.819  33.489  1.00  0.00     0.049 A 
ATOM     62  H   UNL A   1      41.108  30.100  32.861  1.00  0.00     0.167 HD
ATOM     63  C   UNL A   1      42.419  30.444  35.346  1.00  0.00     0.074 A 
ATOM     64  C   UNL A   1      42.765  30.965  36.651  1.00  0.00     0.031 C 
ATOM     65  C   UNL A   1      42.996  29.352  34.785  1.00  0.00     0.037 A 
BRANCH  52  66
ATOM     66  C   UNL A   1      40.690  27.870  29.251  1.00  0.00     0.057 A 
ATOM     67  C   UNL A   1      39.791  26.801  29.147  1.00  0.00     0.134 A 
ATOM     68  C   UNL A   1      41.600  28.056  28.204  1.00  0.00     0.134 A 
ATOM     69  F   UNL A   1      38.907  26.559  30.127  1.00  0.00    -0.206 F 
ATOM     70  C   UNL A   1      39.810  25.938  28.051  1.00  0.00     0.040 A 
ATOM     71  C   UNL A   1      41.613  27.213  27.091  1.00  0.00     0.040 A 
ATOM     72  F   UNL A   1      42.489  29.061  28.242  1.00  0.00    -0.206 F 
ATOM     73  C   UNL A   1      40.719  26.147  27.015  1.00  0.00     0.006 A 
ENDBRANCH  52  66
BRANCH  53  74
ATOM     74  C   UNL A   1      40.157  34.263  36.890  1.00  0.00     0.057 A 
ATOM     75  C   UNL A   1      39.195  34.081  37.889  1.00  0.00     0.134 A 
ATOM     76  C   UNL A   1      41.012  35.365  37.011  1.00  0.00     0.134 A 
ATOM     77  F   UNL A   1      38.329  33.058  37.813  1.00  0.00    -0.206 F 
ATOM     78  C   UNL A   1      39.073  34.969  38.958  1.00  0.00     0.040 A 
ATOM     79  C   UNL A   1      40.918  36.249  38.088  1.00  0.00     0.040 A 
ATOM     80  F   UNL A   1      41.954  35.597  36.086  1.00  0.00    -0.206 F 
ATOM     81  C   UNL A   1      39.940  36.056  39.061  1.00  0.00     0.006 A 
ENDBRANCH  53  74
BRANCH  65  82
ATOM     82  C   UNL A   1      44.079  28.666  35.565  1.00  0.00     0.057 A 
ATOM     83  C   UNL A   1      45.436  28.922  35.329  1.00  0.00     0.134 A 
ATOM     84  C   UNL A   1      43.757  27.772  36.595  1.00  0.00     0.134 A 
ATOM     85  F   UNL A   1      45.809  29.757  34.349  1.00  0.00    -0.206 F 
ATOM     86  C   UNL A   1      46.435  28.298  36.077  1.00  0.00     0.040 A 
ATOM     87  C   UNL A   1      44.747  27.163  37.366  1.00  0.00     0.040 A 
ATOM     88  F   UNL A   1      42.477  27.492  36.879  1.00  0.00    -0.206 F 
ATOM     89  C   UNL A   1      46.091  27.420  37.105  1.00  0.00     0.006 A 
ENDBRANCH  65  82
ENDBRANCH  39  40
ENDBRANCH  32  34
ENDBRANCH  31  32
ENDBRANCH  30  31
ENDBRANCH  29  30
ENDBRANCH  28  29
ENDBRANCH  27  28
ENDBRANCH  26  27
ENDBRANCH   1  26
TORSDOF 22
ENDMDL
MODEL 3
REMARK VINA RESULT:      -9.6      3.718      9.269
REMARK SMILES CC[C@@H](C)N1C(=O)c2ccc(C(=O)OCCOCCOCCOCCOC(=O)c3ccc(-c4c5nc(c(-c6c(F)cccc6F)c6ccc([nH]6)c(-c6c(F)cccc6F)c6nc(c(-c7c(F)cccc7F)c7ccc4[nH]7)C=C6)C=C5)cc3)cc2S1(=O)=O
REMARK SMILES IDX 20 1 19 2 18 3 17 4 16 5 15 6 14 7 12 8 13 9 11 10 5 11 6 12
REMARK SMILES IDX 85 13 7 14 8 15 84 16 86 17 87 18 9 19 83 20 10 21 3 22 4 23
REMARK SMILES IDX 2 24 1 25 21 26 22 27 23 28 24 29 25 30 26 31 27 32 28 33
REMARK SMILES IDX 29 34 30 35 82 36 31 37 81 38 32 39 33 40 34 41 75 42 35 43
REMARK SMILES IDX 80 44 74 45 76 46 36 47 79 48 73 49 72 50 37 52 63 53 46 54
REMARK SMILES IDX 62 55 47 56 50 57 61 58 77 59 48 60 49 61 60 63 78 64 51 65
REMARK SMILES IDX 38 66 39 67 44 68 40 69 41 70 43 71 45 72 42 73 64 74 65 75
REMARK SMILES IDX 70 76 66 77 67 78 69 79 71 80 68 81 52 82 53 83 58 84 54 85
REMARK SMILES IDX 55 86 57 87 59 88 56 89
REMARK H PARENT 76 51 50 62
REMARK Flexibility Score: inf
ROOT
ATOM      1  O   UNL A   1      32.831  28.468  24.939  1.00  0.00    -0.377 OA
ENDROOT
BRANCH   1   2
ATOM      2  C   UNL A   1      31.452  28.682  25.182  1.00  0.00     0.188 C 
BRANCH   2   3
ATOM      3  C   UNL A   1      30.528  28.223  24.041  1.00  0.00     0.188 C 
BRANCH   3   4
ATOM      4  O   UNL A   1      31.191  28.123  22.783  1.00  0.00    -0.376 OA
BRANCH   4   5
ATOM      5  C   UNL A   1      31.069  26.881  22.100  1.00  0.00     0.202 C 
BRANCH   5   6
ATOM      6  C   UNL A   1      31.073  25.635  22.996  1.00  0.00     0.261 C 
BRANCH   6   7
ATOM      7  O   UNL A   1      32.346  25.305  23.574  1.00  0.00    -0.460 OA
BRANCH   7   8
ATOM      8  C   UNL A   1      33.234  24.663  22.786  1.00  0.00     0.338 C 
ATOM      9  O   UNL A   1      34.189  25.146  22.206  1.00  0.00    -0.246 OA
BRANCH   8  10
ATOM     10  C   UNL A   1      32.974  23.209  22.889  1.00  0.00     0.061 A 
ATOM     11  N   UNL A   1      33.267  18.680  24.477  1.00  0.00    -0.229 N 
ATOM     12  C   UNL A   1      32.513  19.021  23.314  1.00  0.00     0.269 C 
ATOM     13  S   UNL A   1      33.957  20.051  25.201  1.00  0.00     0.267 S 
ATOM     14  O   UNL A   1      31.988  18.249  22.535  1.00  0.00    -0.268 OA
ATOM     15  C   UNL A   1      32.514  20.481  23.115  1.00  0.00     0.061 A 
ATOM     16  C   UNL A   1      33.296  21.155  24.036  1.00  0.00     0.101 A 
ATOM     17  O   UNL A   1      33.317  20.299  26.465  1.00  0.00    -0.201 OA
ATOM     18  O   UNL A   1      35.392  20.049  25.005  1.00  0.00    -0.201 OA
ATOM     19  C   UNL A   1      31.897  21.171  22.079  1.00  0.00     0.016 A 
ATOM     20  C   UNL A   1      33.569  22.508  23.944  1.00  0.00     0.038 A 
ATOM     21  C   UNL A   1      32.120  22.550  21.977  1.00  0.00     0.016 A 
BRANCH  11  22
ATOM     22  C   UNL A   1      33.782  17.308  24.793  1.00  0.00     0.100 C 
ATOM     23  C   UNL A   1      34.117  16.563  23.494  1.00  0.00     0.032 C 
BRANCH  22  24
ATOM     24  C   UNL A   1      32.804  16.462  25.639  1.00  0.00     0.023 C 
ATOM     25  C   UNL A   1      33.019  14.957  25.516  1.00  0.00     0.006 C 
ENDBRANCH  22  24
ENDBRANCH  11  22
ENDBRANCH   8  10
ENDBRANCH   7   8
ENDBRANCH   6   7
ENDBRANCH   5   6
ENDBRANCH   4   5
ENDBRANCH   3   4
ENDBRANCH   2   3
ENDBRANCH   1   2
BRANCH   1  26
ATOM     26  C   UNL A   1      33.659  28.050  26.023  1.00  0.00     0.188 C 
BRANCH  26  27
ATOM     27  C   UNL A   1      34.259  29.045  27.042  1.00  0.00     0.188 C 
BRANCH  27  28
ATOM     28  O   UNL A   1      34.026  30.416  26.739  1.00  0.00    -0.376 OA
BRANCH  28  29
ATOM     29  C   UNL A   1      34.010  31.316  27.840  1.00  0.00     0.202 C 
BRANCH  29  30
ATOM     30  C   UNL A   1      32.884  32.353  27.754  1.00  0.00     0.261 C 
BRANCH  30  31
ATOM     31  O   UNL A   1      33.333  33.710  27.606  1.00  0.00    -0.460 OA
BRANCH  31  32
ATOM     32  C   UNL A   1      33.405  34.459  28.728  1.00  0.00     0.338 C 
ATOM     33  O   UNL A   1      32.579  35.246  29.150  1.00  0.00    -0.246 OA
BRANCH  32  34
ATOM     34  C   UNL A   1      34.600  34.028  29.476  1.00  0.00     0.060 A 
ATOM     35  C   UNL A   1      35.866  34.258  28.921  1.00  0.00     0.016 A 
ATOM     36  C   UNL A   1      34.467  33.406  30.718  1.00  0.00     0.016 A 
ATOM     37  C   UNL A   1      37.007  33.833  29.602  1.00  0.00     0.010 A 
ATOM     38  C   UNL A   1      35.609  32.966  31.388  1.00  0.00     0.010 A 
ATOM     39  C   UNL A   1      36.879  33.152  30.819  1.00  0.00    -0.014 A 
BRANCH  39  40
ATOM     40  C   UNL A   1      38.050  32.477  31.423  1.00  0.00     0.031 A 
ATOM     41  C   UNL A   1      38.688  31.344  30.672  1.00  0.00     0.074 A 
ATOM     42  C   UNL A   1      38.526  32.850  32.624  1.00  0.00     0.049 A 
ATOM     43  N   UNL A   1      39.669  30.556  31.031  1.00  0.00    -0.248 NA
ATOM     44  C   UNL A   1      38.143  31.058  29.335  1.00  0.00     0.031 C 
ATOM     45  C   UNL A   1      38.010  33.950  33.436  1.00  0.00     0.029 A 
ATOM     46  N   UNL A   1      39.545  32.321  33.375  1.00  0.00    -0.354 N 
ATOM     47  C   UNL A   1      39.856  29.683  29.968  1.00  0.00     0.074 A 
ATOM     48  C   UNL A   1      38.871  30.017  28.963  1.00  0.00     0.031 C 
ATOM     49  C   UNL A   1      38.709  34.005  34.584  1.00  0.00     0.029 A 
ATOM     50  C   UNL A   1      39.695  32.926  34.599  1.00  0.00     0.049 A 
ATOM     51  H   UNL A   1      40.115  31.580  33.067  1.00  0.00     0.167 HD
ATOM     52  C   UNL A   1      40.771  28.694  29.839  1.00  0.00     0.037 A 
ATOM     53  C   UNL A   1      40.518  32.622  35.622  1.00  0.00     0.037 A 
ATOM     54  C   UNL A   1      41.742  28.354  30.843  1.00  0.00     0.049 A 
ATOM     55  C   UNL A   1      41.474  31.466  35.485  1.00  0.00     0.074 A 
ATOM     56  C   UNL A   1      42.723  27.378  30.799  1.00  0.00     0.029 A 
ATOM     57  N   UNL A   1      41.844  28.971  32.080  1.00  0.00    -0.354 N 
ATOM     58  N   UNL A   1      41.666  30.665  34.465  1.00  0.00    -0.248 NA
ATOM     59  C   UNL A   1      42.327  31.170  36.647  1.00  0.00     0.031 C 
ATOM     60  C   UNL A   1      43.390  27.376  32.028  1.00  0.00     0.029 A 
ATOM     61  C   UNL A   1      42.855  28.379  32.820  1.00  0.00     0.049 A 
ATOM     62  H   UNL A   1      41.282  29.718  32.387  1.00  0.00     0.167 HD
ATOM     63  C   UNL A   1      42.675  29.790  34.850  1.00  0.00     0.074 A 
ATOM     64  C   UNL A   1      43.063  30.166  36.193  1.00  0.00     0.031 C 
ATOM     65  C   UNL A   1      43.232  28.768  34.154  1.00  0.00     0.037 A 
BRANCH  52  66
ATOM     66  C   UNL A   1      40.744  27.897  28.570  1.00  0.00     0.057 A 
ATOM     67  C   UNL A   1      41.436  28.308  27.424  1.00  0.00     0.134 A 
ATOM     68  C   UNL A   1      40.033  26.692  28.500  1.00  0.00     0.134 A 
ATOM     69  F   UNL A   1      42.120  29.462  27.420  1.00  0.00    -0.206 F 
ATOM     70  C   UNL A   1      41.405  27.559  26.246  1.00  0.00     0.040 A 
ATOM     71  C   UNL A   1      40.015  25.923  27.336  1.00  0.00     0.040 A 
ATOM     72  F   UNL A   1      39.349  26.242  29.564  1.00  0.00    -0.206 F 
ATOM     73  C   UNL A   1      40.698  26.359  26.203  1.00  0.00     0.006 A 
ENDBRANCH  52  66
BRANCH  53  74
ATOM     74  C   UNL A   1      40.468  33.411  36.878  1.00  0.00     0.057 A 
ATOM     75  C   UNL A   1      41.395  34.428  37.133  1.00  0.00     0.134 A 
ATOM     76  C   UNL A   1      39.512  33.147  37.866  1.00  0.00     0.134 A 
ATOM     77  F   UNL A   1      42.352  34.708  36.235  1.00  0.00    -0.206 F 
ATOM     78  C   UNL A   1      41.385  35.143  38.331  1.00  0.00     0.040 A 
ATOM     79  C   UNL A   1      39.475  33.870  39.059  1.00  0.00     0.040 A 
ATOM     80  F   UNL A   1      38.598  32.184  37.684  1.00  0.00    -0.206 F 
ATOM     81  C   UNL A   1      40.419  34.866  39.297  1.00  0.00     0.006 A 
ENDBRANCH  53  74
BRANCH  65  82
ATOM     82  C   UNL A   1      44.339  28.003  34.819  1.00  0.00     0.057 A 
ATOM     83  C   UNL A   1      45.687  28.288  34.569  1.00  0.00     0.134 A 
ATOM     84  C   UNL A   1      44.050  26.999  35.753  1.00  0.00     0.134 A 
ATOM     85  F   UNL A   1      46.029  29.228  33.677  1.00  0.00    -0.206 F 
ATOM     86  C   UNL A   1      46.709  27.588  35.212  1.00  0.00     0.040 A 
ATOM     87  C   UNL A   1      45.064  26.311  36.420  1.00  0.00     0.040 A 
ATOM     88  F   UNL A   1      42.779  26.685  36.045  1.00  0.00    -0.206 F 
ATOM     89  C   UNL A   1      46.399  26.600  36.145  1.00  0.00     0.006 A 
ENDBRANCH  65  82
ENDBRANCH  39  40
ENDBRANCH  32  34
ENDBRANCH  31  32
ENDBRANCH  30  31
ENDBRANCH  29  30
ENDBRANCH  28  29
ENDBRANCH  27  28
ENDBRANCH  26  27
ENDBRANCH   1  26
TORSDOF 22
ENDMDL
