MODEL 1
REMARK VINA RESULT:      -9.3      0.000      0.000
REMARK SMILES CC(=O)Nc1ccc(/C=C2/CCc3oc(C(=O)OCCOCCOCCOCCOC(=O)c4ccc(-c5c6nc(c(-c7c(F)cccc7F)c7ccc([nH]7)c(-c7c(F)cccc7F)c7nc(c(-c8c(F)cccc8F)c8ccc5[nH]8)C=C7)C=C6)cc4)c(C)c3C2=O)cc1
REMARK SMILES IDX 24 1 23 2 22 3 21 4 20 5 19 6 18 7 16 8 17 9 15 10 9 11
REMARK SMILES IDX 10 12 11 13 90 14 12 15 89 16 91 17 13 18 87 19 14 20 88 21
REMARK SMILES IDX 8 22 5 23 6 24 93 25 7 26 92 27 4 28 1 29 2 30 3 31 25 33
REMARK SMILES IDX 26 34 27 35 28 36 29 37 30 38 31 39 32 40 33 41 34 42 86 43
REMARK SMILES IDX 35 44 85 45 36 46 37 47 38 48 79 49 39 50 84 51 78 52 80 53
REMARK SMILES IDX 40 54 83 55 77 56 76 57 41 59 67 60 50 61 66 62 51 63 54 64
REMARK SMILES IDX 65 65 81 66 52 67 53 68 64 70 82 71 55 72 42 73 43 74 48 75
REMARK SMILES IDX 44 76 45 77 47 78 49 79 46 80 68 81 69 82 74 83 70 84 71 85
REMARK SMILES IDX 73 86 75 87 72 88 56 89 57 90 62 91 58 92 59 93 61 94 63 95
REMARK SMILES IDX 60 96
REMARK H PARENT 4 32 80 58 54 69
REMARK Flexibility Score: inf
ROOT
ATOM      1  O   UNL A   1      33.458  25.510  24.933  1.00  0.00    -0.377 OA
ENDROOT
BRANCH   1   2
ATOM      2  C   UNL A   1      33.560  24.409  24.030  1.00  0.00     0.188 C 
BRANCH   2   3
ATOM      3  C   UNL A   1      32.536  23.248  23.989  1.00  0.00     0.188 C 
BRANCH   3   4
ATOM      4  O   UNL A   1      33.046  22.014  24.464  1.00  0.00    -0.376 OA
BRANCH   4   5
ATOM      5  C   UNL A   1      33.569  21.944  25.772  1.00  0.00     0.202 C 
BRANCH   5   6
ATOM      6  C   UNL A   1      35.052  21.570  25.867  1.00  0.00     0.261 C 
BRANCH   6   7
ATOM      7  O   UNL A   1      35.961  22.662  26.054  1.00  0.00    -0.457 OA
BRANCH   7   8
ATOM      8  C   UNL A   1      36.964  22.800  25.139  1.00  0.00     0.374 C 
ATOM      9  O   UNL A   1      36.832  23.270  24.028  1.00  0.00    -0.242 OA
BRANCH   8  10
ATOM     10  C   UNL A   1      38.218  22.463  25.785  1.00  0.00     0.215 A 
ATOM     11  C   UNL A   1      43.616  21.909  26.546  1.00  0.00     0.016 C 
ATOM     12  C   UNL A   1      42.443  21.582  27.126  1.00  0.00     0.001 C 
ATOM     13  C   UNL A   1      41.945  20.144  27.222  1.00  0.00     0.048 C 
ATOM     14  C   UNL A   1      41.414  22.571  27.590  1.00  0.00     0.192 C 
ATOM     15  C   UNL A   1      40.690  19.909  26.344  1.00  0.00     0.081 C 
ATOM     16  C   UNL A   1      40.171  22.365  26.882  1.00  0.00     0.067 A 
ATOM     17  O   UNL A   1      41.589  23.396  28.473  1.00  0.00    -0.289 OA
ATOM     18  C   UNL A   1      39.871  21.145  26.327  1.00  0.00     0.116 A 
ATOM     19  C   UNL A   1      39.074  23.220  26.585  1.00  0.00     0.014 A 
ATOM     20  O   UNL A   1      38.694  21.178  25.669  1.00  0.00    -0.453 OA
ATOM     21  C   UNL A   1      38.911  24.625  27.045  1.00  0.00     0.049 C 
BRANCH  11  22
ATOM     22  C   UNL A   1      44.205  23.208  26.139  1.00  0.00    -0.025 A 
ATOM     23  C   UNL A   1      45.560  25.581  25.341  1.00  0.00     0.041 A 
ATOM     24  C   UNL A   1      44.229  25.367  24.996  1.00  0.00     0.027 A 
ATOM     25  C   UNL A   1      46.202  24.636  26.135  1.00  0.00     0.027 A 
ATOM     26  C   UNL A   1      43.572  24.186  25.369  1.00  0.00     0.010 A 
ATOM     27  C   UNL A   1      45.529  23.469  26.534  1.00  0.00     0.010 A 
BRANCH  23  28
ATOM     28  N   UNL A   1      46.151  26.774  24.902  1.00  0.00    -0.326 N 
ATOM     29  C   UNL A   1      45.317  28.339  26.644  1.00  0.00     0.114 C 
ATOM     30  C   UNL A   1      45.999  28.060  25.331  1.00  0.00     0.221 C 
ATOM     31  O   UNL A   1      46.498  28.975  24.672  1.00  0.00    -0.275 OA
ATOM     32  H   UNL A   1      46.783  26.665  24.155  1.00  0.00     0.169 HD
ENDBRANCH  23  28
ENDBRANCH  11  22
ENDBRANCH   8  10
ENDBRANCH   7   8
ENDBRANCH   6   7
ENDBRANCH   5   6
ENDBRANCH   4   5
ENDBRANCH   3   4
ENDBRANCH   2   3
ENDBRANCH   1   2
BRANCH   1  33
ATOM     33  C   UNL A   1      32.326  25.626  25.781  1.00  0.00     0.188 C 
BRANCH  33  34
ATOM     34  C   UNL A   1      31.607  26.999  25.810  1.00  0.00     0.188 C 
BRANCH  34  35
ATOM     35  O   UNL A   1      32.306  28.016  26.511  1.00  0.00    -0.376 OA
BRANCH  35  36
ATOM     36  C   UNL A   1      31.918  29.377  26.505  1.00  0.00     0.202 C 
BRANCH  36  37
ATOM     37  C   UNL A   1      32.860  30.471  26.993  1.00  0.00     0.261 C 
BRANCH  37  38
ATOM     38  O   UNL A   1      33.845  30.026  27.895  1.00  0.00    -0.460 OA
BRANCH  38  39
ATOM     39  C   UNL A   1      34.950  30.785  27.958  1.00  0.00     0.338 C 
ATOM     40  O   UNL A   1      35.063  31.955  27.643  1.00  0.00    -0.246 OA
BRANCH  39  41
ATOM     41  C   UNL A   1      36.056  29.909  28.370  1.00  0.00     0.060 A 
ATOM     42  C   UNL A   1      36.183  29.775  29.749  1.00  0.00     0.016 A 
ATOM     43  C   UNL A   1      37.140  29.787  27.486  1.00  0.00     0.016 A 
ATOM     44  C   UNL A   1      37.439  29.945  30.263  1.00  0.00     0.010 A 
ATOM     45  C   UNL A   1      38.389  29.993  27.999  1.00  0.00     0.010 A 
ATOM     46  C   UNL A   1      38.490  30.188  29.370  1.00  0.00    -0.014 A 
BRANCH  46  47
ATOM     47  C   UNL A   1      39.741  30.609  29.941  1.00  0.00     0.031 A 
ATOM     48  C   UNL A   1      40.671  29.483  30.110  1.00  0.00     0.074 A 
ATOM     49  C   UNL A   1      40.009  31.894  30.221  1.00  0.00     0.049 A 
ATOM     50  N   UNL A   1      41.059  28.939  31.212  1.00  0.00    -0.248 NA
ATOM     51  C   UNL A   1      41.046  28.745  28.893  1.00  0.00     0.031 C 
ATOM     52  C   UNL A   1      39.274  33.098  29.823  1.00  0.00     0.029 A 
ATOM     53  N   UNL A   1      41.092  32.394  30.866  1.00  0.00    -0.354 N 
ATOM     54  C   UNL A   1      41.904  27.909  30.823  1.00  0.00     0.074 A 
ATOM     55  C   UNL A   1      41.693  27.705  29.415  1.00  0.00     0.031 C 
ATOM     56  C   UNL A   1      40.056  34.182  30.039  1.00  0.00     0.029 A 
ATOM     57  C   UNL A   1      41.277  33.756  30.702  1.00  0.00     0.049 A 
ATOM     58  H   UNL A   1      41.695  31.834  31.406  1.00  0.00     0.167 HD
ATOM     59  C   UNL A   1      42.914  27.498  31.629  1.00  0.00     0.037 A 
ATOM     60  C   UNL A   1      42.413  34.430  31.008  1.00  0.00     0.037 A 
ATOM     61  C   UNL A   1      42.687  27.881  32.998  1.00  0.00     0.049 A 
ATOM     62  C   UNL A   1      43.210  33.572  31.928  1.00  0.00     0.074 A 
ATOM     63  C   UNL A   1      41.696  27.617  33.924  1.00  0.00     0.029 A 
ATOM     64  N   UNL A   1      43.371  28.969  33.483  1.00  0.00    -0.354 N 
ATOM     65  N   UNL A   1      42.866  33.305  33.158  1.00  0.00    -0.248 NA
ATOM     66  C   UNL A   1      44.154  32.635  31.333  1.00  0.00     0.031 C 
ATOM     67  C   UNL A   1      41.544  28.826  34.664  1.00  0.00     0.029 A 
ATOM     68  C   UNL A   1      42.477  29.743  34.178  1.00  0.00     0.049 A 
ATOM     69  H   UNL A   1      44.329  29.159  33.356  1.00  0.00     0.167 HD
ATOM     70  C   UNL A   1      43.210  31.973  33.346  1.00  0.00     0.074 A 
ATOM     71  C   UNL A   1      44.076  31.639  32.220  1.00  0.00     0.031 C 
ATOM     72  C   UNL A   1      42.532  31.186  34.235  1.00  0.00     0.037 A 
BRANCH  59  73
ATOM     73  C   UNL A   1      44.267  27.112  31.095  1.00  0.00     0.057 A 
ATOM     74  C   UNL A   1      44.849  25.911  31.525  1.00  0.00     0.134 A 
ATOM     75  C   UNL A   1      45.136  27.991  30.410  1.00  0.00     0.134 A 
ATOM     76  F   UNL A   1      44.132  25.005  32.206  1.00  0.00    -0.206 F 
ATOM     77  C   UNL A   1      46.209  25.636  31.348  1.00  0.00     0.040 A 
ATOM     78  C   UNL A   1      46.480  27.701  30.177  1.00  0.00     0.040 A 
ATOM     79  F   UNL A   1      44.770  29.218  30.021  1.00  0.00    -0.206 F 
ATOM     80  C   UNL A   1      47.030  26.533  30.676  1.00  0.00     0.006 A 
ENDBRANCH  59  73
BRANCH  60  81
ATOM     81  C   UNL A   1      42.997  35.590  30.302  1.00  0.00     0.057 A 
ATOM     82  C   UNL A   1      43.567  36.657  31.009  1.00  0.00     0.134 A 
ATOM     83  C   UNL A   1      43.246  35.563  28.918  1.00  0.00     0.134 A 
ATOM     84  F   UNL A   1      43.425  36.744  32.340  1.00  0.00    -0.206 F 
ATOM     85  C   UNL A   1      44.352  37.632  30.379  1.00  0.00     0.040 A 
ATOM     86  C   UNL A   1      44.020  36.533  28.276  1.00  0.00     0.040 A 
ATOM     87  F   UNL A   1      42.823  34.544  28.156  1.00  0.00    -0.206 F 
ATOM     88  C   UNL A   1      44.588  37.567  29.009  1.00  0.00     0.006 A 
ENDBRANCH  60  81
BRANCH  72  89
ATOM     89  C   UNL A   1      41.570  31.861  35.172  1.00  0.00     0.057 A 
ATOM     90  C   UNL A   1      40.237  32.153  34.846  1.00  0.00     0.134 A 
ATOM     91  C   UNL A   1      41.959  32.081  36.498  1.00  0.00     0.134 A 
ATOM     92  F   UNL A   1      39.746  31.879  33.630  1.00  0.00    -0.206 F 
ATOM     93  C   UNL A   1      39.345  32.680  35.785  1.00  0.00     0.040 A 
ATOM     94  C   UNL A   1      41.070  32.576  37.454  1.00  0.00     0.040 A 
ATOM     95  F   UNL A   1      43.202  31.770  36.897  1.00  0.00    -0.206 F 
ATOM     96  C   UNL A   1      39.761  32.887  37.097  1.00  0.00     0.006 A 
ENDBRANCH  72  89
ENDBRANCH  46  47
ENDBRANCH  39  41
ENDBRANCH  38  39
ENDBRANCH  37  38
ENDBRANCH  36  37
ENDBRANCH  35  36
ENDBRANCH  34  35
ENDBRANCH  33  34
ENDBRANCH   1  33
TORSDOF 22
ENDMDL
MODEL 2
REMARK VINA RESULT:      -9.2      2.739      7.668
REMARK SMILES CC(=O)Nc1ccc(/C=C2/CCc3oc(C(=O)OCCOCCOCCOCCOC(=O)c4ccc(-c5c6nc(c(-c7c(F)cccc7F)c7ccc([nH]7)c(-c7c(F)cccc7F)c7nc(c(-c8c(F)cccc8F)c8ccc5[nH]8)C=C7)C=C6)cc4)c(C)c3C2=O)cc1
REMARK SMILES IDX 24 1 23 2 22 3 21 4 20 5 19 6 18 7 16 8 17 9 15 10 9 11
REMARK SMILES IDX 10 12 11 13 90 14 12 15 89 16 91 17 13 18 87 19 14 20 88 21
REMARK SMILES IDX 8 22 5 23 6 24 93 25 7 26 92 27 4 28 1 29 2 30 3 31 25 33
REMARK SMILES IDX 26 34 27 35 28 36 29 37 30 38 31 39 32 40 33 41 34 42 86 43
REMARK SMILES IDX 35 44 85 45 36 46 37 47 38 48 79 49 39 50 84 51 78 52 80 53
REMARK SMILES IDX 40 54 83 55 77 56 76 57 41 59 67 60 50 61 66 62 51 63 54 64
REMARK SMILES IDX 65 65 81 66 52 67 53 68 64 70 82 71 55 72 42 73 43 74 48 75
REMARK SMILES IDX 44 76 45 77 47 78 49 79 46 80 68 81 69 82 74 83 70 84 71 85
REMARK SMILES IDX 73 86 75 87 72 88 56 89 57 90 62 91 58 92 59 93 61 94 63 95
REMARK SMILES IDX 60 96
REMARK H PARENT 4 32 80 58 54 69
REMARK Flexibility Score: inf
ROOT
ATOM      1  O   UNL A   1      33.044  30.831  27.169  1.00  0.00    -0.377 OA
ENDROOT
BRANCH   1   2
ATOM      2  C   UNL A   1      33.366  29.595  26.531  1.00  0.00     0.188 C 
BRANCH   2   3
ATOM      3  C   UNL A   1      32.506  28.975  25.402  1.00  0.00     0.188 C 
BRANCH   3   4
ATOM      4  O   UNL A   1      33.196  28.815  24.175  1.00  0.00    -0.376 OA
BRANCH   4   5
ATOM      5  C   UNL A   1      32.461  28.786  22.972  1.00  0.00     0.202 C 
BRANCH   5   6
ATOM      6  C   UNL A   1      31.194  27.924  22.997  1.00  0.00     0.261 C 
BRANCH   6   7
ATOM      7  O   UNL A   1      31.403  26.506  22.984  1.00  0.00    -0.457 OA
BRANCH   7   8
ATOM      8  C   UNL A   1      30.538  25.744  23.714  1.00  0.00     0.374 C 
ATOM      9  O   UNL A   1      29.364  25.997  23.887  1.00  0.00    -0.242 OA
BRANCH   8  10
ATOM     10  C   UNL A   1      31.214  24.513  24.080  1.00  0.00     0.215 A 
ATOM     11  C   UNL A   1      35.241  20.843  24.656  1.00  0.00     0.016 C 
ATOM     12  C   UNL A   1      33.909  20.963  24.826  1.00  0.00     0.001 C 
ATOM     13  C   UNL A   1      32.899  20.215  23.964  1.00  0.00     0.048 C 
ATOM     14  C   UNL A   1      33.249  21.950  25.744  1.00  0.00     0.192 C 
ATOM     15  C   UNL A   1      32.089  21.177  23.057  1.00  0.00     0.081 C 
ATOM     16  C   UNL A   1      32.397  22.840  24.989  1.00  0.00     0.067 A 
ATOM     17  O   UNL A   1      33.378  21.967  26.958  1.00  0.00    -0.289 OA
ATOM     18  C   UNL A   1      31.886  22.460  23.772  1.00  0.00     0.116 A 
ATOM     19  C   UNL A   1      31.919  24.157  25.229  1.00  0.00     0.014 A 
ATOM     20  O   UNL A   1      31.162  23.450  23.210  1.00  0.00    -0.453 OA
ATOM     21  C   UNL A   1      32.149  24.960  26.460  1.00  0.00     0.049 C 
BRANCH  11  22
ATOM     22  C   UNL A   1      36.393  21.606  25.197  1.00  0.00    -0.025 A 
ATOM     23  C   UNL A   1      38.753  22.932  26.079  1.00  0.00     0.041 A 
ATOM     24  C   UNL A   1      37.532  23.599  26.032  1.00  0.00     0.027 A 
ATOM     25  C   UNL A   1      38.787  21.584  25.740  1.00  0.00     0.027 A 
ATOM     26  C   UNL A   1      36.377  22.951  25.574  1.00  0.00     0.010 A 
ATOM     27  C   UNL A   1      37.620  20.929  25.312  1.00  0.00     0.010 A 
BRANCH  23  28
ATOM     28  N   UNL A   1      39.864  23.663  26.521  1.00  0.00    -0.326 N 
ATOM     29  C   UNL A   1      40.955  21.962  27.969  1.00  0.00     0.114 C 
ATOM     30  C   UNL A   1      40.817  23.369  27.452  1.00  0.00     0.221 C 
ATOM     31  O   UNL A   1      41.608  24.249  27.799  1.00  0.00    -0.275 OA
ATOM     32  H   UNL A   1      39.976  24.538  26.085  1.00  0.00     0.169 HD
ENDBRANCH  23  28
ENDBRANCH  11  22
ENDBRANCH   8  10
ENDBRANCH   7   8
ENDBRANCH   6   7
ENDBRANCH   5   6
ENDBRANCH   4   5
ENDBRANCH   3   4
ENDBRANCH   2   3
ENDBRANCH   1   2
BRANCH   1  33
ATOM     33  C   UNL A   1      31.826  31.492  26.859  1.00  0.00     0.188 C 
BRANCH  33  34
ATOM     34  C   UNL A   1      31.854  33.040  26.831  1.00  0.00     0.188 C 
BRANCH  34  35
ATOM     35  O   UNL A   1      32.401  33.641  27.995  1.00  0.00    -0.376 OA
BRANCH  35  36
ATOM     36  C   UNL A   1      33.642  34.321  28.014  1.00  0.00     0.202 C 
BRANCH  36  37
ATOM     37  C   UNL A   1      34.122  35.058  29.259  1.00  0.00     0.261 C 
BRANCH  37  38
ATOM     38  O   UNL A   1      35.085  34.359  30.009  1.00  0.00    -0.460 OA
BRANCH  38  39
ATOM     39  C   UNL A   1      34.607  33.663  31.051  1.00  0.00     0.338 C 
ATOM     40  O   UNL A   1      33.789  34.031  31.874  1.00  0.00    -0.246 OA
BRANCH  39  41
ATOM     41  C   UNL A   1      35.345  32.393  31.101  1.00  0.00     0.060 A 
ATOM     42  C   UNL A   1      35.517  31.894  32.389  1.00  0.00     0.016 A 
ATOM     43  C   UNL A   1      36.240  32.129  30.052  1.00  0.00     0.016 A 
ATOM     44  C   UNL A   1      36.784  31.499  32.723  1.00  0.00     0.010 A 
ATOM     45  C   UNL A   1      37.513  31.771  30.393  1.00  0.00     0.010 A 
ATOM     46  C   UNL A   1      37.781  31.582  31.743  1.00  0.00    -0.014 A 
BRANCH  46  47
ATOM     47  C   UNL A   1      39.138  31.404  32.183  1.00  0.00     0.031 A 
ATOM     48  C   UNL A   1      39.783  32.688  32.498  1.00  0.00     0.074 A 
ATOM     49  C   UNL A   1      39.696  30.192  32.328  1.00  0.00     0.049 A 
ATOM     50  N   UNL A   1      40.724  33.278  31.846  1.00  0.00    -0.248 NA
ATOM     51  C   UNL A   1      39.154  33.504  33.548  1.00  0.00     0.031 C 
ATOM     52  C   UNL A   1      39.054  28.875  32.322  1.00  0.00     0.029 A 
ATOM     53  N   UNL A   1      40.989  29.903  32.616  1.00  0.00    -0.354 N 
ATOM     54  C   UNL A   1      40.950  34.460  32.537  1.00  0.00     0.074 A 
ATOM     55  C   UNL A   1      39.835  34.642  33.428  1.00  0.00     0.031 C 
ATOM     56  C   UNL A   1      39.921  27.961  32.819  1.00  0.00     0.029 A 
ATOM     57  C   UNL A   1      41.202  28.607  33.052  1.00  0.00     0.049 A 
ATOM     58  H   UNL A   1      41.715  30.561  32.521  1.00  0.00     0.167 HD
ATOM     59  C   UNL A   1      42.172  35.047  32.528  1.00  0.00     0.037 A 
ATOM     60  C   UNL A   1      42.335  28.163  33.651  1.00  0.00     0.037 A 
ATOM     61  C   UNL A   1      42.963  34.604  31.409  1.00  0.00     0.049 A 
ATOM     62  C   UNL A   1      43.414  29.144  33.355  1.00  0.00     0.074 A 
ATOM     63  C   UNL A   1      42.808  34.654  30.037  1.00  0.00     0.029 A 
ATOM     64  N   UNL A   1      43.936  33.664  31.642  1.00  0.00    -0.354 N 
ATOM     65  N   UNL A   1      43.938  29.319  32.172  1.00  0.00    -0.248 NA
ATOM     66  C   UNL A   1      43.589  30.258  34.279  1.00  0.00     0.031 C 
ATOM     67  C   UNL A   1      43.351  33.427  29.555  1.00  0.00     0.029 A 
ATOM     68  C   UNL A   1      43.842  32.718  30.652  1.00  0.00     0.049 A 
ATOM     69  H   UNL A   1      44.584  33.667  32.383  1.00  0.00     0.167 HD
ATOM     70  C   UNL A   1      44.135  30.689  32.065  1.00  0.00     0.074 A 
ATOM     71  C   UNL A   1      43.983  31.205  33.423  1.00  0.00     0.031 C 
ATOM     72  C   UNL A   1      44.116  31.313  30.849  1.00  0.00     0.037 A 
BRANCH  59  73
ATOM     73  C   UNL A   1      42.765  35.699  33.748  1.00  0.00     0.057 A 
ATOM     74  C   UNL A   1      42.802  34.980  34.952  1.00  0.00     0.134 A 
ATOM     75  C   UNL A   1      43.036  37.081  33.863  1.00  0.00     0.134 A 
ATOM     76  F   UNL A   1      42.540  33.665  34.975  1.00  0.00    -0.206 F 
ATOM     77  C   UNL A   1      43.023  35.602  36.185  1.00  0.00     0.040 A 
ATOM     78  C   UNL A   1      43.315  37.701  35.081  1.00  0.00     0.040 A 
ATOM     79  F   UNL A   1      42.943  37.928  32.831  1.00  0.00    -0.206 F 
ATOM     80  C   UNL A   1      43.276  36.966  36.253  1.00  0.00     0.006 A 
ENDBRANCH  59  73
BRANCH  60  81
ATOM     81  C   UNL A   1      42.456  27.151  34.722  1.00  0.00     0.057 A 
ATOM     82  C   UNL A   1      41.783  27.302  35.942  1.00  0.00     0.134 A 
ATOM     83  C   UNL A   1      43.024  25.887  34.482  1.00  0.00     0.134 A 
ATOM     84  F   UNL A   1      41.169  28.456  36.241  1.00  0.00    -0.206 F 
ATOM     85  C   UNL A   1      41.668  26.252  36.863  1.00  0.00     0.040 A 
ATOM     86  C   UNL A   1      42.924  24.833  35.396  1.00  0.00     0.040 A 
ATOM     87  F   UNL A   1      43.617  25.602  33.315  1.00  0.00    -0.206 F 
ATOM     88  C   UNL A   1      42.232  25.010  36.587  1.00  0.00     0.006 A 
ENDBRANCH  60  81
BRANCH  72  89
ATOM     89  C   UNL A   1      44.118  30.447  29.620  1.00  0.00     0.057 A 
ATOM     90  C   UNL A   1      45.282  29.921  29.040  1.00  0.00     0.134 A 
ATOM     91  C   UNL A   1      42.897  30.006  29.101  1.00  0.00     0.134 A 
ATOM     92  F   UNL A   1      46.493  30.205  29.536  1.00  0.00    -0.206 F 
ATOM     93  C   UNL A   1      45.232  29.029  27.964  1.00  0.00     0.040 A 
ATOM     94  C   UNL A   1      42.832  29.090  28.048  1.00  0.00     0.040 A 
ATOM     95  F   UNL A   1      41.742  30.422  29.645  1.00  0.00    -0.206 F 
ATOM     96  C   UNL A   1      44.001  28.606  27.470  1.00  0.00     0.006 A 
ENDBRANCH  72  89
ENDBRANCH  46  47
ENDBRANCH  39  41
ENDBRANCH  38  39
ENDBRANCH  37  38
ENDBRANCH  36  37
ENDBRANCH  35  36
ENDBRANCH  34  35
ENDBRANCH  33  34
ENDBRANCH   1  33
TORSDOF 22
ENDMDL
MODEL 3
REMARK VINA RESULT:      -9.1      2.702      5.377
REMARK SMILES CC(=O)Nc1ccc(/C=C2/CCc3oc(C(=O)OCCOCCOCCOCCOC(=O)c4ccc(-c5c6nc(c(-c7c(F)cccc7F)c7ccc([nH]7)c(-c7c(F)cccc7F)c7nc(c(-c8c(F)cccc8F)c8ccc5[nH]8)C=C7)C=C6)cc4)c(C)c3C2=O)cc1
REMARK SMILES IDX 24 1 23 2 22 3 21 4 20 5 19 6 18 7 16 8 17 9 15 10 9 11
REMARK SMILES IDX 10 12 11 13 90 14 12 15 89 16 91 17 13 18 87 19 14 20 88 21
REMARK SMILES IDX 8 22 5 23 6 24 93 25 7 26 92 27 4 28 1 29 2 30 3 31 25 33
REMARK SMILES IDX 26 34 27 35 28 36 29 37 30 38 31 39 32 40 33 41 34 42 86 43
REMARK SMILES IDX 35 44 85 45 36 46 37 47 38 48 79 49 39 50 84 51 78 52 80 53
REMARK SMILES IDX 40 54 83 55 77 56 76 57 41 59 67 60 50 61 66 62 51 63 54 64
REMARK SMILES IDX 65 65 81 66 52 67 53 68 64 70 82 71 55 72 42 73 43 74 48 75
REMARK SMILES IDX 44 76 45 77 47 78 49 79 46 80 68 81 69 82 74 83 70 84 71 85
REMARK SMILES IDX 73 86 75 87 72 88 56 89 57 90 62 91 58 92 59 93 61 94 63 95
REMARK SMILES IDX 60 96
REMARK H PARENT 4 32 80 58 54 69
REMARK Flexibility Score: inf
ROOT
ATOM      1  O   UNL A   1      32.916  30.833  27.131  1.00  0.00    -0.377 OA
ENDROOT
BRANCH   1   2
ATOM      2  C   UNL A   1      33.161  29.567  26.518  1.00  0.00     0.188 C 
BRANCH   2   3
ATOM      3  C   UNL A   1      32.425  29.086  25.243  1.00  0.00     0.188 C 
BRANCH   3   4
ATOM      4  O   UNL A   1      33.285  28.803  24.154  1.00  0.00    -0.376 OA
BRANCH   4   5
ATOM      5  C   UNL A   1      32.771  28.845  22.842  1.00  0.00     0.202 C 
BRANCH   5   6
ATOM      6  C   UNL A   1      31.341  28.319  22.680  1.00  0.00     0.261 C 
BRANCH   6   7
ATOM      7  O   UNL A   1      31.199  26.893  22.661  1.00  0.00    -0.457 OA
BRANCH   7   8
ATOM      8  C   UNL A   1      30.524  26.321  23.701  1.00  0.00     0.374 C 
ATOM      9  O   UNL A   1      29.489  26.741  24.173  1.00  0.00    -0.242 OA
BRANCH   8  10
ATOM     10  C   UNL A   1      31.156  25.052  24.009  1.00  0.00     0.215 A 
ATOM     11  C   UNL A   1      35.059  21.232  24.450  1.00  0.00     0.016 C 
ATOM     12  C   UNL A   1      33.728  21.384  24.602  1.00  0.00     0.001 C 
ATOM     13  C   UNL A   1      32.714  20.716  23.681  1.00  0.00     0.048 C 
ATOM     14  C   UNL A   1      33.080  22.338  25.562  1.00  0.00     0.192 C 
ATOM     15  C   UNL A   1      31.952  21.752  22.815  1.00  0.00     0.081 C 
ATOM     16  C   UNL A   1      32.270  23.294  24.843  1.00  0.00     0.067 A 
ATOM     17  O   UNL A   1      33.185  22.282  26.778  1.00  0.00    -0.289 OA
ATOM     18  C   UNL A   1      31.772  22.999  23.597  1.00  0.00     0.116 A 
ATOM     19  C   UNL A   1      31.827  24.610  25.149  1.00  0.00     0.014 A 
ATOM     20  O   UNL A   1      31.089  24.041  23.079  1.00  0.00    -0.453 OA
ATOM     21  C   UNL A   1      32.057  25.335  26.427  1.00  0.00     0.049 C 
BRANCH  11  22
ATOM     22  C   UNL A   1      36.222  21.927  25.054  1.00  0.00    -0.025 A 
ATOM     23  C   UNL A   1      38.604  23.101  26.081  1.00  0.00     0.041 A 
ATOM     24  C   UNL A   1      37.458  23.866  25.879  1.00  0.00     0.027 A 
ATOM     25  C   UNL A   1      38.545  21.736  25.825  1.00  0.00     0.027 A 
ATOM     26  C   UNL A   1      36.295  23.290  25.350  1.00  0.00     0.010 A 
ATOM     27  C   UNL A   1      37.367  21.157  25.325  1.00  0.00     0.010 A 
BRANCH  23  28
ATOM     28  N   UNL A   1      39.733  23.762  26.585  1.00  0.00    -0.326 N 
ATOM     29  C   UNL A   1      41.496  22.104  26.020  1.00  0.00     0.114 C 
ATOM     30  C   UNL A   1      41.026  23.349  26.721  1.00  0.00     0.221 C 
ATOM     31  O   UNL A   1      41.816  24.051  27.357  1.00  0.00    -0.275 OA
ATOM     32  H   UNL A   1      39.563  24.681  26.894  1.00  0.00     0.169 HD
ENDBRANCH  23  28
ENDBRANCH  11  22
ENDBRANCH   8  10
ENDBRANCH   7   8
ENDBRANCH   6   7
ENDBRANCH   5   6
ENDBRANCH   4   5
ENDBRANCH   3   4
ENDBRANCH   2   3
ENDBRANCH   1   2
BRANCH   1  33
ATOM     33  C   UNL A   1      31.779  31.594  26.753  1.00  0.00     0.188 C 
BRANCH  33  34
ATOM     34  C   UNL A   1      31.889  33.134  26.886  1.00  0.00     0.188 C 
BRANCH  34  35
ATOM     35  O   UNL A   1      32.266  33.590  28.175  1.00  0.00    -0.376 OA
BRANCH  35  36
ATOM     36  C   UNL A   1      33.270  34.562  28.397  1.00  0.00     0.202 C 
BRANCH  36  37
ATOM     37  C   UNL A   1      33.473  35.191  29.771  1.00  0.00     0.261 C 
BRANCH  37  38
ATOM     38  O   UNL A   1      34.544  34.646  30.503  1.00  0.00    -0.460 OA
BRANCH  38  39
ATOM     39  C   UNL A   1      34.199  33.986  31.619  1.00  0.00     0.338 C 
ATOM     40  O   UNL A   1      33.425  34.351  32.485  1.00  0.00    -0.246 OA
BRANCH  39  41
ATOM     41  C   UNL A   1      35.024  32.771  31.679  1.00  0.00     0.060 A 
ATOM     42  C   UNL A   1      35.654  32.580  32.905  1.00  0.00     0.016 A 
ATOM     43  C   UNL A   1      35.547  32.291  30.468  1.00  0.00     0.016 A 
ATOM     44  C   UNL A   1      36.990  32.291  32.863  1.00  0.00     0.010 A 
ATOM     45  C   UNL A   1      36.889  32.038  30.422  1.00  0.00     0.010 A 
ATOM     46  C   UNL A   1      37.600  32.164  31.609  1.00  0.00    -0.014 A 
BRANCH  46  47
ATOM     47  C   UNL A   1      39.036  32.111  31.588  1.00  0.00     0.031 A 
ATOM     48  C   UNL A   1      39.546  30.868  32.188  1.00  0.00     0.074 A 
ATOM     49  C   UNL A   1      39.786  33.075  31.031  1.00  0.00     0.049 A 
ATOM     50  N   UNL A   1      40.173  30.731  33.305  1.00  0.00    -0.248 NA
ATOM     51  C   UNL A   1      39.117  29.607  31.563  1.00  0.00     0.031 C 
ATOM     52  C   UNL A   1      39.369  34.182  30.167  1.00  0.00     0.029 A 
ATOM     53  N   UNL A   1      41.136  33.195  31.057  1.00  0.00    -0.354 N 
ATOM     54  C   UNL A   1      40.403  29.367  33.420  1.00  0.00     0.074 A 
ATOM     55  C   UNL A   1      39.562  28.719  32.449  1.00  0.00     0.031 C 
ATOM     56  C   UNL A   1      40.464  34.714  29.575  1.00  0.00     0.029 A 
ATOM     57  C   UNL A   1      41.650  34.070  30.115  1.00  0.00     0.049 A 
ATOM     58  H   UNL A   1      41.702  32.701  31.693  1.00  0.00     0.167 HD
ATOM     59  C   UNL A   1      41.475  28.899  34.106  1.00  0.00     0.037 A 
ATOM     60  C   UNL A   1      42.956  34.154  29.762  1.00  0.00     0.037 A 
ATOM     61  C   UNL A   1      41.983  29.882  35.027  1.00  0.00     0.049 A 
ATOM     62  C   UNL A   1      43.755  33.499  30.834  1.00  0.00     0.074 A 
ATOM     63  C   UNL A   1      41.451  30.562  36.106  1.00  0.00     0.029 A 
ATOM     64  N   UNL A   1      43.110  30.578  34.666  1.00  0.00    -0.354 N 
ATOM     65  N   UNL A   1      43.901  33.987  32.036  1.00  0.00    -0.248 NA
ATOM     66  C   UNL A   1      44.011  32.070  30.712  1.00  0.00     0.031 C 
ATOM     67  C   UNL A   1      42.015  31.870  36.040  1.00  0.00     0.029 A 
ATOM     68  C   UNL A   1      42.888  31.902  34.952  1.00  0.00     0.049 A 
ATOM     69  H   UNL A   1      43.929  30.198  34.275  1.00  0.00     0.167 HD
ATOM     70  C   UNL A   1      43.856  32.884  32.879  1.00  0.00     0.074 A 
ATOM     71  C   UNL A   1      44.009  31.726  32.003  1.00  0.00     0.031 C 
ATOM     72  C   UNL A   1      43.410  32.996  34.166  1.00  0.00     0.037 A 
BRANCH  59  73
ATOM     73  C   UNL A   1      42.277  27.714  33.642  1.00  0.00     0.057 A 
ATOM     74  C   UNL A   1      42.494  26.650  34.530  1.00  0.00     0.134 A 
ATOM     75  C   UNL A   1      43.074  27.696  32.476  1.00  0.00     0.134 A 
ATOM     76  F   UNL A   1      41.813  26.568  35.683  1.00  0.00    -0.206 F 
ATOM     77  C   UNL A   1      43.479  25.682  34.308  1.00  0.00     0.040 A 
ATOM     78  C   UNL A   1      44.019  26.703  32.217  1.00  0.00     0.040 A 
ATOM     79  F   UNL A   1      43.066  28.686  31.575  1.00  0.00    -0.206 F 
ATOM     80  C   UNL A   1      44.248  25.709  33.152  1.00  0.00     0.006 A 
ENDBRANCH  59  73
BRANCH  60  81
ATOM     81  C   UNL A   1      43.516  34.449  28.426  1.00  0.00     0.057 A 
ATOM     82  C   UNL A   1      43.979  35.731  28.101  1.00  0.00     0.134 A 
ATOM     83  C   UNL A   1      43.853  33.424  27.523  1.00  0.00     0.134 A 
ATOM     84  F   UNL A   1      43.748  36.766  28.923  1.00  0.00    -0.206 F 
ATOM     85  C   UNL A   1      44.745  35.977  26.954  1.00  0.00     0.040 A 
ATOM     86  C   UNL A   1      44.609  33.657  26.371  1.00  0.00     0.040 A 
ATOM     87  F   UNL A   1      43.538  32.146  27.775  1.00  0.00    -0.206 F 
ATOM     88  C   UNL A   1      45.070  34.937  26.089  1.00  0.00     0.006 A 
ENDBRANCH  60  81
BRANCH  72  89
ATOM     89  C   UNL A   1      43.203  34.380  34.715  1.00  0.00     0.057 A 
ATOM     90  C   UNL A   1      42.014  35.111  34.560  1.00  0.00     0.134 A 
ATOM     91  C   UNL A   1      44.176  34.927  35.558  1.00  0.00     0.134 A 
ATOM     92  F   UNL A   1      40.986  34.619  33.856  1.00  0.00    -0.206 F 
ATOM     93  C   UNL A   1      41.823  36.349  35.181  1.00  0.00     0.040 A 
ATOM     94  C   UNL A   1      43.984  36.147  36.211  1.00  0.00     0.040 A 
ATOM     95  F   UNL A   1      45.313  34.256  35.800  1.00  0.00    -0.206 F 
ATOM     96  C   UNL A   1      42.809  36.867  36.016  1.00  0.00     0.006 A 
ENDBRANCH  72  89
ENDBRANCH  46  47
ENDBRANCH  39  41
ENDBRANCH  38  39
ENDBRANCH  37  38
ENDBRANCH  36  37
ENDBRANCH  35  36
ENDBRANCH  34  35
ENDBRANCH  33  34
ENDBRANCH   1  33
TORSDOF 22
ENDMDL
