MODEL 1
REMARK VINA RESULT:     -10.6      0.000      0.000
REMARK SMILES C[C@H](NC(=O)N1CC[C@H](C(=O)OCCOCCOCCOCCOC(=O)c2ccc(-c3c4nc(c(-c5c(F)cccc5F)c5ccc([nH]5)c(-c5c(F)cccc5F)c5nc(c(-c6c(F)cccc6F)c6ccc3[nH]6)C=C5)C=C4)cc2)[C@H]1C)c1ccsc1
REMARK SMILES IDX 17 1 16 2 15 3 14 4 13 5 12 6 10 7 11 8 9 9 6 10 7 11 81 12
REMARK SMILES IDX 8 13 82 14 4 15 3 16 5 18 2 19 1 20 83 21 84 22 87 23 85 24
REMARK SMILES IDX 86 25 18 26 19 27 20 28 21 29 22 30 23 31 24 32 25 33 26 34
REMARK SMILES IDX 27 35 28 36 80 37 29 38 79 39 30 40 31 41 32 42 73 43 33 44
REMARK SMILES IDX 78 45 72 46 74 47 34 48 77 49 71 50 70 51 35 53 61 54 44 55
REMARK SMILES IDX 60 56 45 57 48 58 59 59 75 60 46 61 47 62 58 64 76 65 49 66
REMARK SMILES IDX 36 67 37 68 42 69 38 70 39 71 41 72 43 73 40 74 62 75 63 76
REMARK SMILES IDX 68 77 64 78 65 79 67 80 69 81 66 82 50 83 51 84 56 85 52 86
REMARK SMILES IDX 53 87 55 88 57 89 54 90
REMARK H PARENT 3 17 74 52 48 63
REMARK Flexibility Score: inf
ROOT
ATOM      1  C   UNL A   1      41.069  20.940  27.329  1.00  0.00     0.188 C 
ENDROOT
BRANCH   1   2
ATOM      2  C   UNL A   1      40.315  21.612  26.148  1.00  0.00     0.188 C 
BRANCH   2   3
ATOM      3  O   UNL A   1      38.943  21.250  26.057  1.00  0.00    -0.376 OA
BRANCH   3   4
ATOM      4  C   UNL A   1      38.043  22.199  25.509  1.00  0.00     0.202 C 
BRANCH   4   5
ATOM      5  C   UNL A   1      37.205  21.709  24.321  1.00  0.00     0.261 C 
BRANCH   5   6
ATOM      6  O   UNL A   1      35.782  21.888  24.456  1.00  0.00    -0.463 OA
BRANCH   6   7
ATOM      7  C   UNL A   1      35.186  22.818  23.666  1.00  0.00     0.311 C 
ATOM      8  O   UNL A   1      35.701  23.306  22.673  1.00  0.00    -0.252 OA
BRANCH   7   9
ATOM      9  C   UNL A   1      33.814  23.179  24.228  1.00  0.00     0.123 C 
ATOM     10  N   UNL A   1      32.926  25.309  23.517  1.00  0.00    -0.321 N 
ATOM     11  C   UNL A   1      33.922  25.521  24.557  1.00  0.00     0.122 C 
ATOM     12  C   UNL A   1      32.852  23.868  23.232  1.00  0.00     0.098 C 
ATOM     13  C   UNL A   1      33.941  24.218  25.335  1.00  0.00     0.039 C 
ATOM     14  C   UNL A   1      31.454  23.264  23.384  1.00  0.00     0.032 C 
BRANCH  10  15
ATOM     15  C   UNL A   1      32.894  26.242  22.502  1.00  0.00     0.318 C 
ATOM     16  N   UNL A   1      31.881  27.145  22.484  1.00  0.00    -0.331 N 
ATOM     17  H   UNL A   1      31.929  27.802  21.752  1.00  0.00     0.165 HD
ATOM     18  O   UNL A   1      33.787  26.337  21.663  1.00  0.00    -0.249 OA
BRANCH  16  19
ATOM     19  C   UNL A   1      30.742  27.300  23.366  1.00  0.00     0.112 C 
ATOM     20  C   UNL A   1      31.109  27.506  24.836  1.00  0.00     0.036 C 
BRANCH  19  21
ATOM     21  C   UNL A   1      29.878  28.453  22.897  1.00  0.00    -0.015 A 
ATOM     22  C   UNL A   1      30.358  29.546  22.095  1.00  0.00     0.017 A 
ATOM     23  C   UNL A   1      28.507  28.554  23.075  1.00  0.00     0.070 A 
ATOM     24  C   UNL A   1      29.342  30.348  21.625  1.00  0.00     0.065 A 
ATOM     25  S   UNL A   1      27.816  29.858  22.212  1.00  0.00    -0.152 S 
ENDBRANCH  19  21
ENDBRANCH  16  19
ENDBRANCH  10  15
ENDBRANCH   7   9
ENDBRANCH   6   7
ENDBRANCH   5   6
ENDBRANCH   4   5
ENDBRANCH   3   4
ENDBRANCH   2   3
ENDBRANCH   1   2
BRANCH   1  26
ATOM     26  O   UNL A   1      41.696  19.673  27.200  1.00  0.00    -0.377 OA
BRANCH  26  27
ATOM     27  C   UNL A   1      41.950  19.226  25.882  1.00  0.00     0.188 C 
BRANCH  27  28
ATOM     28  C   UNL A   1      43.431  18.872  25.660  1.00  0.00     0.188 C 
BRANCH  28  29
ATOM     29  O   UNL A   1      44.037  19.500  24.548  1.00  0.00    -0.376 OA
BRANCH  29  30
ATOM     30  C   UNL A   1      44.579  20.808  24.610  1.00  0.00     0.202 C 
BRANCH  30  31
ATOM     31  C   UNL A   1      44.689  21.716  25.853  1.00  0.00     0.261 C 
BRANCH  31  32
ATOM     32  O   UNL A   1      43.742  22.762  26.042  1.00  0.00    -0.460 OA
BRANCH  32  33
ATOM     33  C   UNL A   1      44.035  23.976  25.540  1.00  0.00     0.338 C 
ATOM     34  O   UNL A   1      44.591  24.233  24.486  1.00  0.00    -0.246 OA
BRANCH  33  35
ATOM     35  C   UNL A   1      43.379  24.959  26.424  1.00  0.00     0.060 A 
ATOM     36  C   UNL A   1      43.742  26.311  26.335  1.00  0.00     0.016 A 
ATOM     37  C   UNL A   1      42.357  24.551  27.286  1.00  0.00     0.016 A 
ATOM     38  C   UNL A   1      43.085  27.262  27.112  1.00  0.00     0.010 A 
ATOM     39  C   UNL A   1      41.733  25.496  28.098  1.00  0.00     0.010 A 
ATOM     40  C   UNL A   1      42.112  26.848  28.030  1.00  0.00    -0.014 A 
BRANCH  40  41
ATOM     41  C   UNL A   1      41.671  27.771  29.096  1.00  0.00     0.031 A 
ATOM     42  C   UNL A   1      42.419  27.728  30.397  1.00  0.00     0.074 A 
ATOM     43  C   UNL A   1      40.635  28.608  28.925  1.00  0.00     0.049 A 
ATOM     44  N   UNL A   1      42.157  28.329  31.527  1.00  0.00    -0.248 NA
ATOM     45  C   UNL A   1      43.624  26.881  30.427  1.00  0.00     0.031 C 
ATOM     46  C   UNL A   1      39.875  28.778  27.688  1.00  0.00     0.029 A 
ATOM     47  N   UNL A   1      40.030  29.459  29.815  1.00  0.00    -0.354 N 
ATOM     48  C   UNL A   1      43.158  27.925  32.402  1.00  0.00     0.074 A 
ATOM     49  C   UNL A   1      44.014  27.008  31.684  1.00  0.00     0.031 C 
ATOM     50  C   UNL A   1      38.886  29.663  27.907  1.00  0.00     0.029 A 
ATOM     51  C   UNL A   1      38.919  30.085  29.307  1.00  0.00     0.049 A 
ATOM     52  H   UNL A   1      40.361  29.605  30.731  1.00  0.00     0.167 HD
ATOM     53  C   UNL A   1      43.344  28.288  33.692  1.00  0.00     0.037 A 
ATOM     54  C   UNL A   1      38.017  30.876  29.920  1.00  0.00     0.037 A 
ATOM     55  C   UNL A   1      42.478  29.188  34.402  1.00  0.00     0.049 A 
ATOM     56  C   UNL A   1      38.186  31.185  31.387  1.00  0.00     0.074 A 
ATOM     57  C   UNL A   1      42.574  29.623  35.710  1.00  0.00     0.029 A 
ATOM     58  N   UNL A   1      41.346  29.780  33.861  1.00  0.00    -0.354 N 
ATOM     59  N   UNL A   1      39.138  30.811  32.209  1.00  0.00    -0.248 NA
ATOM     60  C   UNL A   1      37.152  32.021  32.014  1.00  0.00     0.031 C 
ATOM     61  C   UNL A   1      41.469  30.434  35.979  1.00  0.00     0.029 A 
ATOM     62  C   UNL A   1      40.719  30.557  34.819  1.00  0.00     0.049 A 
ATOM     63  H   UNL A   1      41.035  29.665  32.934  1.00  0.00     0.167 HD
ATOM     64  C   UNL A   1      38.841  31.398  33.434  1.00  0.00     0.074 A 
ATOM     65  C   UNL A   1      37.620  32.154  33.248  1.00  0.00     0.031 C 
ATOM     66  C   UNL A   1      39.517  31.322  34.606  1.00  0.00     0.037 A 
BRANCH  53  67
ATOM     67  C   UNL A   1      44.508  27.683  34.417  1.00  0.00     0.057 A 
ATOM     68  C   UNL A   1      44.394  26.486  35.137  1.00  0.00     0.134 A 
ATOM     69  C   UNL A   1      45.766  28.297  34.380  1.00  0.00     0.134 A 
ATOM     70  F   UNL A   1      43.212  25.858  35.229  1.00  0.00    -0.206 F 
ATOM     71  C   UNL A   1      45.483  25.934  35.812  1.00  0.00     0.040 A 
ATOM     72  C   UNL A   1      46.870  27.739  35.026  1.00  0.00     0.040 A 
ATOM     73  F   UNL A   1      45.945  29.445  33.710  1.00  0.00    -0.206 F 
ATOM     74  C   UNL A   1      46.728  26.558  35.751  1.00  0.00     0.006 A 
ENDBRANCH  53  67
BRANCH  54  75
ATOM     75  C   UNL A   1      36.856  31.415  29.166  1.00  0.00     0.057 A 
ATOM     76  C   UNL A   1      35.771  30.599  28.826  1.00  0.00     0.134 A 
ATOM     77  C   UNL A   1      36.817  32.748  28.735  1.00  0.00     0.134 A 
ATOM     78  F   UNL A   1      35.758  29.308  29.188  1.00  0.00    -0.206 F 
ATOM     79  C   UNL A   1      34.701  31.079  28.067  1.00  0.00     0.040 A 
ATOM     80  C   UNL A   1      35.742  33.248  27.999  1.00  0.00     0.040 A 
ATOM     81  F   UNL A   1      37.824  33.583  29.026  1.00  0.00    -0.206 F 
ATOM     82  C   UNL A   1      34.684  32.410  27.655  1.00  0.00     0.006 A 
ENDBRANCH  54  75
BRANCH  66  83
ATOM     83  C   UNL A   1      38.998  32.121  35.767  1.00  0.00     0.057 A 
ATOM     84  C   UNL A   1      38.212  31.546  36.773  1.00  0.00     0.134 A 
ATOM     85  C   UNL A   1      39.360  33.466  35.916  1.00  0.00     0.134 A 
ATOM     86  F   UNL A   1      37.822  30.266  36.685  1.00  0.00    -0.206 F 
ATOM     87  C   UNL A   1      37.795  32.286  37.882  1.00  0.00     0.040 A 
ATOM     88  C   UNL A   1      38.975  34.207  37.034  1.00  0.00     0.040 A 
ATOM     89  F   UNL A   1      40.121  34.074  34.994  1.00  0.00    -0.206 F 
ATOM     90  C   UNL A   1      38.186  33.617  38.019  1.00  0.00     0.006 A 
ENDBRANCH  66  83
ENDBRANCH  40  41
ENDBRANCH  33  35
ENDBRANCH  32  33
ENDBRANCH  31  32
ENDBRANCH  30  31
ENDBRANCH  29  30
ENDBRANCH  28  29
ENDBRANCH  27  28
ENDBRANCH  26  27
ENDBRANCH   1  26
TORSDOF 23
ENDMDL
MODEL 2
REMARK VINA RESULT:     -10.1      4.236      9.647
REMARK SMILES C[C@H](NC(=O)N1CC[C@H](C(=O)OCCOCCOCCOCCOC(=O)c2ccc(-c3c4nc(c(-c5c(F)cccc5F)c5ccc([nH]5)c(-c5c(F)cccc5F)c5nc(c(-c6c(F)cccc6F)c6ccc3[nH]6)C=C5)C=C4)cc2)[C@H]1C)c1ccsc1
REMARK SMILES IDX 17 1 16 2 15 3 14 4 13 5 12 6 10 7 11 8 9 9 6 10 7 11 81 12
REMARK SMILES IDX 8 13 82 14 4 15 3 16 5 18 2 19 1 20 83 21 84 22 87 23 85 24
REMARK SMILES IDX 86 25 18 26 19 27 20 28 21 29 22 30 23 31 24 32 25 33 26 34
REMARK SMILES IDX 27 35 28 36 80 37 29 38 79 39 30 40 31 41 32 42 73 43 33 44
REMARK SMILES IDX 78 45 72 46 74 47 34 48 77 49 71 50 70 51 35 53 61 54 44 55
REMARK SMILES IDX 60 56 45 57 48 58 59 59 75 60 46 61 47 62 58 64 76 65 49 66
REMARK SMILES IDX 36 67 37 68 42 69 38 70 39 71 41 72 43 73 40 74 62 75 63 76
REMARK SMILES IDX 68 77 64 78 65 79 67 80 69 81 66 82 50 83 51 84 56 85 52 86
REMARK SMILES IDX 53 87 55 88 57 89 54 90
REMARK H PARENT 3 17 74 52 48 63
REMARK Flexibility Score: inf
ROOT
ATOM      1  C   UNL A   1      34.307  31.458  28.043  1.00  0.00     0.188 C 
ENDROOT
BRANCH   1   2
ATOM      2  C   UNL A   1      33.748  30.236  27.263  1.00  0.00     0.188 C 
BRANCH   2   3
ATOM      3  O   UNL A   1      32.329  30.151  27.262  1.00  0.00    -0.376 OA
BRANCH   3   4
ATOM      4  C   UNL A   1      31.742  28.863  27.361  1.00  0.00     0.202 C 
BRANCH   4   5
ATOM      5  C   UNL A   1      31.691  28.056  26.058  1.00  0.00     0.261 C 
BRANCH   5   6
ATOM      6  O   UNL A   1      32.514  26.874  26.034  1.00  0.00    -0.463 OA
BRANCH   6   7
ATOM      7  C   UNL A   1      31.888  25.670  25.970  1.00  0.00     0.311 C 
ATOM      8  O   UNL A   1      30.958  25.343  26.689  1.00  0.00    -0.252 OA
BRANCH   7   9
ATOM      9  C   UNL A   1      32.547  24.795  24.909  1.00  0.00     0.123 C 
ATOM     10  N   UNL A   1      33.512  22.733  25.713  1.00  0.00    -0.321 N 
ATOM     11  C   UNL A   1      34.406  23.840  26.019  1.00  0.00     0.122 C 
ATOM     12  C   UNL A   1      32.308  23.275  25.065  1.00  0.00     0.098 C 
ATOM     13  C   UNL A   1      34.065  24.900  24.988  1.00  0.00     0.039 C 
ATOM     14  C   UNL A   1      32.003  22.670  23.693  1.00  0.00     0.032 C 
BRANCH  10  15
ATOM     15  C   UNL A   1      33.427  21.736  26.662  1.00  0.00     0.318 C 
ATOM     16  N   UNL A   1      33.770  20.472  26.306  1.00  0.00    -0.331 N 
ATOM     17  H   UNL A   1      33.716  19.811  27.033  1.00  0.00     0.165 HD
ATOM     18  O   UNL A   1      33.130  21.961  27.833  1.00  0.00    -0.249 OA
BRANCH  16  19
ATOM     19  C   UNL A   1      34.205  19.938  25.030  1.00  0.00     0.112 C 
ATOM     20  C   UNL A   1      35.713  20.025  24.793  1.00  0.00     0.036 C 
BRANCH  19  21
ATOM     21  C   UNL A   1      33.756  18.497  24.893  1.00  0.00    -0.015 A 
ATOM     22  C   UNL A   1      34.364  17.546  24.002  1.00  0.00     0.017 A 
ATOM     23  C   UNL A   1      32.792  17.878  25.672  1.00  0.00     0.070 A 
ATOM     24  C   UNL A   1      33.918  16.259  24.213  1.00  0.00     0.065 A 
ATOM     25  S   UNL A   1      32.707  16.191  25.413  1.00  0.00    -0.152 S 
ENDBRANCH  19  21
ENDBRANCH  16  19
ENDBRANCH  10  15
ENDBRANCH   7   9
ENDBRANCH   6   7
ENDBRANCH   5   6
ENDBRANCH   4   5
ENDBRANCH   3   4
ENDBRANCH   2   3
ENDBRANCH   1   2
BRANCH   1  26
ATOM     26  O   UNL A   1      35.693  31.614  28.307  1.00  0.00    -0.377 OA
BRANCH  26  27
ATOM     27  C   UNL A   1      36.181  32.941  28.354  1.00  0.00     0.188 C 
BRANCH  27  28
ATOM     28  C   UNL A   1      35.120  33.969  27.924  1.00  0.00     0.188 C 
BRANCH  28  29
ATOM     29  O   UNL A   1      34.642  34.805  28.959  1.00  0.00    -0.376 OA
BRANCH  29  30
ATOM     30  C   UNL A   1      33.347  35.380  28.942  1.00  0.00     0.202 C 
BRANCH  30  31
ATOM     31  C   UNL A   1      32.797  36.471  29.884  1.00  0.00     0.261 C 
BRANCH  31  32
ATOM     32  O   UNL A   1      33.306  36.573  31.210  1.00  0.00    -0.460 OA
BRANCH  32  33
ATOM     33  C   UNL A   1      32.834  35.715  32.134  1.00  0.00     0.338 C 
ATOM     34  O   UNL A   1      31.670  35.473  32.402  1.00  0.00    -0.246 OA
BRANCH  33  35
ATOM     35  C   UNL A   1      34.003  34.967  32.638  1.00  0.00     0.060 A 
ATOM     36  C   UNL A   1      35.279  35.537  32.532  1.00  0.00     0.016 A 
ATOM     37  C   UNL A   1      33.823  33.739  33.280  1.00  0.00     0.016 A 
ATOM     38  C   UNL A   1      36.384  34.879  33.065  1.00  0.00     0.010 A 
ATOM     39  C   UNL A   1      34.934  33.057  33.770  1.00  0.00     0.010 A 
ATOM     40  C   UNL A   1      36.220  33.614  33.642  1.00  0.00    -0.014 A 
BRANCH  40  41
ATOM     41  C   UNL A   1      37.399  32.758  33.881  1.00  0.00     0.031 A 
ATOM     42  C   UNL A   1      38.185  33.004  35.137  1.00  0.00     0.074 A 
ATOM     43  C   UNL A   1      37.774  31.806  33.010  1.00  0.00     0.049 A 
ATOM     44  N   UNL A   1      39.324  32.491  35.519  1.00  0.00    -0.248 NA
ATOM     45  C   UNL A   1      37.606  33.969  36.087  1.00  0.00     0.031 C 
ATOM     46  C   UNL A   1      37.055  31.440  31.792  1.00  0.00     0.029 A 
ATOM     47  N   UNL A   1      38.874  30.988  33.015  1.00  0.00    -0.354 N 
ATOM     48  C   UNL A   1      39.601  33.079  36.747  1.00  0.00     0.074 A 
ATOM     49  C   UNL A   1      38.529  34.005  37.033  1.00  0.00     0.031 C 
ATOM     50  C   UNL A   1      37.750  30.483  31.151  1.00  0.00     0.029 A 
ATOM     51  C   UNL A   1      38.979  30.204  31.893  1.00  0.00     0.049 A 
ATOM     52  H   UNL A   1      39.526  30.965  33.752  1.00  0.00     0.167 HD
ATOM     53  C   UNL A   1      40.658  32.863  37.563  1.00  0.00     0.037 A 
ATOM     54  C   UNL A   1      39.977  29.388  31.500  1.00  0.00     0.037 A 
ATOM     55  C   UNL A   1      41.728  31.952  37.261  1.00  0.00     0.049 A 
ATOM     56  C   UNL A   1      41.197  29.241  32.376  1.00  0.00     0.074 A 
ATOM     57  C   UNL A   1      42.847  31.657  38.017  1.00  0.00     0.029 A 
ATOM     58  N   UNL A   1      41.813  31.197  36.101  1.00  0.00    -0.354 N 
ATOM     59  N   UNL A   1      41.451  29.788  33.541  1.00  0.00    -0.248 NA
ATOM     60  C   UNL A   1      42.270  28.367  31.881  1.00  0.00     0.031 C 
ATOM     61  C   UNL A   1      43.639  30.766  37.289  1.00  0.00     0.029 A 
ATOM     62  C   UNL A   1      42.981  30.456  36.108  1.00  0.00     0.049 A 
ATOM     63  H   UNL A   1      41.143  31.189  35.380  1.00  0.00     0.167 HD
ATOM     64  C   UNL A   1      42.690  29.295  33.935  1.00  0.00     0.074 A 
ATOM     65  C   UNL A   1      43.135  28.403  32.885  1.00  0.00     0.031 C 
ATOM     66  C   UNL A   1      43.394  29.554  35.064  1.00  0.00     0.037 A 
BRANCH  53  67
ATOM     67  C   UNL A   1      40.719  33.653  38.836  1.00  0.00     0.057 A 
ATOM     68  C   UNL A   1      41.536  34.783  38.970  1.00  0.00     0.134 A 
ATOM     69  C   UNL A   1      39.935  33.287  39.937  1.00  0.00     0.134 A 
ATOM     70  F   UNL A   1      42.327  35.174  37.960  1.00  0.00    -0.206 F 
ATOM     71  C   UNL A   1      41.588  35.508  40.162  1.00  0.00     0.040 A 
ATOM     72  C   UNL A   1      39.956  34.021  41.123  1.00  0.00     0.040 A 
ATOM     73  F   UNL A   1      39.132  32.215  39.876  1.00  0.00    -0.206 F 
ATOM     74  C   UNL A   1      40.790  35.131  41.240  1.00  0.00     0.006 A 
ENDBRANCH  53  67
BRANCH  54  75
ATOM     75  C   UNL A   1      39.887  28.661  30.207  1.00  0.00     0.057 A 
ATOM     76  C   UNL A   1      39.247  27.419  30.117  1.00  0.00     0.134 A 
ATOM     77  C   UNL A   1      40.469  29.170  29.039  1.00  0.00     0.134 A 
ATOM     78  F   UNL A   1      38.690  26.867  31.204  1.00  0.00    -0.206 F 
ATOM     79  C   UNL A   1      39.208  26.699  28.921  1.00  0.00     0.040 A 
ATOM     80  C   UNL A   1      40.414  28.474  27.830  1.00  0.00     0.040 A 
ATOM     81  F   UNL A   1      41.098  30.353  29.055  1.00  0.00    -0.206 F 
ATOM     82  C   UNL A   1      39.790  27.230  27.771  1.00  0.00     0.006 A 
ENDBRANCH  54  75
BRANCH  66  83
ATOM     83  C   UNL A   1      44.691  28.821  35.262  1.00  0.00     0.057 A 
ATOM     84  C   UNL A   1      44.750  27.571  35.889  1.00  0.00     0.134 A 
ATOM     85  C   UNL A   1      45.883  29.343  34.743  1.00  0.00     0.134 A 
ATOM     86  F   UNL A   1      43.647  27.021  36.417  1.00  0.00    -0.206 F 
ATOM     87  C   UNL A   1      45.953  26.872  36.004  1.00  0.00     0.040 A 
ATOM     88  C   UNL A   1      47.086  28.641  34.825  1.00  0.00     0.040 A 
ATOM     89  F   UNL A   1      45.893  30.531  34.120  1.00  0.00    -0.206 F 
ATOM     90  C   UNL A   1      47.123  27.402  35.461  1.00  0.00     0.006 A 
ENDBRANCH  66  83
ENDBRANCH  40  41
ENDBRANCH  33  35
ENDBRANCH  32  33
ENDBRANCH  31  32
ENDBRANCH  30  31
ENDBRANCH  29  30
ENDBRANCH  28  29
ENDBRANCH  27  28
ENDBRANCH  26  27
ENDBRANCH   1  26
TORSDOF 23
ENDMDL
MODEL 3
REMARK VINA RESULT:      -9.2      4.077      9.450
REMARK SMILES C[C@H](NC(=O)N1CC[C@H](C(=O)OCCOCCOCCOCCOC(=O)c2ccc(-c3c4nc(c(-c5c(F)cccc5F)c5ccc([nH]5)c(-c5c(F)cccc5F)c5nc(c(-c6c(F)cccc6F)c6ccc3[nH]6)C=C5)C=C4)cc2)[C@H]1C)c1ccsc1
REMARK SMILES IDX 17 1 16 2 15 3 14 4 13 5 12 6 10 7 11 8 9 9 6 10 7 11 81 12
REMARK SMILES IDX 8 13 82 14 4 15 3 16 5 18 2 19 1 20 83 21 84 22 87 23 85 24
REMARK SMILES IDX 86 25 18 26 19 27 20 28 21 29 22 30 23 31 24 32 25 33 26 34
REMARK SMILES IDX 27 35 28 36 80 37 29 38 79 39 30 40 31 41 32 42 73 43 33 44
REMARK SMILES IDX 78 45 72 46 74 47 34 48 77 49 71 50 70 51 35 53 61 54 44 55
REMARK SMILES IDX 60 56 45 57 48 58 59 59 75 60 46 61 47 62 58 64 76 65 49 66
REMARK SMILES IDX 36 67 37 68 42 69 38 70 39 71 41 72 43 73 40 74 62 75 63 76
REMARK SMILES IDX 68 77 64 78 65 79 67 80 69 81 66 82 50 83 51 84 56 85 52 86
REMARK SMILES IDX 53 87 55 88 57 89 54 90
REMARK H PARENT 3 17 74 52 48 63
REMARK Flexibility Score: inf
ROOT
ATOM      1  C   UNL A   1      34.451  30.317  26.966  1.00  0.00     0.188 C 
ENDROOT
BRANCH   1   2
ATOM      2  C   UNL A   1      33.741  29.058  26.395  1.00  0.00     0.188 C 
BRANCH   2   3
ATOM      3  O   UNL A   1      32.908  29.323  25.275  1.00  0.00    -0.376 OA
BRANCH   3   4
ATOM      4  C   UNL A   1      31.546  28.934  25.355  1.00  0.00     0.202 C 
BRANCH   4   5
ATOM      5  C   UNL A   1      30.986  28.219  24.119  1.00  0.00     0.261 C 
BRANCH   5   6
ATOM      6  O   UNL A   1      31.180  26.792  24.093  1.00  0.00    -0.463 OA
BRANCH   6   7
ATOM      7  C   UNL A   1      30.523  26.049  25.020  1.00  0.00     0.311 C 
ATOM      8  O   UNL A   1      29.312  26.059  25.173  1.00  0.00    -0.252 OA
BRANCH   7   9
ATOM      9  C   UNL A   1      31.520  25.248  25.851  1.00  0.00     0.123 C 
ATOM     10  N   UNL A   1      32.243  23.158  24.882  1.00  0.00    -0.321 N 
ATOM     11  C   UNL A   1      30.918  22.992  25.462  1.00  0.00     0.122 C 
ATOM     12  C   UNL A   1      32.649  24.562  25.048  1.00  0.00     0.098 C 
ATOM     13  C   UNL A   1      30.834  24.068  26.529  1.00  0.00     0.039 C 
ATOM     14  C   UNL A   1      33.978  24.751  25.784  1.00  0.00     0.032 C 
BRANCH  10  15
ATOM     15  C   UNL A   1      32.484  22.477  23.707  1.00  0.00     0.318 C 
ATOM     16  N   UNL A   1      33.178  21.312  23.765  1.00  0.00    -0.331 N 
ATOM     17  H   UNL A   1      33.294  20.859  22.899  1.00  0.00     0.165 HD
ATOM     18  O   UNL A   1      32.029  22.842  22.625  1.00  0.00    -0.249 OA
BRANCH  16  19
ATOM     19  C   UNL A   1      33.775  20.626  24.893  1.00  0.00     0.112 C 
ATOM     20  C   UNL A   1      33.341  19.168  25.044  1.00  0.00     0.036 C 
BRANCH  19  21
ATOM     21  C   UNL A   1      35.286  20.695  24.801  1.00  0.00    -0.015 A 
ATOM     22  C   UNL A   1      36.032  21.920  24.702  1.00  0.00     0.017 A 
ATOM     23  C   UNL A   1      36.147  19.615  24.911  1.00  0.00     0.070 A 
ATOM     24  C   UNL A   1      37.389  21.730  24.843  1.00  0.00     0.065 A 
ATOM     25  S   UNL A   1      37.790  20.079  25.004  1.00  0.00    -0.152 S 
ENDBRANCH  19  21
ENDBRANCH  16  19
ENDBRANCH  10  15
ENDBRANCH   7   9
ENDBRANCH   6   7
ENDBRANCH   5   6
ENDBRANCH   4   5
ENDBRANCH   3   4
ENDBRANCH   2   3
ENDBRANCH   1   2
BRANCH   1  26
ATOM     26  O   UNL A   1      35.251  30.266  28.137  1.00  0.00    -0.377 OA
BRANCH  26  27
ATOM     27  C   UNL A   1      35.810  31.490  28.574  1.00  0.00     0.188 C 
BRANCH  27  28
ATOM     28  C   UNL A   1      35.049  32.709  28.023  1.00  0.00     0.188 C 
BRANCH  28  29
ATOM     29  O   UNL A   1      34.710  33.688  28.984  1.00  0.00    -0.376 OA
BRANCH  29  30
ATOM     30  C   UNL A   1      33.402  34.219  29.107  1.00  0.00     0.202 C 
BRANCH  30  31
ATOM     31  C   UNL A   1      33.011  35.656  29.512  1.00  0.00     0.261 C 
BRANCH  31  32
ATOM     32  O   UNL A   1      33.438  36.169  30.770  1.00  0.00    -0.460 OA
BRANCH  32  33
ATOM     33  C   UNL A   1      32.999  35.554  31.884  1.00  0.00     0.338 C 
ATOM     34  O   UNL A   1      31.849  35.452  32.276  1.00  0.00    -0.246 OA
BRANCH  33  35
ATOM     35  C   UNL A   1      34.164  34.849  32.454  1.00  0.00     0.060 A 
ATOM     36  C   UNL A   1      35.447  35.383  32.267  1.00  0.00     0.016 A 
ATOM     37  C   UNL A   1      33.975  33.704  33.232  1.00  0.00     0.016 A 
ATOM     38  C   UNL A   1      36.550  34.771  32.857  1.00  0.00     0.010 A 
ATOM     39  C   UNL A   1      35.085  33.064  33.782  1.00  0.00     0.010 A 
ATOM     40  C   UNL A   1      36.376  33.582  33.574  1.00  0.00    -0.014 A 
BRANCH  40  41
ATOM     41  C   UNL A   1      37.546  32.739  33.893  1.00  0.00     0.031 A 
ATOM     42  C   UNL A   1      38.288  33.044  35.163  1.00  0.00     0.074 A 
ATOM     43  C   UNL A   1      37.950  31.750  33.080  1.00  0.00     0.049 A 
ATOM     44  N   UNL A   1      39.413  32.550  35.607  1.00  0.00    -0.248 NA
ATOM     45  C   UNL A   1      37.677  34.050  36.047  1.00  0.00     0.031 C 
ATOM     46  C   UNL A   1      37.274  31.327  31.856  1.00  0.00     0.029 A 
ATOM     47  N   UNL A   1      39.050  30.934  33.160  1.00  0.00    -0.354 N 
ATOM     48  C   UNL A   1      39.648  33.194  36.815  1.00  0.00     0.074 A 
ATOM     49  C   UNL A   1      38.566  34.131  37.022  1.00  0.00     0.031 C 
ATOM     50  C   UNL A   1      37.991  30.343  31.284  1.00  0.00     0.029 A 
ATOM     51  C   UNL A   1      39.194  30.100  32.079  1.00  0.00     0.049 A 
ATOM     52  H   UNL A   1      39.676  30.946  33.920  1.00  0.00     0.167 HD
ATOM     53  C   UNL A   1      40.676  33.017  37.676  1.00  0.00     0.037 A 
ATOM     54  C   UNL A   1      40.204  29.268  31.759  1.00  0.00     0.037 A 
ATOM     55  C   UNL A   1      41.755  32.095  37.454  1.00  0.00     0.049 A 
ATOM     56  C   UNL A   1      41.393  29.163  32.682  1.00  0.00     0.074 A 
ATOM     57  C   UNL A   1      42.848  31.837  38.260  1.00  0.00     0.029 A 
ATOM     58  N   UNL A   1      41.880  31.288  36.333  1.00  0.00    -0.354 N 
ATOM     59  N   UNL A   1      41.607  29.764  33.828  1.00  0.00    -0.248 NA
ATOM     60  C   UNL A   1      42.483  28.269  32.265  1.00  0.00     0.031 C 
ATOM     61  C   UNL A   1      43.665  30.915  37.602  1.00  0.00     0.029 A 
ATOM     62  C   UNL A   1      43.048  30.550  36.414  1.00  0.00     0.049 A 
ATOM     63  H   UNL A   1      41.236  31.246  35.590  1.00  0.00     0.167 HD
ATOM     64  C   UNL A   1      42.832  29.291  34.287  1.00  0.00     0.074 A 
ATOM     65  C   UNL A   1      43.313  28.353  33.295  1.00  0.00     0.031 C 
ATOM     66  C   UNL A   1      43.497  29.602  35.427  1.00  0.00     0.037 A 
BRANCH  53  67
ATOM     67  C   UNL A   1      40.693  33.865  38.913  1.00  0.00     0.057 A 
ATOM     68  C   UNL A   1      41.365  35.093  38.963  1.00  0.00     0.134 A 
ATOM     69  C   UNL A   1      40.013  33.453  40.066  1.00  0.00     0.134 A 
ATOM     70  F   UNL A   1      42.054  35.535  37.900  1.00  0.00    -0.206 F 
ATOM     71  C   UNL A   1      41.378  35.871  40.122  1.00  0.00     0.040 A 
ATOM     72  C   UNL A   1      39.993  34.236  41.220  1.00  0.00     0.040 A 
ATOM     73  F   UNL A   1      39.350  32.287  40.086  1.00  0.00    -0.206 F 
ATOM     74  C   UNL A   1      40.683  35.446  41.252  1.00  0.00     0.006 A 
ENDBRANCH  53  67
BRANCH  54  75
ATOM     75  C   UNL A   1      40.159  28.483  30.498  1.00  0.00     0.057 A 
ATOM     76  C   UNL A   1      40.897  28.873  29.375  1.00  0.00     0.134 A 
ATOM     77  C   UNL A   1      39.350  27.346  30.371  1.00  0.00     0.134 A 
ATOM     78  F   UNL A   1      41.672  29.967  29.424  1.00  0.00    -0.206 F 
ATOM     79  C   UNL A   1      40.817  28.178  28.166  1.00  0.00     0.040 A 
ATOM     80  C   UNL A   1      39.282  26.625  29.178  1.00  0.00     0.040 A 
ATOM     81  F   UNL A   1      38.617  26.917  31.408  1.00  0.00    -0.206 F 
ATOM     82  C   UNL A   1      40.010  27.047  28.068  1.00  0.00     0.006 A 
ENDBRANCH  54  75
BRANCH  66  83
ATOM     83  C   UNL A   1      44.786  28.881  35.703  1.00  0.00     0.057 A 
ATOM     84  C   UNL A   1      46.025  29.395  35.304  1.00  0.00     0.134 A 
ATOM     85  C   UNL A   1      44.785  27.696  36.451  1.00  0.00     0.134 A 
ATOM     86  F   UNL A   1      46.094  30.519  34.577  1.00  0.00    -0.206 F 
ATOM     87  C   UNL A   1      47.219  28.748  35.630  1.00  0.00     0.040 A 
ATOM     88  C   UNL A   1      45.973  27.057  36.808  1.00  0.00     0.040 A 
ATOM     89  F   UNL A   1      43.632  27.158  36.875  1.00  0.00    -0.206 F 
ATOM     90  C   UNL A   1      47.195  27.582  36.393  1.00  0.00     0.006 A 
ENDBRANCH  66  83
ENDBRANCH  40  41
ENDBRANCH  33  35
ENDBRANCH  32  33
ENDBRANCH  31  32
ENDBRANCH  30  31
ENDBRANCH  29  30
ENDBRANCH  28  29
ENDBRANCH  27  28
ENDBRANCH  26  27
ENDBRANCH   1  26
TORSDOF 23
ENDMDL
