MODEL 1
REMARK VINA RESULT:      -9.5      0.000      0.000
REMARK SMILES O=C(CCOc1cccc(/C=C2\CCn3c2nc2cc(Cl)ccc2c3=O)c1)OCCOCCOCCOCCOC(=O)c1ccc(-c2c3nc(c(-c4c(F)cccc4F)c4ccc([nH]4)c(-c4c(F)cccc4F)c4nc(c(-c5c(F)cccc5F)c5ccc2[nH]5)C=C4)C=C3)cc1
REMARK SMILES IDX 33 1 32 2 31 3 30 4 29 5 28 6 2 7 1 8 3 9 4 10 5 11 6 12
REMARK SMILES IDX 7 13 27 14 8 15 10 16 9 17 11 18 12 19 13 20 16 21 14 22
REMARK SMILES IDX 15 23 17 24 25 25 18 26 24 27 26 28 19 29 23 30 20 31 22 32
REMARK SMILES IDX 21 33 34 34 35 35 36 36 37 37 38 38 39 39 40 40 41 41 42 42
REMARK SMILES IDX 43 43 44 44 96 45 45 46 95 47 46 48 47 49 48 50 89 51 49 52
REMARK SMILES IDX 94 53 88 54 90 55 50 56 93 57 87 58 86 59 51 61 77 62 60 63
REMARK SMILES IDX 76 64 61 65 64 66 75 67 91 68 62 69 63 70 74 72 92 73 65 74
REMARK SMILES IDX 52 75 53 76 58 77 54 78 55 79 57 80 59 81 56 82 78 83 79 84
REMARK SMILES IDX 84 85 80 86 81 87 83 88 85 89 82 90 66 91 67 92 72 93 68 94
REMARK SMILES IDX 69 95 71 96 73 97 70 98
REMARK H PARENT 90 60 64 71
REMARK Flexibility Score: inf
ROOT
ATOM      1  C   UNL A   1      43.147  43.483  23.069  1.00  0.00     0.188 C 
ENDROOT
BRANCH   1   2
ATOM      2  C   UNL A   1      43.682  43.626  21.632  1.00  0.00     0.188 C 
BRANCH   2   3
ATOM      3  O   UNL A   1      43.201  42.799  20.566  1.00  0.00    -0.376 OA
BRANCH   3   4
ATOM      4  C   UNL A   1      41.819  42.828  20.239  1.00  0.00     0.202 C 
BRANCH   4   5
ATOM      5  C   UNL A   1      41.507  43.673  18.995  1.00  0.00     0.261 C 
BRANCH   5   6
ATOM      6  O   UNL A   1      42.677  44.179  18.320  1.00  0.00    -0.463 OA
BRANCH   6   7
ATOM      7  C   UNL A   1      42.748  44.373  16.985  1.00  0.00     0.309 C 
ATOM      8  O   UNL A   1      43.403  43.604  16.282  1.00  0.00    -0.252 OA
BRANCH   7   9
ATOM      9  C   UNL A   1      41.933  45.472  16.368  1.00  0.00     0.164 C 
BRANCH   9  10
ATOM     10  C   UNL A   1      41.894  46.694  17.271  1.00  0.00     0.241 C 
BRANCH  10  11
ATOM     11  O   UNL A   1      42.524  47.839  16.692  1.00  0.00    -0.493 OA
BRANCH  11  12
ATOM     12  C   UNL A   1      43.423  48.570  17.419  1.00  0.00     0.119 A 
ATOM     13  C   UNL A   1      44.030  49.594  16.693  1.00  0.00     0.046 A 
ATOM     14  C   UNL A   1      43.839  48.323  18.734  1.00  0.00     0.054 A 
ATOM     15  C   UNL A   1      45.047  50.347  17.264  1.00  0.00     0.004 A 
ATOM     16  C   UNL A   1      44.938  49.003  19.299  1.00  0.00    -0.022 A 
ATOM     17  C   UNL A   1      45.498  50.046  18.551  1.00  0.00     0.008 A 
BRANCH  16  18
ATOM     18  C   UNL A   1      45.572  48.380  20.499  1.00  0.00     0.015 C 
ATOM     19  C   UNL A   1      46.881  48.161  20.745  1.00  0.00    -0.003 C 
ATOM     20  C   UNL A   1      48.134  48.650  20.087  1.00  0.00     0.061 C 
ATOM     21  C   UNL A   1      47.158  46.708  21.003  1.00  0.00     0.139 A 
ATOM     22  C   UNL A   1      48.452  47.464  19.189  1.00  0.00     0.132 C 
ATOM     23  N   UNL A   1      47.945  46.330  19.925  1.00  0.00    -0.292 N 
ATOM     24  N   UNL A   1      46.741  45.899  21.912  1.00  0.00    -0.230 NA
ATOM     25  C   UNL A   1      47.911  45.047  19.461  1.00  0.00     0.261 A 
ATOM     26  C   UNL A   1      47.080  44.538  21.722  1.00  0.00     0.080 A 
ATOM     27  C   UNL A   1      47.521  44.064  20.482  1.00  0.00     0.066 A 
ATOM     28  O   UNL A   1      48.153  44.708  18.311  1.00  0.00    -0.269 OA
ATOM     29  C   UNL A   1      46.922  43.613  22.755  1.00  0.00     0.049 A 
ATOM     30  C   UNL A   1      47.681  42.705  20.228  1.00  0.00     0.017 A 
ATOM     31  C   UNL A   1      47.143  42.250  22.519  1.00  0.00     0.043 A 
ATOM     32  C   UNL A   1      47.484  41.786  21.249  1.00  0.00     0.021 A 
ATOM     33  Cl  UNL A   1      46.991  41.116  23.804  1.00  0.00    -0.084 Cl
ENDBRANCH  16  18
ENDBRANCH  11  12
ENDBRANCH  10  11
ENDBRANCH   9  10
ENDBRANCH   7   9
ENDBRANCH   6   7
ENDBRANCH   5   6
ENDBRANCH   4   5
ENDBRANCH   3   4
ENDBRANCH   2   3
ENDBRANCH   1   2
BRANCH   1  34
ATOM     34  O   UNL A   1      43.041  42.135  23.493  1.00  0.00    -0.377 OA
BRANCH  34  35
ATOM     35  C   UNL A   1      41.868  41.778  24.195  1.00  0.00     0.188 C 
BRANCH  35  36
ATOM     36  C   UNL A   1      42.041  40.971  25.488  1.00  0.00     0.188 C 
BRANCH  36  37
ATOM     37  O   UNL A   1      43.340  40.781  26.008  1.00  0.00    -0.376 OA
BRANCH  37  38
ATOM     38  C   UNL A   1      43.822  39.547  26.506  1.00  0.00     0.202 C 
BRANCH  38  39
ATOM     39  C   UNL A   1      42.960  38.453  27.156  1.00  0.00     0.261 C 
BRANCH  39  40
ATOM     40  O   UNL A   1      42.927  37.179  26.504  1.00  0.00    -0.460 OA
BRANCH  40  41
ATOM     41  C   UNL A   1      42.294  36.191  27.189  1.00  0.00     0.338 C 
ATOM     42  O   UNL A   1      41.198  36.243  27.712  1.00  0.00    -0.246 OA
BRANCH  41  43
ATOM     43  C   UNL A   1      43.076  34.942  27.077  1.00  0.00     0.060 A 
ATOM     44  C   UNL A   1      43.426  34.262  28.251  1.00  0.00     0.016 A 
ATOM     45  C   UNL A   1      43.478  34.458  25.832  1.00  0.00     0.016 A 
ATOM     46  C   UNL A   1      44.201  33.101  28.183  1.00  0.00     0.010 A 
ATOM     47  C   UNL A   1      44.245  33.290  25.765  1.00  0.00     0.010 A 
ATOM     48  C   UNL A   1      44.651  32.632  26.943  1.00  0.00    -0.014 A 
BRANCH  48  49
ATOM     49  C   UNL A   1      45.771  31.656  26.882  1.00  0.00     0.031 A 
ATOM     50  C   UNL A   1      47.161  32.214  26.730  1.00  0.00     0.074 A 
ATOM     51  C   UNL A   1      45.598  30.327  26.978  1.00  0.00     0.049 A 
ATOM     52  N   UNL A   1      48.301  31.589  26.603  1.00  0.00    -0.248 NA
ATOM     53  C   UNL A   1      47.274  33.683  26.721  1.00  0.00     0.031 C 
ATOM     54  C   UNL A   1      44.328  29.651  27.206  1.00  0.00     0.029 A 
ATOM     55  N   UNL A   1      46.508  29.299  26.888  1.00  0.00    -0.354 N 
ATOM     56  C   UNL A   1      49.263  32.586  26.502  1.00  0.00     0.074 A 
ATOM     57  C   UNL A   1      48.571  33.853  26.526  1.00  0.00     0.031 C 
ATOM     58  C   UNL A   1      44.525  28.321  27.198  1.00  0.00     0.029 A 
ATOM     59  C   UNL A   1      45.939  28.050  26.959  1.00  0.00     0.049 A 
ATOM     60  H   UNL A   1      47.476  29.445  26.782  1.00  0.00     0.167 HD
ATOM     61  C   UNL A   1      50.607  32.461  26.423  1.00  0.00     0.037 A 
ATOM     62  C   UNL A   1      46.494  26.829  26.837  1.00  0.00     0.037 A 
ATOM     63  C   UNL A   1      51.302  31.206  26.403  1.00  0.00     0.049 A 
ATOM     64  C   UNL A   1      47.983  26.711  26.645  1.00  0.00     0.074 A 
ATOM     65  C   UNL A   1      52.664  30.977  26.342  1.00  0.00     0.029 A 
ATOM     66  N   UNL A   1      50.685  29.964  26.433  1.00  0.00    -0.354 N 
ATOM     67  N   UNL A   1      48.886  27.659  26.587  1.00  0.00    -0.248 NA
ATOM     68  C   UNL A   1      48.532  25.353  26.520  1.00  0.00     0.031 C 
ATOM     69  C   UNL A   1      52.870  29.594  26.286  1.00  0.00     0.029 A 
ATOM     70  C   UNL A   1      51.639  28.963  26.362  1.00  0.00     0.049 A 
ATOM     71  H   UNL A   1      49.714  29.817  26.496  1.00  0.00     0.167 HD
ATOM     72  C   UNL A   1      50.110  27.014  26.459  1.00  0.00     0.074 A 
ATOM     73  C   UNL A   1      49.835  25.592  26.451  1.00  0.00     0.031 C 
ATOM     74  C   UNL A   1      51.351  27.552  26.366  1.00  0.00     0.037 A 
BRANCH  61  75
ATOM     75  C   UNL A   1      51.398  33.730  26.330  1.00  0.00     0.057 A 
ATOM     76  C   UNL A   1      51.763  34.285  25.095  1.00  0.00     0.134 A 
ATOM     77  C   UNL A   1      51.816  34.395  27.488  1.00  0.00     0.134 A 
ATOM     78  F   UNL A   1      51.416  33.680  23.949  1.00  0.00    -0.206 F 
ATOM     79  C   UNL A   1      52.541  35.440  25.018  1.00  0.00     0.040 A 
ATOM     80  C   UNL A   1      52.570  35.567  27.422  1.00  0.00     0.040 A 
ATOM     81  F   UNL A   1      51.503  33.913  28.701  1.00  0.00    -0.206 F 
ATOM     82  C   UNL A   1      52.942  36.088  26.185  1.00  0.00     0.006 A 
ENDBRANCH  61  75
BRANCH  62  83
ATOM     83  C   UNL A   1      45.646  25.610  26.901  1.00  0.00     0.057 A 
ATOM     84  C   UNL A   1      45.551  24.852  28.073  1.00  0.00     0.134 A 
ATOM     85  C   UNL A   1      44.939  25.153  25.781  1.00  0.00     0.134 A 
ATOM     86  F   UNL A   1      46.221  25.224  29.173  1.00  0.00    -0.206 F 
ATOM     87  C   UNL A   1      44.803  23.673  28.125  1.00  0.00     0.040 A 
ATOM     88  C   UNL A   1      44.171  23.986  25.824  1.00  0.00     0.040 A 
ATOM     89  F   UNL A   1      44.981  25.836  24.626  1.00  0.00    -0.206 F 
ATOM     90  C   UNL A   1      44.109  23.239  26.998  1.00  0.00     0.006 A 
ENDBRANCH  62  83
BRANCH  74  91
ATOM     91  C   UNL A   1      52.512  26.605  26.286  1.00  0.00     0.057 A 
ATOM     92  C   UNL A   1      52.938  26.056  25.071  1.00  0.00     0.134 A 
ATOM     93  C   UNL A   1      53.247  26.283  27.435  1.00  0.00     0.134 A 
ATOM     94  F   UNL A   1      52.271  26.315  23.937  1.00  0.00    -0.206 F 
ATOM     95  C   UNL A   1      54.044  25.206  25.004  1.00  0.00     0.040 A 
ATOM     96  C   UNL A   1      54.369  25.458  27.376  1.00  0.00     0.040 A 
ATOM     97  F   UNL A   1      52.897  26.784  28.629  1.00  0.00    -0.206 F 
ATOM     98  C   UNL A   1      54.768  24.912  26.158  1.00  0.00     0.006 A 
ENDBRANCH  74  91
ENDBRANCH  48  49
ENDBRANCH  41  43
ENDBRANCH  40  41
ENDBRANCH  39  40
ENDBRANCH  38  39
ENDBRANCH  37  38
ENDBRANCH  36  37
ENDBRANCH  35  36
ENDBRANCH  34  35
ENDBRANCH   1  34
TORSDOF 24
ENDMDL
MODEL 2
REMARK VINA RESULT:      -9.2     12.395     19.088
REMARK SMILES O=C(CCOc1cccc(/C=C2\CCn3c2nc2cc(Cl)ccc2c3=O)c1)OCCOCCOCCOCCOC(=O)c1ccc(-c2c3nc(c(-c4c(F)cccc4F)c4ccc([nH]4)c(-c4c(F)cccc4F)c4nc(c(-c5c(F)cccc5F)c5ccc2[nH]5)C=C4)C=C3)cc1
REMARK SMILES IDX 33 1 32 2 31 3 30 4 29 5 28 6 2 7 1 8 3 9 4 10 5 11 6 12
REMARK SMILES IDX 7 13 27 14 8 15 10 16 9 17 11 18 12 19 13 20 16 21 14 22
REMARK SMILES IDX 15 23 17 24 25 25 18 26 24 27 26 28 19 29 23 30 20 31 22 32
REMARK SMILES IDX 21 33 34 34 35 35 36 36 37 37 38 38 39 39 40 40 41 41 42 42
REMARK SMILES IDX 43 43 44 44 96 45 45 46 95 47 46 48 47 49 48 50 89 51 49 52
REMARK SMILES IDX 94 53 88 54 90 55 50 56 93 57 87 58 86 59 51 61 77 62 60 63
REMARK SMILES IDX 76 64 61 65 64 66 75 67 91 68 62 69 63 70 74 72 92 73 65 74
REMARK SMILES IDX 52 75 53 76 58 77 54 78 55 79 57 80 59 81 56 82 78 83 79 84
REMARK SMILES IDX 84 85 80 86 81 87 83 88 85 89 82 90 66 91 67 92 72 93 68 94
REMARK SMILES IDX 69 95 71 96 73 97 70 98
REMARK H PARENT 90 60 64 71
REMARK Flexibility Score: inf
ROOT
ATOM      1  C   UNL A   1      42.257  21.813  28.175  1.00  0.00     0.188 C 
ENDROOT
BRANCH   1   2
ATOM      2  C   UNL A   1      43.340  22.704  28.811  1.00  0.00     0.188 C 
BRANCH   2   3
ATOM      3  O   UNL A   1      43.206  23.211  30.144  1.00  0.00    -0.376 OA
BRANCH   3   4
ATOM      4  C   UNL A   1      44.306  23.882  30.742  1.00  0.00     0.202 C 
BRANCH   4   5
ATOM      5  C   UNL A   1      44.152  24.069  32.258  1.00  0.00     0.261 C 
BRANCH   5   6
ATOM      6  O   UNL A   1      44.627  22.954  33.040  1.00  0.00    -0.463 OA
BRANCH   6   7
ATOM      7  C   UNL A   1      44.463  22.849  34.376  1.00  0.00     0.309 C 
ATOM      8  O   UNL A   1      43.335  22.904  34.867  1.00  0.00    -0.252 OA
BRANCH   7   9
ATOM      9  C   UNL A   1      45.660  22.560  35.233  1.00  0.00     0.164 C 
BRANCH   9  10
ATOM     10  C   UNL A   1      46.416  21.345  34.720  1.00  0.00     0.241 C 
BRANCH  10  11
ATOM     11  O   UNL A   1      47.379  20.849  35.652  1.00  0.00    -0.493 OA
BRANCH  11  12
ATOM     12  C   UNL A   1      48.709  20.844  35.330  1.00  0.00     0.119 A 
ATOM     13  C   UNL A   1      49.524  20.309  36.326  1.00  0.00     0.046 A 
ATOM     14  C   UNL A   1      49.298  21.397  34.186  1.00  0.00     0.054 A 
ATOM     15  C   UNL A   1      50.906  20.341  36.191  1.00  0.00     0.004 A 
ATOM     16  C   UNL A   1      50.697  21.536  34.072  1.00  0.00    -0.022 A 
ATOM     17  C   UNL A   1      51.482  20.956  35.077  1.00  0.00     0.008 A 
BRANCH  16  18
ATOM     18  C   UNL A   1      51.198  22.512  33.058  1.00  0.00     0.015 C 
ATOM     19  C   UNL A   1      51.367  23.846  33.180  1.00  0.00    -0.003 C 
ATOM     20  C   UNL A   1      51.370  24.766  34.361  1.00  0.00     0.061 C 
ATOM     21  C   UNL A   1      50.583  24.598  32.145  1.00  0.00     0.139 A 
ATOM     22  C   UNL A   1      49.945  25.293  34.300  1.00  0.00     0.132 C 
ATOM     23  N   UNL A   1      49.636  25.285  32.890  1.00  0.00    -0.292 N 
ATOM     24  N   UNL A   1      50.631  24.600  30.860  1.00  0.00    -0.230 NA
ATOM     25  C   UNL A   1      48.416  25.581  32.354  1.00  0.00     0.261 A 
ATOM     26  C   UNL A   1      49.595  25.313  30.209  1.00  0.00     0.080 A 
ATOM     27  C   UNL A   1      48.428  25.680  30.887  1.00  0.00     0.066 A 
ATOM     28  O   UNL A   1      47.385  25.734  32.994  1.00  0.00    -0.269 OA
ATOM     29  C   UNL A   1      49.681  25.614  28.850  1.00  0.00     0.049 A 
ATOM     30  C   UNL A   1      47.328  26.215  30.223  1.00  0.00     0.017 A 
ATOM     31  C   UNL A   1      48.597  26.208  28.190  1.00  0.00     0.043 A 
ATOM     32  C   UNL A   1      47.405  26.475  28.862  1.00  0.00     0.021 A 
ATOM     33  Cl  UNL A   1      48.721  26.619  26.524  1.00  0.00    -0.084 Cl
ENDBRANCH  16  18
ENDBRANCH  11  12
ENDBRANCH  10  11
ENDBRANCH   9  10
ENDBRANCH   7   9
ENDBRANCH   6   7
ENDBRANCH   5   6
ENDBRANCH   4   5
ENDBRANCH   3   4
ENDBRANCH   2   3
ENDBRANCH   1   2
BRANCH   1  34
ATOM     34  O   UNL A   1      41.637  22.406  27.047  1.00  0.00    -0.377 OA
BRANCH  34  35
ATOM     35  C   UNL A   1      42.437  22.575  25.896  1.00  0.00     0.188 C 
BRANCH  35  36
ATOM     36  C   UNL A   1      43.328  21.398  25.479  1.00  0.00     0.188 C 
BRANCH  36  37
ATOM     37  O   UNL A   1      44.715  21.464  25.736  1.00  0.00    -0.376 OA
BRANCH  37  38
ATOM     38  C   UNL A   1      45.647  22.113  24.891  1.00  0.00     0.202 C 
BRANCH  38  39
ATOM     39  C   UNL A   1      45.789  23.634  24.727  1.00  0.00     0.261 C 
BRANCH  39  40
ATOM     40  O   UNL A   1      45.283  24.453  25.786  1.00  0.00    -0.460 OA
BRANCH  40  41
ATOM     41  C   UNL A   1      45.319  25.792  25.555  1.00  0.00     0.338 C 
ATOM     42  O   UNL A   1      45.861  26.365  24.630  1.00  0.00    -0.246 OA
BRANCH  41  43
ATOM     43  C   UNL A   1      44.444  26.478  26.528  1.00  0.00     0.060 A 
ATOM     44  C   UNL A   1      44.555  27.868  26.667  1.00  0.00     0.016 A 
ATOM     45  C   UNL A   1      43.539  25.759  27.310  1.00  0.00     0.016 A 
ATOM     46  C   UNL A   1      43.773  28.543  27.608  1.00  0.00     0.010 A 
ATOM     47  C   UNL A   1      42.749  26.437  28.244  1.00  0.00     0.010 A 
ATOM     48  C   UNL A   1      42.896  27.825  28.431  1.00  0.00    -0.014 A 
BRANCH  48  49
ATOM     49  C   UNL A   1      42.364  28.453  29.670  1.00  0.00     0.031 A 
ATOM     50  C   UNL A   1      41.047  29.175  29.565  1.00  0.00     0.074 A 
ATOM     51  C   UNL A   1      42.987  28.381  30.859  1.00  0.00     0.049 A 
ATOM     52  N   UNL A   1      40.389  29.845  30.474  1.00  0.00    -0.248 NA
ATOM     53  C   UNL A   1      40.385  29.131  28.250  1.00  0.00     0.031 C 
ATOM     54  C   UNL A   1      44.220  27.653  31.128  1.00  0.00     0.029 A 
ATOM     55  N   UNL A   1      42.663  28.943  32.072  1.00  0.00    -0.354 N 
ATOM     56  C   UNL A   1      39.240  30.298  29.841  1.00  0.00     0.074 A 
ATOM     57  C   UNL A   1      39.315  29.877  28.461  1.00  0.00     0.031 C 
ATOM     58  C   UNL A   1      44.575  27.841  32.411  1.00  0.00     0.029 A 
ATOM     59  C   UNL A   1      43.595  28.710  33.055  1.00  0.00     0.049 A 
ATOM     60  H   UNL A   1      41.841  29.463  32.222  1.00  0.00     0.167 HD
ATOM     61  C   UNL A   1      38.198  30.983  30.365  1.00  0.00     0.037 A 
ATOM     62  C   UNL A   1      43.655  29.154  34.326  1.00  0.00     0.037 A 
ATOM     63  C   UNL A   1      38.114  31.401  31.735  1.00  0.00     0.049 A 
ATOM     64  C   UNL A   1      42.535  30.004  34.863  1.00  0.00     0.074 A 
ATOM     65  C   UNL A   1      37.091  32.086  32.365  1.00  0.00     0.029 A 
ATOM     66  N   UNL A   1      39.100  31.183  32.686  1.00  0.00    -0.354 N 
ATOM     67  N   UNL A   1      41.436  30.396  34.267  1.00  0.00    -0.248 NA
ATOM     68  C   UNL A   1      42.653  30.457  36.257  1.00  0.00     0.031 C 
ATOM     69  C   UNL A   1      37.479  32.324  33.688  1.00  0.00     0.029 A 
ATOM     70  C   UNL A   1      38.720  31.746  33.893  1.00  0.00     0.049 A 
ATOM     71  H   UNL A   1      39.942  30.700  32.527  1.00  0.00     0.167 HD
ATOM     72  C   UNL A   1      40.715  31.106  35.220  1.00  0.00     0.074 A 
ATOM     73  C   UNL A   1      41.501  31.089  36.436  1.00  0.00     0.031 C 
ATOM     74  C   UNL A   1      39.508  31.711  35.099  1.00  0.00     0.037 A 
BRANCH  61  75
ATOM     75  C   UNL A   1      37.081  31.334  29.430  1.00  0.00     0.057 A 
ATOM     76  C   UNL A   1      36.101  30.399  29.066  1.00  0.00     0.134 A 
ATOM     77  C   UNL A   1      36.994  32.614  28.874  1.00  0.00     0.134 A 
ATOM     78  F   UNL A   1      36.144  29.147  29.544  1.00  0.00    -0.206 F 
ATOM     79  C   UNL A   1      35.092  30.720  28.157  1.00  0.00     0.040 A 
ATOM     80  C   UNL A   1      35.974  32.955  27.986  1.00  0.00     0.040 A 
ATOM     81  F   UNL A   1      37.904  33.553  29.179  1.00  0.00    -0.206 F 
ATOM     82  C   UNL A   1      35.024  32.004  27.618  1.00  0.00     0.006 A 
ENDBRANCH  61  75
BRANCH  62  83
ATOM     83  C   UNL A   1      44.811  28.800  35.190  1.00  0.00     0.057 A 
ATOM     84  C   UNL A   1      45.939  29.624  35.268  1.00  0.00     0.134 A 
ATOM     85  C   UNL A   1      44.832  27.611  35.930  1.00  0.00     0.134 A 
ATOM     86  F   UNL A   1      45.990  30.766  34.566  1.00  0.00    -0.206 F 
ATOM     87  C   UNL A   1      47.054  29.271  36.032  1.00  0.00     0.040 A 
ATOM     88  C   UNL A   1      45.933  27.254  36.713  1.00  0.00     0.040 A 
ATOM     89  F   UNL A   1      43.781  26.777  35.906  1.00  0.00    -0.206 F 
ATOM     90  C   UNL A   1      47.051  28.083  36.759  1.00  0.00     0.006 A 
ENDBRANCH  62  83
BRANCH  74  91
ATOM     91  C   UNL A   1      38.939  32.371  36.320  1.00  0.00     0.057 A 
ATOM     92  C   UNL A   1      38.094  31.690  37.205  1.00  0.00     0.134 A 
ATOM     93  C   UNL A   1      39.287  33.690  36.643  1.00  0.00     0.134 A 
ATOM     94  F   UNL A   1      37.714  30.430  36.947  1.00  0.00    -0.206 F 
ATOM     95  C   UNL A   1      37.601  32.303  38.358  1.00  0.00     0.040 A 
ATOM     96  C   UNL A   1      38.823  34.303  37.806  1.00  0.00     0.040 A 
ATOM     97  F   UNL A   1      40.101  34.394  35.843  1.00  0.00    -0.206 F 
ATOM     98  C   UNL A   1      37.973  33.611  38.665  1.00  0.00     0.006 A 
ENDBRANCH  74  91
ENDBRANCH  48  49
ENDBRANCH  41  43
ENDBRANCH  40  41
ENDBRANCH  39  40
ENDBRANCH  38  39
ENDBRANCH  37  38
ENDBRANCH  36  37
ENDBRANCH  35  36
ENDBRANCH  34  35
ENDBRANCH   1  34
TORSDOF 24
ENDMDL
MODEL 3
REMARK VINA RESULT:      -9.1      8.978     15.084
REMARK SMILES O=C(CCOc1cccc(/C=C2\CCn3c2nc2cc(Cl)ccc2c3=O)c1)OCCOCCOCCOCCOC(=O)c1ccc(-c2c3nc(c(-c4c(F)cccc4F)c4ccc([nH]4)c(-c4c(F)cccc4F)c4nc(c(-c5c(F)cccc5F)c5ccc2[nH]5)C=C4)C=C3)cc1
REMARK SMILES IDX 33 1 32 2 31 3 30 4 29 5 28 6 2 7 1 8 3 9 4 10 5 11 6 12
REMARK SMILES IDX 7 13 27 14 8 15 10 16 9 17 11 18 12 19 13 20 16 21 14 22
REMARK SMILES IDX 15 23 17 24 25 25 18 26 24 27 26 28 19 29 23 30 20 31 22 32
REMARK SMILES IDX 21 33 34 34 35 35 36 36 37 37 38 38 39 39 40 40 41 41 42 42
REMARK SMILES IDX 43 43 44 44 96 45 45 46 95 47 46 48 47 49 48 50 89 51 49 52
REMARK SMILES IDX 94 53 88 54 90 55 50 56 93 57 87 58 86 59 51 61 77 62 60 63
REMARK SMILES IDX 76 64 61 65 64 66 75 67 91 68 62 69 63 70 74 72 92 73 65 74
REMARK SMILES IDX 52 75 53 76 58 77 54 78 55 79 57 80 59 81 56 82 78 83 79 84
REMARK SMILES IDX 84 85 80 86 81 87 83 88 85 89 82 90 66 91 67 92 72 93 68 94
REMARK SMILES IDX 69 95 71 96 73 97 70 98
REMARK H PARENT 90 60 64 71
REMARK Flexibility Score: inf
ROOT
ATOM      1  C   UNL A   1      46.904  32.274  33.952  1.00  0.00     0.188 C 
ENDROOT
BRANCH   1   2
ATOM      2  C   UNL A   1      47.111  31.062  33.026  1.00  0.00     0.188 C 
BRANCH   2   3
ATOM      3  O   UNL A   1      46.043  30.536  32.229  1.00  0.00    -0.376 OA
BRANCH   3   4
ATOM      4  C   UNL A   1      46.001  29.141  31.963  1.00  0.00     0.202 C 
BRANCH   4   5
ATOM      5  C   UNL A   1      46.947  28.324  32.854  1.00  0.00     0.261 C 
BRANCH   5   6
ATOM      6  O   UNL A   1      46.503  26.974  33.101  1.00  0.00    -0.463 OA
BRANCH   6   7
ATOM      7  C   UNL A   1      45.664  26.299  32.285  1.00  0.00     0.309 C 
ATOM      8  O   UNL A   1      46.010  26.017  31.138  1.00  0.00    -0.252 OA
BRANCH   7   9
ATOM      9  C   UNL A   1      44.356  25.811  32.835  1.00  0.00     0.164 C 
BRANCH   9  10
ATOM     10  C   UNL A   1      43.766  26.815  33.812  1.00  0.00     0.241 C 
BRANCH  10  11
ATOM     11  O   UNL A   1      43.182  27.948  33.167  1.00  0.00    -0.493 OA
BRANCH  11  12
ATOM     12  C   UNL A   1      42.526  28.896  33.904  1.00  0.00     0.119 A 
ATOM     13  C   UNL A   1      41.990  28.407  35.095  1.00  0.00     0.046 A 
ATOM     14  C   UNL A   1      42.271  30.222  33.532  1.00  0.00     0.054 A 
ATOM     15  C   UNL A   1      41.200  29.223  35.893  1.00  0.00     0.004 A 
ATOM     16  C   UNL A   1      41.388  31.038  34.270  1.00  0.00    -0.022 A 
ATOM     17  C   UNL A   1      40.899  30.522  35.477  1.00  0.00     0.008 A 
BRANCH  16  18
ATOM     18  C   UNL A   1      40.843  32.243  33.575  1.00  0.00     0.015 C 
ATOM     19  C   UNL A   1      40.570  33.462  34.086  1.00  0.00    -0.003 C 
ATOM     20  C   UNL A   1      40.920  34.120  35.385  1.00  0.00     0.061 C 
ATOM     21  C   UNL A   1      39.135  33.842  33.870  1.00  0.00     0.139 A 
ATOM     22  C   UNL A   1      39.639  33.879  36.168  1.00  0.00     0.132 C 
ATOM     23  N   UNL A   1      38.611  33.882  35.153  1.00  0.00    -0.292 N 
ATOM     24  N   UNL A   1      38.441  34.015  32.801  1.00  0.00    -0.230 NA
ATOM     25  C   UNL A   1      37.294  33.597  35.372  1.00  0.00     0.261 A 
ATOM     26  C   UNL A   1      37.050  34.194  32.996  1.00  0.00     0.080 A 
ATOM     27  C   UNL A   1      36.436  33.856  34.207  1.00  0.00     0.066 A 
ATOM     28  O   UNL A   1      36.835  33.146  36.413  1.00  0.00    -0.269 OA
ATOM     29  C   UNL A   1      36.237  34.652  31.959  1.00  0.00     0.049 A 
ATOM     30  C   UNL A   1      35.052  33.850  34.354  1.00  0.00     0.017 A 
ATOM     31  C   UNL A   1      34.847  34.706  32.125  1.00  0.00     0.043 A 
ATOM     32  C   UNL A   1      34.247  34.270  33.306  1.00  0.00     0.021 A 
ATOM     33  Cl  UNL A   1      33.849  35.312  30.861  1.00  0.00    -0.084 Cl
ENDBRANCH  16  18
ENDBRANCH  11  12
ENDBRANCH  10  11
ENDBRANCH   9  10
ENDBRANCH   7   9
ENDBRANCH   6   7
ENDBRANCH   5   6
ENDBRANCH   4   5
ENDBRANCH   3   4
ENDBRANCH   2   3
ENDBRANCH   1   2
BRANCH   1  34
ATOM     34  O   UNL A   1      45.865  33.135  33.521  1.00  0.00    -0.377 OA
BRANCH  34  35
ATOM     35  C   UNL A   1      45.962  34.492  33.901  1.00  0.00     0.188 C 
BRANCH  35  36
ATOM     36  C   UNL A   1      47.369  35.056  34.140  1.00  0.00     0.188 C 
BRANCH  36  37
ATOM     37  O   UNL A   1      47.709  36.307  33.579  1.00  0.00    -0.376 OA
BRANCH  37  38
ATOM     38  C   UNL A   1      46.870  37.037  32.704  1.00  0.00     0.202 C 
BRANCH  38  39
ATOM     39  C   UNL A   1      47.303  37.652  31.363  1.00  0.00     0.261 C 
BRANCH  39  40
ATOM     40  O   UNL A   1      47.613  36.743  30.302  1.00  0.00    -0.460 OA
BRANCH  40  41
ATOM     41  C   UNL A   1      46.770  36.782  29.237  1.00  0.00     0.338 C 
ATOM     42  O   UNL A   1      46.727  37.623  28.362  1.00  0.00    -0.246 OA
BRANCH  41  43
ATOM     43  C   UNL A   1      45.982  35.533  29.194  1.00  0.00     0.060 A 
ATOM     44  C   UNL A   1      46.269  34.525  30.124  1.00  0.00     0.016 A 
ATOM     45  C   UNL A   1      44.986  35.346  28.235  1.00  0.00     0.016 A 
ATOM     46  C   UNL A   1      45.571  33.315  30.084  1.00  0.00     0.010 A 
ATOM     47  C   UNL A   1      44.281  34.138  28.202  1.00  0.00     0.010 A 
ATOM     48  C   UNL A   1      44.603  33.098  29.096  1.00  0.00    -0.014 A 
BRANCH  48  49
ATOM     49  C   UNL A   1      44.145  31.715  28.798  1.00  0.00     0.031 A 
ATOM     50  C   UNL A   1      42.797  31.307  29.327  1.00  0.00     0.074 A 
ATOM     51  C   UNL A   1      44.863  30.842  28.070  1.00  0.00     0.049 A 
ATOM     52  N   UNL A   1      42.186  30.155  29.253  1.00  0.00    -0.248 NA
ATOM     53  C   UNL A   1      42.035  32.350  30.037  1.00  0.00     0.031 C 
ATOM     54  C   UNL A   1      46.141  31.120  27.430  1.00  0.00     0.029 A 
ATOM     55  N   UNL A   1      44.613  29.527  27.753  1.00  0.00    -0.354 N 
ATOM     56  C   UNL A   1      40.972  30.335  29.903  1.00  0.00     0.074 A 
ATOM     57  C   UNL A   1      40.955  31.687  30.413  1.00  0.00     0.031 C 
ATOM     58  C   UNL A   1      46.589  30.003  26.829  1.00  0.00     0.029 A 
ATOM     59  C   UNL A   1      45.629  28.927  27.047  1.00  0.00     0.049 A 
ATOM     60  H   UNL A   1      43.785  29.060  28.007  1.00  0.00     0.167 HD
ATOM     61  C   UNL A   1      39.948  29.463  30.043  1.00  0.00     0.037 A 
ATOM     62  C   UNL A   1      45.770  27.653  26.632  1.00  0.00     0.037 A 
ATOM     63  C   UNL A   1      39.956  28.121  29.536  1.00  0.00     0.049 A 
ATOM     64  C   UNL A   1      44.662  26.667  26.888  1.00  0.00     0.074 A 
ATOM     65  C   UNL A   1      38.959  27.166  29.613  1.00  0.00     0.029 A 
ATOM     66  N   UNL A   1      41.021  27.539  28.866  1.00  0.00    -0.354 N 
ATOM     67  N   UNL A   1      43.505  26.858  27.472  1.00  0.00    -0.248 NA
ATOM     68  C   UNL A   1      44.872  25.291  26.411  1.00  0.00     0.031 C 
ATOM     69  C   UNL A   1      39.439  25.988  29.031  1.00  0.00     0.029 A 
ATOM     70  C   UNL A   1      40.716  26.226  28.548  1.00  0.00     0.049 A 
ATOM     71  H   UNL A   1      41.867  27.992  28.648  1.00  0.00     0.167 HD
ATOM     72  C   UNL A   1      42.834  25.642  27.398  1.00  0.00     0.074 A 
ATOM     73  C   UNL A   1      43.713  24.721  26.709  1.00  0.00     0.031 C 
ATOM     74  C   UNL A   1      41.597  25.323  27.852  1.00  0.00     0.037 A 
BRANCH  61  75
ATOM     75  C   UNL A   1      38.748  29.947  30.798  1.00  0.00     0.057 A 
ATOM     76  C   UNL A   1      38.564  29.657  32.158  1.00  0.00     0.134 A 
ATOM     77  C   UNL A   1      37.756  30.695  30.155  1.00  0.00     0.134 A 
ATOM     78  F   UNL A   1      39.466  28.921  32.824  1.00  0.00    -0.206 F 
ATOM     79  C   UNL A   1      37.420  30.070  32.842  1.00  0.00     0.040 A 
ATOM     80  C   UNL A   1      36.622  31.137  30.836  1.00  0.00     0.040 A 
ATOM     81  F   UNL A   1      37.870  31.002  28.854  1.00  0.00    -0.206 F 
ATOM     82  C   UNL A   1      36.447  30.817  32.181  1.00  0.00     0.006 A 
ENDBRANCH  61  75
BRANCH  62  83
ATOM     83  C   UNL A   1      47.005  27.229  25.921  1.00  0.00     0.057 A 
ATOM     84  C   UNL A   1      48.068  26.630  26.605  1.00  0.00     0.134 A 
ATOM     85  C   UNL A   1      47.166  27.446  24.546  1.00  0.00     0.134 A 
ATOM     86  F   UNL A   1      47.984  26.415  27.926  1.00  0.00    -0.206 F 
ATOM     87  C   UNL A   1      49.254  26.281  25.955  1.00  0.00     0.040 A 
ATOM     88  C   UNL A   1      48.340  27.085  23.880  1.00  0.00     0.040 A 
ATOM     89  F   UNL A   1      46.183  28.011  23.828  1.00  0.00    -0.206 F 
ATOM     90  C   UNL A   1      49.391  26.508  24.587  1.00  0.00     0.006 A 
ENDBRANCH  62  83
BRANCH  74  91
ATOM     91  C   UNL A   1      41.100  23.933  27.588  1.00  0.00     0.057 A 
ATOM     92  C   UNL A   1      40.129  23.665  26.615  1.00  0.00     0.134 A 
ATOM     93  C   UNL A   1      41.641  22.841  28.280  1.00  0.00     0.134 A 
ATOM     94  F   UNL A   1      39.563  24.668  25.927  1.00  0.00    -0.206 F 
ATOM     95  C   UNL A   1      39.702  22.362  26.352  1.00  0.00     0.040 A 
ATOM     96  C   UNL A   1      41.242  21.533  28.006  1.00  0.00     0.040 A 
ATOM     97  F   UNL A   1      42.582  23.027  29.217  1.00  0.00    -0.206 F 
ATOM     98  C   UNL A   1      40.265  21.291  27.043  1.00  0.00     0.006 A 
ENDBRANCH  74  91
ENDBRANCH  48  49
ENDBRANCH  41  43
ENDBRANCH  40  41
ENDBRANCH  39  40
ENDBRANCH  38  39
ENDBRANCH  37  38
ENDBRANCH  36  37
ENDBRANCH  35  36
ENDBRANCH  34  35
ENDBRANCH   1  34
TORSDOF 24
ENDMDL
