MODEL 1
REMARK VINA RESULT:     -10.2      0.000      0.000
REMARK SMILES C[C@H](CC(=O)OCCOCCOCCOCCOC(=O)c1ccc(-c2c3nc(c(-c4c(F)cccc4F)c4ccc([nH]4)c(-c4c(F)cccc4F)c4nc(c(-c5c(F)cccc5F)c5ccc2[nH]5)C=C4)C=C3)cc1)NC(=O)[C@H]1Cc2ccccc2O1
REMARK SMILES IDX 11 1 10 2 9 3 8 4 7 5 6 6 4 7 5 8 3 9 2 10 1 11 75 12 76 13
REMARK SMILES IDX 77 15 78 16 79 17 86 18 80 19 85 20 81 21 84 22 82 23 83 24
REMARK SMILES IDX 12 25 13 26 14 27 15 28 16 29 17 30 18 31 19 32 20 33 21 34
REMARK SMILES IDX 22 35 74 36 23 37 73 38 24 39 25 40 26 41 67 42 27 43 72 44
REMARK SMILES IDX 66 45 68 46 28 47 71 48 65 49 64 50 29 52 55 53 38 54 54 55
REMARK SMILES IDX 39 56 42 57 53 58 69 59 40 60 41 61 52 63 70 64 43 65 30 66
REMARK SMILES IDX 31 67 36 68 32 69 33 70 35 71 37 72 34 73 56 74 57 75 62 76
REMARK SMILES IDX 58 77 59 78 61 79 63 80 60 81 44 82 45 83 50 84 46 85 47 86
REMARK SMILES IDX 49 87 51 88 48 89
REMARK H PARENT 75 14 68 51 42 62
REMARK Flexibility Score: inf
ROOT
ATOM      1  C   UNL A   1      34.058  31.410  27.913  1.00  0.00     0.188 C 
ENDROOT
BRANCH   1   2
ATOM      2  C   UNL A   1      32.889  31.210  26.941  1.00  0.00     0.188 C 
BRANCH   2   3
ATOM      3  O   UNL A   1      32.229  29.956  26.840  1.00  0.00    -0.376 OA
BRANCH   3   4
ATOM      4  C   UNL A   1      32.277  29.201  25.638  1.00  0.00     0.202 C 
BRANCH   4   5
ATOM      5  C   UNL A   1      31.131  29.279  24.608  1.00  0.00     0.261 C 
BRANCH   5   6
ATOM      6  O   UNL A   1      30.617  28.021  24.102  1.00  0.00    -0.463 OA
BRANCH   6   7
ATOM      7  C   UNL A   1      30.554  27.905  22.759  1.00  0.00     0.307 C 
ATOM      8  O   UNL A   1      29.974  28.710  22.033  1.00  0.00    -0.252 OA
BRANCH   7   9
ATOM      9  C   UNL A   1      31.333  26.752  22.139  1.00  0.00     0.147 C 
BRANCH   9  10
ATOM     10  C   UNL A   1      32.750  26.328  22.601  1.00  0.00     0.090 C 
ATOM     11  C   UNL A   1      33.710  27.521  22.379  1.00  0.00     0.031 C 
BRANCH  10  12
ATOM     12  N   UNL A   1      32.826  26.079  24.051  1.00  0.00    -0.350 N 
ATOM     13  C   UNL A   1      33.519  25.209  24.835  1.00  0.00     0.261 C 
ATOM     14  H   UNL A   1      32.242  26.677  24.571  1.00  0.00     0.163 HD
ATOM     15  O   UNL A   1      33.622  25.563  26.018  1.00  0.00    -0.271 OA
BRANCH  13  16
ATOM     16  C   UNL A   1      33.991  23.825  24.370  1.00  0.00     0.266 C 
ATOM     17  C   UNL A   1      34.962  23.029  25.237  1.00  0.00     0.095 C 
ATOM     18  O   UNL A   1      32.794  23.004  24.181  1.00  0.00    -0.480 OA
ATOM     19  C   UNL A   1      34.521  21.656  24.871  1.00  0.00    -0.002 A 
ATOM     20  C   UNL A   1      33.240  21.724  24.351  1.00  0.00     0.123 A 
ATOM     21  C   UNL A   1      35.150  20.431  25.013  1.00  0.00     0.008 A 
ATOM     22  C   UNL A   1      32.506  20.599  24.036  1.00  0.00     0.047 A 
ATOM     23  C   UNL A   1      34.449  19.277  24.638  1.00  0.00     0.001 A 
ATOM     24  C   UNL A   1      33.126  19.357  24.177  1.00  0.00     0.004 A 
ENDBRANCH  13  16
ENDBRANCH  10  12
ENDBRANCH   9  10
ENDBRANCH   7   9
ENDBRANCH   6   7
ENDBRANCH   5   6
ENDBRANCH   4   5
ENDBRANCH   3   4
ENDBRANCH   2   3
ENDBRANCH   1   2
BRANCH   1  25
ATOM     25  O   UNL A   1      34.342  32.749  28.269  1.00  0.00    -0.377 OA
BRANCH  25  26
ATOM     26  C   UNL A   1      33.361  33.736  27.981  1.00  0.00     0.188 C 
BRANCH  26  27
ATOM     27  C   UNL A   1      33.305  34.973  28.885  1.00  0.00     0.188 C 
BRANCH  27  28
ATOM     28  O   UNL A   1      32.908  34.656  30.209  1.00  0.00    -0.376 OA
BRANCH  28  29
ATOM     29  C   UNL A   1      33.635  35.196  31.303  1.00  0.00     0.202 C 
BRANCH  29  30
ATOM     30  C   UNL A   1      35.025  34.649  31.674  1.00  0.00     0.261 C 
BRANCH  30  31
ATOM     31  O   UNL A   1      35.273  33.250  31.465  1.00  0.00    -0.460 OA
BRANCH  31  32
ATOM     32  C   UNL A   1      35.875  32.520  32.419  1.00  0.00     0.338 C 
ATOM     33  O   UNL A   1      35.497  32.335  33.564  1.00  0.00    -0.246 OA
BRANCH  32  34
ATOM     34  C   UNL A   1      37.017  31.835  31.769  1.00  0.00     0.060 A 
ATOM     35  C   UNL A   1      37.988  31.189  32.544  1.00  0.00     0.016 A 
ATOM     36  C   UNL A   1      37.102  31.802  30.379  1.00  0.00     0.016 A 
ATOM     37  C   UNL A   1      39.045  30.508  31.926  1.00  0.00     0.010 A 
ATOM     38  C   UNL A   1      38.160  31.124  29.764  1.00  0.00     0.010 A 
ATOM     39  C   UNL A   1      39.151  30.486  30.530  1.00  0.00    -0.014 A 
BRANCH  39  40
ATOM     40  C   UNL A   1      40.356  29.930  29.856  1.00  0.00     0.031 A 
ATOM     41  C   UNL A   1      41.530  30.839  29.605  1.00  0.00     0.074 A 
ATOM     42  C   UNL A   1      40.409  28.646  29.454  1.00  0.00     0.049 A 
ATOM     43  N   UNL A   1      42.647  30.605  28.963  1.00  0.00    -0.248 NA
ATOM     44  C   UNL A   1      41.422  32.207  30.140  1.00  0.00     0.031 C 
ATOM     45  C   UNL A   1      39.352  27.655  29.642  1.00  0.00     0.029 A 
ATOM     46  N   UNL A   1      41.398  27.958  28.791  1.00  0.00    -0.354 N 
ATOM     47  C   UNL A   1      43.363  31.795  29.004  1.00  0.00     0.074 A 
ATOM     48  C   UNL A   1      42.537  32.762  29.693  1.00  0.00     0.031 C 
ATOM     49  C   UNL A   1      39.750  26.485  29.109  1.00  0.00     0.029 A 
ATOM     50  C   UNL A   1      41.070  26.655  28.504  1.00  0.00     0.049 A 
ATOM     51  H   UNL A   1      42.261  28.363  28.543  1.00  0.00     0.167 HD
ATOM     52  C   UNL A   1      44.602  32.058  28.526  1.00  0.00     0.037 A 
ATOM     53  C   UNL A   1      41.746  25.715  27.813  1.00  0.00     0.037 A 
ATOM     54  C   UNL A   1      45.430  31.094  27.850  1.00  0.00     0.049 A 
ATOM     55  C   UNL A   1      43.096  26.050  27.231  1.00  0.00     0.074 A 
ATOM     56  C   UNL A   1      46.715  31.253  27.361  1.00  0.00     0.029 A 
ATOM     57  N   UNL A   1      45.049  29.793  27.559  1.00  0.00    -0.354 N 
ATOM     58  N   UNL A   1      43.781  27.166  27.311  1.00  0.00    -0.248 NA
ATOM     59  C   UNL A   1      43.767  24.995  26.456  1.00  0.00     0.031 C 
ATOM     60  C   UNL A   1      47.088  30.068  26.720  1.00  0.00     0.029 A 
ATOM     61  C   UNL A   1      46.061  29.150  26.865  1.00  0.00     0.049 A 
ATOM     62  H   UNL A   1      44.189  29.386  27.810  1.00  0.00     0.167 HD
ATOM     63  C   UNL A   1      44.966  26.939  26.622  1.00  0.00     0.074 A 
ATOM     64  C   UNL A   1      44.920  25.572  26.147  1.00  0.00     0.031 C 
ATOM     65  C   UNL A   1      46.000  27.788  26.397  1.00  0.00     0.037 A 
BRANCH  52  66
ATOM     66  C   UNL A   1      45.130  33.453  28.700  1.00  0.00     0.057 A 
ATOM     67  C   UNL A   1      44.751  34.504  27.852  1.00  0.00     0.134 A 
ATOM     68  C   UNL A   1      46.011  33.757  29.746  1.00  0.00     0.134 A 
ATOM     69  F   UNL A   1      43.920  34.281  26.822  1.00  0.00    -0.206 F 
ATOM     70  C   UNL A   1      45.251  35.797  28.021  1.00  0.00     0.040 A 
ATOM     71  C   UNL A   1      46.493  35.052  29.944  1.00  0.00     0.040 A 
ATOM     72  F   UNL A   1      46.412  32.802  30.598  1.00  0.00    -0.206 F 
ATOM     73  C   UNL A   1      46.120  36.074  29.075  1.00  0.00     0.006 A 
ENDBRANCH  52  66
BRANCH  53  74
ATOM     74  C   UNL A   1      41.156  24.363  27.609  1.00  0.00     0.057 A 
ATOM     75  C   UNL A   1      41.642  23.247  28.302  1.00  0.00     0.134 A 
ATOM     76  C   UNL A   1      40.118  24.148  26.695  1.00  0.00     0.134 A 
ATOM     77  F   UNL A   1      42.655  23.381  29.172  1.00  0.00    -0.206 F 
ATOM     78  C   UNL A   1      41.133  21.966  28.079  1.00  0.00     0.040 A 
ATOM     79  C   UNL A   1      39.579  22.877  26.483  1.00  0.00     0.040 A 
ATOM     80  F   UNL A   1      39.606  25.172  25.996  1.00  0.00    -0.206 F 
ATOM     81  C   UNL A   1      40.093  21.780  27.171  1.00  0.00     0.006 A 
ENDBRANCH  53  74
BRANCH  65  82
ATOM     82  C   UNL A   1      47.175  27.260  25.623  1.00  0.00     0.057 A 
ATOM     83  C   UNL A   1      47.337  27.519  24.256  1.00  0.00     0.134 A 
ATOM     84  C   UNL A   1      48.182  26.524  26.263  1.00  0.00     0.134 A 
ATOM     85  F   UNL A   1      46.406  28.207  23.579  1.00  0.00    -0.206 F 
ATOM     86  C   UNL A   1      48.445  27.046  23.549  1.00  0.00     0.040 A 
ATOM     87  C   UNL A   1      49.309  26.073  25.574  1.00  0.00     0.040 A 
ATOM     88  F   UNL A   1      48.097  26.250  27.574  1.00  0.00    -0.206 F 
ATOM     89  C   UNL A   1      49.440  26.328  24.211  1.00  0.00     0.006 A 
ENDBRANCH  65  82
ENDBRANCH  39  40
ENDBRANCH  32  34
ENDBRANCH  31  32
ENDBRANCH  30  31
ENDBRANCH  29  30
ENDBRANCH  28  29
ENDBRANCH  27  28
ENDBRANCH  26  27
ENDBRANCH  25  26
ENDBRANCH   1  25
TORSDOF 23
ENDMDL
MODEL 2
REMARK VINA RESULT:     -10.1      3.680      6.447
REMARK SMILES C[C@H](CC(=O)OCCOCCOCCOCCOC(=O)c1ccc(-c2c3nc(c(-c4c(F)cccc4F)c4ccc([nH]4)c(-c4c(F)cccc4F)c4nc(c(-c5c(F)cccc5F)c5ccc2[nH]5)C=C4)C=C3)cc1)NC(=O)[C@H]1Cc2ccccc2O1
REMARK SMILES IDX 11 1 10 2 9 3 8 4 7 5 6 6 4 7 5 8 3 9 2 10 1 11 75 12 76 13
REMARK SMILES IDX 77 15 78 16 79 17 86 18 80 19 85 20 81 21 84 22 82 23 83 24
REMARK SMILES IDX 12 25 13 26 14 27 15 28 16 29 17 30 18 31 19 32 20 33 21 34
REMARK SMILES IDX 22 35 74 36 23 37 73 38 24 39 25 40 26 41 67 42 27 43 72 44
REMARK SMILES IDX 66 45 68 46 28 47 71 48 65 49 64 50 29 52 55 53 38 54 54 55
REMARK SMILES IDX 39 56 42 57 53 58 69 59 40 60 41 61 52 63 70 64 43 65 30 66
REMARK SMILES IDX 31 67 36 68 32 69 33 70 35 71 37 72 34 73 56 74 57 75 62 76
REMARK SMILES IDX 58 77 59 78 61 79 63 80 60 81 44 82 45 83 50 84 46 85 47 86
REMARK SMILES IDX 49 87 51 88 48 89
REMARK H PARENT 75 14 68 51 42 62
REMARK Flexibility Score: inf
ROOT
ATOM      1  C   UNL A   1      31.129  26.215  25.248  1.00  0.00     0.188 C 
ENDROOT
BRANCH   1   2
ATOM      2  C   UNL A   1      30.271  26.583  24.030  1.00  0.00     0.188 C 
BRANCH   2   3
ATOM      3  O   UNL A   1      30.871  26.939  22.794  1.00  0.00    -0.376 OA
BRANCH   3   4
ATOM      4  C   UNL A   1      32.024  27.767  22.754  1.00  0.00     0.202 C 
BRANCH   4   5
ATOM      5  C   UNL A   1      33.429  27.159  22.565  1.00  0.00     0.261 C 
BRANCH   5   6
ATOM      6  O   UNL A   1      33.545  26.052  21.635  1.00  0.00    -0.463 OA
BRANCH   6   7
ATOM      7  C   UNL A   1      33.614  24.821  22.186  1.00  0.00     0.307 C 
ATOM      8  O   UNL A   1      33.253  23.797  21.610  1.00  0.00    -0.252 OA
BRANCH   7   9
ATOM      9  C   UNL A   1      34.266  24.726  23.559  1.00  0.00     0.147 C 
BRANCH   9  10
ATOM     10  C   UNL A   1      34.220  23.456  24.444  1.00  0.00     0.090 C 
ATOM     11  C   UNL A   1      34.817  23.808  25.828  1.00  0.00     0.031 C 
BRANCH  10  12
ATOM     12  N   UNL A   1      32.845  23.025  24.752  1.00  0.00    -0.350 N 
ATOM     13  C   UNL A   1      32.254  21.824  24.998  1.00  0.00     0.261 C 
ATOM     14  H   UNL A   1      32.210  23.775  24.788  1.00  0.00     0.163 HD
ATOM     15  O   UNL A   1      31.175  21.903  25.602  1.00  0.00    -0.271 OA
BRANCH  13  16
ATOM     16  C   UNL A   1      32.761  20.489  24.438  1.00  0.00     0.266 C 
ATOM     17  C   UNL A   1      34.234  20.119  24.586  1.00  0.00     0.095 C 
ATOM     18  O   UNL A   1      31.975  19.430  25.072  1.00  0.00    -0.480 OA
ATOM     19  C   UNL A   1      34.092  18.639  24.659  1.00  0.00    -0.002 A 
ATOM     20  C   UNL A   1      32.791  18.335  25.023  1.00  0.00     0.123 A 
ATOM     21  C   UNL A   1      35.017  17.627  24.472  1.00  0.00     0.008 A 
ATOM     22  C   UNL A   1      32.380  17.047  25.298  1.00  0.00     0.047 A 
ATOM     23  C   UNL A   1      34.605  16.304  24.681  1.00  0.00     0.001 A 
ATOM     24  C   UNL A   1      33.302  16.016  25.117  1.00  0.00     0.004 A 
ENDBRANCH  13  16
ENDBRANCH  10  12
ENDBRANCH   9  10
ENDBRANCH   7   9
ENDBRANCH   6   7
ENDBRANCH   5   6
ENDBRANCH   4   5
ENDBRANCH   3   4
ENDBRANCH   2   3
ENDBRANCH   1   2
BRANCH   1  25
ATOM     25  O   UNL A   1      31.130  27.152  26.306  1.00  0.00    -0.377 OA
BRANCH  25  26
ATOM     26  C   UNL A   1      32.373  27.735  26.678  1.00  0.00     0.188 C 
BRANCH  26  27
ATOM     27  C   UNL A   1      32.654  29.171  26.219  1.00  0.00     0.188 C 
BRANCH  27  28
ATOM     28  O   UNL A   1      31.832  30.119  26.880  1.00  0.00    -0.376 OA
BRANCH  28  29
ATOM     29  C   UNL A   1      31.415  31.285  26.186  1.00  0.00     0.202 C 
BRANCH  29  30
ATOM     30  C   UNL A   1      31.486  32.669  26.855  1.00  0.00     0.261 C 
BRANCH  30  31
ATOM     31  O   UNL A   1      32.758  33.335  26.885  1.00  0.00    -0.460 OA
BRANCH  31  32
ATOM     32  C   UNL A   1      33.162  33.974  27.997  1.00  0.00     0.338 C 
ATOM     33  O   UNL A   1      32.609  34.903  28.562  1.00  0.00    -0.246 OA
BRANCH  32  34
ATOM     34  C   UNL A   1      34.332  33.227  28.513  1.00  0.00     0.060 A 
ATOM     35  C   UNL A   1      34.258  31.842  28.705  1.00  0.00     0.016 A 
ATOM     36  C   UNL A   1      35.524  33.901  28.770  1.00  0.00     0.016 A 
ATOM     37  C   UNL A   1      35.379  31.131  29.156  1.00  0.00     0.010 A 
ATOM     38  C   UNL A   1      36.640  33.191  29.223  1.00  0.00     0.010 A 
ATOM     39  C   UNL A   1      36.575  31.803  29.437  1.00  0.00    -0.014 A 
BRANCH  39  40
ATOM     40  C   UNL A   1      37.717  31.105  30.086  1.00  0.00     0.031 A 
ATOM     41  C   UNL A   1      38.009  31.388  31.537  1.00  0.00     0.074 A 
ATOM     42  C   UNL A   1      38.499  30.247  29.404  1.00  0.00     0.049 A 
ATOM     43  N   UNL A   1      38.995  30.968  32.288  1.00  0.00    -0.248 NA
ATOM     44  C   UNL A   1      37.065  32.280  32.230  1.00  0.00     0.031 C 
ATOM     45  C   UNL A   1      38.325  29.873  28.002  1.00  0.00     0.029 A 
ATOM     46  N   UNL A   1      39.609  29.539  29.804  1.00  0.00    -0.354 N 
ATOM     47  C   UNL A   1      38.799  31.556  33.532  1.00  0.00     0.074 A 
ATOM     48  C   UNL A   1      37.626  32.396  33.423  1.00  0.00     0.031 C 
ATOM     49  C   UNL A   1      39.292  29.003  27.659  1.00  0.00     0.029 A 
ATOM     50  C   UNL A   1      40.179  28.791  28.802  1.00  0.00     0.049 A 
ATOM     51  H   UNL A   1      39.963  29.568  30.722  1.00  0.00     0.167 HD
ATOM     52  C   UNL A   1      39.518  31.400  34.670  1.00  0.00     0.037 A 
ATOM     53  C   UNL A   1      41.299  28.041  28.800  1.00  0.00     0.037 A 
ATOM     54  C   UNL A   1      40.678  30.556  34.783  1.00  0.00     0.049 A 
ATOM     55  C   UNL A   1      42.123  27.935  30.059  1.00  0.00     0.074 A 
ATOM     56  C   UNL A   1      41.453  30.302  35.901  1.00  0.00     0.029 A 
ATOM     57  N   UNL A   1      41.235  29.834  33.738  1.00  0.00    -0.354 N 
ATOM     58  N   UNL A   1      41.904  28.462  31.240  1.00  0.00    -0.248 NA
ATOM     59  C   UNL A   1      43.353  27.132  29.984  1.00  0.00     0.031 C 
ATOM     60  C   UNL A   1      42.514  29.477  35.519  1.00  0.00     0.029 A 
ATOM     61  C   UNL A   1      42.365  29.165  34.177  1.00  0.00     0.049 A 
ATOM     62  H   UNL A   1      40.879  29.802  32.821  1.00  0.00     0.167 HD
ATOM     63  C   UNL A   1      42.952  28.037  32.049  1.00  0.00     0.074 A 
ATOM     64  C   UNL A   1      43.795  27.191  31.232  1.00  0.00     0.031 C 
ATOM     65  C   UNL A   1      43.197  28.325  33.352  1.00  0.00     0.037 A 
BRANCH  52  66
ATOM     66  C   UNL A   1      39.081  32.177  35.878  1.00  0.00     0.057 A 
ATOM     67  C   UNL A   1      38.246  31.623  36.858  1.00  0.00     0.134 A 
ATOM     68  C   UNL A   1      39.521  33.492  36.077  1.00  0.00     0.134 A 
ATOM     69  F   UNL A   1      37.777  30.372  36.724  1.00  0.00    -0.206 F 
ATOM     70  C   UNL A   1      37.843  32.356  37.976  1.00  0.00     0.040 A 
ATOM     71  C   UNL A   1      39.151  34.225  37.206  1.00  0.00     0.040 A 
ATOM     72  F   UNL A   1      40.326  34.084  35.182  1.00  0.00    -0.206 F 
ATOM     73  C   UNL A   1      38.302  33.659  38.155  1.00  0.00     0.006 A 
ENDBRANCH  52  66
BRANCH  53  74
ATOM     74  C   UNL A   1      41.731  27.338  27.561  1.00  0.00     0.057 A 
ATOM     75  C   UNL A   1      42.457  28.002  26.565  1.00  0.00     0.134 A 
ATOM     76  C   UNL A   1      41.399  25.998  27.326  1.00  0.00     0.134 A 
ATOM     77  F   UNL A   1      42.784  29.295  26.716  1.00  0.00    -0.206 F 
ATOM     78  C   UNL A   1      42.821  27.368  25.375  1.00  0.00     0.040 A 
ATOM     79  C   UNL A   1      41.780  25.343  26.154  1.00  0.00     0.040 A 
ATOM     80  F   UNL A   1      40.702  25.302  28.236  1.00  0.00    -0.206 F 
ATOM     81  C   UNL A   1      42.487  26.031  25.169  1.00  0.00     0.006 A 
ENDBRANCH  53  74
BRANCH  65  82
ATOM     82  C   UNL A   1      44.412  27.706  33.983  1.00  0.00     0.057 A 
ATOM     83  C   UNL A   1      44.377  26.430  34.560  1.00  0.00     0.134 A 
ATOM     84  C   UNL A   1      45.644  28.373  33.971  1.00  0.00     0.134 A 
ATOM     85  F   UNL A   1      43.228  25.740  34.615  1.00  0.00    -0.206 F 
ATOM     86  C   UNL A   1      45.517  25.851  35.122  1.00  0.00     0.040 A 
ATOM     87  C   UNL A   1      46.797  27.792  34.501  1.00  0.00     0.040 A 
ATOM     88  F   UNL A   1      45.753  29.594  33.423  1.00  0.00    -0.206 F 
ATOM     89  C   UNL A   1      46.733  26.529  35.085  1.00  0.00     0.006 A 
ENDBRANCH  65  82
ENDBRANCH  39  40
ENDBRANCH  32  34
ENDBRANCH  31  32
ENDBRANCH  30  31
ENDBRANCH  29  30
ENDBRANCH  28  29
ENDBRANCH  27  28
ENDBRANCH  26  27
ENDBRANCH  25  26
ENDBRANCH   1  25
TORSDOF 23
ENDMDL
MODEL 3
REMARK VINA RESULT:      -9.6      3.674      7.549
REMARK SMILES C[C@H](CC(=O)OCCOCCOCCOCCOC(=O)c1ccc(-c2c3nc(c(-c4c(F)cccc4F)c4ccc([nH]4)c(-c4c(F)cccc4F)c4nc(c(-c5c(F)cccc5F)c5ccc2[nH]5)C=C4)C=C3)cc1)NC(=O)[C@H]1Cc2ccccc2O1
REMARK SMILES IDX 11 1 10 2 9 3 8 4 7 5 6 6 4 7 5 8 3 9 2 10 1 11 75 12 76 13
REMARK SMILES IDX 77 15 78 16 79 17 86 18 80 19 85 20 81 21 84 22 82 23 83 24
REMARK SMILES IDX 12 25 13 26 14 27 15 28 16 29 17 30 18 31 19 32 20 33 21 34
REMARK SMILES IDX 22 35 74 36 23 37 73 38 24 39 25 40 26 41 67 42 27 43 72 44
REMARK SMILES IDX 66 45 68 46 28 47 71 48 65 49 64 50 29 52 55 53 38 54 54 55
REMARK SMILES IDX 39 56 42 57 53 58 69 59 40 60 41 61 52 63 70 64 43 65 30 66
REMARK SMILES IDX 31 67 36 68 32 69 33 70 35 71 37 72 34 73 56 74 57 75 62 76
REMARK SMILES IDX 58 77 59 78 61 79 63 80 60 81 44 82 45 83 50 84 46 85 47 86
REMARK SMILES IDX 49 87 51 88 48 89
REMARK H PARENT 75 14 68 51 42 62
REMARK Flexibility Score: inf
ROOT
ATOM      1  C   UNL A   1      30.135  26.111  23.772  1.00  0.00     0.188 C 
ENDROOT
BRANCH   1   2
ATOM      2  C   UNL A   1      29.786  27.414  23.043  1.00  0.00     0.188 C 
BRANCH   2   3
ATOM      3  O   UNL A   1      30.654  27.958  22.060  1.00  0.00    -0.376 OA
BRANCH   3   4
ATOM      4  C   UNL A   1      31.696  28.853  22.420  1.00  0.00     0.202 C 
BRANCH   4   5
ATOM      5  C   UNL A   1      33.149  28.357  22.570  1.00  0.00     0.261 C 
BRANCH   5   6
ATOM      6  O   UNL A   1      33.472  27.079  21.966  1.00  0.00    -0.463 OA
BRANCH   6   7
ATOM      7  C   UNL A   1      33.637  26.046  22.820  1.00  0.00     0.307 C 
ATOM      8  O   UNL A   1      34.040  26.175  23.974  1.00  0.00    -0.252 OA
BRANCH   7   9
ATOM      9  C   UNL A   1      33.202  24.675  22.320  1.00  0.00     0.147 C 
BRANCH   9  10
ATOM     10  C   UNL A   1      33.480  23.356  23.083  1.00  0.00     0.090 C 
ATOM     11  C   UNL A   1      35.009  23.121  23.105  1.00  0.00     0.031 C 
BRANCH  10  12
ATOM     12  N   UNL A   1      33.116  23.434  24.509  1.00  0.00    -0.350 N 
ATOM     13  C   UNL A   1      33.102  22.546  25.541  1.00  0.00     0.261 C 
ATOM     14  H   UNL A   1      32.812  24.331  24.776  1.00  0.00     0.163 HD
ATOM     15  O   UNL A   1      33.117  23.072  26.663  1.00  0.00    -0.271 OA
BRANCH  13  16
ATOM     16  C   UNL A   1      32.909  21.034  25.368  1.00  0.00     0.266 C 
ATOM     17  C   UNL A   1      32.124  20.506  24.171  1.00  0.00     0.095 C 
ATOM     18  O   UNL A   1      34.243  20.433  25.320  1.00  0.00    -0.480 OA
ATOM     19  C   UNL A   1      32.825  19.205  23.995  1.00  0.00    -0.002 A 
ATOM     20  C   UNL A   1      34.062  19.278  24.612  1.00  0.00     0.123 A 
ATOM     21  C   UNL A   1      32.453  18.056  23.319  1.00  0.00     0.008 A 
ATOM     22  C   UNL A   1      35.001  18.273  24.515  1.00  0.00     0.047 A 
ATOM     23  C   UNL A   1      33.365  16.993  23.261  1.00  0.00     0.001 A 
ATOM     24  C   UNL A   1      34.641  17.110  23.834  1.00  0.00     0.004 A 
ENDBRANCH  13  16
ENDBRANCH  10  12
ENDBRANCH   9  10
ENDBRANCH   7   9
ENDBRANCH   6   7
ENDBRANCH   5   6
ENDBRANCH   4   5
ENDBRANCH   3   4
ENDBRANCH   2   3
ENDBRANCH   1   2
BRANCH   1  25
ATOM     25  O   UNL A   1      29.748  26.040  25.130  1.00  0.00    -0.377 OA
BRANCH  25  26
ATOM     26  C   UNL A   1      30.710  25.588  26.073  1.00  0.00     0.188 C 
BRANCH  26  27
ATOM     27  C   UNL A   1      31.802  26.572  26.508  1.00  0.00     0.188 C 
BRANCH  27  28
ATOM     28  O   UNL A   1      31.283  27.857  26.805  1.00  0.00    -0.376 OA
BRANCH  28  29
ATOM     29  C   UNL A   1      31.576  28.945  25.941  1.00  0.00     0.202 C 
BRANCH  29  30
ATOM     30  C   UNL A   1      31.903  30.338  26.510  1.00  0.00     0.261 C 
BRANCH  30  31
ATOM     31  O   UNL A   1      33.275  30.761  26.499  1.00  0.00    -0.460 OA
BRANCH  31  32
ATOM     32  C   UNL A   1      33.675  31.780  27.279  1.00  0.00     0.338 C 
ATOM     33  O   UNL A   1      33.070  32.809  27.525  1.00  0.00    -0.246 OA
BRANCH  32  34
ATOM     34  C   UNL A   1      34.935  31.346  27.927  1.00  0.00     0.060 A 
ATOM     35  C   UNL A   1      35.089  30.023  28.359  1.00  0.00     0.016 A 
ATOM     36  C   UNL A   1      35.985  32.250  28.071  1.00  0.00     0.016 A 
ATOM     37  C   UNL A   1      36.295  29.605  28.935  1.00  0.00     0.010 A 
ATOM     38  C   UNL A   1      37.188  31.832  28.650  1.00  0.00     0.010 A 
ATOM     39  C   UNL A   1      37.349  30.511  29.103  1.00  0.00    -0.014 A 
BRANCH  39  40
ATOM     40  C   UNL A   1      38.568  30.143  29.874  1.00  0.00     0.031 A 
ATOM     41  C   UNL A   1      39.524  29.141  29.282  1.00  0.00     0.074 A 
ATOM     42  C   UNL A   1      38.822  30.670  31.087  1.00  0.00     0.049 A 
ATOM     43  N   UNL A   1      40.599  28.604  29.800  1.00  0.00    -0.248 NA
ATOM     44  C   UNL A   1      39.214  28.668  27.922  1.00  0.00     0.031 C 
ATOM     45  C   UNL A   1      37.989  31.656  31.773  1.00  0.00     0.029 A 
ATOM     46  N   UNL A   1      39.855  30.436  31.964  1.00  0.00    -0.354 N 
ATOM     47  C   UNL A   1      41.082  27.723  28.840  1.00  0.00     0.074 A 
ATOM     48  C   UNL A   1      40.159  27.763  27.727  1.00  0.00     0.031 C 
ATOM     49  C   UNL A   1      38.547  31.946  32.963  1.00  0.00     0.029 A 
ATOM     50  C   UNL A   1      39.749  31.134  33.143  1.00  0.00     0.049 A 
ATOM     51  H   UNL A   1      40.600  29.824  31.766  1.00  0.00     0.167 HD
ATOM     52  C   UNL A   1      42.201  26.960  28.872  1.00  0.00     0.037 A 
ATOM     53  C   UNL A   1      40.520  31.104  34.249  1.00  0.00     0.037 A 
ATOM     54  C   UNL A   1      43.126  26.927  29.974  1.00  0.00     0.049 A 
ATOM     55  C   UNL A   1      41.724  30.197  34.289  1.00  0.00     0.074 A 
ATOM     56  C   UNL A   1      44.308  26.215  30.087  1.00  0.00     0.029 A 
ATOM     57  N   UNL A   1      42.969  27.632  31.158  1.00  0.00    -0.354 N 
ATOM     58  N   UNL A   1      42.193  29.399  33.359  1.00  0.00    -0.248 NA
ATOM     59  C   UNL A   1      42.504  30.181  35.536  1.00  0.00     0.031 C 
ATOM     60  C   UNL A   1      44.833  26.440  31.362  1.00  0.00     0.029 A 
ATOM     61  C   UNL A   1      44.013  27.342  32.022  1.00  0.00     0.049 A 
ATOM     62  H   UNL A   1      42.226  28.246  31.356  1.00  0.00     0.167 HD
ATOM     63  C   UNL A   1      43.330  28.809  33.899  1.00  0.00     0.074 A 
ATOM     64  C   UNL A   1      43.495  29.355  35.230  1.00  0.00     0.031 C 
ATOM     65  C   UNL A   1      44.163  27.893  33.345  1.00  0.00     0.037 A 
BRANCH  52  66
ATOM     66  C   UNL A   1      42.474  26.080  27.686  1.00  0.00     0.057 A 
ATOM     67  C   UNL A   1      43.235  26.519  26.593  1.00  0.00     0.134 A 
ATOM     68  C   UNL A   1      41.991  24.766  27.647  1.00  0.00     0.134 A 
ATOM     69  F   UNL A   1      43.718  27.770  26.559  1.00  0.00    -0.206 F 
ATOM     70  C   UNL A   1      43.479  25.694  25.494  1.00  0.00     0.040 A 
ATOM     71  C   UNL A   1      42.255  23.921  26.568  1.00  0.00     0.040 A 
ATOM     72  F   UNL A   1      41.260  24.278  28.661  1.00  0.00    -0.206 F 
ATOM     73  C   UNL A   1      42.994  24.387  25.483  1.00  0.00     0.006 A 
ENDBRANCH  52  66
BRANCH  53  74
ATOM     74  C   UNL A   1      40.176  31.946  35.427  1.00  0.00     0.057 A 
ATOM     75  C   UNL A   1      39.191  31.549  36.340  1.00  0.00     0.134 A 
ATOM     76  C   UNL A   1      40.797  33.181  35.651  1.00  0.00     0.134 A 
ATOM     77  F   UNL A   1      38.539  30.389  36.168  1.00  0.00    -0.206 F 
ATOM     78  C   UNL A   1      38.823  32.355  37.419  1.00  0.00     0.040 A 
ATOM     79  C   UNL A   1      40.459  33.985  36.741  1.00  0.00     0.040 A 
ATOM     80  F   UNL A   1      41.748  33.624  34.815  1.00  0.00    -0.206 F 
ATOM     81  C   UNL A   1      39.463  33.576  37.625  1.00  0.00     0.006 A 
ENDBRANCH  53  74
BRANCH  65  82
ATOM     82  C   UNL A   1      45.338  27.437  34.164  1.00  0.00     0.057 A 
ATOM     83  C   UNL A   1      45.297  26.264  34.927  1.00  0.00     0.134 A 
ATOM     84  C   UNL A   1      46.541  28.156  34.151  1.00  0.00     0.134 A 
ATOM     85  F   UNL A   1      44.175  25.533  34.993  1.00  0.00    -0.206 F 
ATOM     86  C   UNL A   1      46.402  25.834  35.666  1.00  0.00     0.040 A 
ATOM     87  C   UNL A   1      47.661  27.721  34.860  1.00  0.00     0.040 A 
ATOM     88  F   UNL A   1      46.654  29.284  33.432  1.00  0.00    -0.206 F 
ATOM     89  C   UNL A   1      47.592  26.560  35.626  1.00  0.00     0.006 A 
ENDBRANCH  65  82
ENDBRANCH  39  40
ENDBRANCH  32  34
ENDBRANCH  31  32
ENDBRANCH  30  31
ENDBRANCH  29  30
ENDBRANCH  28  29
ENDBRANCH  27  28
ENDBRANCH  26  27
ENDBRANCH  25  26
ENDBRANCH   1  25
TORSDOF 23
ENDMDL
