MODEL 1
REMARK VINA RESULT:      -9.8      0.000      0.000
REMARK SMILES [NH3+]CCOCC(=O)N1C[C@@H](C(=O)OCCOCCOCCOCCOC(=O)c2ccc(-c3c4nc(c(-c5c(F)cccc5F)c5ccc([nH]5)c(-c5c(F)cccc5F)c5nc(c(-c6c(F)cccc6F)c6ccc3[nH]6)C=C5)C=C4)cc2)Oc2ccccc21
REMARK SMILES IDX 17 1 16 2 15 3 14 4 13 5 11 6 12 7 10 8 8 9 9 10 88 11 83 12
REMARK SMILES IDX 87 13 82 14 84 15 86 16 85 17 6 18 7 19 5 20 4 21 3 22 2 23
REMARK SMILES IDX 1 24 18 28 19 29 20 30 21 31 22 32 23 33 24 34 25 35 26 36
REMARK SMILES IDX 27 37 28 38 29 39 81 40 30 41 80 42 31 43 32 44 33 45 74 46
REMARK SMILES IDX 34 47 79 48 73 49 75 50 35 51 78 52 72 53 71 54 36 56 62 57
REMARK SMILES IDX 45 58 61 59 46 60 49 61 60 62 76 63 47 64 48 65 59 67 77 68
REMARK SMILES IDX 50 69 37 70 38 71 43 72 39 73 40 74 42 75 44 76 41 77 63 78
REMARK SMILES IDX 64 79 69 80 65 81 66 82 68 83 70 84 67 85 51 86 52 87 57 88
REMARK SMILES IDX 53 89 54 90 56 91 58 92 55 93
REMARK H PARENT 1 25 1 26 1 27 75 55 49 66
REMARK Flexibility Score: inf
ROOT
ATOM      1  C   UNL A   1      32.324  28.764  27.450  1.00  0.00     0.188 C 
ENDROOT
BRANCH   1   2
ATOM      2  O   UNL A   1      31.593  27.545  27.423  1.00  0.00    -0.376 OA
BRANCH   2   3
ATOM      3  C   UNL A   1      31.278  26.896  26.199  1.00  0.00     0.202 C 
BRANCH   3   4
ATOM      4  C   UNL A   1      30.893  25.407  26.160  1.00  0.00     0.261 C 
BRANCH   4   5
ATOM      5  O   UNL A   1      31.647  24.548  27.035  1.00  0.00    -0.460 OA
BRANCH   5   6
ATOM      6  C   UNL A   1      31.596  23.217  26.794  1.00  0.00     0.349 C 
ATOM      7  O   UNL A   1      30.554  22.573  26.704  1.00  0.00    -0.248 OA
BRANCH   6   8
ATOM      8  C   UNL A   1      32.982  22.549  26.654  1.00  0.00     0.302 C 
ATOM      9  N   UNL A   1      32.952  22.569  24.229  1.00  0.00    -0.303 N 
ATOM     10  C   UNL A   1      33.649  23.097  25.409  1.00  0.00     0.183 C 
ATOM     11  C   UNL A   1      32.715  21.154  24.292  1.00  0.00     0.086 A 
ATOM     12  C   UNL A   1      32.895  20.490  25.519  1.00  0.00     0.144 A 
ATOM     13  C   UNL A   1      32.386  20.385  23.172  1.00  0.00     0.030 A 
ATOM     14  O   UNL A   1      33.156  21.139  26.698  1.00  0.00    -0.475 OA
ATOM     15  C   UNL A   1      32.811  19.097  25.612  1.00  0.00     0.049 A 
ATOM     16  C   UNL A   1      32.291  18.988  23.267  1.00  0.00     0.002 A 
ATOM     17  C   UNL A   1      32.514  18.345  24.482  1.00  0.00     0.004 A 
BRANCH   9  18
ATOM     18  C   UNL A   1      32.450  23.386  23.221  1.00  0.00     0.253 C 
ATOM     19  O   UNL A   1      31.251  23.602  23.035  1.00  0.00    -0.272 OA
BRANCH  18  20
ATOM     20  C   UNL A   1      33.487  24.028  22.269  1.00  0.00     0.260 C 
BRANCH  20  21
ATOM     21  O   UNL A   1      33.117  24.648  21.056  1.00  0.00    -0.366 OA
BRANCH  21  22
ATOM     22  C   UNL A   1      32.682  26.003  21.144  1.00  0.00     0.222 C 
BRANCH  22  23
ATOM     23  C   UNL A   1      33.435  26.844  22.179  1.00  0.00     0.287 C 
BRANCH  23  24
ATOM     24  N   UNL A   1      33.654  28.231  21.769  1.00  0.00    -0.356 N 
ATOM     25  H   UNL A   1      34.129  28.248  20.866  1.00  0.00     0.344 HD
ATOM     26  H   UNL A   1      34.229  28.706  22.465  1.00  0.00     0.344 HD
ATOM     27  H   UNL A   1      32.755  28.708  21.688  1.00  0.00     0.344 HD
ENDBRANCH  23  24
ENDBRANCH  22  23
ENDBRANCH  21  22
ENDBRANCH  20  21
ENDBRANCH  18  20
ENDBRANCH   9  18
ENDBRANCH   6   8
ENDBRANCH   5   6
ENDBRANCH   4   5
ENDBRANCH   3   4
ENDBRANCH   2   3
ENDBRANCH   1   2
BRANCH   1  28
ATOM     28  C   UNL A   1      33.692  28.890  26.761  1.00  0.00     0.188 C 
BRANCH  28  29
ATOM     29  O   UNL A   1      34.354  30.118  26.975  1.00  0.00    -0.377 OA
BRANCH  29  30
ATOM     30  C   UNL A   1      33.609  31.160  27.588  1.00  0.00     0.188 C 
BRANCH  30  31
ATOM     31  C   UNL A   1      34.331  32.065  28.607  1.00  0.00     0.188 C 
BRANCH  31  32
ATOM     32  O   UNL A   1      33.704  33.321  28.827  1.00  0.00    -0.376 OA
BRANCH  32  33
ATOM     33  C   UNL A   1      34.377  34.319  29.581  1.00  0.00     0.202 C 
BRANCH  33  34
ATOM     34  C   UNL A   1      34.596  34.096  31.090  1.00  0.00     0.261 C 
BRANCH  34  35
ATOM     35  O   UNL A   1      35.941  33.843  31.524  1.00  0.00    -0.460 OA
BRANCH  35  36
ATOM     36  C   UNL A   1      36.143  32.836  32.393  1.00  0.00     0.338 C 
ATOM     37  O   UNL A   1      35.571  32.657  33.458  1.00  0.00    -0.246 OA
BRANCH  36  38
ATOM     38  C   UNL A   1      37.048  31.852  31.763  1.00  0.00     0.060 A 
ATOM     39  C   UNL A   1      38.079  31.298  32.534  1.00  0.00     0.016 A 
ATOM     40  C   UNL A   1      36.905  31.506  30.417  1.00  0.00     0.016 A 
ATOM     41  C   UNL A   1      39.016  30.453  31.941  1.00  0.00     0.010 A 
ATOM     42  C   UNL A   1      37.859  30.678  29.818  1.00  0.00     0.010 A 
ATOM     43  C   UNL A   1      38.950  30.197  30.567  1.00  0.00    -0.014 A 
BRANCH  43  44
ATOM     44  C   UNL A   1      40.153  29.673  29.874  1.00  0.00     0.031 A 
ATOM     45  C   UNL A   1      41.315  30.613  29.681  1.00  0.00     0.074 A 
ATOM     46  C   UNL A   1      40.243  28.394  29.474  1.00  0.00     0.049 A 
ATOM     47  N   UNL A   1      42.459  30.413  29.078  1.00  0.00    -0.248 NA
ATOM     48  C   UNL A   1      41.162  31.965  30.244  1.00  0.00     0.031 C 
ATOM     49  C   UNL A   1      39.213  27.374  29.656  1.00  0.00     0.029 A 
ATOM     50  N   UNL A   1      41.259  27.739  28.825  1.00  0.00    -0.354 N 
ATOM     51  C   UNL A   1      43.153  31.613  29.183  1.00  0.00     0.074 A 
ATOM     52  C   UNL A   1      42.290  32.546  29.870  1.00  0.00     0.031 C 
ATOM     53  C   UNL A   1      39.648  26.219  29.119  1.00  0.00     0.029 A 
ATOM     54  C   UNL A   1      40.970  26.430  28.529  1.00  0.00     0.049 A 
ATOM     55  H   UNL A   1      42.115  28.168  28.593  1.00  0.00     0.167 HD
ATOM     56  C   UNL A   1      44.403  31.909  28.756  1.00  0.00     0.037 A 
ATOM     57  C   UNL A   1      41.685  25.518  27.842  1.00  0.00     0.037 A 
ATOM     58  C   UNL A   1      45.261  30.978  28.073  1.00  0.00     0.049 A 
ATOM     59  C   UNL A   1      43.041  25.897  27.299  1.00  0.00     0.074 A 
ATOM     60  C   UNL A   1      46.546  31.178  27.601  1.00  0.00     0.029 A 
ATOM     61  N   UNL A   1      44.916  29.673  27.759  1.00  0.00    -0.354 N 
ATOM     62  N   UNL A   1      43.694  27.029  27.411  1.00  0.00    -0.248 NA
ATOM     63  C   UNL A   1      43.762  24.865  26.539  1.00  0.00     0.031 C 
ATOM     64  C   UNL A   1      46.956  30.010  26.950  1.00  0.00     0.029 A 
ATOM     65  C   UNL A   1      45.955  29.061  27.079  1.00  0.00     0.049 A 
ATOM     66  H   UNL A   1      44.060  29.244  27.987  1.00  0.00     0.167 HD
ATOM     67  C   UNL A   1      44.915  26.831  26.775  1.00  0.00     0.074 A 
ATOM     68  C   UNL A   1      44.914  25.468  26.286  1.00  0.00     0.031 C 
ATOM     69  C   UNL A   1      45.947  27.697  26.615  1.00  0.00     0.037 A 
BRANCH  56  70
ATOM     70  C   UNL A   1      44.902  33.306  28.991  1.00  0.00     0.057 A 
ATOM     71  C   UNL A   1      45.640  33.651  30.130  1.00  0.00     0.134 A 
ATOM     72  C   UNL A   1      44.654  34.315  28.053  1.00  0.00     0.134 A 
ATOM     73  F   UNL A   1      45.897  32.737  31.079  1.00  0.00    -0.206 F 
ATOM     74  C   UNL A   1      46.092  34.956  30.340  1.00  0.00     0.040 A 
ATOM     75  C   UNL A   1      45.126  35.616  28.236  1.00  0.00     0.040 A 
ATOM     76  F   UNL A   1      43.953  34.054  26.938  1.00  0.00    -0.206 F 
ATOM     77  C   UNL A   1      45.841  35.941  29.387  1.00  0.00     0.006 A 
ENDBRANCH  56  70
BRANCH  57  78
ATOM     78  C   UNL A   1      41.136  24.156  27.608  1.00  0.00     0.057 A 
ATOM     79  C   UNL A   1      41.645  23.041  28.285  1.00  0.00     0.134 A 
ATOM     80  C   UNL A   1      40.118  23.931  26.673  1.00  0.00     0.134 A 
ATOM     81  F   UNL A   1      42.638  23.187  29.174  1.00  0.00    -0.206 F 
ATOM     82  C   UNL A   1      41.181  21.750  28.022  1.00  0.00     0.040 A 
ATOM     83  C   UNL A   1      39.623  22.650  26.423  1.00  0.00     0.040 A 
ATOM     84  F   UNL A   1      39.587  24.956  25.989  1.00  0.00    -0.206 F 
ATOM     85  C   UNL A   1      40.163  21.553  27.091  1.00  0.00     0.006 A 
ENDBRANCH  57  78
BRANCH  69  86
ATOM     86  C   UNL A   1      47.188  27.183  25.941  1.00  0.00     0.057 A 
ATOM     87  C   UNL A   1      47.410  27.334  24.565  1.00  0.00     0.134 A 
ATOM     88  C   UNL A   1      48.198  26.566  26.693  1.00  0.00     0.134 A 
ATOM     89  F   UNL A   1      46.482  27.907  23.785  1.00  0.00    -0.206 F 
ATOM     90  C   UNL A   1      48.577  26.863  23.960  1.00  0.00     0.040 A 
ATOM     91  C   UNL A   1      49.382  26.122  26.104  1.00  0.00     0.040 A 
ATOM     92  F   UNL A   1      48.058  26.402  28.017  1.00  0.00    -0.206 F 
ATOM     93  C   UNL A   1      49.571  26.262  24.731  1.00  0.00     0.006 A 
ENDBRANCH  69  86
ENDBRANCH  43  44
ENDBRANCH  36  38
ENDBRANCH  35  36
ENDBRANCH  34  35
ENDBRANCH  33  34
ENDBRANCH  32  33
ENDBRANCH  31  32
ENDBRANCH  30  31
ENDBRANCH  29  30
ENDBRANCH  28  29
ENDBRANCH   1  28
TORSDOF 26
ENDMDL
MODEL 2
REMARK VINA RESULT:      -9.4      2.714      8.092
REMARK SMILES [NH3+]CCOCC(=O)N1C[C@@H](C(=O)OCCOCCOCCOCCOC(=O)c2ccc(-c3c4nc(c(-c5c(F)cccc5F)c5ccc([nH]5)c(-c5c(F)cccc5F)c5nc(c(-c6c(F)cccc6F)c6ccc3[nH]6)C=C5)C=C4)cc2)Oc2ccccc21
REMARK SMILES IDX 17 1 16 2 15 3 14 4 13 5 11 6 12 7 10 8 8 9 9 10 88 11 83 12
REMARK SMILES IDX 87 13 82 14 84 15 86 16 85 17 6 18 7 19 5 20 4 21 3 22 2 23
REMARK SMILES IDX 1 24 18 28 19 29 20 30 21 31 22 32 23 33 24 34 25 35 26 36
REMARK SMILES IDX 27 37 28 38 29 39 81 40 30 41 80 42 31 43 32 44 33 45 74 46
REMARK SMILES IDX 34 47 79 48 73 49 75 50 35 51 78 52 72 53 71 54 36 56 62 57
REMARK SMILES IDX 45 58 61 59 46 60 49 61 60 62 76 63 47 64 48 65 59 67 77 68
REMARK SMILES IDX 50 69 37 70 38 71 43 72 39 73 40 74 42 75 44 76 41 77 63 78
REMARK SMILES IDX 64 79 69 80 65 81 66 82 68 83 70 84 67 85 51 86 52 87 57 88
REMARK SMILES IDX 53 89 54 90 56 91 58 92 55 93
REMARK H PARENT 1 25 1 26 1 27 75 55 49 66
REMARK Flexibility Score: inf
ROOT
ATOM      1  C   UNL A   1      32.786  21.314  25.638  1.00  0.00     0.188 C 
ENDROOT
BRANCH   1   2
ATOM      2  O   UNL A   1      31.376  21.153  25.713  1.00  0.00    -0.376 OA
BRANCH   2   3
ATOM      3  C   UNL A   1      30.507  22.272  25.836  1.00  0.00     0.202 C 
BRANCH   3   4
ATOM      4  C   UNL A   1      30.859  23.460  26.747  1.00  0.00     0.261 C 
BRANCH   4   5
ATOM      5  O   UNL A   1      30.647  24.763  26.176  1.00  0.00    -0.460 OA
BRANCH   5   6
ATOM      6  C   UNL A   1      31.526  25.738  26.509  1.00  0.00     0.349 C 
ATOM      7  O   UNL A   1      31.223  26.760  27.120  1.00  0.00    -0.248 OA
BRANCH   6   8
ATOM      8  C   UNL A   1      32.972  25.470  26.035  1.00  0.00     0.302 C 
ATOM      9  N   UNL A   1      32.985  27.296  24.439  1.00  0.00    -0.303 N 
ATOM     10  C   UNL A   1      33.606  26.797  25.672  1.00  0.00     0.183 C 
ATOM     11  C   UNL A   1      32.884  26.301  23.408  1.00  0.00     0.086 A 
ATOM     12  C   UNL A   1      33.104  24.952  23.744  1.00  0.00     0.144 A 
ATOM     13  C   UNL A   1      32.651  26.612  22.066  1.00  0.00     0.030 A 
ATOM     14  O   UNL A   1      33.280  24.513  25.030  1.00  0.00    -0.475 OA
ATOM     15  C   UNL A   1      33.152  23.956  22.763  1.00  0.00     0.049 A 
ATOM     16  C   UNL A   1      32.688  25.613  21.083  1.00  0.00     0.002 A 
ATOM     17  C   UNL A   1      32.949  24.289  21.429  1.00  0.00     0.004 A 
BRANCH   9  18
ATOM     18  C   UNL A   1      32.426  28.566  24.336  1.00  0.00     0.253 C 
ATOM     19  O   UNL A   1      33.060  29.615  24.464  1.00  0.00    -0.272 OA
BRANCH  18  20
ATOM     20  C   UNL A   1      30.904  28.633  24.072  1.00  0.00     0.260 C 
BRANCH  20  21
ATOM     21  O   UNL A   1      30.364  29.224  22.908  1.00  0.00    -0.366 OA
BRANCH  21  22
ATOM     22  C   UNL A   1      29.154  29.961  23.075  1.00  0.00     0.222 C 
BRANCH  22  23
ATOM     23  C   UNL A   1      27.922  29.305  22.445  1.00  0.00     0.287 C 
BRANCH  23  24
ATOM     24  N   UNL A   1      27.443  28.127  23.169  1.00  0.00    -0.356 N 
ATOM     25  H   UNL A   1      27.003  27.481  22.513  1.00  0.00     0.344 HD
ATOM     26  H   UNL A   1      26.763  28.413  23.873  1.00  0.00     0.344 HD
ATOM     27  H   UNL A   1      28.231  27.665  23.624  1.00  0.00     0.344 HD
ENDBRANCH  23  24
ENDBRANCH  22  23
ENDBRANCH  21  22
ENDBRANCH  20  21
ENDBRANCH  18  20
ENDBRANCH   9  18
ENDBRANCH   6   8
ENDBRANCH   5   6
ENDBRANCH   4   5
ENDBRANCH   3   4
ENDBRANCH   2   3
ENDBRANCH   1   2
BRANCH   1  28
ATOM     28  C   UNL A   1      33.616  20.591  24.566  1.00  0.00     0.188 C 
BRANCH  28  29
ATOM     29  O   UNL A   1      34.876  20.128  25.003  1.00  0.00    -0.377 OA
BRANCH  29  30
ATOM     30  C   UNL A   1      35.826  21.105  25.400  1.00  0.00     0.188 C 
BRANCH  30  31
ATOM     31  C   UNL A   1      37.262  20.988  24.848  1.00  0.00     0.188 C 
BRANCH  31  32
ATOM     32  O   UNL A   1      38.160  21.978  25.329  1.00  0.00    -0.376 OA
BRANCH  32  33
ATOM     33  C   UNL A   1      39.337  21.584  26.019  1.00  0.00     0.202 C 
BRANCH  33  34
ATOM     34  C   UNL A   1      39.674  20.084  26.127  1.00  0.00     0.261 C 
BRANCH  34  35
ATOM     35  O   UNL A   1      40.778  19.605  25.345  1.00  0.00    -0.460 OA
BRANCH  35  36
ATOM     36  C   UNL A   1      41.905  19.255  25.993  1.00  0.00     0.338 C 
ATOM     37  O   UNL A   1      42.344  18.125  26.149  1.00  0.00    -0.246 OA
BRANCH  36  38
ATOM     38  C   UNL A   1      42.648  20.487  26.330  1.00  0.00     0.060 A 
ATOM     39  C   UNL A   1      42.592  20.966  27.646  1.00  0.00     0.016 A 
ATOM     40  C   UNL A   1      43.364  21.183  25.353  1.00  0.00     0.016 A 
ATOM     41  C   UNL A   1      43.189  22.183  27.971  1.00  0.00     0.010 A 
ATOM     42  C   UNL A   1      43.941  22.415  25.674  1.00  0.00     0.010 A 
ATOM     43  C   UNL A   1      43.805  22.945  26.971  1.00  0.00    -0.014 A 
BRANCH  43  44
ATOM     44  C   UNL A   1      44.048  24.388  27.213  1.00  0.00     0.031 A 
ATOM     45  C   UNL A   1      45.453  24.902  27.031  1.00  0.00     0.074 A 
ATOM     46  C   UNL A   1      43.054  25.234  27.533  1.00  0.00     0.049 A 
ATOM     47  N   UNL A   1      45.932  26.106  27.215  1.00  0.00    -0.248 NA
ATOM     48  C   UNL A   1      46.454  23.920  26.581  1.00  0.00     0.031 C 
ATOM     49  C   UNL A   1      41.647  24.871  27.680  1.00  0.00     0.029 A 
ATOM     50  N   UNL A   1      43.087  26.580  27.793  1.00  0.00    -0.354 N 
ATOM     51  C   UNL A   1      47.286  26.020  26.912  1.00  0.00     0.074 A 
ATOM     52  C   UNL A   1      47.561  24.643  26.572  1.00  0.00     0.031 C 
ATOM     53  C   UNL A   1      40.950  25.972  28.016  1.00  0.00     0.029 A 
ATOM     54  C   UNL A   1      41.867  27.104  28.139  1.00  0.00     0.049 A 
ATOM     55  H   UNL A   1      43.909  27.120  27.737  1.00  0.00     0.167 HD
ATOM     56  C   UNL A   1      48.217  27.003  26.907  1.00  0.00     0.037 A 
ATOM     57  C   UNL A   1      41.537  28.351  28.530  1.00  0.00     0.037 A 
ATOM     58  C   UNL A   1      47.941  28.373  27.246  1.00  0.00     0.049 A 
ATOM     59  C   UNL A   1      42.609  29.412  28.600  1.00  0.00     0.074 A 
ATOM     60  C   UNL A   1      48.813  29.448  27.270  1.00  0.00     0.029 A 
ATOM     61  N   UNL A   1      46.699  28.856  27.628  1.00  0.00    -0.354 N 
ATOM     62  N   UNL A   1      43.883  29.327  28.303  1.00  0.00    -0.248 NA
ATOM     63  C   UNL A   1      42.191  30.747  29.055  1.00  0.00     0.031 C 
ATOM     64  C   UNL A   1      48.109  30.569  27.722  1.00  0.00     0.029 A 
ATOM     65  C   UNL A   1      46.785  30.209  27.911  1.00  0.00     0.049 A 
ATOM     66  H   UNL A   1      45.877  28.317  27.687  1.00  0.00     0.167 HD
ATOM     67  C   UNL A   1      44.407  30.601  28.494  1.00  0.00     0.074 A 
ATOM     68  C   UNL A   1      43.311  31.442  28.925  1.00  0.00     0.031 C 
ATOM     69  C   UNL A   1      45.680  31.037  28.321  1.00  0.00     0.037 A 
BRANCH  56  70
ATOM     70  C   UNL A   1      49.625  26.621  26.551  1.00  0.00     0.057 A 
ATOM     71  C   UNL A   1      50.536  26.159  27.509  1.00  0.00     0.134 A 
ATOM     72  C   UNL A   1      50.068  26.699  25.225  1.00  0.00     0.134 A 
ATOM     73  F   UNL A   1      50.183  26.078  28.802  1.00  0.00    -0.206 F 
ATOM     74  C   UNL A   1      51.845  25.813  27.166  1.00  0.00     0.040 A 
ATOM     75  C   UNL A   1      51.364  26.327  24.864  1.00  0.00     0.040 A 
ATOM     76  F   UNL A   1      49.247  27.132  24.256  1.00  0.00    -0.206 F 
ATOM     77  C   UNL A   1      52.259  25.890  25.838  1.00  0.00     0.006 A 
ENDBRANCH  56  70
BRANCH  57  78
ATOM     78  C   UNL A   1      40.134  28.674  28.902  1.00  0.00     0.057 A 
ATOM     79  C   UNL A   1      39.670  28.499  30.212  1.00  0.00     0.134 A 
ATOM     80  C   UNL A   1      39.213  29.125  27.949  1.00  0.00     0.134 A 
ATOM     81  F   UNL A   1      40.497  28.045  31.165  1.00  0.00    -0.206 F 
ATOM     82  C   UNL A   1      38.338  28.736  30.554  1.00  0.00     0.040 A 
ATOM     83  C   UNL A   1      37.885  29.395  28.285  1.00  0.00     0.040 A 
ATOM     84  F   UNL A   1      39.592  29.313  26.676  1.00  0.00    -0.206 F 
ATOM     85  C   UNL A   1      37.442  29.190  29.589  1.00  0.00     0.006 A 
ENDBRANCH  57  78
BRANCH  69  86
ATOM     86  C   UNL A   1      45.948  32.500  28.534  1.00  0.00     0.057 A 
ATOM     87  C   UNL A   1      46.272  33.028  29.791  1.00  0.00     0.134 A 
ATOM     88  C   UNL A   1      45.925  33.389  27.449  1.00  0.00     0.134 A 
ATOM     89  F   UNL A   1      46.303  32.236  30.873  1.00  0.00    -0.206 F 
ATOM     90  C   UNL A   1      46.533  34.388  29.966  1.00  0.00     0.040 A 
ATOM     91  C   UNL A   1      46.217  34.744  27.607  1.00  0.00     0.040 A 
ATOM     92  F   UNL A   1      45.636  32.950  26.215  1.00  0.00    -0.206 F 
ATOM     93  C   UNL A   1      46.513  35.249  28.870  1.00  0.00     0.006 A 
ENDBRANCH  69  86
ENDBRANCH  43  44
ENDBRANCH  36  38
ENDBRANCH  35  36
ENDBRANCH  34  35
ENDBRANCH  33  34
ENDBRANCH  32  33
ENDBRANCH  31  32
ENDBRANCH  30  31
ENDBRANCH  29  30
ENDBRANCH  28  29
ENDBRANCH   1  28
TORSDOF 26
ENDMDL
MODEL 3
REMARK VINA RESULT:      -9.3      1.764      6.420
REMARK SMILES [NH3+]CCOCC(=O)N1C[C@@H](C(=O)OCCOCCOCCOCCOC(=O)c2ccc(-c3c4nc(c(-c5c(F)cccc5F)c5ccc([nH]5)c(-c5c(F)cccc5F)c5nc(c(-c6c(F)cccc6F)c6ccc3[nH]6)C=C5)C=C4)cc2)Oc2ccccc21
REMARK SMILES IDX 17 1 16 2 15 3 14 4 13 5 11 6 12 7 10 8 8 9 9 10 88 11 83 12
REMARK SMILES IDX 87 13 82 14 84 15 86 16 85 17 6 18 7 19 5 20 4 21 3 22 2 23
REMARK SMILES IDX 1 24 18 28 19 29 20 30 21 31 22 32 23 33 24 34 25 35 26 36
REMARK SMILES IDX 27 37 28 38 29 39 81 40 30 41 80 42 31 43 32 44 33 45 74 46
REMARK SMILES IDX 34 47 79 48 73 49 75 50 35 51 78 52 72 53 71 54 36 56 62 57
REMARK SMILES IDX 45 58 61 59 46 60 49 61 60 62 76 63 47 64 48 65 59 67 77 68
REMARK SMILES IDX 50 69 37 70 38 71 43 72 39 73 40 74 42 75 44 76 41 77 63 78
REMARK SMILES IDX 64 79 69 80 65 81 66 82 68 83 70 84 67 85 51 86 52 87 57 88
REMARK SMILES IDX 53 89 54 90 56 91 58 92 55 93
REMARK H PARENT 1 25 1 26 1 27 75 55 49 66
REMARK Flexibility Score: inf
ROOT
ATOM      1  C   UNL A   1      32.184  31.156  26.550  1.00  0.00     0.188 C 
ENDROOT
BRANCH   1   2
ATOM      2  O   UNL A   1      31.884  29.882  27.104  1.00  0.00    -0.376 OA
BRANCH   2   3
ATOM      3  C   UNL A   1      32.789  28.792  26.991  1.00  0.00     0.202 C 
BRANCH   3   4
ATOM      4  C   UNL A   1      32.296  27.377  26.647  1.00  0.00     0.261 C 
BRANCH   4   5
ATOM      5  O   UNL A   1      33.324  26.417  26.344  1.00  0.00    -0.460 OA
BRANCH   5   6
ATOM      6  C   UNL A   1      32.940  25.133  26.155  1.00  0.00     0.349 C 
ATOM      7  O   UNL A   1      31.787  24.732  26.292  1.00  0.00    -0.248 OA
BRANCH   6   8
ATOM      8  C   UNL A   1      34.093  24.182  25.761  1.00  0.00     0.302 C 
ATOM      9  N   UNL A   1      33.738  24.442  23.376  1.00  0.00    -0.303 N 
ATOM     10  C   UNL A   1      34.695  24.680  24.464  1.00  0.00     0.183 C 
ATOM     11  C   UNL A   1      33.179  23.119  23.388  1.00  0.00     0.086 A 
ATOM     12  C   UNL A   1      33.360  22.316  24.530  1.00  0.00     0.144 A 
ATOM     13  C   UNL A   1      32.526  22.556  22.288  1.00  0.00     0.030 A 
ATOM     14  O   UNL A   1      33.927  22.772  25.691  1.00  0.00    -0.475 OA
ATOM     15  C   UNL A   1      32.957  20.978  24.549  1.00  0.00     0.049 A 
ATOM     16  C   UNL A   1      32.111  21.216  22.311  1.00  0.00     0.002 A 
ATOM     17  C   UNL A   1      32.337  20.425  23.435  1.00  0.00     0.004 A 
BRANCH   9  18
ATOM     18  C   UNL A   1      33.315  25.445  22.510  1.00  0.00     0.253 C 
ATOM     19  O   UNL A   1      34.043  26.003  21.686  1.00  0.00    -0.272 OA
BRANCH  18  20
ATOM     20  C   UNL A   1      31.838  25.888  22.631  1.00  0.00     0.260 C 
BRANCH  20  21
ATOM     21  O   UNL A   1      31.414  26.852  23.572  1.00  0.00    -0.366 OA
BRANCH  21  22
ATOM     22  C   UNL A   1      31.472  28.214  23.153  1.00  0.00     0.222 C 
BRANCH  22  23
ATOM     23  C   UNL A   1      30.380  28.619  22.158  1.00  0.00     0.287 C 
BRANCH  23  24
ATOM     24  N   UNL A   1      30.455  30.017  21.734  1.00  0.00    -0.356 N 
ATOM     25  H   UNL A   1      31.207  30.485  22.239  1.00  0.00     0.344 HD
ATOM     26  H   UNL A   1      29.569  30.481  21.934  1.00  0.00     0.344 HD
ATOM     27  H   UNL A   1      30.642  30.058  20.731  1.00  0.00     0.344 HD
ENDBRANCH  23  24
ENDBRANCH  22  23
ENDBRANCH  21  22
ENDBRANCH  20  21
ENDBRANCH  18  20
ENDBRANCH   9  18
ENDBRANCH   6   8
ENDBRANCH   5   6
ENDBRANCH   4   5
ENDBRANCH   3   4
ENDBRANCH   2   3
ENDBRANCH   1   2
BRANCH   1  28
ATOM     28  C   UNL A   1      31.364  32.401  26.921  1.00  0.00     0.188 C 
BRANCH  28  29
ATOM     29  O   UNL A   1      32.129  33.536  27.263  1.00  0.00    -0.377 OA
BRANCH  29  30
ATOM     30  C   UNL A   1      33.486  33.323  27.622  1.00  0.00     0.188 C 
BRANCH  30  31
ATOM     31  C   UNL A   1      34.147  34.324  28.591  1.00  0.00     0.188 C 
BRANCH  31  32
ATOM     32  O   UNL A   1      33.714  34.211  29.939  1.00  0.00    -0.376 OA
BRANCH  32  33
ATOM     33  C   UNL A   1      34.604  33.704  30.923  1.00  0.00     0.202 C 
BRANCH  33  34
ATOM     34  C   UNL A   1      36.021  33.272  30.498  1.00  0.00     0.261 C 
BRANCH  34  35
ATOM     35  O   UNL A   1      36.377  31.897  30.713  1.00  0.00    -0.460 OA
BRANCH  35  36
ATOM     36  C   UNL A   1      36.029  31.001  29.771  1.00  0.00     0.338 C 
ATOM     37  O   UNL A   1      34.970  30.945  29.163  1.00  0.00    -0.246 OA
BRANCH  36  38
ATOM     38  C   UNL A   1      37.220  30.192  29.438  1.00  0.00     0.060 A 
ATOM     39  C   UNL A   1      38.003  29.687  30.485  1.00  0.00     0.016 A 
ATOM     40  C   UNL A   1      37.582  29.961  28.109  1.00  0.00     0.016 A 
ATOM     41  C   UNL A   1      39.192  29.015  30.206  1.00  0.00     0.010 A 
ATOM     42  C   UNL A   1      38.785  29.308  27.830  1.00  0.00     0.010 A 
ATOM     43  C   UNL A   1      39.622  28.885  28.880  1.00  0.00    -0.014 A 
BRANCH  43  44
ATOM     44  C   UNL A   1      41.047  28.570  28.614  1.00  0.00     0.031 A 
ATOM     45  C   UNL A   1      41.394  27.150  28.246  1.00  0.00     0.074 A 
ATOM     46  C   UNL A   1      42.003  29.514  28.642  1.00  0.00     0.049 A 
ATOM     47  N   UNL A   1      42.561  26.611  28.004  1.00  0.00    -0.248 NA
ATOM     48  C   UNL A   1      40.265  26.209  28.141  1.00  0.00     0.031 C 
ATOM     49  C   UNL A   1      41.787  30.931  28.925  1.00  0.00     0.029 A 
ATOM     50  N   UNL A   1      43.354  29.412  28.429  1.00  0.00    -0.354 N 
ATOM     51  C   UNL A   1      42.306  25.273  27.727  1.00  0.00     0.074 A 
ATOM     52  C   UNL A   1      40.883  25.071  27.870  1.00  0.00     0.031 C 
ATOM     53  C   UNL A   1      42.971  31.566  28.878  1.00  0.00     0.029 A 
ATOM     54  C   UNL A   1      44.028  30.596  28.595  1.00  0.00     0.049 A 
ATOM     55  H   UNL A   1      43.798  28.569  28.181  1.00  0.00     0.167 HD
ATOM     56  C   UNL A   1      43.179  24.300  27.374  1.00  0.00     0.037 A 
ATOM     57  C   UNL A   1      45.350  30.856  28.544  1.00  0.00     0.037 A 
ATOM     58  C   UNL A   1      44.595  24.503  27.232  1.00  0.00     0.049 A 
ATOM     59  C   UNL A   1      46.313  29.737  28.234  1.00  0.00     0.074 A 
ATOM     60  C   UNL A   1      45.566  23.584  26.875  1.00  0.00     0.029 A 
ATOM     61  N   UNL A   1      45.244  25.709  27.445  1.00  0.00    -0.354 N 
ATOM     62  N   UNL A   1      46.064  28.478  27.964  1.00  0.00    -0.248 NA
ATOM     63  C   UNL A   1      47.743  30.079  28.215  1.00  0.00     0.031 C 
ATOM     64  C   UNL A   1      46.810  24.221  26.930  1.00  0.00     0.029 A 
ATOM     65  C   UNL A   1      46.606  25.553  27.251  1.00  0.00     0.049 A 
ATOM     66  H   UNL A   1      44.802  26.552  27.697  1.00  0.00     0.167 HD
ATOM     67  C   UNL A   1      47.298  27.891  27.702  1.00  0.00     0.074 A 
ATOM     68  C   UNL A   1      48.292  28.934  27.839  1.00  0.00     0.031 C 
ATOM     69  C   UNL A   1      47.582  26.607  27.372  1.00  0.00     0.037 A 
BRANCH  56  70
ATOM     70  C   UNL A   1      42.624  22.923  27.147  1.00  0.00     0.057 A 
ATOM     71  C   UNL A   1      42.282  22.074  28.208  1.00  0.00     0.134 A 
ATOM     72  C   UNL A   1      42.412  22.448  25.847  1.00  0.00     0.134 A 
ATOM     73  F   UNL A   1      42.477  22.459  29.479  1.00  0.00    -0.206 F 
ATOM     74  C   UNL A   1      41.773  20.793  27.984  1.00  0.00     0.040 A 
ATOM     75  C   UNL A   1      41.876  21.181  25.610  1.00  0.00     0.040 A 
ATOM     76  F   UNL A   1      42.717  23.208  24.785  1.00  0.00    -0.206 F 
ATOM     77  C   UNL A   1      41.562  20.346  26.680  1.00  0.00     0.006 A 
ENDBRANCH  56  70
BRANCH  57  78
ATOM     78  C   UNL A   1      45.854  32.230  28.806  1.00  0.00     0.057 A 
ATOM     79  C   UNL A   1      45.954  33.176  27.778  1.00  0.00     0.134 A 
ATOM     80  C   UNL A   1      46.287  32.617  30.080  1.00  0.00     0.134 A 
ATOM     81  F   UNL A   1      45.580  32.858  26.530  1.00  0.00    -0.206 F 
ATOM     82  C   UNL A   1      46.489  34.447  28.002  1.00  0.00     0.040 A 
ATOM     83  C   UNL A   1      46.795  33.895  30.324  1.00  0.00     0.040 A 
ATOM     84  F   UNL A   1      46.220  31.759  31.109  1.00  0.00    -0.206 F 
ATOM     85  C   UNL A   1      46.907  34.810  29.280  1.00  0.00     0.006 A 
ENDBRANCH  57  78
BRANCH  69  86
ATOM     86  C   UNL A   1      49.014  26.266  27.071  1.00  0.00     0.057 A 
ATOM     87  C   UNL A   1      49.908  25.842  28.064  1.00  0.00     0.134 A 
ATOM     88  C   UNL A   1      49.493  26.322  25.754  1.00  0.00     0.134 A 
ATOM     89  F   UNL A   1      49.519  25.774  29.345  1.00  0.00    -0.206 F 
ATOM     90  C   UNL A   1      51.231  25.515  27.761  1.00  0.00     0.040 A 
ATOM     91  C   UNL A   1      50.804  25.966  25.436  1.00  0.00     0.040 A 
ATOM     92  F   UNL A   1      48.688  26.706  24.752  1.00  0.00    -0.206 F 
ATOM     93  C   UNL A   1      51.681  25.569  26.443  1.00  0.00     0.006 A 
ENDBRANCH  69  86
ENDBRANCH  43  44
ENDBRANCH  36  38
ENDBRANCH  35  36
ENDBRANCH  34  35
ENDBRANCH  33  34
ENDBRANCH  32  33
ENDBRANCH  31  32
ENDBRANCH  30  31
ENDBRANCH  29  30
ENDBRANCH  28  29
ENDBRANCH   1  28
TORSDOF 26
ENDMDL
