MODEL 1
REMARK VINA RESULT:     -11.0      0.000      0.000
REMARK SMILES C[C@@H](C(=O)OCCOCCOCCOCCOC(=O)c1ccc(-c2c3nc(c(-c4c(F)cccc4F)c4ccc([nH]4)c(-c4c(F)cccc4F)c4nc(c(-c5c(F)cccc5F)c5ccc2[nH]5)C=C4)C=C3)cc1)c1ccc(C[C@H]2CCCC2=O)cc1Br
REMARK SMILES IDX 10 1 9 2 8 3 7 4 6 5 5 6 3 7 4 8 2 9 1 10 74 11 75 12 86 13
REMARK SMILES IDX 76 14 85 15 87 16 77 17 78 18 79 19 80 20 83 21 81 22 82 23
REMARK SMILES IDX 84 24 11 25 12 26 13 27 14 28 15 29 16 30 17 31 18 32 19 33
REMARK SMILES IDX 20 34 21 35 73 36 22 37 72 38 23 39 24 40 25 41 66 42 26 43
REMARK SMILES IDX 71 44 65 45 67 46 27 47 70 48 64 49 63 50 28 52 54 53 37 54
REMARK SMILES IDX 53 55 38 56 41 57 52 58 68 59 39 60 40 61 51 63 69 64 42 65
REMARK SMILES IDX 29 66 30 67 35 68 31 69 32 70 34 71 36 72 33 73 55 74 56 75
REMARK SMILES IDX 61 76 57 77 58 78 60 79 62 80 59 81 43 82 44 83 49 84 45 85
REMARK SMILES IDX 46 86 48 87 50 88 47 89
REMARK H PARENT 67 51 41 62
REMARK Flexibility Score: inf
ROOT
ATOM      1  C   UNL A   1      41.993  19.784  26.253  1.00  0.00     0.188 C 
ENDROOT
BRANCH   1   2
ATOM      2  C   UNL A   1      40.512  20.188  26.093  1.00  0.00     0.188 C 
BRANCH   2   3
ATOM      3  O   UNL A   1      40.148  21.540  25.846  1.00  0.00    -0.376 OA
BRANCH   3   4
ATOM      4  C   UNL A   1      38.833  21.978  26.135  1.00  0.00     0.202 C 
BRANCH   4   5
ATOM      5  C   UNL A   1      37.759  21.977  25.027  1.00  0.00     0.261 C 
BRANCH   5   6
ATOM      6  O   UNL A   1      36.935  23.154  24.893  1.00  0.00    -0.463 OA
BRANCH   6   7
ATOM      7  C   UNL A   1      36.096  23.190  23.826  1.00  0.00     0.313 C 
ATOM      8  O   UNL A   1      36.482  23.074  22.666  1.00  0.00    -0.252 OA
BRANCH   7   9
ATOM      9  C   UNL A   1      34.607  23.431  24.185  1.00  0.00     0.127 C 
ATOM     10  C   UNL A   1      34.225  24.640  25.044  1.00  0.00     0.025 C 
BRANCH   9  11
ATOM     11  C   UNL A   1      33.902  22.097  24.488  1.00  0.00    -0.020 A 
ATOM     12  C   UNL A   1      33.215  21.527  23.393  1.00  0.00     0.006 A 
ATOM     13  C   UNL A   1      33.972  21.315  25.658  1.00  0.00     0.022 A 
ATOM     14  C   UNL A   1      32.642  20.256  23.451  1.00  0.00     0.004 A 
ATOM     15  C   UNL A   1      33.504  19.993  25.666  1.00  0.00     0.019 A 
ATOM     16  Br  UNL A   1      34.436  21.904  27.400  1.00  0.00    -0.050 Br
ATOM     17  C   UNL A   1      32.786  19.476  24.593  1.00  0.00    -0.046 A 
BRANCH  17  18
ATOM     18  C   UNL A   1      32.053  18.169  24.747  1.00  0.00     0.047 C 
BRANCH  18  19
ATOM     19  C   UNL A   1      32.808  16.964  24.164  1.00  0.00     0.060 C 
ATOM     20  C   UNL A   1      34.162  17.242  23.495  1.00  0.00     0.012 C 
ATOM     21  C   UNL A   1      33.190  15.974  25.241  1.00  0.00     0.136 C 
ATOM     22  C   UNL A   1      35.243  16.938  24.529  1.00  0.00     0.009 C 
ATOM     23  C   UNL A   1      34.679  15.842  25.419  1.00  0.00     0.076 C 
ATOM     24  O   UNL A   1      32.373  15.344  25.902  1.00  0.00    -0.299 OA
ENDBRANCH  18  19
ENDBRANCH  17  18
ENDBRANCH   9  11
ENDBRANCH   7   9
ENDBRANCH   6   7
ENDBRANCH   5   6
ENDBRANCH   4   5
ENDBRANCH   3   4
ENDBRANCH   2   3
ENDBRANCH   1   2
BRANCH   1  25
ATOM     25  O   UNL A   1      42.647  19.396  25.062  1.00  0.00    -0.377 OA
BRANCH  25  26
ATOM     26  C   UNL A   1      43.815  18.622  25.268  1.00  0.00     0.188 C 
BRANCH  26  27
ATOM     27  C   UNL A   1      45.127  19.420  25.357  1.00  0.00     0.188 C 
BRANCH  27  28
ATOM     28  O   UNL A   1      45.250  20.423  24.351  1.00  0.00    -0.376 OA
BRANCH  28  29
ATOM     29  C   UNL A   1      46.069  21.557  24.603  1.00  0.00     0.202 C 
BRANCH  29  30
ATOM     30  C   UNL A   1      45.657  22.469  25.770  1.00  0.00     0.261 C 
BRANCH  30  31
ATOM     31  O   UNL A   1      45.016  23.705  25.419  1.00  0.00    -0.460 OA
BRANCH  31  32
ATOM     32  C   UNL A   1      43.692  23.685  25.167  1.00  0.00     0.338 C 
ATOM     33  O   UNL A   1      43.082  22.885  24.479  1.00  0.00    -0.246 OA
BRANCH  32  34
ATOM     34  C   UNL A   1      43.055  24.676  26.062  1.00  0.00     0.060 A 
ATOM     35  C   UNL A   1      43.637  25.945  26.177  1.00  0.00     0.016 A 
ATOM     36  C   UNL A   1      41.875  24.373  26.745  1.00  0.00     0.016 A 
ATOM     37  C   UNL A   1      43.052  26.911  26.995  1.00  0.00     0.010 A 
ATOM     38  C   UNL A   1      41.310  25.329  27.593  1.00  0.00     0.010 A 
ATOM     39  C   UNL A   1      41.915  26.589  27.745  1.00  0.00    -0.014 A 
BRANCH  39  40
ATOM     40  C   UNL A   1      41.510  27.479  28.857  1.00  0.00     0.031 A 
ATOM     41  C   UNL A   1      42.298  27.406  30.135  1.00  0.00     0.074 A 
ATOM     42  C   UNL A   1      40.498  28.355  28.728  1.00  0.00     0.049 A 
ATOM     43  N   UNL A   1      42.124  28.048  31.261  1.00  0.00    -0.248 NA
ATOM     44  C   UNL A   1      43.441  26.476  30.142  1.00  0.00     0.031 C 
ATOM     45  C   UNL A   1      39.700  28.558  27.522  1.00  0.00     0.029 A 
ATOM     46  N   UNL A   1      39.971  29.239  29.637  1.00  0.00    -0.354 N 
ATOM     47  C   UNL A   1      43.126  27.594  32.109  1.00  0.00     0.074 A 
ATOM     48  C   UNL A   1      43.887  26.603  31.382  1.00  0.00     0.031 C 
ATOM     49  C   UNL A   1      38.774  29.502  27.769  1.00  0.00     0.029 A 
ATOM     50  C   UNL A   1      38.893  29.943  29.158  1.00  0.00     0.049 A 
ATOM     51  H   UNL A   1      40.331  29.356  30.546  1.00  0.00     0.167 HD
ATOM     52  C   UNL A   1      43.392  27.975  33.380  1.00  0.00     0.037 A 
ATOM     53  C   UNL A   1      38.087  30.823  29.783  1.00  0.00     0.037 A 
ATOM     54  C   UNL A   1      42.630  28.958  34.100  1.00  0.00     0.049 A 
ATOM     55  C   UNL A   1      38.350  31.166  31.228  1.00  0.00     0.074 A 
ATOM     56  C   UNL A   1      42.824  29.426  35.386  1.00  0.00     0.029 A 
ATOM     57  N   UNL A   1      41.517  29.617  33.596  1.00  0.00    -0.354 N 
ATOM     58  N   UNL A   1      39.312  30.749  32.018  1.00  0.00    -0.248 NA
ATOM     59  C   UNL A   1      37.414  32.101  31.869  1.00  0.00     0.031 C 
ATOM     60  C   UNL A   1      41.792  30.323  35.684  1.00  0.00     0.029 A 
ATOM     61  C   UNL A   1      40.995  30.464  34.559  1.00  0.00     0.049 A 
ATOM     62  H   UNL A   1      41.154  29.499  32.688  1.00  0.00     0.167 HD
ATOM     63  C   UNL A   1      39.118  31.398  33.232  1.00  0.00     0.074 A 
ATOM     64  C   UNL A   1      37.953  32.243  33.072  1.00  0.00     0.031 C 
ATOM     65  C   UNL A   1      39.840  31.306  34.377  1.00  0.00     0.037 A 
BRANCH  52  66
ATOM     66  C   UNL A   1      44.530  27.292  34.082  1.00  0.00     0.057 A 
ATOM     67  C   UNL A   1      45.830  27.813  34.077  1.00  0.00     0.134 A 
ATOM     68  C   UNL A   1      44.314  26.101  34.788  1.00  0.00     0.134 A 
ATOM     69  F   UNL A   1      46.109  28.940  33.404  1.00  0.00    -0.206 F 
ATOM     70  C   UNL A   1      46.880  27.163  34.728  1.00  0.00     0.040 A 
ATOM     71  C   UNL A   1      45.349  25.457  35.466  1.00  0.00     0.040 A 
ATOM     72  F   UNL A   1      43.093  25.546  34.831  1.00  0.00    -0.206 F 
ATOM     73  C   UNL A   1      46.638  25.984  35.432  1.00  0.00     0.006 A 
ENDBRANCH  52  66
BRANCH  53  74
ATOM     74  C   UNL A   1      36.941  31.434  29.060  1.00  0.00     0.057 A 
ATOM     75  C   UNL A   1      36.980  32.766  28.629  1.00  0.00     0.134 A 
ATOM     76  C   UNL A   1      35.766  30.714  28.814  1.00  0.00     0.134 A 
ATOM     77  F   UNL A   1      38.067  33.518  28.859  1.00  0.00    -0.206 F 
ATOM     78  C   UNL A   1      35.888  33.365  28.000  1.00  0.00     0.040 A 
ATOM     79  C   UNL A   1      34.676  31.291  28.159  1.00  0.00     0.040 A 
ATOM     80  F   UNL A   1      35.661  29.435  29.202  1.00  0.00    -0.206 F 
ATOM     81  C   UNL A   1      34.732  32.625  27.757  1.00  0.00     0.006 A 
ENDBRANCH  53  74
BRANCH  65  82
ATOM     82  C   UNL A   1      39.423  32.174  35.531  1.00  0.00     0.057 A 
ATOM     83  C   UNL A   1      39.858  33.499  35.662  1.00  0.00     0.134 A 
ATOM     84  C   UNL A   1      38.534  31.688  36.499  1.00  0.00     0.134 A 
ATOM     85  F   UNL A   1      40.719  34.024  34.775  1.00  0.00    -0.206 F 
ATOM     86  C   UNL A   1      39.444  34.300  36.728  1.00  0.00     0.040 A 
ATOM     87  C   UNL A   1      38.088  32.489  37.550  1.00  0.00     0.040 A 
ATOM     88  F   UNL A   1      38.067  30.432  36.427  1.00  0.00    -0.206 F 
ATOM     89  C   UNL A   1      38.550  33.798  37.671  1.00  0.00     0.006 A 
ENDBRANCH  65  82
ENDBRANCH  39  40
ENDBRANCH  32  34
ENDBRANCH  31  32
ENDBRANCH  30  31
ENDBRANCH  29  30
ENDBRANCH  28  29
ENDBRANCH  27  28
ENDBRANCH  26  27
ENDBRANCH  25  26
ENDBRANCH   1  25
TORSDOF 23
ENDMDL
MODEL 2
REMARK VINA RESULT:     -10.3      1.986      4.236
REMARK SMILES C[C@@H](C(=O)OCCOCCOCCOCCOC(=O)c1ccc(-c2c3nc(c(-c4c(F)cccc4F)c4ccc([nH]4)c(-c4c(F)cccc4F)c4nc(c(-c5c(F)cccc5F)c5ccc2[nH]5)C=C4)C=C3)cc1)c1ccc(C[C@H]2CCCC2=O)cc1Br
REMARK SMILES IDX 10 1 9 2 8 3 7 4 6 5 5 6 3 7 4 8 2 9 1 10 74 11 75 12 86 13
REMARK SMILES IDX 76 14 85 15 87 16 77 17 78 18 79 19 80 20 83 21 81 22 82 23
REMARK SMILES IDX 84 24 11 25 12 26 13 27 14 28 15 29 16 30 17 31 18 32 19 33
REMARK SMILES IDX 20 34 21 35 73 36 22 37 72 38 23 39 24 40 25 41 66 42 26 43
REMARK SMILES IDX 71 44 65 45 67 46 27 47 70 48 64 49 63 50 28 52 54 53 37 54
REMARK SMILES IDX 53 55 38 56 41 57 52 58 68 59 39 60 40 61 51 63 69 64 42 65
REMARK SMILES IDX 29 66 30 67 35 68 31 69 32 70 34 71 36 72 33 73 55 74 56 75
REMARK SMILES IDX 61 76 57 77 58 78 60 79 62 80 59 81 43 82 44 83 49 84 45 85
REMARK SMILES IDX 46 86 48 87 50 88 47 89
REMARK H PARENT 67 51 41 62
REMARK Flexibility Score: inf
ROOT
ATOM      1  C   UNL A   1      41.894  19.667  26.217  1.00  0.00     0.188 C 
ENDROOT
BRANCH   1   2
ATOM      2  C   UNL A   1      40.428  20.126  26.058  1.00  0.00     0.188 C 
BRANCH   2   3
ATOM      3  O   UNL A   1      40.109  21.503  25.905  1.00  0.00    -0.376 OA
BRANCH   3   4
ATOM      4  C   UNL A   1      38.780  21.944  26.115  1.00  0.00     0.202 C 
BRANCH   4   5
ATOM      5  C   UNL A   1      37.850  22.189  24.908  1.00  0.00     0.261 C 
BRANCH   5   6
ATOM      6  O   UNL A   1      36.835  23.206  25.042  1.00  0.00    -0.463 OA
BRANCH   6   7
ATOM      7  C   UNL A   1      35.545  22.798  24.918  1.00  0.00     0.313 C 
ATOM      8  O   UNL A   1      35.073  22.382  23.863  1.00  0.00    -0.252 OA
BRANCH   7   9
ATOM      9  C   UNL A   1      34.699  22.938  26.209  1.00  0.00     0.127 C 
ATOM     10  C   UNL A   1      34.391  21.694  27.048  1.00  0.00     0.025 C 
BRANCH   9  11
ATOM     11  C   UNL A   1      33.559  23.949  26.000  1.00  0.00    -0.020 A 
ATOM     12  C   UNL A   1      33.949  25.306  26.071  1.00  0.00     0.006 A 
ATOM     13  C   UNL A   1      32.227  23.701  25.614  1.00  0.00     0.022 A 
ATOM     14  C   UNL A   1      33.076  26.351  25.767  1.00  0.00     0.004 A 
ATOM     15  C   UNL A   1      31.396  24.748  25.191  1.00  0.00     0.019 A 
ATOM     16  Br  UNL A   1      31.264  22.079  25.809  1.00  0.00    -0.050 Br
ATOM     17  C   UNL A   1      31.788  26.077  25.320  1.00  0.00    -0.046 A 
BRANCH  17  18
ATOM     18  C   UNL A   1      30.774  27.175  25.132  1.00  0.00     0.047 C 
BRANCH  18  19
ATOM     19  C   UNL A   1      31.091  28.115  23.958  1.00  0.00     0.060 C 
ATOM     20  C   UNL A   1      30.336  27.874  22.643  1.00  0.00     0.012 C 
ATOM     21  C   UNL A   1      30.718  29.545  24.275  1.00  0.00     0.136 C 
ATOM     22  C   UNL A   1      29.164  28.852  22.614  1.00  0.00     0.009 C 
ATOM     23  C   UNL A   1      29.616  30.075  23.396  1.00  0.00     0.076 C 
ATOM     24  O   UNL A   1      31.255  30.206  25.156  1.00  0.00    -0.299 OA
ENDBRANCH  18  19
ENDBRANCH  17  18
ENDBRANCH   9  11
ENDBRANCH   7   9
ENDBRANCH   6   7
ENDBRANCH   5   6
ENDBRANCH   4   5
ENDBRANCH   3   4
ENDBRANCH   2   3
ENDBRANCH   1   2
BRANCH   1  25
ATOM     25  O   UNL A   1      42.624  19.544  25.013  1.00  0.00    -0.377 OA
BRANCH  25  26
ATOM     26  C   UNL A   1      43.796  18.756  25.124  1.00  0.00     0.188 C 
BRANCH  26  27
ATOM     27  C   UNL A   1      45.119  19.542  25.130  1.00  0.00     0.188 C 
BRANCH  27  28
ATOM     28  O   UNL A   1      45.018  20.827  24.520  1.00  0.00    -0.376 OA
BRANCH  28  29
ATOM     29  C   UNL A   1      46.038  21.787  24.760  1.00  0.00     0.202 C 
BRANCH  29  30
ATOM     30  C   UNL A   1      45.684  22.966  25.680  1.00  0.00     0.261 C 
BRANCH  30  31
ATOM     31  O   UNL A   1      44.878  24.006  25.103  1.00  0.00    -0.460 OA
BRANCH  31  32
ATOM     32  C   UNL A   1      43.543  23.825  25.061  1.00  0.00     0.338 C 
ATOM     33  O   UNL A   1      42.937  22.908  24.535  1.00  0.00    -0.246 OA
BRANCH  32  34
ATOM     34  C   UNL A   1      42.932  24.819  25.970  1.00  0.00     0.060 A 
ATOM     35  C   UNL A   1      43.600  26.032  26.183  1.00  0.00     0.016 A 
ATOM     36  C   UNL A   1      41.693  24.578  26.570  1.00  0.00     0.016 A 
ATOM     37  C   UNL A   1      43.043  27.000  27.017  1.00  0.00     0.010 A 
ATOM     38  C   UNL A   1      41.153  25.534  27.435  1.00  0.00     0.010 A 
ATOM     39  C   UNL A   1      41.843  26.734  27.685  1.00  0.00    -0.014 A 
BRANCH  39  40
ATOM     40  C   UNL A   1      41.441  27.598  28.817  1.00  0.00     0.031 A 
ATOM     41  C   UNL A   1      42.241  27.504  30.088  1.00  0.00     0.074 A 
ATOM     42  C   UNL A   1      40.424  28.471  28.715  1.00  0.00     0.049 A 
ATOM     43  N   UNL A   1      42.071  28.123  31.227  1.00  0.00    -0.248 NA
ATOM     44  C   UNL A   1      43.388  26.582  30.066  1.00  0.00     0.031 C 
ATOM     45  C   UNL A   1      39.614  28.694  27.519  1.00  0.00     0.029 A 
ATOM     46  N   UNL A   1      39.899  29.333  29.645  1.00  0.00    -0.354 N 
ATOM     47  C   UNL A   1      43.083  27.658  32.058  1.00  0.00     0.074 A 
ATOM     48  C   UNL A   1      43.844  26.687  31.305  1.00  0.00     0.031 C 
ATOM     49  C   UNL A   1      38.685  29.627  27.792  1.00  0.00     0.029 A 
ATOM     50  C   UNL A   1      38.813  30.041  29.189  1.00  0.00     0.049 A 
ATOM     51  H   UNL A   1      40.265  29.434  30.553  1.00  0.00     0.167 HD
ATOM     52  C   UNL A   1      43.358  28.015  33.334  1.00  0.00     0.037 A 
ATOM     53  C   UNL A   1      38.007  30.902  29.838  1.00  0.00     0.037 A 
ATOM     54  C   UNL A   1      42.595  28.979  34.080  1.00  0.00     0.049 A 
ATOM     55  C   UNL A   1      38.280  31.218  31.288  1.00  0.00     0.074 A 
ATOM     56  C   UNL A   1      42.797  29.423  35.374  1.00  0.00     0.029 A 
ATOM     57  N   UNL A   1      41.475  29.641  33.599  1.00  0.00    -0.354 N 
ATOM     58  N   UNL A   1      39.250  30.792  32.061  1.00  0.00    -0.248 NA
ATOM     59  C   UNL A   1      37.344  32.135  31.954  1.00  0.00     0.031 C 
ATOM     60  C   UNL A   1      41.763  30.307  35.698  1.00  0.00     0.029 A 
ATOM     61  C   UNL A   1      40.956  30.465  34.582  1.00  0.00     0.049 A 
ATOM     62  H   UNL A   1      41.105  29.539  32.692  1.00  0.00     0.167 HD
ATOM     63  C   UNL A   1      39.062  31.415  33.290  1.00  0.00     0.074 A 
ATOM     64  C   UNL A   1      37.892  32.256  33.156  1.00  0.00     0.031 C 
ATOM     65  C   UNL A   1      39.794  31.305  34.427  1.00  0.00     0.037 A 
BRANCH  52  66
ATOM     66  C   UNL A   1      44.505  27.325  34.013  1.00  0.00     0.057 A 
ATOM     67  C   UNL A   1      44.340  26.131  34.728  1.00  0.00     0.134 A 
ATOM     68  C   UNL A   1      45.798  27.857  33.935  1.00  0.00     0.134 A 
ATOM     69  F   UNL A   1      43.125  25.578  34.858  1.00  0.00    -0.206 F 
ATOM     70  C   UNL A   1      45.416  25.505  35.360  1.00  0.00     0.040 A 
ATOM     71  C   UNL A   1      46.886  27.225  34.538  1.00  0.00     0.040 A 
ATOM     72  F   UNL A   1      46.026  28.999  33.268  1.00  0.00    -0.206 F 
ATOM     73  C   UNL A   1      46.695  26.049  35.260  1.00  0.00     0.006 A 
ENDBRANCH  52  66
BRANCH  53  74
ATOM     74  C   UNL A   1      36.851  31.522  29.137  1.00  0.00     0.057 A 
ATOM     75  C   UNL A   1      35.688  30.791  28.865  1.00  0.00     0.134 A 
ATOM     76  C   UNL A   1      36.895  32.848  28.690  1.00  0.00     0.134 A 
ATOM     77  F   UNL A   1      35.594  29.507  29.243  1.00  0.00    -0.206 F 
ATOM     78  C   UNL A   1      34.621  31.348  28.158  1.00  0.00     0.040 A 
ATOM     79  C   UNL A   1      35.824  33.427  28.008  1.00  0.00     0.040 A 
ATOM     80  F   UNL A   1      37.980  33.603  28.915  1.00  0.00    -0.206 F 
ATOM     81  C   UNL A   1      34.685  32.673  27.731  1.00  0.00     0.006 A 
ENDBRANCH  53  74
BRANCH  65  82
ATOM     82  C   UNL A   1      39.382  32.146  35.601  1.00  0.00     0.057 A 
ATOM     83  C   UNL A   1      38.485  31.682  36.572  1.00  0.00     0.134 A 
ATOM     84  C   UNL A   1      39.930  33.423  35.786  1.00  0.00     0.134 A 
ATOM     85  F   UNL A   1      37.915  30.473  36.450  1.00  0.00    -0.206 F 
ATOM     86  C   UNL A   1      38.128  32.468  37.670  1.00  0.00     0.040 A 
ATOM     87  C   UNL A   1      39.607  34.203  36.896  1.00  0.00     0.040 A 
ATOM     88  F   UNL A   1      40.806  33.923  34.902  1.00  0.00    -0.206 F 
ATOM     89  C   UNL A   1      38.696  33.729  37.838  1.00  0.00     0.006 A 
ENDBRANCH  65  82
ENDBRANCH  39  40
ENDBRANCH  32  34
ENDBRANCH  31  32
ENDBRANCH  30  31
ENDBRANCH  29  30
ENDBRANCH  28  29
ENDBRANCH  27  28
ENDBRANCH  26  27
ENDBRANCH  25  26
ENDBRANCH   1  25
TORSDOF 23
ENDMDL
MODEL 3
REMARK VINA RESULT:     -10.1      4.729     10.012
REMARK SMILES C[C@@H](C(=O)OCCOCCOCCOCCOC(=O)c1ccc(-c2c3nc(c(-c4c(F)cccc4F)c4ccc([nH]4)c(-c4c(F)cccc4F)c4nc(c(-c5c(F)cccc5F)c5ccc2[nH]5)C=C4)C=C3)cc1)c1ccc(C[C@H]2CCCC2=O)cc1Br
REMARK SMILES IDX 10 1 9 2 8 3 7 4 6 5 5 6 3 7 4 8 2 9 1 10 74 11 75 12 86 13
REMARK SMILES IDX 76 14 85 15 87 16 77 17 78 18 79 19 80 20 83 21 81 22 82 23
REMARK SMILES IDX 84 24 11 25 12 26 13 27 14 28 15 29 16 30 17 31 18 32 19 33
REMARK SMILES IDX 20 34 21 35 73 36 22 37 72 38 23 39 24 40 25 41 66 42 26 43
REMARK SMILES IDX 71 44 65 45 67 46 27 47 70 48 64 49 63 50 28 52 54 53 37 54
REMARK SMILES IDX 53 55 38 56 41 57 52 58 68 59 39 60 40 61 51 63 69 64 42 65
REMARK SMILES IDX 29 66 30 67 35 68 31 69 32 70 34 71 36 72 33 73 55 74 56 75
REMARK SMILES IDX 61 76 57 77 58 78 60 79 62 80 59 81 43 82 44 83 49 84 45 85
REMARK SMILES IDX 46 86 48 87 50 88 47 89
REMARK H PARENT 67 51 41 62
REMARK Flexibility Score: inf
ROOT
ATOM      1  C   UNL A   1      32.544  31.012  26.522  1.00  0.00     0.188 C 
ENDROOT
BRANCH   1   2
ATOM      2  C   UNL A   1      31.514  30.025  25.931  1.00  0.00     0.188 C 
BRANCH   2   3
ATOM      3  O   UNL A   1      30.669  30.412  24.855  1.00  0.00    -0.376 OA
BRANCH   3   4
ATOM      4  C   UNL A   1      30.367  29.483  23.829  1.00  0.00     0.202 C 
BRANCH   4   5
ATOM      5  C   UNL A   1      31.156  28.161  23.730  1.00  0.00     0.261 C 
BRANCH   5   6
ATOM      6  O   UNL A   1      30.516  26.962  24.215  1.00  0.00    -0.463 OA
BRANCH   6   7
ATOM      7  C   UNL A   1      30.830  25.805  23.576  1.00  0.00     0.313 C 
ATOM      8  O   UNL A   1      30.181  24.770  23.708  1.00  0.00    -0.252 OA
BRANCH   7   9
ATOM      9  C   UNL A   1      32.102  25.882  22.694  1.00  0.00     0.127 C 
ATOM     10  C   UNL A   1      31.961  25.930  21.170  1.00  0.00     0.025 C 
BRANCH   9  11
ATOM     11  C   UNL A   1      33.215  24.991  23.273  1.00  0.00    -0.020 A 
ATOM     12  C   UNL A   1      33.495  23.828  22.520  1.00  0.00     0.006 A 
ATOM     13  C   UNL A   1      34.070  25.252  24.361  1.00  0.00     0.022 A 
ATOM     14  C   UNL A   1      34.565  22.984  22.821  1.00  0.00     0.004 A 
ATOM     15  C   UNL A   1      35.213  24.470  24.579  1.00  0.00     0.019 A 
ATOM     16  Br  UNL A   1      33.759  26.452  25.797  1.00  0.00    -0.050 Br
ATOM     17  C   UNL A   1      35.437  23.303  23.856  1.00  0.00    -0.046 A 
BRANCH  17  18
ATOM     18  C   UNL A   1      36.505  22.340  24.306  1.00  0.00     0.047 C 
BRANCH  18  19
ATOM     19  C   UNL A   1      36.023  21.330  25.360  1.00  0.00     0.060 C 
ATOM     20  C   UNL A   1      34.506  21.171  25.536  1.00  0.00     0.012 C 
ATOM     21  C   UNL A   1      36.446  19.921  25.013  1.00  0.00     0.136 C 
ATOM     22  C   UNL A   1      34.087  19.949  24.724  1.00  0.00     0.009 C 
ATOM     23  C   UNL A   1      35.283  19.009  24.727  1.00  0.00     0.076 C 
ATOM     24  O   UNL A   1      37.616  19.557  24.968  1.00  0.00    -0.299 OA
ENDBRANCH  18  19
ENDBRANCH  17  18
ENDBRANCH   9  11
ENDBRANCH   7   9
ENDBRANCH   6   7
ENDBRANCH   5   6
ENDBRANCH   4   5
ENDBRANCH   3   4
ENDBRANCH   2   3
ENDBRANCH   1   2
BRANCH   1  25
ATOM     25  O   UNL A   1      33.729  30.424  27.020  1.00  0.00    -0.377 OA
BRANCH  25  26
ATOM     26  C   UNL A   1      34.453  31.248  27.915  1.00  0.00     0.188 C 
BRANCH  26  27
ATOM     27  C   UNL A   1      33.809  32.611  28.222  1.00  0.00     0.188 C 
BRANCH  27  28
ATOM     28  O   UNL A   1      34.678  33.506  28.914  1.00  0.00    -0.376 OA
BRANCH  28  29
ATOM     29  C   UNL A   1      34.142  34.333  29.938  1.00  0.00     0.202 C 
BRANCH  29  30
ATOM     30  C   UNL A   1      34.287  33.834  31.385  1.00  0.00     0.261 C 
BRANCH  30  31
ATOM     31  O   UNL A   1      34.850  32.523  31.555  1.00  0.00    -0.460 OA
BRANCH  31  32
ATOM     32  C   UNL A   1      35.895  32.385  32.395  1.00  0.00     0.338 C 
ATOM     33  O   UNL A   1      35.938  32.681  33.577  1.00  0.00    -0.246 OA
BRANCH  32  34
ATOM     34  C   UNL A   1      36.926  31.591  31.693  1.00  0.00     0.060 A 
ATOM     35  C   UNL A   1      37.825  30.835  32.458  1.00  0.00     0.016 A 
ATOM     36  C   UNL A   1      36.980  31.556  30.298  1.00  0.00     0.016 A 
ATOM     37  C   UNL A   1      38.797  30.058  31.829  1.00  0.00     0.010 A 
ATOM     38  C   UNL A   1      37.978  30.806  29.669  1.00  0.00     0.010 A 
ATOM     39  C   UNL A   1      38.909  30.081  30.434  1.00  0.00    -0.014 A 
BRANCH  39  40
ATOM     40  C   UNL A   1      40.135  29.548  29.801  1.00  0.00     0.031 A 
ATOM     41  C   UNL A   1      41.307  30.478  29.650  1.00  0.00     0.074 A 
ATOM     42  C   UNL A   1      40.227  28.266  29.405  1.00  0.00     0.049 A 
ATOM     43  N   UNL A   1      42.474  30.267  29.099  1.00  0.00    -0.248 NA
ATOM     44  C   UNL A   1      41.133  31.835  30.195  1.00  0.00     0.031 C 
ATOM     45  C   UNL A   1      39.182  27.256  29.552  1.00  0.00     0.029 A 
ATOM     46  N   UNL A   1      41.259  27.600  28.792  1.00  0.00    -0.354 N 
ATOM     47  C   UNL A   1      43.168  31.465  29.224  1.00  0.00     0.074 A 
ATOM     48  C   UNL A   1      42.284  32.406  29.874  1.00  0.00     0.031 C 
ATOM     49  C   UNL A   1      39.623  26.097  29.032  1.00  0.00     0.029 A 
ATOM     50  C   UNL A   1      40.966  26.293  28.487  1.00  0.00     0.049 A 
ATOM     51  H   UNL A   1      42.127  28.019  28.591  1.00  0.00     0.167 HD
ATOM     52  C   UNL A   1      44.432  31.752  28.835  1.00  0.00     0.037 A 
ATOM     53  C   UNL A   1      41.694  25.375  27.822  1.00  0.00     0.037 A 
ATOM     54  C   UNL A   1      45.305  30.813  28.185  1.00  0.00     0.049 A 
ATOM     55  C   UNL A   1      43.067  25.746  27.321  1.00  0.00     0.074 A 
ATOM     56  C   UNL A   1      46.609  30.999  27.764  1.00  0.00     0.029 A 
ATOM     57  N   UNL A   1      44.956  29.512  27.852  1.00  0.00    -0.354 N 
ATOM     58  N   UNL A   1      43.725  26.873  27.461  1.00  0.00    -0.248 NA
ATOM     59  C   UNL A   1      43.799  24.716  26.569  1.00  0.00     0.031 C 
ATOM     60  C   UNL A   1      47.028  29.830  27.120  1.00  0.00     0.029 A 
ATOM     61  C   UNL A   1      46.009  28.894  27.201  1.00  0.00     0.049 A 
ATOM     62  H   UNL A   1      44.087  29.092  28.050  1.00  0.00     0.167 HD
ATOM     63  C   UNL A   1      44.957  26.674  26.847  1.00  0.00     0.074 A 
ATOM     64  C   UNL A   1      44.960  25.317  26.344  1.00  0.00     0.031 C 
ATOM     65  C   UNL A   1      45.997  27.537  26.715  1.00  0.00     0.037 A 
BRANCH  52  66
ATOM     66  C   UNL A   1      44.925  33.151  29.068  1.00  0.00     0.057 A 
ATOM     67  C   UNL A   1      44.728  34.176  28.133  1.00  0.00     0.134 A 
ATOM     68  C   UNL A   1      45.594  33.479  30.254  1.00  0.00     0.134 A 
ATOM     69  F   UNL A   1      44.112  33.926  26.968  1.00  0.00    -0.206 F 
ATOM     70  C   UNL A   1      45.199  35.471  28.360  1.00  0.00     0.040 A 
ATOM     71  C   UNL A   1      46.043  34.775  30.505  1.00  0.00     0.040 A 
ATOM     72  F   UNL A   1      45.817  32.544  31.191  1.00  0.00    -0.206 F 
ATOM     73  C   UNL A   1      45.853  35.774  29.553  1.00  0.00     0.006 A 
ENDBRANCH  52  66
BRANCH  53  74
ATOM     74  C   UNL A   1      41.141  24.018  27.572  1.00  0.00     0.057 A 
ATOM     75  C   UNL A   1      41.639  22.894  28.243  1.00  0.00     0.134 A 
ATOM     76  C   UNL A   1      40.127  23.805  26.630  1.00  0.00     0.134 A 
ATOM     77  F   UNL A   1      42.631  23.027  29.137  1.00  0.00    -0.206 F 
ATOM     78  C   UNL A   1      41.166  21.609  27.973  1.00  0.00     0.040 A 
ATOM     79  C   UNL A   1      39.622  22.530  26.371  1.00  0.00     0.040 A 
ATOM     80  F   UNL A   1      39.607  24.838  25.951  1.00  0.00    -0.206 F 
ATOM     81  C   UNL A   1      40.148  21.425  27.037  1.00  0.00     0.006 A 
ENDBRANCH  53  74
BRANCH  65  82
ATOM     82  C   UNL A   1      47.239  27.027  26.042  1.00  0.00     0.057 A 
ATOM     83  C   UNL A   1      47.458  27.180  24.667  1.00  0.00     0.134 A 
ATOM     84  C   UNL A   1      48.253  26.417  26.793  1.00  0.00     0.134 A 
ATOM     85  F   UNL A   1      46.523  27.747  23.888  1.00  0.00    -0.206 F 
ATOM     86  C   UNL A   1      48.628  26.720  24.059  1.00  0.00     0.040 A 
ATOM     87  C   UNL A   1      49.440  25.983  26.202  1.00  0.00     0.040 A 
ATOM     88  F   UNL A   1      48.115  26.250  28.117  1.00  0.00    -0.206 F 
ATOM     89  C   UNL A   1      49.627  26.127  24.829  1.00  0.00     0.006 A 
ENDBRANCH  65  82
ENDBRANCH  39  40
ENDBRANCH  32  34
ENDBRANCH  31  32
ENDBRANCH  30  31
ENDBRANCH  29  30
ENDBRANCH  28  29
ENDBRANCH  27  28
ENDBRANCH  26  27
ENDBRANCH  25  26
ENDBRANCH   1  25
TORSDOF 23
ENDMDL
