MODEL 1
REMARK VINA RESULT:     -11.1      0.000      0.000
REMARK SMILES Cc1ccc(C[C@@H](Cc2cc(F)cc(Br)c2)C(=O)OCCOCCOCCOCCOC(=O)c2ccc(-c3c4nc(c(-c5c(F)cccc5F)c5ccc([nH]5)c(-c5c(F)cccc5F)c5nc(c(-c6c(F)cccc6F)c6ccc3[nH]6)C=C5)C=C4)cc2)cc1
REMARK SMILES IDX 25 1 24 2 23 3 22 4 21 5 20 6 19 7 17 8 18 9 7 10 6 11 5 12
REMARK SMILES IDX 1 13 2 14 3 15 89 16 4 17 88 18 8 19 9 20 10 21 16 22 11 23
REMARK SMILES IDX 14 24 12 25 13 26 15 27 26 28 27 29 28 30 29 31 30 32 31 33
REMARK SMILES IDX 32 34 33 35 34 36 35 37 87 38 36 39 86 40 37 41 38 42 39 43
REMARK SMILES IDX 80 44 40 45 85 46 79 47 81 48 41 49 84 50 78 51 77 52 42 54
REMARK SMILES IDX 68 55 51 56 67 57 52 58 55 59 66 60 82 61 53 62 54 63 65 65
REMARK SMILES IDX 83 66 56 67 43 68 44 69 49 70 45 71 46 72 48 73 50 74 47 75
REMARK SMILES IDX 69 76 70 77 75 78 71 79 72 80 74 81 76 82 73 83 57 84 58 85
REMARK SMILES IDX 63 86 59 87 60 88 62 89 64 90 61 91
REMARK H PARENT 81 53 55 64
REMARK Flexibility Score: inf
ROOT
ATOM      1  O   UNL A   1      35.152  33.458  27.827  1.00  0.00    -0.377 OA
ENDROOT
BRANCH   1   2
ATOM      2  C   UNL A   1      34.676  32.202  28.273  1.00  0.00     0.188 C 
BRANCH   2   3
ATOM      3  C   UNL A   1      35.157  30.903  27.609  1.00  0.00     0.188 C 
BRANCH   3   4
ATOM      4  O   UNL A   1      34.268  30.118  26.844  1.00  0.00    -0.376 OA
BRANCH   4   5
ATOM      5  C   UNL A   1      32.912  30.548  26.820  1.00  0.00     0.202 C 
BRANCH   5   6
ATOM      6  C   UNL A   1      31.779  29.499  26.919  1.00  0.00     0.261 C 
BRANCH   6   7
ATOM      7  O   UNL A   1      31.736  28.601  25.771  1.00  0.00    -0.463 OA
BRANCH   7   8
ATOM      8  C   UNL A   1      31.463  27.290  26.022  1.00  0.00     0.309 C 
ATOM      9  O   UNL A   1      30.684  26.922  26.897  1.00  0.00    -0.252 OA
BRANCH   8  10
ATOM     10  C   UNL A   1      32.222  26.281  25.140  1.00  0.00     0.108 C 
BRANCH  10  11
ATOM     11  C   UNL A   1      31.994  26.412  23.610  1.00  0.00     0.051 C 
BRANCH  11  12
ATOM     12  C   UNL A   1      31.859  25.007  23.051  1.00  0.00    -0.047 A 
ATOM     13  C   UNL A   1      32.544  20.812  23.285  1.00  0.00     0.044 C 
ATOM     14  C   UNL A   1      32.193  22.243  23.015  1.00  0.00    -0.051 A 
ATOM     15  C   UNL A   1      33.116  23.075  22.370  1.00  0.00     0.004 A 
ATOM     16  C   UNL A   1      31.014  22.792  23.525  1.00  0.00     0.004 A 
ATOM     17  C   UNL A   1      32.932  24.453  22.353  1.00  0.00     0.004 A 
ATOM     18  C   UNL A   1      30.841  24.171  23.532  1.00  0.00     0.004 A 
ENDBRANCH  11  12
ENDBRANCH  10  11
BRANCH  10  19
ATOM     19  C   UNL A   1      33.738  26.029  25.543  1.00  0.00     0.051 C 
BRANCH  19  20
ATOM     20  C   UNL A   1      34.174  24.610  25.778  1.00  0.00    -0.043 A 
ATOM     21  C   UNL A   1      33.466  23.582  26.421  1.00  0.00     0.043 A 
ATOM     22  C   UNL A   1      35.403  24.290  25.290  1.00  0.00     0.019 A 
ATOM     23  C   UNL A   1      33.941  22.254  26.390  1.00  0.00     0.124 A 
ATOM     24  C   UNL A   1      35.681  22.975  25.043  1.00  0.00     0.021 A 
ATOM     25  F   UNL A   1      33.279  21.283  27.031  1.00  0.00    -0.207 F 
ATOM     26  C   UNL A   1      35.026  21.918  25.617  1.00  0.00     0.055 A 
ATOM     27  Br  UNL A   1      36.648  22.887  23.512  1.00  0.00    -0.051 Br
ENDBRANCH  19  20
ENDBRANCH  10  19
ENDBRANCH   8  10
ENDBRANCH   7   8
ENDBRANCH   6   7
ENDBRANCH   5   6
ENDBRANCH   4   5
ENDBRANCH   3   4
ENDBRANCH   2   3
ENDBRANCH   1   2
BRANCH   1  28
ATOM     28  C   UNL A   1      34.328  34.606  27.998  1.00  0.00     0.188 C 
BRANCH  28  29
ATOM     29  C   UNL A   1      32.865  34.381  28.326  1.00  0.00     0.188 C 
BRANCH  29  30
ATOM     30  O   UNL A   1      32.632  35.066  29.556  1.00  0.00    -0.376 OA
BRANCH  30  31
ATOM     31  C   UNL A   1      32.919  36.455  29.555  1.00  0.00     0.202 C 
BRANCH  31  32
ATOM     32  C   UNL A   1      32.944  37.061  30.959  1.00  0.00     0.261 C 
BRANCH  32  33
ATOM     33  O   UNL A   1      32.759  36.003  31.921  1.00  0.00    -0.460 OA
BRANCH  33  34
ATOM     34  C   UNL A   1      33.848  35.721  32.693  1.00  0.00     0.338 C 
ATOM     35  O   UNL A   1      34.363  36.479  33.483  1.00  0.00    -0.246 OA
BRANCH  34  36
ATOM     36  C   UNL A   1      34.486  34.452  32.222  1.00  0.00     0.060 A 
ATOM     37  C   UNL A   1      34.415  33.305  33.027  1.00  0.00     0.016 A 
ATOM     38  C   UNL A   1      35.409  34.506  31.184  1.00  0.00     0.016 A 
ATOM     39  C   UNL A   1      35.373  32.288  32.890  1.00  0.00     0.010 A 
ATOM     40  C   UNL A   1      36.427  33.574  31.147  1.00  0.00     0.010 A 
ATOM     41  C   UNL A   1      36.454  32.473  32.019  1.00  0.00    -0.014 A 
BRANCH  41  42
ATOM     42  C   UNL A   1      37.778  31.808  32.152  1.00  0.00     0.031 A 
ATOM     43  C   UNL A   1      38.144  30.607  31.340  1.00  0.00     0.074 A 
ATOM     44  C   UNL A   1      38.724  32.627  32.648  1.00  0.00     0.049 A 
ATOM     45  N   UNL A   1      39.293  30.012  31.265  1.00  0.00    -0.248 NA
ATOM     46  C   UNL A   1      37.121  29.939  30.542  1.00  0.00     0.031 C 
ATOM     47  C   UNL A   1      40.062  32.921  32.192  1.00  0.00     0.029 A 
ATOM     48  N   UNL A   1      38.615  33.421  33.761  1.00  0.00    -0.354 N 
ATOM     49  C   UNL A   1      39.199  28.997  30.313  1.00  0.00     0.074 A 
ATOM     50  C   UNL A   1      37.840  29.063  29.841  1.00  0.00     0.031 C 
ATOM     51  C   UNL A   1      40.758  33.580  33.124  1.00  0.00     0.029 A 
ATOM     52  C   UNL A   1      39.893  33.694  34.230  1.00  0.00     0.049 A 
ATOM     53  H   UNL A   1      37.775  33.743  34.160  1.00  0.00     0.167 HD
ATOM     54  C   UNL A   1      40.259  28.184  30.013  1.00  0.00     0.037 A 
ATOM     55  C   UNL A   1      40.246  33.449  35.498  1.00  0.00     0.037 A 
ATOM     56  C   UNL A   1      41.255  28.150  31.108  1.00  0.00     0.049 A 
ATOM     57  C   UNL A   1      40.799  31.994  35.714  1.00  0.00     0.074 A 
ATOM     58  C   UNL A   1      42.634  28.226  31.174  1.00  0.00     0.029 A 
ATOM     59  N   UNL A   1      40.823  28.146  32.469  1.00  0.00    -0.354 N 
ATOM     60  N   UNL A   1      40.666  30.920  34.927  1.00  0.00    -0.248 NA
ATOM     61  C   UNL A   1      41.740  31.720  36.803  1.00  0.00     0.031 C 
ATOM     62  C   UNL A   1      43.019  28.293  32.534  1.00  0.00     0.029 A 
ATOM     63  C   UNL A   1      41.875  28.399  33.338  1.00  0.00     0.049 A 
ATOM     64  H   UNL A   1      39.895  27.985  32.755  1.00  0.00     0.167 HD
ATOM     65  C   UNL A   1      41.489  29.851  35.379  1.00  0.00     0.074 A 
ATOM     66  C   UNL A   1      42.128  30.455  36.555  1.00  0.00     0.031 C 
ATOM     67  C   UNL A   1      41.811  28.599  34.807  1.00  0.00     0.037 A 
BRANCH  54  68
ATOM     68  C   UNL A   1      40.446  27.473  28.637  1.00  0.00     0.057 A 
ATOM     69  C   UNL A   1      39.834  26.229  28.336  1.00  0.00     0.134 A 
ATOM     70  C   UNL A   1      41.259  27.918  27.574  1.00  0.00     0.134 A 
ATOM     71  F   UNL A   1      39.068  25.577  29.207  1.00  0.00    -0.206 F 
ATOM     72  C   UNL A   1      39.996  25.521  27.128  1.00  0.00     0.040 A 
ATOM     73  C   UNL A   1      41.480  27.191  26.380  1.00  0.00     0.040 A 
ATOM     74  F   UNL A   1      41.855  29.110  27.583  1.00  0.00    -0.206 F 
ATOM     75  C   UNL A   1      40.836  25.992  26.143  1.00  0.00     0.006 A 
ENDBRANCH  54  68
BRANCH  55  76
ATOM     76  C   UNL A   1      39.536  34.620  36.200  1.00  0.00     0.057 A 
ATOM     77  C   UNL A   1      38.789  34.189  37.354  1.00  0.00     0.134 A 
ATOM     78  C   UNL A   1      40.260  35.815  36.414  1.00  0.00     0.134 A 
ATOM     79  F   UNL A   1      38.062  33.061  37.287  1.00  0.00    -0.206 F 
ATOM     80  C   UNL A   1      39.027  34.691  38.657  1.00  0.00     0.040 A 
ATOM     81  C   UNL A   1      40.475  36.341  37.718  1.00  0.00     0.040 A 
ATOM     82  F   UNL A   1      41.008  36.326  35.427  1.00  0.00    -0.206 F 
ATOM     83  C   UNL A   1      39.920  35.736  38.847  1.00  0.00     0.006 A 
ENDBRANCH  55  76
BRANCH  67  84
ATOM     84  C   UNL A   1      42.514  27.423  35.553  1.00  0.00     0.057 A 
ATOM     85  C   UNL A   1      41.961  26.155  35.740  1.00  0.00     0.134 A 
ATOM     86  C   UNL A   1      43.868  27.514  36.016  1.00  0.00     0.134 A 
ATOM     87  F   UNL A   1      40.787  25.815  35.193  1.00  0.00    -0.206 F 
ATOM     88  C   UNL A   1      42.623  25.133  36.449  1.00  0.00     0.040 A 
ATOM     89  C   UNL A   1      44.527  26.518  36.737  1.00  0.00     0.040 A 
ATOM     90  F   UNL A   1      44.678  28.543  35.731  1.00  0.00    -0.206 F 
ATOM     91  C   UNL A   1      43.897  25.318  36.970  1.00  0.00     0.006 A 
ENDBRANCH  67  84
ENDBRANCH  41  42
ENDBRANCH  34  36
ENDBRANCH  33  34
ENDBRANCH  32  33
ENDBRANCH  31  32
ENDBRANCH  30  31
ENDBRANCH  29  30
ENDBRANCH  28  29
ENDBRANCH   1  28
TORSDOF 24
ENDMDL
MODEL 2
REMARK VINA RESULT:      -9.9      2.455      6.324
REMARK SMILES Cc1ccc(C[C@@H](Cc2cc(F)cc(Br)c2)C(=O)OCCOCCOCCOCCOC(=O)c2ccc(-c3c4nc(c(-c5c(F)cccc5F)c5ccc([nH]5)c(-c5c(F)cccc5F)c5nc(c(-c6c(F)cccc6F)c6ccc3[nH]6)C=C5)C=C4)cc2)cc1
REMARK SMILES IDX 25 1 24 2 23 3 22 4 21 5 20 6 19 7 17 8 18 9 7 10 6 11 5 12
REMARK SMILES IDX 1 13 2 14 3 15 89 16 4 17 88 18 8 19 9 20 10 21 16 22 11 23
REMARK SMILES IDX 14 24 12 25 13 26 15 27 26 28 27 29 28 30 29 31 30 32 31 33
REMARK SMILES IDX 32 34 33 35 34 36 35 37 87 38 36 39 86 40 37 41 38 42 39 43
REMARK SMILES IDX 80 44 40 45 85 46 79 47 81 48 41 49 84 50 78 51 77 52 42 54
REMARK SMILES IDX 68 55 51 56 67 57 52 58 55 59 66 60 82 61 53 62 54 63 65 65
REMARK SMILES IDX 83 66 56 67 43 68 44 69 49 70 45 71 46 72 48 73 50 74 47 75
REMARK SMILES IDX 69 76 70 77 75 78 71 79 72 80 74 81 76 82 73 83 57 84 58 85
REMARK SMILES IDX 63 86 59 87 60 88 62 89 64 90 61 91
REMARK H PARENT 81 53 55 64
REMARK Flexibility Score: inf
ROOT
ATOM      1  O   UNL A   1      34.488  35.258  29.254  1.00  0.00    -0.377 OA
ENDROOT
BRANCH   1   2
ATOM      2  C   UNL A   1      34.385  34.615  27.998  1.00  0.00     0.188 C 
BRANCH   2   3
ATOM      3  C   UNL A   1      34.360  33.082  27.904  1.00  0.00     0.188 C 
BRANCH   3   4
ATOM      4  O   UNL A   1      33.191  32.409  27.488  1.00  0.00    -0.376 OA
BRANCH   4   5
ATOM      5  C   UNL A   1      33.325  31.016  27.234  1.00  0.00     0.202 C 
BRANCH   5   6
ATOM      6  C   UNL A   1      32.063  30.122  27.201  1.00  0.00     0.261 C 
BRANCH   6   7
ATOM      7  O   UNL A   1      32.060  29.187  26.081  1.00  0.00    -0.463 OA
BRANCH   7   8
ATOM      8  C   UNL A   1      31.803  27.881  26.369  1.00  0.00     0.309 C 
ATOM      9  O   UNL A   1      31.206  27.520  27.380  1.00  0.00    -0.252 OA
BRANCH   8  10
ATOM     10  C   UNL A   1      32.337  26.865  25.341  1.00  0.00     0.108 C 
BRANCH  10  11
ATOM     11  C   UNL A   1      31.983  27.153  23.857  1.00  0.00     0.051 C 
BRANCH  11  12
ATOM     12  C   UNL A   1      31.764  25.815  23.176  1.00  0.00    -0.047 A 
ATOM     13  C   UNL A   1      32.391  21.613  22.909  1.00  0.00     0.044 C 
ATOM     14  C   UNL A   1      32.041  23.067  22.824  1.00  0.00    -0.051 A 
ATOM     15  C   UNL A   1      32.908  23.953  22.173  1.00  0.00     0.004 A 
ATOM     16  C   UNL A   1      30.932  23.569  23.509  1.00  0.00     0.004 A 
ATOM     17  C   UNL A   1      32.749  25.327  22.317  1.00  0.00     0.004 A 
ATOM     18  C   UNL A   1      30.787  24.942  23.674  1.00  0.00     0.004 A 
ENDBRANCH  11  12
ENDBRANCH  10  11
BRANCH  10  19
ATOM     19  C   UNL A   1      33.837  26.395  25.564  1.00  0.00     0.051 C 
BRANCH  19  20
ATOM     20  C   UNL A   1      34.089  24.928  25.775  1.00  0.00    -0.043 A 
ATOM     21  C   UNL A   1      33.251  23.987  26.394  1.00  0.00     0.043 A 
ATOM     22  C   UNL A   1      35.272  24.464  25.289  1.00  0.00     0.019 A 
ATOM     23  C   UNL A   1      33.554  22.610  26.341  1.00  0.00     0.124 A 
ATOM     24  C   UNL A   1      35.384  23.129  25.020  1.00  0.00     0.021 A 
ATOM     25  F   UNL A   1      32.769  21.720  26.960  1.00  0.00    -0.207 F 
ATOM     26  C   UNL A   1      34.595  22.153  25.570  1.00  0.00     0.055 A 
ATOM     27  Br  UNL A   1      36.345  22.947  23.493  1.00  0.00    -0.051 Br
ENDBRANCH  19  20
ENDBRANCH  10  19
ENDBRANCH   8  10
ENDBRANCH   7   8
ENDBRANCH   6   7
ENDBRANCH   5   6
ENDBRANCH   4   5
ENDBRANCH   3   4
ENDBRANCH   2   3
ENDBRANCH   1   2
BRANCH   1  28
ATOM     28  C   UNL A   1      33.638  34.833  30.315  1.00  0.00     0.188 C 
BRANCH  28  29
ATOM     29  C   UNL A   1      34.055  35.172  31.732  1.00  0.00     0.188 C 
BRANCH  29  30
ATOM     30  O   UNL A   1      33.411  34.212  32.568  1.00  0.00    -0.376 OA
BRANCH  30  31
ATOM     31  C   UNL A   1      34.258  33.480  33.438  1.00  0.00     0.202 C 
BRANCH  31  32
ATOM     32  C   UNL A   1      35.608  34.162  33.670  1.00  0.00     0.261 C 
BRANCH  32  33
ATOM     33  O   UNL A   1      36.579  33.154  34.017  1.00  0.00    -0.460 OA
BRANCH  33  34
ATOM     34  C   UNL A   1      37.691  33.615  34.660  1.00  0.00     0.338 C 
ATOM     35  O   UNL A   1      37.896  34.767  34.968  1.00  0.00    -0.246 OA
BRANCH  34  36
ATOM     36  C   UNL A   1      38.741  32.550  34.678  1.00  0.00     0.060 A 
ATOM     37  C   UNL A   1      40.026  32.841  34.194  1.00  0.00     0.016 A 
ATOM     38  C   UNL A   1      38.355  31.225  34.849  1.00  0.00     0.016 A 
ATOM     39  C   UNL A   1      40.856  31.806  33.733  1.00  0.00     0.010 A 
ATOM     40  C   UNL A   1      39.116  30.229  34.268  1.00  0.00     0.010 A 
ATOM     41  C   UNL A   1      40.355  30.500  33.666  1.00  0.00    -0.014 A 
BRANCH  41  42
ATOM     42  C   UNL A   1      40.849  29.446  32.740  1.00  0.00     0.031 A 
ATOM     43  C   UNL A   1      42.002  28.562  33.092  1.00  0.00     0.074 A 
ATOM     44  C   UNL A   1      39.915  29.050  31.856  1.00  0.00     0.049 A 
ATOM     45  N   UNL A   1      42.451  27.534  32.441  1.00  0.00    -0.248 NA
ATOM     46  C   UNL A   1      42.800  28.857  34.278  1.00  0.00     0.031 C 
ATOM     47  C   UNL A   1      39.460  27.734  31.476  1.00  0.00     0.029 A 
ATOM     48  N   UNL A   1      39.130  29.864  31.078  1.00  0.00    -0.354 N 
ATOM     49  C   UNL A   1      43.477  26.957  33.188  1.00  0.00     0.074 A 
ATOM     50  C   UNL A   1      43.585  27.784  34.362  1.00  0.00     0.031 C 
ATOM     51  C   UNL A   1      38.711  27.779  30.370  1.00  0.00     0.029 A 
ATOM     52  C   UNL A   1      38.696  29.132  29.981  1.00  0.00     0.049 A 
ATOM     53  H   UNL A   1      38.912  30.805  31.265  1.00  0.00     0.167 HD
ATOM     54  C   UNL A   1      44.155  25.849  32.754  1.00  0.00     0.037 A 
ATOM     55  C   UNL A   1      38.883  29.564  28.728  1.00  0.00     0.037 A 
ATOM     56  C   UNL A   1      44.055  25.681  31.287  1.00  0.00     0.049 A 
ATOM     57  C   UNL A   1      40.256  29.104  28.116  1.00  0.00     0.074 A 
ATOM     58  C   UNL A   1      43.807  24.615  30.443  1.00  0.00     0.029 A 
ATOM     59  N   UNL A   1      44.100  26.823  30.431  1.00  0.00    -0.354 N 
ATOM     60  N   UNL A   1      41.346  28.649  28.746  1.00  0.00    -0.248 NA
ATOM     61  C   UNL A   1      40.401  28.954  26.666  1.00  0.00     0.031 C 
ATOM     62  C   UNL A   1      43.680  25.103  29.121  1.00  0.00     0.029 A 
ATOM     63  C   UNL A   1      43.711  26.506  29.137  1.00  0.00     0.049 A 
ATOM     64  H   UNL A   1      44.374  27.723  30.722  1.00  0.00     0.167 HD
ATOM     65  C   UNL A   1      42.300  28.146  27.818  1.00  0.00     0.074 A 
ATOM     66  C   UNL A   1      41.611  28.375  26.542  1.00  0.00     0.031 C 
ATOM     67  C   UNL A   1      43.507  27.433  27.997  1.00  0.00     0.037 A 
BRANCH  54  68
ATOM     68  C   UNL A   1      44.849  24.827  33.707  1.00  0.00     0.057 A 
ATOM     69  C   UNL A   1      46.256  24.653  33.738  1.00  0.00     0.134 A 
ATOM     70  C   UNL A   1      44.201  23.934  34.586  1.00  0.00     0.134 A 
ATOM     71  F   UNL A   1      47.082  25.340  32.951  1.00  0.00    -0.206 F 
ATOM     72  C   UNL A   1      46.938  23.721  34.547  1.00  0.00     0.040 A 
ATOM     73  C   UNL A   1      44.864  22.953  35.360  1.00  0.00     0.040 A 
ATOM     74  F   UNL A   1      42.887  23.979  34.806  1.00  0.00    -0.206 F 
ATOM     75  C   UNL A   1      46.242  22.850  35.356  1.00  0.00     0.006 A 
ENDBRANCH  54  68
BRANCH  55  76
ATOM     76  C   UNL A   1      37.804  30.658  28.661  1.00  0.00     0.057 A 
ATOM     77  C   UNL A   1      36.479  30.128  28.861  1.00  0.00     0.134 A 
ATOM     78  C   UNL A   1      38.032  31.872  29.347  1.00  0.00     0.134 A 
ATOM     79  F   UNL A   1      36.134  28.972  28.268  1.00  0.00    -0.206 F 
ATOM     80  C   UNL A   1      35.624  30.566  29.901  1.00  0.00     0.040 A 
ATOM     81  C   UNL A   1      37.158  32.333  30.372  1.00  0.00     0.040 A 
ATOM     82  F   UNL A   1      39.226  32.473  29.259  1.00  0.00    -0.206 F 
ATOM     83  C   UNL A   1      35.992  31.640  30.699  1.00  0.00     0.006 A 
ENDBRANCH  55  76
BRANCH  67  84
ATOM     84  C   UNL A   1      44.580  27.188  26.891  1.00  0.00     0.057 A 
ATOM     85  C   UNL A   1      44.558  26.129  25.982  1.00  0.00     0.134 A 
ATOM     86  C   UNL A   1      45.638  28.120  26.635  1.00  0.00     0.134 A 
ATOM     87  F   UNL A   1      43.531  25.271  25.930  1.00  0.00    -0.206 F 
ATOM     88  C   UNL A   1      45.567  25.931  25.020  1.00  0.00     0.040 A 
ATOM     89  C   UNL A   1      46.656  27.925  25.700  1.00  0.00     0.040 A 
ATOM     90  F   UNL A   1      45.718  29.325  27.215  1.00  0.00    -0.206 F 
ATOM     91  C   UNL A   1      46.631  26.814  24.890  1.00  0.00     0.006 A 
ENDBRANCH  67  84
ENDBRANCH  41  42
ENDBRANCH  34  36
ENDBRANCH  33  34
ENDBRANCH  32  33
ENDBRANCH  31  32
ENDBRANCH  30  31
ENDBRANCH  29  30
ENDBRANCH  28  29
ENDBRANCH   1  28
TORSDOF 24
ENDMDL
MODEL 3
REMARK VINA RESULT:      -9.9      1.834      2.994
REMARK SMILES Cc1ccc(C[C@@H](Cc2cc(F)cc(Br)c2)C(=O)OCCOCCOCCOCCOC(=O)c2ccc(-c3c4nc(c(-c5c(F)cccc5F)c5ccc([nH]5)c(-c5c(F)cccc5F)c5nc(c(-c6c(F)cccc6F)c6ccc3[nH]6)C=C5)C=C4)cc2)cc1
REMARK SMILES IDX 25 1 24 2 23 3 22 4 21 5 20 6 19 7 17 8 18 9 7 10 6 11 5 12
REMARK SMILES IDX 1 13 2 14 3 15 89 16 4 17 88 18 8 19 9 20 10 21 16 22 11 23
REMARK SMILES IDX 14 24 12 25 13 26 15 27 26 28 27 29 28 30 29 31 30 32 31 33
REMARK SMILES IDX 32 34 33 35 34 36 35 37 87 38 36 39 86 40 37 41 38 42 39 43
REMARK SMILES IDX 80 44 40 45 85 46 79 47 81 48 41 49 84 50 78 51 77 52 42 54
REMARK SMILES IDX 68 55 51 56 67 57 52 58 55 59 66 60 82 61 53 62 54 63 65 65
REMARK SMILES IDX 83 66 56 67 43 68 44 69 49 70 45 71 46 72 48 73 50 74 47 75
REMARK SMILES IDX 69 76 70 77 75 78 71 79 72 80 74 81 76 82 73 83 57 84 58 85
REMARK SMILES IDX 63 86 59 87 60 88 62 89 64 90 61 91
REMARK H PARENT 81 53 55 64
REMARK Flexibility Score: inf
ROOT
ATOM      1  O   UNL A   1      34.232  31.959  28.497  1.00  0.00    -0.377 OA
ENDROOT
BRANCH   1   2
ATOM      2  C   UNL A   1      34.293  30.899  27.560  1.00  0.00     0.188 C 
BRANCH   2   3
ATOM      3  C   UNL A   1      33.022  30.135  27.160  1.00  0.00     0.188 C 
BRANCH   3   4
ATOM      4  O   UNL A   1      32.917  28.748  27.393  1.00  0.00    -0.376 OA
BRANCH   4   5
ATOM      5  C   UNL A   1      33.656  27.905  26.517  1.00  0.00     0.202 C 
BRANCH   5   6
ATOM      6  C   UNL A   1      33.648  28.192  24.997  1.00  0.00     0.261 C 
BRANCH   6   7
ATOM      7  O   UNL A   1      33.977  27.018  24.197  1.00  0.00    -0.463 OA
BRANCH   7   8
ATOM      8  C   UNL A   1      33.044  26.605  23.294  1.00  0.00     0.309 C 
ATOM      9  O   UNL A   1      33.328  26.217  22.164  1.00  0.00    -0.252 OA
BRANCH   8  10
ATOM     10  C   UNL A   1      31.584  26.679  23.778  1.00  0.00     0.108 C 
BRANCH  10  11
ATOM     11  C   UNL A   1      30.534  27.074  22.705  1.00  0.00     0.051 C 
BRANCH  11  12
ATOM     12  C   UNL A   1      29.680  28.183  23.294  1.00  0.00    -0.047 A 
ATOM     13  C   UNL A   1      27.710  31.944  22.983  1.00  0.00     0.044 C 
ATOM     14  C   UNL A   1      28.318  30.611  23.297  1.00  0.00    -0.051 A 
ATOM     15  C   UNL A   1      29.638  30.541  23.758  1.00  0.00     0.004 A 
ATOM     16  C   UNL A   1      27.631  29.431  22.999  1.00  0.00     0.004 A 
ATOM     17  C   UNL A   1      30.308  29.324  23.793  1.00  0.00     0.004 A 
ATOM     18  C   UNL A   1      28.307  28.217  23.010  1.00  0.00     0.004 A 
ENDBRANCH  11  12
ENDBRANCH  10  11
BRANCH  10  19
ATOM     19  C   UNL A   1      31.119  25.492  24.725  1.00  0.00     0.051 C 
BRANCH  19  20
ATOM     20  C   UNL A   1      31.671  24.121  24.453  1.00  0.00    -0.043 A 
ATOM     21  C   UNL A   1      31.459  23.310  23.326  1.00  0.00     0.043 A 
ATOM     22  C   UNL A   1      32.488  23.620  25.419  1.00  0.00     0.019 A 
ATOM     23  C   UNL A   1      32.205  22.127  23.142  1.00  0.00     0.124 A 
ATOM     24  C   UNL A   1      33.374  22.638  25.074  1.00  0.00     0.021 A 
ATOM     25  F   UNL A   1      31.977  21.341  22.082  1.00  0.00    -0.207 F 
ATOM     26  C   UNL A   1      33.245  21.818  23.984  1.00  0.00     0.055 A 
ATOM     27  Br  UNL A   1      34.926  22.952  25.957  1.00  0.00    -0.051 Br
ENDBRANCH  19  20
ENDBRANCH  10  19
ENDBRANCH   8  10
ENDBRANCH   7   8
ENDBRANCH   6   7
ENDBRANCH   5   6
ENDBRANCH   4   5
ENDBRANCH   3   4
ENDBRANCH   2   3
ENDBRANCH   1   2
BRANCH   1  28
ATOM     28  C   UNL A   1      34.015  33.283  28.022  1.00  0.00     0.188 C 
BRANCH  28  29
ATOM     29  C   UNL A   1      32.606  33.665  27.614  1.00  0.00     0.188 C 
BRANCH  29  30
ATOM     30  O   UNL A   1      32.310  34.871  28.316  1.00  0.00    -0.376 OA
BRANCH  30  31
ATOM     31  C   UNL A   1      33.406  35.494  28.966  1.00  0.00     0.202 C 
BRANCH  31  32
ATOM     32  C   UNL A   1      33.017  36.161  30.287  1.00  0.00     0.261 C 
BRANCH  32  33
ATOM     33  O   UNL A   1      32.996  35.157  31.321  1.00  0.00    -0.460 OA
BRANCH  33  34
ATOM     34  C   UNL A   1      34.158  35.020  32.023  1.00  0.00     0.338 C 
ATOM     35  O   UNL A   1      34.604  35.827  32.805  1.00  0.00    -0.246 OA
BRANCH  34  36
ATOM     36  C   UNL A   1      34.943  33.869  31.478  1.00  0.00     0.060 A 
ATOM     37  C   UNL A   1      34.828  32.608  32.083  1.00  0.00     0.016 A 
ATOM     38  C   UNL A   1      36.008  34.124  30.621  1.00  0.00     0.016 A 
ATOM     39  C   UNL A   1      35.862  31.667  31.954  1.00  0.00     0.010 A 
ATOM     40  C   UNL A   1      37.080  33.253  30.611  1.00  0.00     0.010 A 
ATOM     41  C   UNL A   1      37.047  32.032  31.304  1.00  0.00    -0.014 A 
BRANCH  41  42
ATOM     42  C   UNL A   1      38.378  31.411  31.549  1.00  0.00     0.031 A 
ATOM     43  C   UNL A   1      38.880  30.270  30.724  1.00  0.00     0.074 A 
ATOM     44  C   UNL A   1      39.228  32.238  32.184  1.00  0.00     0.049 A 
ATOM     45  N   UNL A   1      40.056  29.724  30.746  1.00  0.00    -0.248 NA
ATOM     46  C   UNL A   1      37.979  29.607  29.787  1.00  0.00     0.031 C 
ATOM     47  C   UNL A   1      40.593  32.607  31.893  1.00  0.00     0.029 A 
ATOM     48  N   UNL A   1      38.966  32.967  33.317  1.00  0.00    -0.354 N 
ATOM     49  C   UNL A   1      40.109  28.759  29.741  1.00  0.00     0.074 A 
ATOM     50  C   UNL A   1      38.807  28.799  29.127  1.00  0.00     0.031 C 
ATOM     51  C   UNL A   1      41.156  33.241  32.926  1.00  0.00     0.029 A 
ATOM     52  C   UNL A   1      40.174  33.263  33.935  1.00  0.00     0.049 A 
ATOM     53  H   UNL A   1      38.075  33.235  33.636  1.00  0.00     0.167 HD
ATOM     54  C   UNL A   1      41.229  28.004  29.519  1.00  0.00     0.037 A 
ATOM     55  C   UNL A   1      40.398  32.965  35.220  1.00  0.00     0.037 A 
ATOM     56  C   UNL A   1      42.103  27.949  30.713  1.00  0.00     0.049 A 
ATOM     57  C   UNL A   1      40.988  31.523  35.424  1.00  0.00     0.074 A 
ATOM     58  C   UNL A   1      43.462  28.075  30.933  1.00  0.00     0.029 A 
ATOM     59  N   UNL A   1      41.528  27.857  32.017  1.00  0.00    -0.354 N 
ATOM     60  N   UNL A   1      40.988  30.487  34.576  1.00  0.00    -0.248 NA
ATOM     61  C   UNL A   1      41.818  31.227  36.594  1.00  0.00     0.031 C 
ATOM     62  C   UNL A   1      43.696  28.083  32.328  1.00  0.00     0.029 A 
ATOM     63  C   UNL A   1      42.468  28.103  33.007  1.00  0.00     0.049 A 
ATOM     64  H   UNL A   1      40.582  27.645  32.192  1.00  0.00     0.167 HD
ATOM     65  C   UNL A   1      41.803  29.428  35.063  1.00  0.00     0.074 A 
ATOM     66  C   UNL A   1      42.285  29.992  36.329  1.00  0.00     0.031 C 
ATOM     67  C   UNL A   1      42.239  28.222  34.468  1.00  0.00     0.037 A 
BRANCH  54  68
ATOM     68  C   UNL A   1      41.594  27.375  28.139  1.00  0.00     0.057 A 
ATOM     69  C   UNL A   1      41.631  28.138  26.943  1.00  0.00     0.134 A 
ATOM     70  C   UNL A   1      41.867  26.015  27.889  1.00  0.00     0.134 A 
ATOM     71  F   UNL A   1      41.347  29.439  26.913  1.00  0.00    -0.206 F 
ATOM     72  C   UNL A   1      41.916  27.621  25.663  1.00  0.00     0.040 A 
ATOM     73  C   UNL A   1      42.095  25.469  26.604  1.00  0.00     0.040 A 
ATOM     74  F   UNL A   1      41.989  25.120  28.870  1.00  0.00    -0.206 F 
ATOM     75  C   UNL A   1      42.136  26.273  25.482  1.00  0.00     0.006 A 
ENDBRANCH  54  68
BRANCH  55  76
ATOM     76  C   UNL A   1      39.568  34.068  35.897  1.00  0.00     0.057 A 
ATOM     77  C   UNL A   1      38.647  33.537  36.871  1.00  0.00     0.134 A 
ATOM     78  C   UNL A   1      40.229  35.239  36.331  1.00  0.00     0.134 A 
ATOM     79  F   UNL A   1      37.957  32.419  36.586  1.00  0.00    -0.206 F 
ATOM     80  C   UNL A   1      38.663  33.920  38.234  1.00  0.00     0.040 A 
ATOM     81  C   UNL A   1      40.221  35.647  37.694  1.00  0.00     0.040 A 
ATOM     82  F   UNL A   1      41.121  35.836  35.529  1.00  0.00    -0.206 F 
ATOM     83  C   UNL A   1      39.498  34.944  38.659  1.00  0.00     0.006 A 
ENDBRANCH  55  76
BRANCH  67  84
ATOM     84  C   UNL A   1      42.909  27.035  35.228  1.00  0.00     0.057 A 
ATOM     85  C   UNL A   1      44.167  27.085  35.831  1.00  0.00     0.134 A 
ATOM     86  C   UNL A   1      42.220  25.803  35.478  1.00  0.00     0.134 A 
ATOM     87  F   UNL A   1      44.874  28.221  35.884  1.00  0.00    -0.206 F 
ATOM     88  C   UNL A   1      44.745  25.976  36.480  1.00  0.00     0.040 A 
ATOM     89  C   UNL A   1      42.788  24.690  36.100  1.00  0.00     0.040 A 
ATOM     90  F   UNL A   1      40.920  25.616  35.210  1.00  0.00    -0.206 F 
ATOM     91  C   UNL A   1      44.068  24.769  36.596  1.00  0.00     0.006 A 
ENDBRANCH  67  84
ENDBRANCH  41  42
ENDBRANCH  34  36
ENDBRANCH  33  34
ENDBRANCH  32  33
ENDBRANCH  31  32
ENDBRANCH  30  31
ENDBRANCH  29  30
ENDBRANCH  28  29
ENDBRANCH   1  28
TORSDOF 24
ENDMDL
