MODEL 1
REMARK VINA RESULT:      -9.7      0.000      0.000
REMARK SMILES N#Cc1ccc(/C=C/C(=O)N2C[C@@H](O)C[C@H]2C(=O)OCCOCCOCCOCCOC(=O)c2ccc(-c3c4nc(c(-c5c(F)cccc5F)c5ccc([nH]5)c(-c5c(F)cccc5F)c5nc(c(-c6c(F)cccc6F)c6ccc3[nH]6)C=C5)C=C4)cc2)cc1
REMARK SMILES IDX 24 1 23 2 22 3 21 4 20 5 19 6 17 7 18 8 16 9 11 10 12 11
REMARK SMILES IDX 13 12 15 13 9 14 10 15 8 16 7 17 6 18 3 19 4 20 89 21 5 22
REMARK SMILES IDX 88 23 2 24 1 25 14 26 25 28 26 29 27 30 28 31 29 32 30 33
REMARK SMILES IDX 31 34 32 35 33 36 34 37 35 38 87 39 36 40 86 41 37 42 38 43
REMARK SMILES IDX 39 44 80 45 40 46 85 47 79 48 81 49 41 50 84 51 78 52 77 53
REMARK SMILES IDX 42 55 68 56 51 57 67 58 52 59 55 60 66 61 82 62 53 63 54 64
REMARK SMILES IDX 65 66 83 67 56 68 43 69 44 70 49 71 45 72 46 73 48 74 50 75
REMARK SMILES IDX 47 76 69 77 70 78 75 79 71 80 72 81 74 82 76 83 73 84 57 85
REMARK SMILES IDX 58 86 63 87 59 88 60 89 62 90 64 91 61 92
REMARK H PARENT 14 27 81 54 55 65
REMARK Flexibility Score: inf
ROOT
ATOM      1  C   UNL A   1      33.971  30.826  27.155  1.00  0.00     0.188 C 
ENDROOT
BRANCH   1   2
ATOM      2  C   UNL A   1      32.448  30.672  26.962  1.00  0.00     0.188 C 
BRANCH   2   3
ATOM      3  O   UNL A   1      31.929  29.653  26.113  1.00  0.00    -0.376 OA
BRANCH   3   4
ATOM      4  C   UNL A   1      32.645  29.256  24.956  1.00  0.00     0.202 C 
BRANCH   4   5
ATOM      5  C   UNL A   1      33.309  27.861  24.910  1.00  0.00     0.261 C 
BRANCH   5   6
ATOM      6  O   UNL A   1      32.465  26.731  24.571  1.00  0.00    -0.462 OA
BRANCH   6   7
ATOM      7  C   UNL A   1      32.257  25.812  25.551  1.00  0.00     0.329 C 
ATOM      8  O   UNL A   1      31.759  26.092  26.639  1.00  0.00    -0.250 OA
BRANCH   7   9
ATOM      9  C   UNL A   1      32.850  24.393  25.278  1.00  0.00     0.198 C 
ATOM     10  N   UNL A   1      33.054  23.720  23.962  1.00  0.00    -0.323 N 
ATOM     11  C   UNL A   1      34.448  23.784  23.580  1.00  0.00     0.152 C 
ATOM     12  C   UNL A   1      35.143  23.634  24.924  1.00  0.00     0.136 C 
ATOM     13  C   UNL A   1      34.271  24.460  25.866  1.00  0.00     0.071 C 
BRANCH  10  14
ATOM     14  C   UNL A   1      32.115  22.835  23.465  1.00  0.00     0.247 C 
ATOM     15  O   UNL A   1      30.986  23.188  23.129  1.00  0.00    -0.270 OA
BRANCH  14  16
ATOM     16  C   UNL A   1      32.447  21.385  23.327  1.00  0.00     0.072 C 
ATOM     17  C   UNL A   1      33.080  20.771  24.341  1.00  0.00     0.014 C 
BRANCH  17  18
ATOM     18  C   UNL A   1      33.237  19.319  24.568  1.00  0.00    -0.025 A 
ATOM     19  C   UNL A   1      33.068  16.532  25.034  1.00  0.00     0.052 A 
ATOM     20  C   UNL A   1      33.444  17.019  23.779  1.00  0.00     0.020 A 
ATOM     21  C   UNL A   1      32.815  17.434  26.068  1.00  0.00     0.020 A 
ATOM     22  C   UNL A   1      33.528  18.402  23.547  1.00  0.00     0.009 A 
ATOM     23  C   UNL A   1      32.901  18.813  25.835  1.00  0.00     0.009 A 
BRANCH  19  24
ATOM     24  C   UNL A   1      32.898  15.120  25.253  1.00  0.00     0.099 C 
ATOM     25  N   UNL A   1      32.744  13.987  25.420  1.00  0.00    -0.192 NA
ENDBRANCH  19  24
ENDBRANCH  17  18
ENDBRANCH  14  16
ENDBRANCH  10  14
BRANCH  12  26
ATOM     26  O   UNL A   1      36.482  24.088  24.911  1.00  0.00    -0.391 OA
ATOM     27  H   UNL A   1      36.560  24.881  25.464  1.00  0.00     0.211 HD
ENDBRANCH  12  26
ENDBRANCH   7   9
ENDBRANCH   6   7
ENDBRANCH   5   6
ENDBRANCH   4   5
ENDBRANCH   3   4
ENDBRANCH   2   3
ENDBRANCH   1   2
BRANCH   1  28
ATOM     28  O   UNL A   1      34.412  30.945  28.492  1.00  0.00    -0.377 OA
BRANCH  28  29
ATOM     29  C   UNL A   1      34.555  32.260  28.980  1.00  0.00     0.188 C 
BRANCH  29  30
ATOM     30  C   UNL A   1      35.046  33.325  27.985  1.00  0.00     0.188 C 
BRANCH  30  31
ATOM     31  O   UNL A   1      34.135  34.381  27.762  1.00  0.00    -0.376 OA
BRANCH  31  32
ATOM     32  C   UNL A   1      34.131  35.587  28.498  1.00  0.00     0.202 C 
BRANCH  32  33
ATOM     33  C   UNL A   1      32.960  36.081  29.368  1.00  0.00     0.261 C 
BRANCH  33  34
ATOM     34  O   UNL A   1      32.493  35.254  30.434  1.00  0.00    -0.460 OA
BRANCH  34  35
ATOM     35  C   UNL A   1      32.648  35.708  31.696  1.00  0.00     0.338 C 
ATOM     36  O   UNL A   1      31.897  36.444  32.307  1.00  0.00    -0.246 OA
BRANCH  35  37
ATOM     37  C   UNL A   1      33.806  34.998  32.289  1.00  0.00     0.060 A 
ATOM     38  C   UNL A   1      35.073  35.597  32.239  1.00  0.00     0.016 A 
ATOM     39  C   UNL A   1      33.638  33.761  32.912  1.00  0.00     0.016 A 
ATOM     40  C   UNL A   1      36.178  34.955  32.799  1.00  0.00     0.010 A 
ATOM     41  C   UNL A   1      34.752  33.099  33.436  1.00  0.00     0.010 A 
ATOM     42  C   UNL A   1      36.031  33.681  33.357  1.00  0.00    -0.014 A 
BRANCH  42  43
ATOM     43  C   UNL A   1      37.231  32.870  33.673  1.00  0.00     0.031 A 
ATOM     44  C   UNL A   1      37.956  33.150  34.960  1.00  0.00     0.074 A 
ATOM     45  C   UNL A   1      37.661  31.899  32.848  1.00  0.00     0.049 A 
ATOM     46  N   UNL A   1      39.079  32.654  35.408  1.00  0.00    -0.248 NA
ATOM     47  C   UNL A   1      37.327  34.131  35.861  1.00  0.00     0.031 C 
ATOM     48  C   UNL A   1      37.009  31.489  31.607  1.00  0.00     0.029 A 
ATOM     49  N   UNL A   1      38.768  31.090  32.932  1.00  0.00    -0.354 N 
ATOM     50  C   UNL A   1      39.294  33.264  36.638  1.00  0.00     0.074 A 
ATOM     51  C   UNL A   1      38.209  34.197  36.846  1.00  0.00     0.031 C 
ATOM     52  C   UNL A   1      37.740  30.516  31.033  1.00  0.00     0.029 A 
ATOM     53  C   UNL A   1      38.930  30.266  31.845  1.00  0.00     0.049 A 
ATOM     54  H   UNL A   1      39.385  31.098  33.698  1.00  0.00     0.167 HD
ATOM     55  C   UNL A   1      40.299  33.055  37.520  1.00  0.00     0.037 A 
ATOM     56  C   UNL A   1      39.943  29.435  31.530  1.00  0.00     0.037 A 
ATOM     57  C   UNL A   1      41.383  32.136  37.302  1.00  0.00     0.049 A 
ATOM     58  C   UNL A   1      41.115  29.312  32.474  1.00  0.00     0.074 A 
ATOM     59  C   UNL A   1      42.457  31.857  38.128  1.00  0.00     0.029 A 
ATOM     60  N   UNL A   1      41.535  31.351  36.167  1.00  0.00    -0.354 N 
ATOM     61  N   UNL A   1      41.306  29.881  33.640  1.00  0.00    -0.248 NA
ATOM     62  C   UNL A   1      42.214  28.429  32.055  1.00  0.00     0.031 C 
ATOM     63  C   UNL A   1      43.292  30.951  37.467  1.00  0.00     0.029 A 
ATOM     64  C   UNL A   1      42.701  30.610  36.261  1.00  0.00     0.049 A 
ATOM     65  H   UNL A   1      40.908  31.325  35.410  1.00  0.00     0.167 HD
ATOM     66  C   UNL A   1      42.521  29.393  34.110  1.00  0.00     0.074 A 
ATOM     67  C   UNL A   1      43.015  28.472  33.110  1.00  0.00     0.031 C 
ATOM     68  C   UNL A   1      43.170  29.679  35.265  1.00  0.00     0.037 A 
BRANCH  55  69
ATOM     69  C   UNL A   1      40.283  33.855  38.792  1.00  0.00     0.057 A 
ATOM     70  C   UNL A   1      39.595  33.419  39.932  1.00  0.00     0.134 A 
ATOM     71  C   UNL A   1      40.993  35.059  38.887  1.00  0.00     0.134 A 
ATOM     72  F   UNL A   1      38.883  32.282  39.904  1.00  0.00    -0.206 F 
ATOM     73  C   UNL A   1      39.593  34.164  41.113  1.00  0.00     0.040 A 
ATOM     74  C   UNL A   1      41.026  35.795  40.072  1.00  0.00     0.040 A 
ATOM     75  F   UNL A   1      41.677  35.533  37.835  1.00  0.00    -0.206 F 
ATOM     76  C   UNL A   1      40.318  35.352  41.187  1.00  0.00     0.006 A 
ENDBRANCH  55  69
BRANCH  56  77
ATOM     77  C   UNL A   1      39.925  28.666  30.256  1.00  0.00     0.057 A 
ATOM     78  C   UNL A   1      40.534  29.165  29.099  1.00  0.00     0.134 A 
ATOM     79  C   UNL A   1      39.246  27.445  30.146  1.00  0.00     0.134 A 
ATOM     80  F   UNL A   1      41.180  30.341  29.131  1.00  0.00    -0.206 F 
ATOM     81  C   UNL A   1      40.438  28.503  27.874  1.00  0.00     0.040 A 
ATOM     82  C   UNL A   1      39.172  26.754  28.936  1.00  0.00     0.040 A 
ATOM     83  F   UNL A   1      38.643  26.905  31.215  1.00  0.00    -0.206 F 
ATOM     84  C   UNL A   1      39.756  27.290  27.791  1.00  0.00     0.006 A 
ENDBRANCH  56  77
BRANCH  68  85
ATOM     85  C   UNL A   1      44.455  28.950  35.544  1.00  0.00     0.057 A 
ATOM     86  C   UNL A   1      45.701  29.461  35.164  1.00  0.00     0.134 A 
ATOM     87  C   UNL A   1      44.444  27.742  36.255  1.00  0.00     0.134 A 
ATOM     88  F   UNL A   1      45.784  30.609  34.473  1.00  0.00    -0.206 F 
ATOM     89  C   UNL A   1      46.887  28.786  35.457  1.00  0.00     0.040 A 
ATOM     90  C   UNL A   1      45.624  27.075  36.584  1.00  0.00     0.040 A 
ATOM     91  F   UNL A   1      43.285  27.200  36.661  1.00  0.00    -0.206 F 
ATOM     92  C   UNL A   1      46.851  27.594  36.178  1.00  0.00     0.006 A 
ENDBRANCH  68  85
ENDBRANCH  42  43
ENDBRANCH  35  37
ENDBRANCH  34  35
ENDBRANCH  33  34
ENDBRANCH  32  33
ENDBRANCH  31  32
ENDBRANCH  30  31
ENDBRANCH  29  30
ENDBRANCH  28  29
ENDBRANCH   1  28
TORSDOF 25
ENDMDL
MODEL 2
REMARK VINA RESULT:      -9.6      3.075      8.464
REMARK SMILES N#Cc1ccc(/C=C/C(=O)N2C[C@@H](O)C[C@H]2C(=O)OCCOCCOCCOCCOC(=O)c2ccc(-c3c4nc(c(-c5c(F)cccc5F)c5ccc([nH]5)c(-c5c(F)cccc5F)c5nc(c(-c6c(F)cccc6F)c6ccc3[nH]6)C=C5)C=C4)cc2)cc1
REMARK SMILES IDX 24 1 23 2 22 3 21 4 20 5 19 6 17 7 18 8 16 9 11 10 12 11
REMARK SMILES IDX 13 12 15 13 9 14 10 15 8 16 7 17 6 18 3 19 4 20 89 21 5 22
REMARK SMILES IDX 88 23 2 24 1 25 14 26 25 28 26 29 27 30 28 31 29 32 30 33
REMARK SMILES IDX 31 34 32 35 33 36 34 37 35 38 87 39 36 40 86 41 37 42 38 43
REMARK SMILES IDX 39 44 80 45 40 46 85 47 79 48 81 49 41 50 84 51 78 52 77 53
REMARK SMILES IDX 42 55 68 56 51 57 67 58 52 59 55 60 66 61 82 62 53 63 54 64
REMARK SMILES IDX 65 66 83 67 56 68 43 69 44 70 49 71 45 72 46 73 48 74 50 75
REMARK SMILES IDX 47 76 69 77 70 78 75 79 71 80 72 81 74 82 76 83 73 84 57 85
REMARK SMILES IDX 58 86 63 87 59 88 60 89 62 90 64 91 61 92
REMARK H PARENT 14 27 81 54 55 65
REMARK Flexibility Score: inf
ROOT
ATOM      1  C   UNL A   1      39.674  22.879  27.257  1.00  0.00     0.188 C 
ENDROOT
BRANCH   1   2
ATOM      2  C   UNL A   1      38.925  23.741  26.220  1.00  0.00     0.188 C 
BRANCH   2   3
ATOM      3  O   UNL A   1      37.504  23.844  26.259  1.00  0.00    -0.376 OA
BRANCH   3   4
ATOM      4  C   UNL A   1      36.727  23.395  25.161  1.00  0.00     0.202 C 
BRANCH   4   5
ATOM      5  C   UNL A   1      35.463  24.181  24.750  1.00  0.00     0.261 C 
BRANCH   5   6
ATOM      6  O   UNL A   1      34.606  24.672  25.814  1.00  0.00    -0.462 OA
BRANCH   6   7
ATOM      7  C   UNL A   1      33.633  25.550  25.455  1.00  0.00     0.329 C 
ATOM      8  O   UNL A   1      32.708  25.866  26.199  1.00  0.00    -0.250 OA
BRANCH   7   9
ATOM      9  C   UNL A   1      33.660  26.010  23.963  1.00  0.00     0.198 C 
ATOM     10  N   UNL A   1      32.579  25.879  22.942  1.00  0.00    -0.323 N 
ATOM     11  C   UNL A   1      31.910  27.148  22.758  1.00  0.00     0.152 C 
ATOM     12  C   UNL A   1      33.064  28.128  22.907  1.00  0.00     0.136 C 
ATOM     13  C   UNL A   1      33.891  27.530  24.041  1.00  0.00     0.071 C 
BRANCH  10  14
ATOM     14  C   UNL A   1      32.567  24.817  22.055  1.00  0.00     0.247 C 
ATOM     15  O   UNL A   1      32.942  24.924  20.889  1.00  0.00    -0.270 OA
BRANCH  14  16
ATOM     16  C   UNL A   1      32.075  23.477  22.494  1.00  0.00     0.072 C 
ATOM     17  C   UNL A   1      32.977  22.545  22.849  1.00  0.00     0.014 C 
BRANCH  17  18
ATOM     18  C   UNL A   1      32.741  21.288  23.590  1.00  0.00    -0.025 A 
ATOM     19  C   UNL A   1      32.673  18.725  24.788  1.00  0.00     0.052 A 
ATOM     20  C   UNL A   1      33.001  19.852  25.546  1.00  0.00     0.020 A 
ATOM     21  C   UNL A   1      32.340  18.881  23.442  1.00  0.00     0.020 A 
ATOM     22  C   UNL A   1      33.035  21.125  24.952  1.00  0.00     0.009 A 
ATOM     23  C   UNL A   1      32.373  20.151  22.852  1.00  0.00     0.009 A 
BRANCH  19  24
ATOM     24  C   UNL A   1      32.719  17.410  25.370  1.00  0.00     0.099 C 
ATOM     25  N   UNL A   1      32.754  16.361  25.855  1.00  0.00    -0.192 NA
ENDBRANCH  19  24
ENDBRANCH  17  18
ENDBRANCH  14  16
ENDBRANCH  10  14
BRANCH  12  26
ATOM     26  O   UNL A   1      32.639  29.444  23.201  1.00  0.00    -0.391 OA
ATOM     27  H   UNL A   1      31.894  29.412  23.821  1.00  0.00     0.211 HD
ENDBRANCH  12  26
ENDBRANCH   7   9
ENDBRANCH   6   7
ENDBRANCH   5   6
ENDBRANCH   4   5
ENDBRANCH   3   4
ENDBRANCH   2   3
ENDBRANCH   1   2
BRANCH   1  28
ATOM     28  O   UNL A   1      40.016  21.574  26.839  1.00  0.00    -0.377 OA
BRANCH  28  29
ATOM     29  C   UNL A   1      41.235  21.067  27.334  1.00  0.00     0.188 C 
BRANCH  29  30
ATOM     30  C   UNL A   1      42.039  20.148  26.398  1.00  0.00     0.188 C 
BRANCH  30  31
ATOM     31  O   UNL A   1      42.928  20.826  25.534  1.00  0.00    -0.376 OA
BRANCH  31  32
ATOM     32  C   UNL A   1      42.785  22.182  25.164  1.00  0.00     0.202 C 
BRANCH  32  33
ATOM     33  C   UNL A   1      43.936  23.089  24.690  1.00  0.00     0.261 C 
BRANCH  33  34
ATOM     34  O   UNL A   1      44.845  23.615  25.658  1.00  0.00    -0.460 OA
BRANCH  34  35
ATOM     35  C   UNL A   1      45.242  24.898  25.515  1.00  0.00     0.338 C 
ATOM     36  O   UNL A   1      46.017  25.337  24.688  1.00  0.00    -0.246 OA
BRANCH  35  37
ATOM     37  C   UNL A   1      44.418  25.726  26.428  1.00  0.00     0.060 A 
ATOM     38  C   UNL A   1      44.450  27.122  26.299  1.00  0.00     0.016 A 
ATOM     39  C   UNL A   1      43.600  25.127  27.386  1.00  0.00     0.016 A 
ATOM     40  C   UNL A   1      43.676  27.924  27.138  1.00  0.00     0.010 A 
ATOM     41  C   UNL A   1      42.857  25.933  28.254  1.00  0.00     0.010 A 
ATOM     42  C   UNL A   1      42.912  27.335  28.151  1.00  0.00    -0.014 A 
BRANCH  42  43
ATOM     43  C   UNL A   1      42.337  28.176  29.227  1.00  0.00     0.031 A 
ATOM     44  C   UNL A   1      43.054  28.224  30.548  1.00  0.00     0.074 A 
ATOM     45  C   UNL A   1      41.215  28.892  29.038  1.00  0.00     0.049 A 
ATOM     46  N   UNL A   1      42.700  28.797  31.668  1.00  0.00    -0.248 NA
ATOM     47  C   UNL A   1      44.348  27.522  30.612  1.00  0.00     0.031 C 
ATOM     48  C   UNL A   1      40.465  28.979  27.787  1.00  0.00     0.029 A 
ATOM     49  N   UNL A   1      40.502  29.674  29.914  1.00  0.00    -0.354 N 
ATOM     50  C   UNL A   1      43.721  28.523  32.569  1.00  0.00     0.074 A 
ATOM     51  C   UNL A   1      44.687  27.696  31.879  1.00  0.00     0.031 C 
ATOM     52  C   UNL A   1      39.384  29.756  27.981  1.00  0.00     0.029 A 
ATOM     53  C   UNL A   1      39.345  30.184  29.378  1.00  0.00     0.049 A 
ATOM     54  H   UNL A   1      40.793  29.852  30.836  1.00  0.00     0.167 HD
ATOM     55  C   UNL A   1      43.847  28.932  33.853  1.00  0.00     0.037 A 
ATOM     56  C   UNL A   1      38.355  30.886  29.964  1.00  0.00     0.037 A 
ATOM     57  C   UNL A   1      42.876  29.743  34.538  1.00  0.00     0.049 A 
ATOM     58  C   UNL A   1      38.460  31.226  31.431  1.00  0.00     0.074 A 
ATOM     59  C   UNL A   1      42.904  30.205  35.842  1.00  0.00     0.029 A 
ATOM     60  N   UNL A   1      41.696  30.204  33.974  1.00  0.00    -0.354 N 
ATOM     61  N   UNL A   1      39.433  30.975  32.273  1.00  0.00    -0.248 NA
ATOM     62  C   UNL A   1      37.328  31.949  32.028  1.00  0.00     0.031 C 
ATOM     63  C   UNL A   1      41.712  30.892  36.087  1.00  0.00     0.029 A 
ATOM     64  C   UNL A   1      40.974  30.922  34.914  1.00  0.00     0.049 A 
ATOM     65  H   UNL A   1      41.413  30.045  33.045  1.00  0.00     0.167 HD
ATOM     66  C   UNL A   1      39.049  31.544  33.483  1.00  0.00     0.074 A 
ATOM     67  C   UNL A   1      37.761  32.165  33.262  1.00  0.00     0.031 C 
ATOM     68  C   UNL A   1      39.702  31.553  34.671  1.00  0.00     0.037 A 
BRANCH  55  69
ATOM     69  C   UNL A   1      45.069  28.490  34.605  1.00  0.00     0.057 A 
ATOM     70  C   UNL A   1      46.232  29.271  34.655  1.00  0.00     0.134 A 
ATOM     71  C   UNL A   1      45.072  27.283  35.317  1.00  0.00     0.134 A 
ATOM     72  F   UNL A   1      46.302  30.430  33.983  1.00  0.00    -0.206 F 
ATOM     73  C   UNL A   1      47.361  28.856  35.364  1.00  0.00     0.040 A 
ATOM     74  C   UNL A   1      46.182  26.874  36.057  1.00  0.00     0.040 A 
ATOM     75  F   UNL A   1      43.992  26.488  35.316  1.00  0.00    -0.206 F 
ATOM     76  C   UNL A   1      47.334  27.658  36.076  1.00  0.00     0.006 A 
ENDBRANCH  55  69
BRANCH  56  77
ATOM     77  C   UNL A   1      37.155  31.300  29.186  1.00  0.00     0.057 A 
ATOM     78  C   UNL A   1      37.040  32.594  28.664  1.00  0.00     0.134 A 
ATOM     79  C   UNL A   1      36.069  30.435  28.998  1.00  0.00     0.134 A 
ATOM     80  F   UNL A   1      38.035  33.478  28.829  1.00  0.00    -0.206 F 
ATOM     81  C   UNL A   1      35.879  33.026  28.021  1.00  0.00     0.040 A 
ATOM     82  C   UNL A   1      34.915  30.842  28.326  1.00  0.00     0.040 A 
ATOM     83  F   UNL A   1      36.111  29.179  29.468  1.00  0.00    -0.206 F 
ATOM     84  C   UNL A   1      34.812  32.146  27.848  1.00  0.00     0.006 A 
ENDBRANCH  56  77
BRANCH  68  85
ATOM     85  C   UNL A   1      39.070  32.305  35.810  1.00  0.00     0.057 A 
ATOM     86  C   UNL A   1      38.243  31.679  36.750  1.00  0.00     0.134 A 
ATOM     87  C   UNL A   1      39.340  33.667  35.997  1.00  0.00     0.134 A 
ATOM     88  F   UNL A   1      37.935  30.378  36.627  1.00  0.00    -0.206 F 
ATOM     89  C   UNL A   1      37.688  32.384  37.819  1.00  0.00     0.040 A 
ATOM     90  C   UNL A   1      38.820  34.376  37.080  1.00  0.00     0.040 A 
ATOM     91  F   UNL A   1      40.135  34.329  35.141  1.00  0.00    -0.206 F 
ATOM     92  C   UNL A   1      37.984  33.735  37.991  1.00  0.00     0.006 A 
ENDBRANCH  68  85
ENDBRANCH  42  43
ENDBRANCH  35  37
ENDBRANCH  34  35
ENDBRANCH  33  34
ENDBRANCH  32  33
ENDBRANCH  31  32
ENDBRANCH  30  31
ENDBRANCH  29  30
ENDBRANCH  28  29
ENDBRANCH   1  28
TORSDOF 25
ENDMDL
MODEL 3
REMARK VINA RESULT:      -9.5      3.243      9.397
REMARK SMILES N#Cc1ccc(/C=C/C(=O)N2C[C@@H](O)C[C@H]2C(=O)OCCOCCOCCOCCOC(=O)c2ccc(-c3c4nc(c(-c5c(F)cccc5F)c5ccc([nH]5)c(-c5c(F)cccc5F)c5nc(c(-c6c(F)cccc6F)c6ccc3[nH]6)C=C5)C=C4)cc2)cc1
REMARK SMILES IDX 24 1 23 2 22 3 21 4 20 5 19 6 17 7 18 8 16 9 11 10 12 11
REMARK SMILES IDX 13 12 15 13 9 14 10 15 8 16 7 17 6 18 3 19 4 20 89 21 5 22
REMARK SMILES IDX 88 23 2 24 1 25 14 26 25 28 26 29 27 30 28 31 29 32 30 33
REMARK SMILES IDX 31 34 32 35 33 36 34 37 35 38 87 39 36 40 86 41 37 42 38 43
REMARK SMILES IDX 39 44 80 45 40 46 85 47 79 48 81 49 41 50 84 51 78 52 77 53
REMARK SMILES IDX 42 55 68 56 51 57 67 58 52 59 55 60 66 61 82 62 53 63 54 64
REMARK SMILES IDX 65 66 83 67 56 68 43 69 44 70 49 71 45 72 46 73 48 74 50 75
REMARK SMILES IDX 47 76 69 77 70 78 75 79 71 80 72 81 74 82 76 83 73 84 57 85
REMARK SMILES IDX 58 86 63 87 59 88 60 89 62 90 64 91 61 92
REMARK H PARENT 14 27 81 54 55 65
REMARK Flexibility Score: inf
ROOT
ATOM      1  C   UNL A   1      37.611  21.390  24.740  1.00  0.00     0.188 C 
ENDROOT
BRANCH   1   2
ATOM      2  C   UNL A   1      36.572  20.273  24.969  1.00  0.00     0.188 C 
BRANCH   2   3
ATOM      3  O   UNL A   1      35.178  20.567  24.939  1.00  0.00    -0.376 OA
BRANCH   3   4
ATOM      4  C   UNL A   1      34.236  19.529  24.726  1.00  0.00     0.202 C 
BRANCH   4   5
ATOM      5  C   UNL A   1      32.812  19.661  25.310  1.00  0.00     0.261 C 
BRANCH   5   6
ATOM      6  O   UNL A   1      31.867  20.488  24.583  1.00  0.00    -0.462 OA
BRANCH   6   7
ATOM      7  C   UNL A   1      31.556  21.689  25.140  1.00  0.00     0.329 C 
ATOM      8  O   UNL A   1      31.051  21.801  26.254  1.00  0.00    -0.250 OA
BRANCH   7   9
ATOM      9  C   UNL A   1      31.722  22.927  24.202  1.00  0.00     0.198 C 
ATOM     10  N   UNL A   1      32.065  24.329  24.583  1.00  0.00    -0.323 N 
ATOM     11  C   UNL A   1      33.455  24.599  24.290  1.00  0.00     0.152 C 
ATOM     12  C   UNL A   1      33.658  23.809  23.006  1.00  0.00     0.136 C 
ATOM     13  C   UNL A   1      32.864  22.529  23.250  1.00  0.00     0.071 C 
BRANCH  10  14
ATOM     14  C   UNL A   1      31.074  25.275  24.769  1.00  0.00     0.247 C 
ATOM     15  O   UNL A   1      30.421  25.355  25.809  1.00  0.00    -0.270 OA
BRANCH  14  16
ATOM     16  C   UNL A   1      30.751  26.249  23.684  1.00  0.00     0.072 C 
ATOM     17  C   UNL A   1      29.616  26.964  23.779  1.00  0.00     0.014 C 
BRANCH  17  18
ATOM     18  C   UNL A   1      29.239  28.174  23.018  1.00  0.00    -0.025 A 
ATOM     19  C   UNL A   1      28.492  30.699  21.980  1.00  0.00     0.052 A 
ATOM     20  C   UNL A   1      29.784  30.206  21.781  1.00  0.00     0.020 A 
ATOM     21  C   UNL A   1      27.560  29.916  22.662  1.00  0.00     0.020 A 
ATOM     22  C   UNL A   1      30.156  28.952  22.296  1.00  0.00     0.009 A 
ATOM     23  C   UNL A   1      27.932  28.666  23.174  1.00  0.00     0.009 A 
BRANCH  19  24
ATOM     24  C   UNL A   1      28.131  32.017  21.530  1.00  0.00     0.099 C 
ATOM     25  N   UNL A   1      27.825  33.075  21.179  1.00  0.00    -0.192 NA
ENDBRANCH  19  24
ENDBRANCH  17  18
ENDBRANCH  14  16
ENDBRANCH  10  14
BRANCH  12  26
ATOM     26  O   UNL A   1      35.018  23.541  22.728  1.00  0.00    -0.391 OA
ATOM     27  H   UNL A   1      35.458  24.359  22.448  1.00  0.00     0.211 HD
ENDBRANCH  12  26
ENDBRANCH   7   9
ENDBRANCH   6   7
ENDBRANCH   5   6
ENDBRANCH   4   5
ENDBRANCH   3   4
ENDBRANCH   2   3
ENDBRANCH   1   2
BRANCH   1  28
ATOM     28  O   UNL A   1      37.126  22.712  24.845  1.00  0.00    -0.377 OA
BRANCH  28  29
ATOM     29  C   UNL A   1      37.334  23.350  26.085  1.00  0.00     0.188 C 
BRANCH  29  30
ATOM     30  C   UNL A   1      38.769  23.801  26.405  1.00  0.00     0.188 C 
BRANCH  30  31
ATOM     31  O   UNL A   1      39.532  22.857  27.128  1.00  0.00    -0.376 OA
BRANCH  31  32
ATOM     32  C   UNL A   1      40.933  22.933  27.288  1.00  0.00     0.202 C 
BRANCH  32  33
ATOM     33  C   UNL A   1      41.919  23.384  26.193  1.00  0.00     0.261 C 
BRANCH  33  34
ATOM     34  O   UNL A   1      42.577  24.644  26.333  1.00  0.00    -0.460 OA
BRANCH  34  35
ATOM     35  C   UNL A   1      41.843  25.761  26.138  1.00  0.00     0.338 C 
ATOM     36  O   UNL A   1      41.252  26.081  25.125  1.00  0.00    -0.246 OA
BRANCH  35  37
ATOM     37  C   UNL A   1      41.721  26.450  27.445  1.00  0.00     0.060 A 
ATOM     38  C   UNL A   1      40.508  26.377  28.145  1.00  0.00     0.016 A 
ATOM     39  C   UNL A   1      42.805  27.140  27.989  1.00  0.00     0.016 A 
ATOM     40  C   UNL A   1      40.369  27.006  29.382  1.00  0.00     0.010 A 
ATOM     41  C   UNL A   1      42.652  27.805  29.208  1.00  0.00     0.010 A 
ATOM     42  C   UNL A   1      41.426  27.764  29.897  1.00  0.00    -0.014 A 
BRANCH  42  43
ATOM     43  C   UNL A   1      41.192  28.676  31.042  1.00  0.00     0.031 A 
ATOM     44  C   UNL A   1      40.095  29.696  30.921  1.00  0.00     0.074 A 
ATOM     45  C   UNL A   1      41.923  28.595  32.167  1.00  0.00     0.049 A 
ATOM     46  N   UNL A   1      39.766  30.665  31.733  1.00  0.00    -0.248 NA
ATOM     47  C   UNL A   1      39.259  29.613  29.711  1.00  0.00     0.031 C 
ATOM     48  C   UNL A   1      42.969  27.609  32.431  1.00  0.00     0.029 A 
ATOM     49  N   UNL A   1      41.900  29.374  33.298  1.00  0.00    -0.354 N 
ATOM     50  C   UNL A   1      38.690  31.308  31.134  1.00  0.00     0.074 A 
ATOM     51  C   UNL A   1      38.450  30.648  29.870  1.00  0.00     0.031 C 
ATOM     52  C   UNL A   1      43.504  27.856  33.641  1.00  0.00     0.029 A 
ATOM     53  C   UNL A   1      42.866  29.040  34.216  1.00  0.00     0.049 A 
ATOM     54  H   UNL A   1      41.253  30.102  33.438  1.00  0.00     0.167 HD
ATOM     55  C   UNL A   1      37.960  32.349  31.600  1.00  0.00     0.037 A 
ATOM     56  C   UNL A   1      43.214  29.645  35.369  1.00  0.00     0.037 A 
ATOM     57  C   UNL A   1      38.213  33.011  32.852  1.00  0.00     0.049 A 
ATOM     58  C   UNL A   1      42.464  30.879  35.808  1.00  0.00     0.074 A 
ATOM     59  C   UNL A   1      37.539  34.081  33.412  1.00  0.00     0.029 A 
ATOM     60  N   UNL A   1      39.228  32.670  33.734  1.00  0.00    -0.354 N 
ATOM     61  N   UNL A   1      41.441  31.474  35.243  1.00  0.00    -0.248 NA
ATOM     62  C   UNL A   1      42.919  31.527  37.047  1.00  0.00     0.031 C 
ATOM     63  C   UNL A   1      38.184  34.428  34.603  1.00  0.00     0.029 A 
ATOM     64  C   UNL A   1      39.216  33.528  34.821  1.00  0.00     0.049 A 
ATOM     65  H   UNL A   1      39.863  31.929  33.606  1.00  0.00     0.167 HD
ATOM     66  C   UNL A   1      41.106  32.535  36.078  1.00  0.00     0.074 A 
ATOM     67  C   UNL A   1      42.026  32.494  37.194  1.00  0.00     0.031 C 
ATOM     68  C   UNL A   1      40.125  33.461  35.936  1.00  0.00     0.037 A 
BRANCH  55  69
ATOM     69  C   UNL A   1      36.835  32.849  30.740  1.00  0.00     0.057 A 
ATOM     70  C   UNL A   1      35.519  32.397  30.906  1.00  0.00     0.134 A 
ATOM     71  C   UNL A   1      37.064  33.819  29.755  1.00  0.00     0.134 A 
ATOM     72  F   UNL A   1      35.232  31.457  31.820  1.00  0.00    -0.206 F 
ATOM     73  C   UNL A   1      34.477  32.873  30.108  1.00  0.00     0.040 A 
ATOM     74  C   UNL A   1      36.026  34.327  28.974  1.00  0.00     0.040 A 
ATOM     75  F   UNL A   1      38.299  34.298  29.545  1.00  0.00    -0.206 F 
ATOM     76  C   UNL A   1      34.728  33.848  29.145  1.00  0.00     0.006 A 
ENDBRANCH  55  69
BRANCH  56  77
ATOM     77  C   UNL A   1      44.341  29.123  36.189  1.00  0.00     0.057 A 
ATOM     78  C   UNL A   1      44.157  28.061  37.082  1.00  0.00     0.134 A 
ATOM     79  C   UNL A   1      45.611  29.713  36.150  1.00  0.00     0.134 A 
ATOM     80  F   UNL A   1      42.958  27.468  37.186  1.00  0.00    -0.206 F 
ATOM     81  C   UNL A   1      45.177  27.629  37.931  1.00  0.00     0.040 A 
ATOM     82  C   UNL A   1      46.651  29.269  36.967  1.00  0.00     0.040 A 
ATOM     83  F   UNL A   1      45.860  30.734  35.315  1.00  0.00    -0.206 F 
ATOM     84  C   UNL A   1      46.432  28.234  37.872  1.00  0.00     0.006 A 
ENDBRANCH  56  77
BRANCH  68  85
ATOM     85  C   UNL A   1      39.953  34.470  37.037  1.00  0.00     0.057 A 
ATOM     86  C   UNL A   1      40.499  35.757  36.962  1.00  0.00     0.134 A 
ATOM     87  C   UNL A   1      39.180  34.163  38.165  1.00  0.00     0.134 A 
ATOM     88  F   UNL A   1      41.258  36.116  35.914  1.00  0.00    -0.206 F 
ATOM     89  C   UNL A   1      40.304  36.693  37.979  1.00  0.00     0.040 A 
ATOM     90  C   UNL A   1      38.949  35.101  39.172  1.00  0.00     0.040 A 
ATOM     91  F   UNL A   1      38.616  32.952  38.297  1.00  0.00    -0.206 F 
ATOM     92  C   UNL A   1      39.519  36.369  39.084  1.00  0.00     0.006 A 
ENDBRANCH  68  85
ENDBRANCH  42  43
ENDBRANCH  35  37
ENDBRANCH  34  35
ENDBRANCH  33  34
ENDBRANCH  32  33
ENDBRANCH  31  32
ENDBRANCH  30  31
ENDBRANCH  29  30
ENDBRANCH  28  29
ENDBRANCH   1  28
TORSDOF 25
ENDMDL
