MODEL 1
REMARK VINA RESULT:      -9.2      0.000      0.000
REMARK SMILES CC[C@H](C)[C@H](NC(=O)N1CCc2cc(OC)c(OC)cc2[C@@H]1c1ccc(F)cc1)C(=O)OCCOCCOCCOCCOC(=O)c1ccc(-c2c3nc(c(-c4c(F)cccc4F)c4ccc([nH]4)c(-c4c(F)cccc4F)c4nc(c(-c5c(F)cccc5F)c5ccc2[nH]5)C=C4)C=C3)cc1
REMARK SMILES IDX 37 1 36 2 35 3 34 4 33 5 32 6 30 7 31 8 5 9 3 10 4 11 2 12
REMARK SMILES IDX 1 13 6 14 7 15 8 17 9 18 10 19 22 20 11 21 21 22 12 23 20 24
REMARK SMILES IDX 13 25 17 26 14 27 23 28 24 29 29 30 25 31 28 32 26 33 27 34
REMARK SMILES IDX 18 35 19 36 15 37 16 38 38 39 39 40 40 41 41 42 42 43 43 44
REMARK SMILES IDX 44 45 45 46 46 47 47 48 48 49 100 50 49 51 99 52 50 53 51 54
REMARK SMILES IDX 52 55 93 56 53 57 98 58 92 59 94 60 54 61 97 62 91 63 90 64
REMARK SMILES IDX 55 66 81 67 64 68 80 69 65 70 68 71 79 72 95 73 66 74 67 75
REMARK SMILES IDX 78 77 96 78 69 79 56 80 57 81 62 82 58 83 59 84 61 85 63 86
REMARK SMILES IDX 60 87 82 88 83 89 88 90 84 91 85 92 87 93 89 94 86 95 70 96
REMARK SMILES IDX 71 97 76 98 72 99 73 100 75 101 77 102 74 103
REMARK H PARENT 6 16 94 65 68 76
REMARK Flexibility Score: inf
ROOT
ATOM      1  C   UNL A   1      38.025  23.324  25.342  1.00  0.00     0.188 C 
ENDROOT
BRANCH   1   2
ATOM      2  C   UNL A   1      36.575  23.702  24.976  1.00  0.00     0.188 C 
BRANCH   2   3
ATOM      3  O   UNL A   1      35.839  24.616  25.776  1.00  0.00    -0.376 OA
BRANCH   3   4
ATOM      4  C   UNL A   1      35.073  25.636  25.155  1.00  0.00     0.202 C 
BRANCH   4   5
ATOM      5  C   UNL A   1      33.573  25.781  25.478  1.00  0.00     0.261 C 
BRANCH   5   6
ATOM      6  O   UNL A   1      33.218  26.768  26.470  1.00  0.00    -0.462 OA
BRANCH   6   7
ATOM      7  C   UNL A   1      31.903  26.860  26.799  1.00  0.00     0.329 C 
ATOM      8  O   UNL A   1      31.473  27.572  27.702  1.00  0.00    -0.250 OA
BRANCH   7   9
ATOM      9  C   UNL A   1      30.985  25.853  26.048  1.00  0.00     0.196 C 
BRANCH   9  10
ATOM     10  C   UNL A   1      29.895  26.748  25.382  1.00  0.00     0.019 C 
ATOM     11  C   UNL A   1      30.526  27.745  24.410  1.00  0.00     0.010 C 
BRANCH  10  12
ATOM     12  C   UNL A   1      28.778  25.929  24.693  1.00  0.00     0.002 C 
ATOM     13  C   UNL A   1      27.915  26.793  23.784  1.00  0.00     0.004 C 
ENDBRANCH  10  12
ENDBRANCH   9  10
BRANCH   9  14
ATOM     14  N   UNL A   1      30.360  24.696  26.736  1.00  0.00    -0.324 N 
ATOM     15  C   UNL A   1      30.489  23.347  26.606  1.00  0.00     0.318 C 
ATOM     16  H   UNL A   1      29.716  24.960  27.434  1.00  0.00     0.166 HD
ATOM     17  O   UNL A   1      29.495  22.671  26.875  1.00  0.00    -0.249 OA
BRANCH  15  18
ATOM     18  N   UNL A   1      31.667  22.770  26.194  1.00  0.00    -0.313 N 
ATOM     19  C   UNL A   1      32.820  22.567  27.071  1.00  0.00     0.127 C 
ATOM     20  C   UNL A   1      31.684  22.060  24.877  1.00  0.00     0.148 C 
ATOM     21  C   UNL A   1      34.115  22.172  26.363  1.00  0.00     0.057 C 
ATOM     22  C   UNL A   1      32.637  20.847  24.863  1.00  0.00    -0.014 A 
ATOM     23  C   UNL A   1      33.860  20.947  25.537  1.00  0.00    -0.037 A 
ATOM     24  C   UNL A   1      32.370  19.671  24.127  1.00  0.00     0.057 A 
ATOM     25  C   UNL A   1      34.813  19.932  25.424  1.00  0.00     0.054 A 
ATOM     26  C   UNL A   1      33.323  18.633  24.020  1.00  0.00     0.161 A 
ATOM     27  C   UNL A   1      34.565  18.780  24.665  1.00  0.00     0.161 A 
BRANCH  20  28
ATOM     28  C   UNL A   1      32.056  23.066  23.759  1.00  0.00    -0.021 A 
ATOM     29  C   UNL A   1      31.124  24.003  23.284  1.00  0.00     0.009 A 
ATOM     30  C   UNL A   1      33.334  23.062  23.164  1.00  0.00     0.009 A 
ATOM     31  C   UNL A   1      31.461  24.880  22.245  1.00  0.00     0.039 A 
ATOM     32  C   UNL A   1      33.678  23.943  22.144  1.00  0.00     0.039 A 
ATOM     33  C   UNL A   1      32.733  24.843  21.688  1.00  0.00     0.123 A 
ATOM     34  F   UNL A   1      33.052  25.681  20.695  1.00  0.00    -0.207 F 
ENDBRANCH  20  28
BRANCH  26  35
ATOM     35  O   UNL A   1      33.114  17.481  23.314  1.00  0.00    -0.493 OA
ATOM     36  C   UNL A   1      33.113  16.237  23.996  1.00  0.00     0.278 C 
ENDBRANCH  26  35
BRANCH  27  37
ATOM     37  O   UNL A   1      35.635  17.922  24.684  1.00  0.00    -0.493 OA
ATOM     38  C   UNL A   1      36.934  18.424  24.955  1.00  0.00     0.278 C 
ENDBRANCH  27  37
ENDBRANCH  15  18
ENDBRANCH   9  14
ENDBRANCH   7   9
ENDBRANCH   6   7
ENDBRANCH   5   6
ENDBRANCH   4   5
ENDBRANCH   3   4
ENDBRANCH   2   3
ENDBRANCH   1   2
BRANCH   1  39
ATOM     39  O   UNL A   1      38.520  23.921  26.520  1.00  0.00    -0.377 OA
BRANCH  39  40
ATOM     40  C   UNL A   1      39.483  23.157  27.222  1.00  0.00     0.188 C 
BRANCH  40  41
ATOM     41  C   UNL A   1      40.687  22.652  26.405  1.00  0.00     0.188 C 
BRANCH  41  42
ATOM     42  O   UNL A   1      41.299  21.483  26.943  1.00  0.00    -0.376 OA
BRANCH  42  43
ATOM     43  C   UNL A   1      41.102  20.234  26.297  1.00  0.00     0.202 C 
BRANCH  43  44
ATOM     44  C   UNL A   1      42.341  19.367  26.010  1.00  0.00     0.261 C 
BRANCH  44  45
ATOM     45  O   UNL A   1      42.958  19.529  24.723  1.00  0.00    -0.460 OA
BRANCH  45  46
ATOM     46  C   UNL A   1      44.302  19.611  24.663  1.00  0.00     0.338 C 
ATOM     47  O   UNL A   1      45.077  18.759  24.262  1.00  0.00    -0.246 OA
BRANCH  46  48
ATOM     48  C   UNL A   1      44.677  21.010  24.959  1.00  0.00     0.060 A 
ATOM     49  C   UNL A   1      45.302  21.298  26.180  1.00  0.00     0.016 A 
ATOM     50  C   UNL A   1      44.448  22.025  24.026  1.00  0.00     0.016 A 
ATOM     51  C   UNL A   1      45.675  22.605  26.485  1.00  0.00     0.010 A 
ATOM     52  C   UNL A   1      44.787  23.342  24.348  1.00  0.00     0.010 A 
ATOM     53  C   UNL A   1      45.370  23.640  25.592  1.00  0.00    -0.014 A 
BRANCH  53  54
ATOM     54  C   UNL A   1      45.444  25.043  26.059  1.00  0.00     0.031 A 
ATOM     55  C   UNL A   1      46.776  25.736  25.987  1.00  0.00     0.074 A 
ATOM     56  C   UNL A   1      44.357  25.699  26.499  1.00  0.00     0.049 A 
ATOM     57  N   UNL A   1      47.110  26.937  26.379  1.00  0.00    -0.248 NA
ATOM     58  C   UNL A   1      47.883  24.967  25.389  1.00  0.00     0.031 C 
ATOM     59  C   UNL A   1      43.003  25.155  26.555  1.00  0.00     0.029 A 
ATOM     60  N   UNL A   1      44.228  26.977  26.987  1.00  0.00    -0.354 N 
ATOM     61  C   UNL A   1      48.460  27.066  26.079  1.00  0.00     0.074 A 
ATOM     62  C   UNL A   1      48.894  25.814  25.501  1.00  0.00     0.031 C 
ATOM     63  C   UNL A   1      42.179  26.090  27.059  1.00  0.00     0.029 A 
ATOM     64  C   UNL A   1      42.954  27.284  27.395  1.00  0.00     0.049 A 
ATOM     65  H   UNL A   1      44.978  27.611  27.039  1.00  0.00     0.167 HD
ATOM     66  C   UNL A   1      49.262  28.138  26.260  1.00  0.00     0.037 A 
ATOM     67  C   UNL A   1      42.476  28.396  27.991  1.00  0.00     0.037 A 
ATOM     68  C   UNL A   1      48.826  29.382  26.834  1.00  0.00     0.049 A 
ATOM     69  C   UNL A   1      43.413  29.544  28.270  1.00  0.00     0.074 A 
ATOM     70  C   UNL A   1      49.564  30.531  27.055  1.00  0.00     0.029 A 
ATOM     71  N   UNL A   1      47.538  29.636  27.282  1.00  0.00    -0.354 N 
ATOM     72  N   UNL A   1      44.686  29.662  27.979  1.00  0.00    -0.248 NA
ATOM     73  C   UNL A   1      42.849  30.713  28.960  1.00  0.00     0.031 C 
ATOM     74  C   UNL A   1      48.738  31.460  27.691  1.00  0.00     0.029 A 
ATOM     75  C   UNL A   1      47.468  30.915  27.805  1.00  0.00     0.049 A 
ATOM     76  H   UNL A   1      46.787  29.002  27.236  1.00  0.00     0.167 HD
ATOM     77  C   UNL A   1      45.067  30.923  28.422  1.00  0.00     0.074 A 
ATOM     78  C   UNL A   1      43.887  31.538  28.993  1.00  0.00     0.031 C 
ATOM     79  C   UNL A   1      46.283  31.519  28.359  1.00  0.00     0.037 A 
BRANCH  66  80
ATOM     80  C   UNL A   1      50.701  28.014  25.854  1.00  0.00     0.057 A 
ATOM     81  C   UNL A   1      51.697  27.809  26.818  1.00  0.00     0.134 A 
ATOM     82  C   UNL A   1      51.110  28.170  24.524  1.00  0.00     0.134 A 
ATOM     83  F   UNL A   1      51.372  27.653  28.110  1.00  0.00    -0.206 F 
ATOM     84  C   UNL A   1      53.049  27.785  26.477  1.00  0.00     0.040 A 
ATOM     85  C   UNL A   1      52.458  28.121  24.166  1.00  0.00     0.040 A 
ATOM     86  F   UNL A   1      50.204  28.349  23.551  1.00  0.00    -0.206 F 
ATOM     87  C   UNL A   1      53.433  27.941  25.146  1.00  0.00     0.006 A 
ENDBRANCH  66  80
BRANCH  67  88
ATOM     88  C   UNL A   1      41.043  28.474  28.373  1.00  0.00     0.057 A 
ATOM     89  C   UNL A   1      40.066  28.893  27.461  1.00  0.00     0.134 A 
ATOM     90  C   UNL A   1      40.614  28.132  29.660  1.00  0.00     0.134 A 
ATOM     91  F   UNL A   1      40.408  29.232  26.209  1.00  0.00    -0.206 F 
ATOM     92  C   UNL A   1      38.720  28.988  27.821  1.00  0.00     0.040 A 
ATOM     93  C   UNL A   1      39.268  28.197  30.026  1.00  0.00     0.040 A 
ATOM     94  F   UNL A   1      41.497  27.698  30.572  1.00  0.00    -0.206 F 
ATOM     95  C   UNL A   1      38.317  28.635  29.106  1.00  0.00     0.006 A 
ENDBRANCH  67  88
BRANCH  79  96
ATOM     96  C   UNL A   1      46.411  32.919  28.887  1.00  0.00     0.057 A 
ATOM     97  C   UNL A   1      46.705  33.144  30.240  1.00  0.00     0.134 A 
ATOM     98  C   UNL A   1      46.142  34.038  28.089  1.00  0.00     0.134 A 
ATOM     99  F   UNL A   1      46.956  32.115  31.063  1.00  0.00    -0.206 F 
ATOM    100  C   UNL A   1      46.708  34.429  30.783  1.00  0.00     0.040 A 
ATOM    101  C   UNL A   1      46.171  35.332  28.616  1.00  0.00     0.040 A 
ATOM    102  F   UNL A   1      45.860  33.892  26.787  1.00  0.00    -0.206 F 
ATOM    103  C   UNL A   1      46.442  35.528  29.969  1.00  0.00     0.006 A 
ENDBRANCH  79  96
ENDBRANCH  53  54
ENDBRANCH  46  48
ENDBRANCH  45  46
ENDBRANCH  44  45
ENDBRANCH  43  44
ENDBRANCH  42  43
ENDBRANCH  41  42
ENDBRANCH  40  41
ENDBRANCH  39  40
ENDBRANCH   1  39
TORSDOF 27
ENDMDL
MODEL 2
REMARK VINA RESULT:      -8.5      1.677      2.292
REMARK SMILES CC[C@H](C)[C@H](NC(=O)N1CCc2cc(OC)c(OC)cc2[C@@H]1c1ccc(F)cc1)C(=O)OCCOCCOCCOCCOC(=O)c1ccc(-c2c3nc(c(-c4c(F)cccc4F)c4ccc([nH]4)c(-c4c(F)cccc4F)c4nc(c(-c5c(F)cccc5F)c5ccc2[nH]5)C=C4)C=C3)cc1
REMARK SMILES IDX 37 1 36 2 35 3 34 4 33 5 32 6 30 7 31 8 5 9 3 10 4 11 2 12
REMARK SMILES IDX 1 13 6 14 7 15 8 17 9 18 10 19 22 20 11 21 21 22 12 23 20 24
REMARK SMILES IDX 13 25 17 26 14 27 23 28 24 29 29 30 25 31 28 32 26 33 27 34
REMARK SMILES IDX 18 35 19 36 15 37 16 38 38 39 39 40 40 41 41 42 42 43 43 44
REMARK SMILES IDX 44 45 45 46 46 47 47 48 48 49 100 50 49 51 99 52 50 53 51 54
REMARK SMILES IDX 52 55 93 56 53 57 98 58 92 59 94 60 54 61 97 62 91 63 90 64
REMARK SMILES IDX 55 66 81 67 64 68 80 69 65 70 68 71 79 72 95 73 66 74 67 75
REMARK SMILES IDX 78 77 96 78 69 79 56 80 57 81 62 82 58 83 59 84 61 85 63 86
REMARK SMILES IDX 60 87 82 88 83 89 88 90 84 91 85 92 87 93 89 94 86 95 70 96
REMARK SMILES IDX 71 97 76 98 72 99 73 100 75 101 77 102 74 103
REMARK H PARENT 6 16 94 65 68 76
REMARK Flexibility Score: inf
ROOT
ATOM      1  C   UNL A   1      38.385  23.525  25.597  1.00  0.00     0.188 C 
ENDROOT
BRANCH   1   2
ATOM      2  C   UNL A   1      36.924  23.531  25.102  1.00  0.00     0.188 C 
BRANCH   2   3
ATOM      3  O   UNL A   1      35.945  24.339  25.740  1.00  0.00    -0.376 OA
BRANCH   3   4
ATOM      4  C   UNL A   1      35.189  25.264  24.974  1.00  0.00     0.202 C 
BRANCH   4   5
ATOM      5  C   UNL A   1      33.711  25.530  25.322  1.00  0.00     0.261 C 
BRANCH   5   6
ATOM      6  O   UNL A   1      33.457  26.429  26.422  1.00  0.00    -0.462 OA
BRANCH   6   7
ATOM      7  C   UNL A   1      32.159  26.613  26.776  1.00  0.00     0.329 C 
ATOM      8  O   UNL A   1      31.797  27.349  27.690  1.00  0.00    -0.250 OA
BRANCH   7   9
ATOM      9  C   UNL A   1      31.157  25.677  26.038  1.00  0.00     0.196 C 
BRANCH   9  10
ATOM     10  C   UNL A   1      30.083  26.646  25.456  1.00  0.00     0.019 C 
ATOM     11  C   UNL A   1      30.710  27.626  24.464  1.00  0.00     0.010 C 
BRANCH  10  12
ATOM     12  C   UNL A   1      28.881  25.906  24.823  1.00  0.00     0.002 C 
ATOM     13  C   UNL A   1      28.137  26.777  23.821  1.00  0.00     0.004 C 
ENDBRANCH  10  12
ENDBRANCH   9  10
BRANCH   9  14
ATOM     14  N   UNL A   1      30.509  24.529  26.718  1.00  0.00    -0.324 N 
ATOM     15  C   UNL A   1      30.600  23.179  26.568  1.00  0.00     0.318 C 
ATOM     16  H   UNL A   1      29.882  24.800  27.428  1.00  0.00     0.166 HD
ATOM     17  O   UNL A   1      29.591  22.526  26.841  1.00  0.00    -0.249 OA
BRANCH  15  18
ATOM     18  N   UNL A   1      31.756  22.575  26.134  1.00  0.00    -0.313 N 
ATOM     19  C   UNL A   1      32.929  22.366  26.982  1.00  0.00     0.127 C 
ATOM     20  C   UNL A   1      31.726  21.846  24.827  1.00  0.00     0.148 C 
ATOM     21  C   UNL A   1      34.198  21.939  26.245  1.00  0.00     0.057 C 
ATOM     22  C   UNL A   1      32.658  20.617  24.806  1.00  0.00    -0.014 A 
ATOM     23  C   UNL A   1      33.900  20.705  25.446  1.00  0.00    -0.037 A 
ATOM     24  C   UNL A   1      32.351  19.435  24.096  1.00  0.00     0.057 A 
ATOM     25  C   UNL A   1      34.832  19.673  25.322  1.00  0.00     0.054 A 
ATOM     26  C   UNL A   1      33.284  18.379  23.979  1.00  0.00     0.161 A 
ATOM     27  C   UNL A   1      34.545  18.514  24.588  1.00  0.00     0.161 A 
BRANCH  20  28
ATOM     28  C   UNL A   1      32.083  22.828  23.685  1.00  0.00    -0.021 A 
ATOM     29  C   UNL A   1      33.318  22.754  23.020  1.00  0.00     0.009 A 
ATOM     30  C   UNL A   1      31.191  23.845  23.286  1.00  0.00     0.009 A 
ATOM     31  C   UNL A   1      33.644  23.674  22.016  1.00  0.00     0.039 A 
ATOM     32  C   UNL A   1      31.504  24.750  22.276  1.00  0.00     0.039 A 
ATOM     33  C   UNL A   1      32.734  24.660  21.653  1.00  0.00     0.123 A 
ATOM     34  F   UNL A   1      33.049  25.538  20.693  1.00  0.00    -0.207 F 
ENDBRANCH  20  28
BRANCH  26  35
ATOM     35  O   UNL A   1      33.035  17.220  23.297  1.00  0.00    -0.493 OA
ATOM     36  C   UNL A   1      32.816  16.019  24.021  1.00  0.00     0.278 C 
ENDBRANCH  26  35
BRANCH  27  37
ATOM     37  O   UNL A   1      35.600  17.638  24.591  1.00  0.00    -0.493 OA
ATOM     38  C   UNL A   1      35.642  16.590  25.546  1.00  0.00     0.278 C 
ENDBRANCH  27  37
ENDBRANCH  15  18
ENDBRANCH   9  14
ENDBRANCH   7   9
ENDBRANCH   6   7
ENDBRANCH   5   6
ENDBRANCH   4   5
ENDBRANCH   3   4
ENDBRANCH   2   3
ENDBRANCH   1   2
BRANCH   1  39
ATOM     39  O   UNL A   1      38.626  24.288  26.759  1.00  0.00    -0.377 OA
BRANCH  39  40
ATOM     40  C   UNL A   1      39.660  23.800  27.594  1.00  0.00     0.188 C 
BRANCH  40  41
ATOM     41  C   UNL A   1      41.090  23.864  27.025  1.00  0.00     0.188 C 
BRANCH  41  42
ATOM     42  O   UNL A   1      41.797  22.630  27.101  1.00  0.00    -0.376 OA
BRANCH  42  43
ATOM     43  C   UNL A   1      41.865  21.794  25.956  1.00  0.00     0.202 C 
BRANCH  43  44
ATOM     44  C   UNL A   1      43.120  20.920  25.774  1.00  0.00     0.261 C 
BRANCH  44  45
ATOM     45  O   UNL A   1      44.144  21.434  24.908  1.00  0.00    -0.460 OA
BRANCH  45  46
ATOM     46  C   UNL A   1      45.381  21.613  25.415  1.00  0.00     0.338 C 
ATOM     47  O   UNL A   1      46.330  20.853  25.331  1.00  0.00    -0.246 OA
BRANCH  46  48
ATOM     48  C   UNL A   1      45.464  23.006  25.904  1.00  0.00     0.060 A 
ATOM     49  C   UNL A   1      45.698  23.228  27.268  1.00  0.00     0.016 A 
ATOM     50  C   UNL A   1      45.349  24.083  25.022  1.00  0.00     0.016 A 
ATOM     51  C   UNL A   1      45.791  24.529  27.760  1.00  0.00     0.010 A 
ATOM     52  C   UNL A   1      45.403  25.387  25.521  1.00  0.00     0.010 A 
ATOM     53  C   UNL A   1      45.590  25.613  26.896  1.00  0.00    -0.014 A 
BRANCH  53  54
ATOM     54  C   UNL A   1      45.340  26.956  27.467  1.00  0.00     0.031 A 
ATOM     55  C   UNL A   1      46.524  27.859  27.675  1.00  0.00     0.074 A 
ATOM     56  C   UNL A   1      44.099  27.380  27.759  1.00  0.00     0.049 A 
ATOM     57  N   UNL A   1      46.575  29.054  28.202  1.00  0.00    -0.248 NA
ATOM     58  C   UNL A   1      47.829  27.344  27.223  1.00  0.00     0.031 C 
ATOM     59  C   UNL A   1      42.871  26.620  27.543  1.00  0.00     0.029 A 
ATOM     60  N   UNL A   1      43.672  28.564  28.307  1.00  0.00    -0.354 N 
ATOM     61  C   UNL A   1      47.911  29.429  28.149  1.00  0.00     0.074 A 
ATOM     62  C   UNL A   1      48.644  28.328  27.567  1.00  0.00     0.031 C 
ATOM     63  C   UNL A   1      41.826  27.354  27.963  1.00  0.00     0.029 A 
ATOM     64  C   UNL A   1      42.315  28.619  28.511  1.00  0.00     0.049 A 
ATOM     65  H   UNL A   1      44.281  29.304  28.532  1.00  0.00     0.167 HD
ATOM     66  C   UNL A   1      48.473  30.594  28.541  1.00  0.00     0.037 A 
ATOM     67  C   UNL A   1      41.562  29.574  29.094  1.00  0.00     0.037 A 
ATOM     68  C   UNL A   1      47.740  31.687  29.119  1.00  0.00     0.049 A 
ATOM     69  C   UNL A   1      42.226  30.825  29.610  1.00  0.00     0.074 A 
ATOM     70  C   UNL A   1      48.219  32.913  29.545  1.00  0.00     0.029 A 
ATOM     71  N   UNL A   1      46.373  31.683  29.356  1.00  0.00    -0.354 N 
ATOM     72  N   UNL A   1      43.488  31.176  29.552  1.00  0.00    -0.248 NA
ATOM     73  C   UNL A   1      41.362  31.813  30.274  1.00  0.00     0.031 C 
ATOM     74  C   UNL A   1      47.152  33.628  30.093  1.00  0.00     0.029 A 
ATOM     75  C   UNL A   1      45.997  32.875  29.949  1.00  0.00     0.049 A 
ATOM     76  H   UNL A   1      45.762  30.943  29.136  1.00  0.00     0.167 HD
ATOM     77  C   UNL A   1      43.565  32.433  30.142  1.00  0.00     0.074 A 
ATOM     78  C   UNL A   1      42.220  32.788  30.544  1.00  0.00     0.031 C 
ATOM     79  C   UNL A   1      44.651  33.221  30.332  1.00  0.00     0.037 A 
BRANCH  66  80
ATOM     80  C   UNL A   1      49.956  30.746  28.381  1.00  0.00     0.057 A 
ATOM     81  C   UNL A   1      50.833  30.223  29.341  1.00  0.00     0.134 A 
ATOM     82  C   UNL A   1      50.516  31.469  27.320  1.00  0.00     0.134 A 
ATOM     83  F   UNL A   1      50.363  29.521  30.382  1.00  0.00    -0.206 F 
ATOM     84  C   UNL A   1      52.210  30.434  29.263  1.00  0.00     0.040 A 
ATOM     85  C   UNL A   1      51.893  31.663  27.216  1.00  0.00     0.040 A 
ATOM     86  F   UNL A   1      49.732  31.978  26.357  1.00  0.00    -0.206 F 
ATOM     87  C   UNL A   1      52.744  31.155  28.198  1.00  0.00     0.006 A 
ENDBRANCH  66  80
BRANCH  67  88
ATOM     88  C   UNL A   1      40.095  29.380  29.228  1.00  0.00     0.057 A 
ATOM     89  C   UNL A   1      39.243  29.459  28.119  1.00  0.00     0.134 A 
ATOM     90  C   UNL A   1      39.508  29.113  30.470  1.00  0.00     0.134 A 
ATOM     91  F   UNL A   1      39.741  29.708  26.898  1.00  0.00    -0.206 F 
ATOM     92  C   UNL A   1      37.862  29.298  28.242  1.00  0.00     0.040 A 
ATOM     93  C   UNL A   1      38.131  28.923  30.604  1.00  0.00     0.040 A 
ATOM     94  F   UNL A   1      40.272  28.999  31.566  1.00  0.00    -0.206 F 
ATOM     95  C   UNL A   1      37.302  29.024  29.488  1.00  0.00     0.006 A 
ENDBRANCH  67  88
BRANCH  79  96
ATOM     96  C   UNL A   1      44.446  34.564  30.972  1.00  0.00     0.057 A 
ATOM     97  C   UNL A   1      44.441  34.692  32.368  1.00  0.00     0.134 A 
ATOM     98  C   UNL A   1      44.150  35.705  30.218  1.00  0.00     0.134 A 
ATOM     99  F   UNL A   1      44.701  33.633  33.151  1.00  0.00    -0.206 F 
ATOM    100  C   UNL A   1      44.130  35.901  32.990  1.00  0.00     0.040 A 
ATOM    101  C   UNL A   1      43.866  36.929  30.829  1.00  0.00     0.040 A 
ATOM    102  F   UNL A   1      44.144  35.652  28.878  1.00  0.00    -0.206 F 
ATOM    103  C   UNL A   1      43.843  37.025  32.219  1.00  0.00     0.006 A 
ENDBRANCH  79  96
ENDBRANCH  53  54
ENDBRANCH  46  48
ENDBRANCH  45  46
ENDBRANCH  44  45
ENDBRANCH  43  44
ENDBRANCH  42  43
ENDBRANCH  41  42
ENDBRANCH  40  41
ENDBRANCH  39  40
ENDBRANCH   1  39
TORSDOF 27
ENDMDL
MODEL 3
REMARK VINA RESULT:      -7.6      6.066     11.193
REMARK SMILES CC[C@H](C)[C@H](NC(=O)N1CCc2cc(OC)c(OC)cc2[C@@H]1c1ccc(F)cc1)C(=O)OCCOCCOCCOCCOC(=O)c1ccc(-c2c3nc(c(-c4c(F)cccc4F)c4ccc([nH]4)c(-c4c(F)cccc4F)c4nc(c(-c5c(F)cccc5F)c5ccc2[nH]5)C=C4)C=C3)cc1
REMARK SMILES IDX 37 1 36 2 35 3 34 4 33 5 32 6 30 7 31 8 5 9 3 10 4 11 2 12
REMARK SMILES IDX 1 13 6 14 7 15 8 17 9 18 10 19 22 20 11 21 21 22 12 23 20 24
REMARK SMILES IDX 13 25 17 26 14 27 23 28 24 29 29 30 25 31 28 32 26 33 27 34
REMARK SMILES IDX 18 35 19 36 15 37 16 38 38 39 39 40 40 41 41 42 42 43 43 44
REMARK SMILES IDX 44 45 45 46 46 47 47 48 48 49 100 50 49 51 99 52 50 53 51 54
REMARK SMILES IDX 52 55 93 56 53 57 98 58 92 59 94 60 54 61 97 62 91 63 90 64
REMARK SMILES IDX 55 66 81 67 64 68 80 69 65 70 68 71 79 72 95 73 66 74 67 75
REMARK SMILES IDX 78 77 96 78 69 79 56 80 57 81 62 82 58 83 59 84 61 85 63 86
REMARK SMILES IDX 60 87 82 88 83 89 88 90 84 91 85 92 87 93 89 94 86 95 70 96
REMARK SMILES IDX 71 97 76 98 72 99 73 100 75 101 77 102 74 103
REMARK H PARENT 6 16 94 65 68 76
REMARK Flexibility Score: inf
ROOT
ATOM      1  C   UNL A   1      36.117  33.319  31.703  1.00  0.00     0.188 C 
ENDROOT
BRANCH   1   2
ATOM      2  C   UNL A   1      35.935  32.882  30.235  1.00  0.00     0.188 C 
BRANCH   2   3
ATOM      3  O   UNL A   1      35.503  31.566  29.918  1.00  0.00    -0.376 OA
BRANCH   3   4
ATOM      4  C   UNL A   1      36.395  30.670  29.273  1.00  0.00     0.202 C 
BRANCH   4   5
ATOM      5  C   UNL A   1      37.517  29.984  30.075  1.00  0.00     0.261 C 
BRANCH   5   6
ATOM      6  O   UNL A   1      38.353  29.055  29.353  1.00  0.00    -0.462 OA
BRANCH   6   7
ATOM      7  C   UNL A   1      38.928  28.059  30.075  1.00  0.00     0.329 C 
ATOM      8  O   UNL A   1      38.343  27.420  30.945  1.00  0.00    -0.250 OA
BRANCH   7   9
ATOM      9  C   UNL A   1      40.458  27.898  29.837  1.00  0.00     0.196 C 
BRANCH   9  10
ATOM     10  C   UNL A   1      41.110  28.908  30.829  1.00  0.00     0.019 C 
ATOM     11  C   UNL A   1      41.931  28.179  31.893  1.00  0.00     0.010 C 
BRANCH  10  12
ATOM     12  C   UNL A   1      41.957  29.992  30.119  1.00  0.00     0.002 C 
ATOM     13  C   UNL A   1      41.272  31.351  30.131  1.00  0.00     0.004 C 
ENDBRANCH  10  12
ENDBRANCH   9  10
BRANCH   9  14
ATOM     14  N   UNL A   1      41.061  28.029  28.487  1.00  0.00    -0.324 N 
ATOM     15  C   UNL A   1      41.789  27.190  27.701  1.00  0.00     0.318 C 
ATOM     16  H   UNL A   1      40.899  28.908  28.073  1.00  0.00     0.166 HD
ATOM     17  O   UNL A   1      42.600  27.717  26.937  1.00  0.00    -0.249 OA
BRANCH  15  18
ATOM     18  N   UNL A   1      41.631  25.825  27.758  1.00  0.00    -0.313 N 
ATOM     19  C   UNL A   1      40.337  25.154  27.643  1.00  0.00     0.127 C 
ATOM     20  C   UNL A   1      42.852  24.966  27.650  1.00  0.00     0.148 C 
ATOM     21  C   UNL A   1      40.337  23.671  28.009  1.00  0.00     0.057 C 
ATOM     22  C   UNL A   1      42.580  23.628  26.934  1.00  0.00    -0.014 A 
ATOM     23  C   UNL A   1      41.370  22.969  27.179  1.00  0.00    -0.037 A 
ATOM     24  C   UNL A   1      43.535  22.993  26.108  1.00  0.00     0.057 A 
ATOM     25  C   UNL A   1      41.149  21.687  26.670  1.00  0.00     0.054 A 
ATOM     26  C   UNL A   1      43.312  21.703  25.577  1.00  0.00     0.161 A 
ATOM     27  C   UNL A   1      42.109  21.039  25.880  1.00  0.00     0.161 A 
BRANCH  20  28
ATOM     28  C   UNL A   1      43.434  24.726  29.065  1.00  0.00    -0.021 A 
ATOM     29  C   UNL A   1      43.465  23.441  29.631  1.00  0.00     0.009 A 
ATOM     30  C   UNL A   1      43.934  25.790  29.844  1.00  0.00     0.009 A 
ATOM     31  C   UNL A   1      43.957  23.244  30.927  1.00  0.00     0.039 A 
ATOM     32  C   UNL A   1      44.441  25.595  31.125  1.00  0.00     0.039 A 
ATOM     33  C   UNL A   1      44.442  24.321  31.659  1.00  0.00     0.123 A 
ATOM     34  F   UNL A   1      44.911  24.130  32.897  1.00  0.00    -0.207 F 
ENDBRANCH  20  28
BRANCH  26  35
ATOM     35  O   UNL A   1      44.208  21.045  24.779  1.00  0.00    -0.493 OA
ATOM     36  C   UNL A   1      44.812  19.850  25.249  1.00  0.00     0.278 C 
ENDBRANCH  26  35
BRANCH  27  37
ATOM     37  O   UNL A   1      41.690  19.791  25.496  1.00  0.00    -0.493 OA
ATOM     38  C   UNL A   1      40.416  19.320  25.906  1.00  0.00     0.278 C 
ENDBRANCH  27  37
ENDBRANCH  15  18
ENDBRANCH   9  14
ENDBRANCH   7   9
ENDBRANCH   6   7
ENDBRANCH   5   6
ENDBRANCH   4   5
ENDBRANCH   3   4
ENDBRANCH   2   3
ENDBRANCH   1   2
BRANCH   1  39
ATOM     39  O   UNL A   1      35.783  32.343  32.665  1.00  0.00    -0.377 OA
BRANCH  39  40
ATOM     40  C   UNL A   1      36.878  31.608  33.180  1.00  0.00     0.188 C 
BRANCH  40  41
ATOM     41  C   UNL A   1      38.153  32.411  33.501  1.00  0.00     0.188 C 
BRANCH  41  42
ATOM     42  O   UNL A   1      38.090  33.124  34.732  1.00  0.00    -0.376 OA
BRANCH  42  43
ATOM     43  C   UNL A   1      39.169  33.024  35.651  1.00  0.00     0.202 C 
BRANCH  43  44
ATOM     44  C   UNL A   1      40.221  34.148  35.652  1.00  0.00     0.261 C 
BRANCH  44  45
ATOM     45  O   UNL A   1      41.518  33.818  35.131  1.00  0.00    -0.460 OA
BRANCH  45  46
ATOM     46  C   UNL A   1      41.668  33.728  33.794  1.00  0.00     0.338 C 
ATOM     47  O   UNL A   1      41.207  34.475  32.948  1.00  0.00    -0.246 OA
BRANCH  46  48
ATOM     48  C   UNL A   1      42.685  32.689  33.529  1.00  0.00     0.060 A 
ATOM     49  C   UNL A   1      42.367  31.350  33.793  1.00  0.00     0.016 A 
ATOM     50  C   UNL A   1      43.929  33.027  32.989  1.00  0.00     0.016 A 
ATOM     51  C   UNL A   1      43.300  30.346  33.546  1.00  0.00     0.010 A 
ATOM     52  C   UNL A   1      44.879  32.024  32.777  1.00  0.00     0.010 A 
ATOM     53  C   UNL A   1      44.579  30.686  33.087  1.00  0.00    -0.014 A 
BRANCH  53  54
ATOM     54  C   UNL A   1      45.664  29.681  33.159  1.00  0.00     0.031 A 
ATOM     55  C   UNL A   1      46.176  29.109  31.866  1.00  0.00     0.074 A 
ATOM     56  C   UNL A   1      46.208  29.311  34.331  1.00  0.00     0.049 A 
ATOM     57  N   UNL A   1      47.078  28.184  31.666  1.00  0.00    -0.248 NA
ATOM     58  C   UNL A   1      45.590  29.658  30.630  1.00  0.00     0.031 C 
ATOM     59  C   UNL A   1      45.839  29.841  35.641  1.00  0.00     0.029 A 
ATOM     60  N   UNL A   1      47.192  28.392  34.602  1.00  0.00    -0.354 N 
ATOM     61  C   UNL A   1      47.165  28.040  30.287  1.00  0.00     0.074 A 
ATOM     62  C   UNL A   1      46.205  28.947  29.698  1.00  0.00     0.031 C 
ATOM     63  C   UNL A   1      46.583  29.231  36.581  1.00  0.00     0.029 A 
ATOM     64  C   UNL A   1      47.451  28.243  35.942  1.00  0.00     0.049 A 
ATOM     65  H   UNL A   1      47.666  27.889  33.902  1.00  0.00     0.167 HD
ATOM     66  C   UNL A   1      47.980  27.229  29.577  1.00  0.00     0.037 A 
ATOM     67  C   UNL A   1      48.280  27.389  36.577  1.00  0.00     0.037 A 
ATOM     68  C   UNL A   1      48.934  26.330  30.167  1.00  0.00     0.049 A 
ATOM     69  C   UNL A   1      49.112  26.427  35.766  1.00  0.00     0.074 A 
ATOM     70  C   UNL A   1      49.811  25.470  29.531  1.00  0.00     0.029 A 
ATOM     71  N   UNL A   1      49.131  26.171  31.531  1.00  0.00    -0.354 N 
ATOM     72  N   UNL A   1      49.193  26.299  34.464  1.00  0.00    -0.248 NA
ATOM     73  C   UNL A   1      49.966  25.491  36.512  1.00  0.00     0.031 C 
ATOM     74  C   UNL A   1      50.497  24.749  30.510  1.00  0.00     0.029 A 
ATOM     75  C   UNL A   1      50.096  25.206  31.756  1.00  0.00     0.049 A 
ATOM     76  H   UNL A   1      48.654  26.670  32.233  1.00  0.00     0.167 HD
ATOM     77  C   UNL A   1      50.125  25.293  34.234  1.00  0.00     0.074 A 
ATOM     78  C   UNL A   1      50.589  24.850  35.532  1.00  0.00     0.031 C 
ATOM     79  C   UNL A   1      50.558  24.784  33.055  1.00  0.00     0.037 A 
BRANCH  66  80
ATOM     80  C   UNL A   1      47.869  27.258  28.082  1.00  0.00     0.057 A 
ATOM     81  C   UNL A   1      47.044  26.346  27.412  1.00  0.00     0.134 A 
ATOM     82  C   UNL A   1      48.630  28.137  27.300  1.00  0.00     0.134 A 
ATOM     83  F   UNL A   1      46.289  25.477  28.102  1.00  0.00    -0.206 F 
ATOM     84  C   UNL A   1      46.996  26.290  26.019  1.00  0.00     0.040 A 
ATOM     85  C   UNL A   1      48.570  28.110  25.907  1.00  0.00     0.040 A 
ATOM     86  F   UNL A   1      49.425  29.048  27.881  1.00  0.00    -0.206 F 
ATOM     87  C   UNL A   1      47.761  27.175  25.262  1.00  0.00     0.006 A 
ENDBRANCH  66  80
BRANCH  67  88
ATOM     88  C   UNL A   1      48.359  27.399  38.061  1.00  0.00     0.057 A 
ATOM     89  C   UNL A   1      47.482  26.637  38.844  1.00  0.00     0.134 A 
ATOM     90  C   UNL A   1      49.312  28.172  38.732  1.00  0.00     0.134 A 
ATOM     91  F   UNL A   1      46.547  25.869  38.264  1.00  0.00    -0.206 F 
ATOM     92  C   UNL A   1      47.539  26.658  40.239  1.00  0.00     0.040 A 
ATOM     93  C   UNL A   1      49.397  28.182  40.126  1.00  0.00     0.040 A 
ATOM     94  F   UNL A   1      50.197  28.904  38.039  1.00  0.00    -0.206 F 
ATOM     95  C   UNL A   1      48.502  27.430  40.884  1.00  0.00     0.006 A 
ENDBRANCH  67  88
BRANCH  79  96
ATOM     96  C   UNL A   1      51.609  23.713  33.092  1.00  0.00     0.057 A 
ATOM     97  C   UNL A   1      52.959  24.035  32.888  1.00  0.00     0.134 A 
ATOM     98  C   UNL A   1      51.281  22.359  33.224  1.00  0.00     0.134 A 
ATOM     99  F   UNL A   1      53.340  25.313  32.738  1.00  0.00    -0.206 F 
ATOM    100  C   UNL A   1      53.940  23.048  32.795  1.00  0.00     0.040 A 
ATOM    101  C   UNL A   1      52.259  21.363  33.162  1.00  0.00     0.040 A 
ATOM    102  F   UNL A   1      50.010  21.983  33.427  1.00  0.00    -0.206 F 
ATOM    103  C   UNL A   1      53.591  21.706  32.933  1.00  0.00     0.006 A 
ENDBRANCH  79  96
ENDBRANCH  53  54
ENDBRANCH  46  48
ENDBRANCH  45  46
ENDBRANCH  44  45
ENDBRANCH  43  44
ENDBRANCH  42  43
ENDBRANCH  41  42
ENDBRANCH  40  41
ENDBRANCH  39  40
ENDBRANCH   1  39
TORSDOF 27
ENDMDL
