MODEL 1
REMARK VINA RESULT:      -8.9      0.000      0.000
REMARK SMILES COc1cc([C@@H]2CC(=O)Nc3c(C(=O)OCCOCCOCCOCCOC(=O)c4ccc(-c5c6nc(c(-c7c(F)cccc7F)c7ccc([nH]7)c(-c7c(F)cccc7F)c7nc(c(-c8c(F)cccc8F)c8ccc5[nH]8)C=C7)C=C6)cc4)cn(-c4ccc(F)cc4)c32)c(OC)c2c1OCO2
REMARK SMILES IDX 21 1 20 2 19 3 18 4 17 5 16 6 15 7 13 8 14 9 12 10 6 11 7 12
REMARK SMILES IDX 93 13 8 14 11 15 85 16 9 17 10 18 84 19 5 21 3 22 4 23 98 24
REMARK SMILES IDX 97 25 99 26 94 27 101 28 100 29 2 30 1 31 95 32 96 33 86 34
REMARK SMILES IDX 87 35 92 36 88 37 91 38 89 39 90 40 22 41 23 42 24 43 25 44
REMARK SMILES IDX 26 45 27 46 28 47 29 48 30 49 31 50 83 51 32 52 82 53 33 54
REMARK SMILES IDX 34 55 35 56 76 57 36 58 81 59 75 60 77 61 37 62 80 63 74 64
REMARK SMILES IDX 73 65 38 67 64 68 47 69 63 70 48 71 51 72 62 73 78 74 49 75
REMARK SMILES IDX 50 76 61 78 79 79 52 80 39 81 40 82 45 83 41 84 42 85 44 86
REMARK SMILES IDX 46 87 43 88 65 89 66 90 71 91 67 92 68 93 70 94 72 95 69 96
REMARK SMILES IDX 53 97 54 98 59 99 55 100 56 101 58 102 60 103 57 104
REMARK H PARENT 10 20 77 66 51 77
REMARK Flexibility Score: inf
ROOT
ATOM      1  O   UNL A   1      34.470  34.173  32.855  1.00  0.00    -0.377 OA
ENDROOT
BRANCH   1   2
ATOM      2  C   UNL A   1      35.714  34.228  32.182  1.00  0.00     0.188 C 
BRANCH   2   3
ATOM      3  C   UNL A   1      36.913  33.767  33.036  1.00  0.00     0.188 C 
BRANCH   3   4
ATOM      4  O   UNL A   1      37.630  32.625  32.614  1.00  0.00    -0.376 OA
BRANCH   4   5
ATOM      5  C   UNL A   1      38.512  31.874  33.425  1.00  0.00     0.202 C 
BRANCH   5   6
ATOM      6  C   UNL A   1      39.792  32.363  34.125  1.00  0.00     0.261 C 
BRANCH   6   7
ATOM      7  O   UNL A   1      39.663  33.081  35.342  1.00  0.00    -0.460 OA
BRANCH   7   8
ATOM      8  C   UNL A   1      39.482  32.327  36.452  1.00  0.00     0.341 C 
ATOM      9  O   UNL A   1      39.717  31.119  36.524  1.00  0.00    -0.246 OA
BRANCH   8  10
ATOM     10  C   UNL A   1      39.107  33.140  37.589  1.00  0.00     0.102 A 
ATOM     11  C   UNL A   1      37.625  33.659  40.899  1.00  0.00     0.082 C 
ATOM     12  C   UNL A   1      36.207  33.105  40.649  1.00  0.00     0.115 C 
ATOM     13  C   UNL A   1      38.309  33.788  39.584  1.00  0.00     0.055 A 
ATOM     14  C   UNL A   1      36.151  31.979  39.620  1.00  0.00     0.225 C 
ATOM     15  C   UNL A   1      38.063  32.954  38.521  1.00  0.00     0.078 A 
ATOM     16  N   UNL A   1      39.185  34.754  39.152  1.00  0.00    -0.317 N 
ATOM     17  O   UNL A   1      35.294  31.097  39.680  1.00  0.00    -0.275 OA
ATOM     18  N   UNL A   1      37.028  32.046  38.562  1.00  0.00    -0.324 N 
ATOM     19  C   UNL A   1      39.688  34.351  37.935  1.00  0.00     0.109 A 
ATOM     20  H   UNL A   1      36.911  31.423  37.808  1.00  0.00     0.170 HD
BRANCH  11  21
ATOM     21  C   UNL A   1      38.352  32.777  41.932  1.00  0.00     0.012 A 
ATOM     22  C   UNL A   1      40.430  31.541  42.415  1.00  0.00     0.165 A 
ATOM     23  C   UNL A   1      39.581  32.199  41.519  1.00  0.00     0.059 A 
ATOM     24  C   UNL A   1      40.066  31.527  43.747  1.00  0.00     0.211 A 
ATOM     25  C   UNL A   1      38.859  32.046  44.168  1.00  0.00     0.211 A 
ATOM     26  O   UNL A   1      40.803  31.053  44.793  1.00  0.00    -0.449 OA
ATOM     27  C   UNL A   1      37.965  32.639  43.289  1.00  0.00     0.168 A 
ATOM     28  O   UNL A   1      38.698  31.908  45.517  1.00  0.00    -0.449 OA
ATOM     29  C   UNL A   1      40.003  31.470  45.910  1.00  0.00     0.468 C 
BRANCH  22  30
ATOM     30  O   UNL A   1      41.579  31.038  41.876  1.00  0.00    -0.493 OA
ATOM     31  C   UNL A   1      42.320  31.958  41.082  1.00  0.00     0.278 C 
ENDBRANCH  22  30
BRANCH  27  32
ATOM     32  O   UNL A   1      36.720  33.055  43.648  1.00  0.00    -0.492 OA
ATOM     33  C   UNL A   1      36.587  34.270  44.372  1.00  0.00     0.278 C 
ENDBRANCH  27  32
ENDBRANCH  11  21
BRANCH  16  34
ATOM     34  C   UNL A   1      39.504  35.965  39.788  1.00  0.00     0.046 A 
ATOM     35  C   UNL A   1      40.419  35.962  40.843  1.00  0.00     0.029 A 
ATOM     36  C   UNL A   1      38.902  37.152  39.347  1.00  0.00     0.029 A 
ATOM     37  C   UNL A   1      40.739  37.167  41.464  1.00  0.00     0.041 A 
ATOM     38  C   UNL A   1      39.203  38.348  40.001  1.00  0.00     0.041 A 
ATOM     39  C   UNL A   1      40.123  38.344  41.047  1.00  0.00     0.123 A 
ATOM     40  F   UNL A   1      40.422  39.496  41.662  1.00  0.00    -0.207 F 
ENDBRANCH  16  34
ENDBRANCH   8  10
ENDBRANCH   7   8
ENDBRANCH   6   7
ENDBRANCH   5   6
ENDBRANCH   4   5
ENDBRANCH   3   4
ENDBRANCH   2   3
ENDBRANCH   1   2
BRANCH   1  41
ATOM     41  C   UNL A   1      33.418  35.004  32.366  1.00  0.00     0.188 C 
BRANCH  41  42
ATOM     42  C   UNL A   1      33.504  35.736  30.994  1.00  0.00     0.188 C 
BRANCH  42  43
ATOM     43  O   UNL A   1      32.976  35.027  29.884  1.00  0.00    -0.376 OA
BRANCH  43  44
ATOM     44  C   UNL A   1      33.758  34.590  28.790  1.00  0.00     0.202 C 
BRANCH  44  45
ATOM     45  C   UNL A   1      33.956  33.087  28.643  1.00  0.00     0.261 C 
BRANCH  45  46
ATOM     46  O   UNL A   1      35.201  32.756  28.064  1.00  0.00    -0.460 OA
BRANCH  46  47
ATOM     47  C   UNL A   1      35.439  31.439  27.975  1.00  0.00     0.338 C 
ATOM     48  O   UNL A   1      34.930  30.639  27.198  1.00  0.00    -0.246 OA
BRANCH  47  49
ATOM     49  C   UNL A   1      36.327  31.070  29.073  1.00  0.00     0.060 A 
ATOM     50  C   UNL A   1      37.460  31.868  29.223  1.00  0.00     0.016 A 
ATOM     51  C   UNL A   1      36.248  29.751  29.549  1.00  0.00     0.016 A 
ATOM     52  C   UNL A   1      38.630  31.234  29.540  1.00  0.00     0.010 A 
ATOM     53  C   UNL A   1      37.420  29.112  29.824  1.00  0.00     0.010 A 
ATOM     54  C   UNL A   1      38.596  29.845  29.703  1.00  0.00    -0.014 A 
BRANCH  54  55
ATOM     55  C   UNL A   1      39.848  29.147  29.778  1.00  0.00     0.031 A 
ATOM     56  C   UNL A   1      40.321  29.002  31.162  1.00  0.00     0.074 A 
ATOM     57  C   UNL A   1      40.423  28.621  28.683  1.00  0.00     0.049 A 
ATOM     58  N   UNL A   1      41.343  29.578  31.695  1.00  0.00    -0.248 NA
ATOM     59  C   UNL A   1      39.441  28.309  32.117  1.00  0.00     0.031 C 
ATOM     60  C   UNL A   1      39.882  28.516  27.326  1.00  0.00     0.029 A 
ATOM     61  N   UNL A   1      41.604  27.962  28.595  1.00  0.00    -0.354 N 
ATOM     62  C   UNL A   1      41.357  29.138  33.010  1.00  0.00     0.074 A 
ATOM     63  C   UNL A   1      40.068  28.554  33.267  1.00  0.00     0.031 C 
ATOM     64  C   UNL A   1      40.632  27.637  26.621  1.00  0.00     0.029 A 
ATOM     65  C   UNL A   1      41.752  27.209  27.440  1.00  0.00     0.049 A 
ATOM     66  H   UNL A   1      42.298  28.012  29.292  1.00  0.00     0.167 HD
ATOM     67  C   UNL A   1      42.526  29.029  33.690  1.00  0.00     0.037 A 
ATOM     68  C   UNL A   1      42.680  26.237  27.257  1.00  0.00     0.037 A 
ATOM     69  C   UNL A   1      43.576  29.788  33.059  1.00  0.00     0.049 A 
ATOM     70  C   UNL A   1      43.758  26.463  28.262  1.00  0.00     0.074 A 
ATOM     71  C   UNL A   1      43.743  31.124  32.747  1.00  0.00     0.029 A 
ATOM     72  N   UNL A   1      44.486  29.103  32.289  1.00  0.00    -0.354 N 
ATOM     73  N   UNL A   1      44.580  27.476  28.220  1.00  0.00    -0.248 NA
ATOM     74  C   UNL A   1      43.611  25.842  29.573  1.00  0.00     0.031 C 
ATOM     75  C   UNL A   1      44.408  31.132  31.486  1.00  0.00     0.029 A 
ATOM     76  C   UNL A   1      44.661  29.809  31.125  1.00  0.00     0.049 A 
ATOM     77  H   UNL A   1      44.931  28.258  32.529  1.00  0.00     0.167 HD
ATOM     78  C   UNL A   1      44.706  27.889  29.541  1.00  0.00     0.074 A 
ATOM     79  C   UNL A   1      44.161  26.792  30.337  1.00  0.00     0.031 C 
ATOM     80  C   UNL A   1      44.955  29.197  29.849  1.00  0.00     0.037 A 
BRANCH  67  81
ATOM     81  C   UNL A   1      42.793  27.932  34.681  1.00  0.00     0.057 A 
ATOM     82  C   UNL A   1      42.841  28.247  36.046  1.00  0.00     0.134 A 
ATOM     83  C   UNL A   1      43.276  26.651  34.337  1.00  0.00     0.134 A 
ATOM     84  F   UNL A   1      42.434  29.446  36.490  1.00  0.00    -0.206 F 
ATOM     85  C   UNL A   1      43.386  27.373  36.993  1.00  0.00     0.040 A 
ATOM     86  C   UNL A   1      43.766  25.749  35.280  1.00  0.00     0.040 A 
ATOM     87  F   UNL A   1      43.399  26.241  33.069  1.00  0.00    -0.206 F 
ATOM     88  C   UNL A   1      43.854  26.120  36.610  1.00  0.00     0.006 A 
ENDBRANCH  67  81
BRANCH  68  89
ATOM     89  C   UNL A   1      42.534  24.965  26.509  1.00  0.00     0.057 A 
ATOM     90  C   UNL A   1      43.358  24.673  25.413  1.00  0.00     0.134 A 
ATOM     91  C   UNL A   1      41.766  23.891  26.998  1.00  0.00     0.134 A 
ATOM     92  F   UNL A   1      44.162  25.615  24.895  1.00  0.00    -0.206 F 
ATOM     93  C   UNL A   1      43.434  23.390  24.855  1.00  0.00     0.040 A 
ATOM     94  C   UNL A   1      41.822  22.609  26.442  1.00  0.00     0.040 A 
ATOM     95  F   UNL A   1      40.997  24.021  28.088  1.00  0.00    -0.206 F 
ATOM     96  C   UNL A   1      42.671  22.350  25.376  1.00  0.00     0.006 A 
ENDBRANCH  68  89
BRANCH  80  97
ATOM     97  C   UNL A   1      45.321  30.121  28.719  1.00  0.00     0.057 A 
ATOM     98  C   UNL A   1      46.623  30.267  28.216  1.00  0.00     0.134 A 
ATOM     99  C   UNL A   1      44.302  30.779  28.024  1.00  0.00     0.134 A 
ATOM    100  F   UNL A   1      47.649  29.587  28.743  1.00  0.00    -0.206 F 
ATOM    101  C   UNL A   1      46.906  31.077  27.112  1.00  0.00     0.040 A 
ATOM    102  C   UNL A   1      44.564  31.562  26.896  1.00  0.00     0.040 A 
ATOM    103  F   UNL A   1      43.022  30.635  28.403  1.00  0.00    -0.206 F 
ATOM    104  C   UNL A   1      45.872  31.725  26.446  1.00  0.00     0.006 A 
ENDBRANCH  80  97
ENDBRANCH  54  55
ENDBRANCH  47  49
ENDBRANCH  46  47
ENDBRANCH  45  46
ENDBRANCH  44  45
ENDBRANCH  43  44
ENDBRANCH  42  43
ENDBRANCH  41  42
ENDBRANCH   1  41
TORSDOF 24
ENDMDL
MODEL 2
REMARK VINA RESULT:      -8.5      3.529      6.025
REMARK SMILES COc1cc([C@@H]2CC(=O)Nc3c(C(=O)OCCOCCOCCOCCOC(=O)c4ccc(-c5c6nc(c(-c7c(F)cccc7F)c7ccc([nH]7)c(-c7c(F)cccc7F)c7nc(c(-c8c(F)cccc8F)c8ccc5[nH]8)C=C7)C=C6)cc4)cn(-c4ccc(F)cc4)c32)c(OC)c2c1OCO2
REMARK SMILES IDX 21 1 20 2 19 3 18 4 17 5 16 6 15 7 13 8 14 9 12 10 6 11 7 12
REMARK SMILES IDX 93 13 8 14 11 15 85 16 9 17 10 18 84 19 5 21 3 22 4 23 98 24
REMARK SMILES IDX 97 25 99 26 94 27 101 28 100 29 2 30 1 31 95 32 96 33 86 34
REMARK SMILES IDX 87 35 92 36 88 37 91 38 89 39 90 40 22 41 23 42 24 43 25 44
REMARK SMILES IDX 26 45 27 46 28 47 29 48 30 49 31 50 83 51 32 52 82 53 33 54
REMARK SMILES IDX 34 55 35 56 76 57 36 58 81 59 75 60 77 61 37 62 80 63 74 64
REMARK SMILES IDX 73 65 38 67 64 68 47 69 63 70 48 71 51 72 62 73 78 74 49 75
REMARK SMILES IDX 50 76 61 78 79 79 52 80 39 81 40 82 45 83 41 84 42 85 44 86
REMARK SMILES IDX 46 87 43 88 65 89 66 90 71 91 67 92 68 93 70 94 72 95 69 96
REMARK SMILES IDX 53 97 54 98 59 99 55 100 56 101 58 102 60 103 57 104
REMARK H PARENT 10 20 77 66 51 77
REMARK Flexibility Score: inf
ROOT
ATOM      1  O   UNL A   1      33.029  34.886  30.585  1.00  0.00    -0.377 OA
ENDROOT
BRANCH   1   2
ATOM      2  C   UNL A   1      34.246  35.297  31.179  1.00  0.00     0.188 C 
BRANCH   2   3
ATOM      3  C   UNL A   1      34.309  35.076  32.705  1.00  0.00     0.188 C 
BRANCH   3   4
ATOM      4  O   UNL A   1      35.103  34.013  33.190  1.00  0.00    -0.376 OA
BRANCH   4   5
ATOM      5  C   UNL A   1      35.580  33.894  34.516  1.00  0.00     0.202 C 
BRANCH   5   6
ATOM      6  C   UNL A   1      36.832  33.142  35.001  1.00  0.00     0.261 C 
BRANCH   6   7
ATOM      7  O   UNL A   1      37.174  33.216  36.376  1.00  0.00    -0.460 OA
BRANCH   7   8
ATOM      8  C   UNL A   1      37.865  32.161  36.866  1.00  0.00     0.341 C 
ATOM      9  O   UNL A   1      37.352  31.133  37.313  1.00  0.00    -0.246 OA
BRANCH   8  10
ATOM     10  C   UNL A   1      39.291  32.328  36.676  1.00  0.00     0.102 A 
ATOM     11  C   UNL A   1      42.520  31.460  35.180  1.00  0.00     0.082 C 
ATOM     12  C   UNL A   1      42.604  29.969  35.566  1.00  0.00     0.115 C 
ATOM     13  C   UNL A   1      41.394  32.070  35.937  1.00  0.00     0.055 A 
ATOM     14  C   UNL A   1      41.248  29.273  35.657  1.00  0.00     0.225 C 
ATOM     15  C   UNL A   1      40.263  31.378  36.295  1.00  0.00     0.078 A 
ATOM     16  N   UNL A   1      41.295  33.326  36.484  1.00  0.00    -0.317 N 
ATOM     17  O   UNL A   1      41.127  28.071  35.416  1.00  0.00    -0.275 OA
ATOM     18  N   UNL A   1      40.186  30.014  36.121  1.00  0.00    -0.324 N 
ATOM     19  C   UNL A   1      40.001  33.492  36.926  1.00  0.00     0.109 A 
ATOM     20  H   UNL A   1      39.343  29.554  36.334  1.00  0.00     0.170 HD
BRANCH  11  21
ATOM     21  C   UNL A   1      42.430  31.595  33.648  1.00  0.00     0.012 A 
ATOM     22  C   UNL A   1      41.043  32.407  31.778  1.00  0.00     0.165 A 
ATOM     23  C   UNL A   1      41.194  32.058  33.124  1.00  0.00     0.059 A 
ATOM     24  C   UNL A   1      42.164  32.351  30.973  1.00  0.00     0.211 A 
ATOM     25  C   UNL A   1      43.366  31.868  31.448  1.00  0.00     0.211 A 
ATOM     26  O   UNL A   1      42.263  32.762  29.676  1.00  0.00    -0.449 OA
ATOM     27  C   UNL A   1      43.524  31.446  32.760  1.00  0.00     0.168 A 
ATOM     28  O   UNL A   1      44.330  31.884  30.480  1.00  0.00    -0.449 OA
ATOM     29  C   UNL A   1      43.674  32.629  29.449  1.00  0.00     0.468 C 
BRANCH  22  30
ATOM     30  O   UNL A   1      39.799  32.838  31.417  1.00  0.00    -0.493 OA
ATOM     31  C   UNL A   1      39.246  33.842  32.262  1.00  0.00     0.278 C 
ENDBRANCH  22  30
BRANCH  27  32
ATOM     32  O   UNL A   1      44.658  30.857  33.229  1.00  0.00    -0.492 OA
ATOM     33  C   UNL A   1      45.870  31.599  33.218  1.00  0.00     0.278 C 
ENDBRANCH  27  32
ENDBRANCH  11  21
BRANCH  16  34
ATOM     34  C   UNL A   1      42.317  34.281  36.625  1.00  0.00     0.046 A 
ATOM     35  C   UNL A   1      42.396  35.335  35.714  1.00  0.00     0.029 A 
ATOM     36  C   UNL A   1      43.232  34.157  37.681  1.00  0.00     0.029 A 
ATOM     37  C   UNL A   1      43.406  36.283  35.864  1.00  0.00     0.041 A 
ATOM     38  C   UNL A   1      44.261  35.092  37.799  1.00  0.00     0.041 A 
ATOM     39  C   UNL A   1      44.333  36.149  36.894  1.00  0.00     0.123 A 
ATOM     40  F   UNL A   1      45.311  37.055  37.020  1.00  0.00    -0.207 F 
ENDBRANCH  16  34
ENDBRANCH   8  10
ENDBRANCH   7   8
ENDBRANCH   6   7
ENDBRANCH   5   6
ENDBRANCH   4   5
ENDBRANCH   3   4
ENDBRANCH   2   3
ENDBRANCH   1   2
BRANCH   1  41
ATOM     41  C   UNL A   1      32.983  34.808  29.161  1.00  0.00     0.188 C 
BRANCH  41  42
ATOM     42  C   UNL A   1      34.229  35.088  28.271  1.00  0.00     0.188 C 
BRANCH  42  43
ATOM     43  O   UNL A   1      34.817  33.950  27.661  1.00  0.00    -0.376 OA
BRANCH  43  44
ATOM     44  C   UNL A   1      36.078  33.428  28.029  1.00  0.00     0.202 C 
BRANCH  44  45
ATOM     45  C   UNL A   1      36.121  31.964  28.448  1.00  0.00     0.261 C 
BRANCH  45  46
ATOM     46  O   UNL A   1      37.407  31.396  28.310  1.00  0.00    -0.460 OA
BRANCH  46  47
ATOM     47  C   UNL A   1      37.430  30.056  28.357  1.00  0.00     0.338 C 
ATOM     48  O   UNL A   1      36.650  29.277  27.820  1.00  0.00    -0.246 OA
BRANCH  47  49
ATOM     49  C   UNL A   1      38.481  29.658  29.288  1.00  0.00     0.060 A 
ATOM     50  C   UNL A   1      39.714  30.280  29.103  1.00  0.00     0.016 A 
ATOM     51  C   UNL A   1      38.334  28.418  29.933  1.00  0.00     0.016 A 
ATOM     52  C   UNL A   1      40.830  29.503  29.252  1.00  0.00     0.010 A 
ATOM     53  C   UNL A   1      39.443  27.633  30.041  1.00  0.00     0.010 A 
ATOM     54  C   UNL A   1      40.650  28.159  29.592  1.00  0.00    -0.014 A 
BRANCH  54  55
ATOM     55  C   UNL A   1      41.785  27.284  29.497  1.00  0.00     0.031 A 
ATOM     56  C   UNL A   1      42.700  27.436  30.638  1.00  0.00     0.074 A 
ATOM     57  C   UNL A   1      41.891  26.381  28.508  1.00  0.00     0.049 A 
ATOM     58  N   UNL A   1      43.889  27.932  30.615  1.00  0.00    -0.248 NA
ATOM     59  C   UNL A   1      42.155  27.209  31.986  1.00  0.00     0.031 C 
ATOM     60  C   UNL A   1      40.901  26.013  27.493  1.00  0.00     0.029 A 
ATOM     61  N   UNL A   1      42.905  25.511  28.277  1.00  0.00    -0.354 N 
ATOM     62  C   UNL A   1      44.326  27.873  31.929  1.00  0.00     0.074 A 
ATOM     63  C   UNL A   1      43.164  27.636  32.745  1.00  0.00     0.031 C 
ATOM     64  C   UNL A   1      41.278  24.850  26.913  1.00  0.00     0.029 A 
ATOM     65  C   UNL A   1      42.573  24.458  27.438  1.00  0.00     0.049 A 
ATOM     66  H   UNL A   1      43.801  25.618  28.671  1.00  0.00     0.167 HD
ATOM     67  C   UNL A   1      45.646  27.734  32.214  1.00  0.00     0.037 A 
ATOM     68  C   UNL A   1      43.291  23.315  27.301  1.00  0.00     0.037 A 
ATOM     69  C   UNL A   1      46.467  28.080  31.081  1.00  0.00     0.049 A 
ATOM     70  C   UNL A   1      44.669  23.600  27.796  1.00  0.00     0.074 A 
ATOM     71  C   UNL A   1      46.628  29.224  30.321  1.00  0.00     0.029 A 
ATOM     72  N   UNL A   1      46.987  27.051  30.331  1.00  0.00    -0.354 N 
ATOM     73  N   UNL A   1      45.506  24.388  27.180  1.00  0.00    -0.248 NA
ATOM     74  C   UNL A   1      44.940  23.399  29.215  1.00  0.00     0.031 C 
ATOM     75  C   UNL A   1      46.805  28.761  28.985  1.00  0.00     0.029 A 
ATOM     76  C   UNL A   1      46.801  27.366  29.008  1.00  0.00     0.049 A 
ATOM     77  H   UNL A   1      47.414  26.236  30.680  1.00  0.00     0.167 HD
ATOM     78  C   UNL A   1      46.123  25.115  28.191  1.00  0.00     0.074 A 
ATOM     79  C   UNL A   1      45.802  24.400  29.425  1.00  0.00     0.031 C 
ATOM     80  C   UNL A   1      46.575  26.386  27.971  1.00  0.00     0.037 A 
BRANCH  67  81
ATOM     81  C   UNL A   1      46.149  26.920  33.370  1.00  0.00     0.057 A 
ATOM     82  C   UNL A   1      45.967  25.530  33.353  1.00  0.00     0.134 A 
ATOM     83  C   UNL A   1      46.550  27.463  34.610  1.00  0.00     0.134 A 
ATOM     84  F   UNL A   1      45.561  24.904  32.237  1.00  0.00    -0.206 F 
ATOM     85  C   UNL A   1      46.113  24.746  34.503  1.00  0.00     0.040 A 
ATOM     86  C   UNL A   1      46.756  26.683  35.747  1.00  0.00     0.040 A 
ATOM     87  F   UNL A   1      46.661  28.780  34.820  1.00  0.00    -0.206 F 
ATOM     88  C   UNL A   1      46.506  25.323  35.705  1.00  0.00     0.006 A 
ENDBRANCH  67  81
BRANCH  68  89
ATOM     89  C   UNL A   1      42.784  21.939  27.084  1.00  0.00     0.057 A 
ATOM     90  C   UNL A   1      41.669  21.462  27.789  1.00  0.00     0.134 A 
ATOM     91  C   UNL A   1      43.210  21.144  26.004  1.00  0.00     0.134 A 
ATOM     92  F   UNL A   1      41.157  22.164  28.811  1.00  0.00    -0.206 F 
ATOM     93  C   UNL A   1      41.005  20.282  27.426  1.00  0.00     0.040 A 
ATOM     94  C   UNL A   1      42.564  19.958  25.639  1.00  0.00     0.040 A 
ATOM     95  F   UNL A   1      44.216  21.529  25.206  1.00  0.00    -0.206 F 
ATOM     96  C   UNL A   1      41.446  19.531  26.341  1.00  0.00     0.006 A 
ENDBRANCH  68  89
BRANCH  80  97
ATOM     97  C   UNL A   1      46.598  26.880  26.550  1.00  0.00     0.057 A 
ATOM     98  C   UNL A   1      45.512  27.510  25.922  1.00  0.00     0.134 A 
ATOM     99  C   UNL A   1      47.800  26.844  25.838  1.00  0.00     0.134 A 
ATOM    100  F   UNL A   1      44.353  27.696  26.566  1.00  0.00    -0.206 F 
ATOM    101  C   UNL A   1      45.602  28.026  24.626  1.00  0.00     0.040 A 
ATOM    102  C   UNL A   1      47.915  27.388  24.556  1.00  0.00     0.040 A 
ATOM    103  F   UNL A   1      48.902  26.317  26.396  1.00  0.00    -0.206 F 
ATOM    104  C   UNL A   1      46.810  27.968  23.940  1.00  0.00     0.006 A 
ENDBRANCH  80  97
ENDBRANCH  54  55
ENDBRANCH  47  49
ENDBRANCH  46  47
ENDBRANCH  45  46
ENDBRANCH  44  45
ENDBRANCH  43  44
ENDBRANCH  42  43
ENDBRANCH  41  42
ENDBRANCH   1  41
TORSDOF 24
ENDMDL
MODEL 3
REMARK VINA RESULT:      -8.4      4.795      9.507
REMARK SMILES COc1cc([C@@H]2CC(=O)Nc3c(C(=O)OCCOCCOCCOCCOC(=O)c4ccc(-c5c6nc(c(-c7c(F)cccc7F)c7ccc([nH]7)c(-c7c(F)cccc7F)c7nc(c(-c8c(F)cccc8F)c8ccc5[nH]8)C=C7)C=C6)cc4)cn(-c4ccc(F)cc4)c32)c(OC)c2c1OCO2
REMARK SMILES IDX 21 1 20 2 19 3 18 4 17 5 16 6 15 7 13 8 14 9 12 10 6 11 7 12
REMARK SMILES IDX 93 13 8 14 11 15 85 16 9 17 10 18 84 19 5 21 3 22 4 23 98 24
REMARK SMILES IDX 97 25 99 26 94 27 101 28 100 29 2 30 1 31 95 32 96 33 86 34
REMARK SMILES IDX 87 35 92 36 88 37 91 38 89 39 90 40 22 41 23 42 24 43 25 44
REMARK SMILES IDX 26 45 27 46 28 47 29 48 30 49 31 50 83 51 32 52 82 53 33 54
REMARK SMILES IDX 34 55 35 56 76 57 36 58 81 59 75 60 77 61 37 62 80 63 74 64
REMARK SMILES IDX 73 65 38 67 64 68 47 69 63 70 48 71 51 72 62 73 78 74 49 75
REMARK SMILES IDX 50 76 61 78 79 79 52 80 39 81 40 82 45 83 41 84 42 85 44 86
REMARK SMILES IDX 46 87 43 88 65 89 66 90 71 91 67 92 68 93 70 94 72 95 69 96
REMARK SMILES IDX 53 97 54 98 59 99 55 100 56 101 58 102 60 103 57 104
REMARK H PARENT 10 20 77 66 51 77
REMARK Flexibility Score: inf
ROOT
ATOM      1  O   UNL A   1      33.591  23.559  24.985  1.00  0.00    -0.377 OA
ENDROOT
BRANCH   1   2
ATOM      2  C   UNL A   1      33.258  24.890  24.635  1.00  0.00     0.188 C 
BRANCH   2   3
ATOM      3  C   UNL A   1      33.153  25.850  25.837  1.00  0.00     0.188 C 
BRANCH   3   4
ATOM      4  O   UNL A   1      33.911  27.042  25.804  1.00  0.00    -0.376 OA
BRANCH   4   5
ATOM      5  C   UNL A   1      33.773  28.118  26.712  1.00  0.00     0.202 C 
BRANCH   5   6
ATOM      6  C   UNL A   1      34.773  29.258  26.977  1.00  0.00     0.261 C 
BRANCH   6   7
ATOM      7  O   UNL A   1      34.673  29.972  28.200  1.00  0.00    -0.460 OA
BRANCH   7   8
ATOM      8  C   UNL A   1      35.236  31.203  28.207  1.00  0.00     0.341 C 
ATOM      9  O   UNL A   1      35.521  31.849  27.197  1.00  0.00    -0.246 OA
BRANCH   8  10
ATOM     10  C   UNL A   1      35.337  31.731  29.551  1.00  0.00     0.102 A 
ATOM     11  C   UNL A   1      36.913  32.027  32.845  1.00  0.00     0.082 C 
ATOM     12  C   UNL A   1      36.917  30.546  33.276  1.00  0.00     0.115 C 
ATOM     13  C   UNL A   1      36.058  32.153  31.634  1.00  0.00     0.055 A 
ATOM     14  C   UNL A   1      37.044  29.561  32.116  1.00  0.00     0.225 C 
ATOM     15  C   UNL A   1      35.920  31.155  30.701  1.00  0.00     0.078 A 
ATOM     16  N   UNL A   1      35.212  33.173  31.271  1.00  0.00    -0.317 N 
ATOM     17  O   UNL A   1      37.586  28.464  32.262  1.00  0.00    -0.275 OA
ATOM     18  N   UNL A   1      36.438  29.899  30.929  1.00  0.00    -0.324 N 
ATOM     19  C   UNL A   1      34.780  32.923  29.988  1.00  0.00     0.109 A 
ATOM     20  H   UNL A   1      36.372  29.221  30.219  1.00  0.00     0.170 HD
BRANCH  11  21
ATOM     21  C   UNL A   1      38.363  32.522  32.679  1.00  0.00     0.012 A 
ATOM     22  C   UNL A   1      39.983  33.511  31.105  1.00  0.00     0.165 A 
ATOM     23  C   UNL A   1      38.767  32.869  31.363  1.00  0.00     0.059 A 
ATOM     24  C   UNL A   1      40.762  33.863  32.189  1.00  0.00     0.211 A 
ATOM     25  C   UNL A   1      40.411  33.502  33.474  1.00  0.00     0.211 A 
ATOM     26  O   UNL A   1      41.913  34.596  32.168  1.00  0.00    -0.449 OA
ATOM     27  C   UNL A   1      39.247  32.802  33.751  1.00  0.00     0.168 A 
ATOM     28  O   UNL A   1      41.332  33.935  34.385  1.00  0.00    -0.449 OA
ATOM     29  C   UNL A   1      42.150  34.783  33.572  1.00  0.00     0.468 C 
BRANCH  22  30
ATOM     30  O   UNL A   1      40.237  33.785  29.793  1.00  0.00    -0.493 OA
ATOM     31  C   UNL A   1      39.283  34.634  29.163  1.00  0.00     0.278 C 
ENDBRANCH  22  30
BRANCH  27  32
ATOM     32  O   UNL A   1      38.928  32.330  34.987  1.00  0.00    -0.492 OA
ATOM     33  C   UNL A   1      39.689  31.258  35.527  1.00  0.00     0.278 C 
ENDBRANCH  27  32
ENDBRANCH  11  21
BRANCH  16  34
ATOM     34  C   UNL A   1      34.804  34.266  32.054  1.00  0.00     0.046 A 
ATOM     35  C   UNL A   1      34.069  35.294  31.461  1.00  0.00     0.029 A 
ATOM     36  C   UNL A   1      35.140  34.298  33.416  1.00  0.00     0.029 A 
ATOM     37  C   UNL A   1      33.660  36.371  32.245  1.00  0.00     0.041 A 
ATOM     38  C   UNL A   1      34.756  35.400  34.182  1.00  0.00     0.041 A 
ATOM     39  C   UNL A   1      34.014  36.420  33.591  1.00  0.00     0.123 A 
ATOM     40  F   UNL A   1      33.632  37.468  34.332  1.00  0.00    -0.207 F 
ENDBRANCH  16  34
ENDBRANCH   8  10
ENDBRANCH   7   8
ENDBRANCH   6   7
ENDBRANCH   5   6
ENDBRANCH   4   5
ENDBRANCH   3   4
ENDBRANCH   2   3
ENDBRANCH   1   2
BRANCH   1  41
ATOM     41  C   UNL A   1      34.878  23.078  24.600  1.00  0.00     0.188 C 
BRANCH  41  42
ATOM     42  C   UNL A   1      35.403  21.675  25.024  1.00  0.00     0.188 C 
BRANCH  42  43
ATOM     43  O   UNL A   1      36.705  21.650  25.588  1.00  0.00    -0.376 OA
BRANCH  43  44
ATOM     44  C   UNL A   1      37.549  22.782  25.662  1.00  0.00     0.202 C 
BRANCH  44  45
ATOM     45  C   UNL A   1      38.982  22.543  26.119  1.00  0.00     0.261 C 
BRANCH  45  46
ATOM     46  O   UNL A   1      39.276  23.182  27.343  1.00  0.00    -0.460 OA
BRANCH  46  47
ATOM     47  C   UNL A   1      39.621  24.473  27.228  1.00  0.00     0.338 C 
ATOM     48  O   UNL A   1      38.883  25.450  27.281  1.00  0.00    -0.246 OA
BRANCH  47  49
ATOM     49  C   UNL A   1      41.038  24.528  26.884  1.00  0.00     0.060 A 
ATOM     50  C   UNL A   1      41.921  24.274  27.932  1.00  0.00     0.016 A 
ATOM     51  C   UNL A   1      41.394  25.261  25.740  1.00  0.00     0.016 A 
ATOM     52  C   UNL A   1      43.050  25.045  27.994  1.00  0.00     0.010 A 
ATOM     53  C   UNL A   1      42.497  26.058  25.823  1.00  0.00     0.010 A 
ATOM     54  C   UNL A   1      43.237  26.010  27.000  1.00  0.00    -0.014 A 
BRANCH  54  55
ATOM     55  C   UNL A   1      44.271  26.986  27.198  1.00  0.00     0.031 A 
ATOM     56  C   UNL A   1      45.571  26.531  26.683  1.00  0.00     0.074 A 
ATOM     57  C   UNL A   1      44.000  28.199  27.710  1.00  0.00     0.049 A 
ATOM     58  N   UNL A   1      46.614  26.226  27.375  1.00  0.00    -0.248 NA
ATOM     59  C   UNL A   1      45.653  26.172  25.258  1.00  0.00     0.031 C 
ATOM     60  C   UNL A   1      42.697  28.797  28.007  1.00  0.00     0.029 A 
ATOM     61  N   UNL A   1      44.868  29.207  27.974  1.00  0.00    -0.354 N 
ATOM     62  C   UNL A   1      47.563  25.842  26.441  1.00  0.00     0.074 A 
ATOM     63  C   UNL A   1      46.864  25.617  25.204  1.00  0.00     0.031 C 
ATOM     64  C   UNL A   1      42.855  30.129  28.188  1.00  0.00     0.029 A 
ATOM     65  C   UNL A   1      44.270  30.449  28.125  1.00  0.00     0.049 A 
ATOM     66  H   UNL A   1      45.840  29.069  28.051  1.00  0.00     0.167 HD
ATOM     67  C   UNL A   1      48.886  26.022  26.685  1.00  0.00     0.037 A 
ATOM     68  C   UNL A   1      44.923  31.638  28.086  1.00  0.00     0.037 A 
ATOM     69  C   UNL A   1      49.139  26.225  28.089  1.00  0.00     0.049 A 
ATOM     70  C   UNL A   1      46.365  31.356  28.343  1.00  0.00     0.074 A 
ATOM     71  C   UNL A   1      48.907  25.474  29.227  1.00  0.00     0.029 A 
ATOM     72  N   UNL A   1      49.349  27.513  28.521  1.00  0.00    -0.354 N 
ATOM     73  N   UNL A   1      46.826  30.960  29.498  1.00  0.00    -0.248 NA
ATOM     74  C   UNL A   1      47.215  31.044  27.200  1.00  0.00     0.031 C 
ATOM     75  C   UNL A   1      48.532  26.419  30.227  1.00  0.00     0.029 A 
ATOM     76  C   UNL A   1      48.611  27.694  29.664  1.00  0.00     0.049 A 
ATOM     77  H   UNL A   1      49.925  28.184  28.089  1.00  0.00     0.167 HD
ATOM     78  C   UNL A   1      47.771  29.989  29.192  1.00  0.00     0.074 A 
ATOM     79  C   UNL A   1      48.032  30.148  27.763  1.00  0.00     0.031 C 
ATOM     80  C   UNL A   1      48.023  28.956  30.051  1.00  0.00     0.037 A 
BRANCH  67  81
ATOM     81  C   UNL A   1      49.869  26.400  25.615  1.00  0.00     0.057 A 
ATOM     82  C   UNL A   1      51.133  25.793  25.608  1.00  0.00     0.134 A 
ATOM     83  C   UNL A   1      49.731  27.523  24.771  1.00  0.00     0.134 A 
ATOM     84  F   UNL A   1      51.391  24.733  26.390  1.00  0.00    -0.206 F 
ATOM     85  C   UNL A   1      52.200  26.304  24.860  1.00  0.00     0.040 A 
ATOM     86  C   UNL A   1      50.771  28.004  23.976  1.00  0.00     0.040 A 
ATOM     87  F   UNL A   1      48.626  28.276  24.745  1.00  0.00    -0.206 F 
ATOM     88  C   UNL A   1      52.021  27.415  24.044  1.00  0.00     0.006 A 
ENDBRANCH  67  81
BRANCH  68  89
ATOM     89  C   UNL A   1      44.444  32.924  27.526  1.00  0.00     0.057 A 
ATOM     90  C   UNL A   1      44.409  33.139  26.140  1.00  0.00     0.134 A 
ATOM     91  C   UNL A   1      43.768  33.878  28.309  1.00  0.00     0.134 A 
ATOM     92  F   UNL A   1      44.987  32.268  25.300  1.00  0.00    -0.206 F 
ATOM     93  C   UNL A   1      43.723  34.220  25.569  1.00  0.00     0.040 A 
ATOM     94  C   UNL A   1      43.091  34.968  27.753  1.00  0.00     0.040 A 
ATOM     95  F   UNL A   1      43.664  33.743  29.639  1.00  0.00    -0.206 F 
ATOM     96  C   UNL A   1      43.052  35.134  26.376  1.00  0.00     0.006 A 
ENDBRANCH  68  89
BRANCH  80  97
ATOM     97  C   UNL A   1      47.422  29.034  31.429  1.00  0.00     0.057 A 
ATOM     98  C   UNL A   1      46.102  28.663  31.731  1.00  0.00     0.134 A 
ATOM     99  C   UNL A   1      48.246  29.361  32.510  1.00  0.00     0.134 A 
ATOM    100  F   UNL A   1      45.272  28.224  30.777  1.00  0.00    -0.206 F 
ATOM    101  C   UNL A   1      45.609  28.675  33.038  1.00  0.00     0.040 A 
ATOM    102  C   UNL A   1      47.777  29.342  33.826  1.00  0.00     0.040 A 
ATOM    103  F   UNL A   1      49.539  29.662  32.309  1.00  0.00    -0.206 F 
ATOM    104  C   UNL A   1      46.451  29.013  34.093  1.00  0.00     0.006 A 
ENDBRANCH  80  97
ENDBRANCH  54  55
ENDBRANCH  47  49
ENDBRANCH  46  47
ENDBRANCH  45  46
ENDBRANCH  44  45
ENDBRANCH  43  44
ENDBRANCH  42  43
ENDBRANCH  41  42
ENDBRANCH   1  41
TORSDOF 24
ENDMDL
