MODEL 1
REMARK VINA RESULT:     -10.7      0.000      0.000
REMARK SMILES Cc1ccc2oc(C(=O)N[C@@H]3C=C[C@H](C(=O)OCCOCCOCCOCCOC(=O)c4ccc(-c5c6nc(c(-c7c(F)cccc7F)c7ccc([nH]7)c(-c7c(F)cccc7F)c7nc(c(-c8c(F)cccc8F)c8ccc5[nH]8)C=C7)C=C6)cc4)C3)cc2c1
REMARK SMILES IDX 23 1 22 2 21 3 20 4 19 5 18 6 17 7 15 8 16 9 14 10 11 11
REMARK SMILES IDX 12 12 86 13 13 14 10 15 8 16 9 17 7 19 1 20 2 21 3 22 89 23
REMARK SMILES IDX 4 24 88 25 5 26 87 27 6 28 24 29 25 30 26 31 27 32 28 33
REMARK SMILES IDX 29 34 30 35 31 36 32 37 33 38 85 39 34 40 84 41 35 42 36 43
REMARK SMILES IDX 37 44 78 45 38 46 83 47 77 48 79 49 39 50 82 51 76 52 75 53
REMARK SMILES IDX 40 55 66 56 49 57 65 58 50 59 53 60 64 61 80 62 51 63 52 64
REMARK SMILES IDX 63 66 81 67 54 68 41 69 42 70 47 71 43 72 44 73 46 74 48 75
REMARK SMILES IDX 45 76 67 77 68 78 73 79 69 80 70 81 72 82 74 83 71 84 55 85
REMARK SMILES IDX 56 86 61 87 57 88 58 89 60 90 62 91 59 92
REMARK H PARENT 10 18 79 54 53 65
REMARK Flexibility Score: inf
ROOT
ATOM      1  O   UNL A   1      34.696  33.808  27.839  1.00  0.00    -0.377 OA
ENDROOT
BRANCH   1   2
ATOM      2  C   UNL A   1      33.667  32.838  27.824  1.00  0.00     0.188 C 
BRANCH   2   3
ATOM      3  C   UNL A   1      34.175  31.388  27.907  1.00  0.00     0.188 C 
BRANCH   3   4
ATOM      4  O   UNL A   1      33.656  30.562  26.878  1.00  0.00    -0.376 OA
BRANCH   4   5
ATOM      5  C   UNL A   1      32.296  30.156  26.889  1.00  0.00     0.202 C 
BRANCH   5   6
ATOM      6  C   UNL A   1      31.793  28.875  26.177  1.00  0.00     0.261 C 
BRANCH   6   7
ATOM      7  O   UNL A   1      31.917  28.816  24.747  1.00  0.00    -0.463 OA
BRANCH   7   8
ATOM      8  C   UNL A   1      32.048  27.568  24.245  1.00  0.00     0.312 C 
ATOM      9  O   UNL A   1      31.147  26.994  23.645  1.00  0.00    -0.252 OA
BRANCH   8  10
ATOM     10  C   UNL A   1      33.508  27.087  24.290  1.00  0.00     0.124 C 
ATOM     11  C   UNL A   1      33.601  24.907  23.256  1.00  0.00     0.106 C 
ATOM     12  C   UNL A   1      34.070  24.844  24.660  1.00  0.00    -0.006 C 
ATOM     13  C   UNL A   1      33.805  26.396  22.955  1.00  0.00     0.048 C 
ATOM     14  C   UNL A   1      33.981  26.046  25.250  1.00  0.00    -0.014 C 
BRANCH  11  15
ATOM     15  N   UNL A   1      32.249  24.374  23.044  1.00  0.00    -0.343 N 
ATOM     16  C   UNL A   1      31.522  23.200  23.206  1.00  0.00     0.287 C 
ATOM     17  O   UNL A   1      30.298  23.356  23.121  1.00  0.00    -0.266 OA
ATOM     18  H   UNL A   1      31.671  25.074  22.664  1.00  0.00     0.164 HD
BRANCH  16  19
ATOM     19  C   UNL A   1      32.115  21.893  23.460  1.00  0.00     0.192 A 
ATOM     20  C   UNL A   1      32.923  16.374  25.637  1.00  0.00     0.044 C 
ATOM     21  C   UNL A   1      32.855  17.550  24.704  1.00  0.00    -0.050 A 
ATOM     22  C   UNL A   1      32.721  17.380  23.316  1.00  0.00     0.007 A 
ATOM     23  C   UNL A   1      32.868  18.843  25.244  1.00  0.00     0.015 A 
ATOM     24  C   UNL A   1      32.482  18.470  22.455  1.00  0.00     0.048 A 
ATOM     25  C   UNL A   1      32.708  19.939  24.386  1.00  0.00     0.021 A 
ATOM     26  C   UNL A   1      32.418  19.727  23.050  1.00  0.00     0.135 A 
ATOM     27  C   UNL A   1      32.797  21.338  24.521  1.00  0.00     0.065 A 
ATOM     28  O   UNL A   1      32.044  20.913  22.473  1.00  0.00    -0.451 OA
ENDBRANCH  16  19
ENDBRANCH  11  15
ENDBRANCH   8  10
ENDBRANCH   7   8
ENDBRANCH   6   7
ENDBRANCH   5   6
ENDBRANCH   4   5
ENDBRANCH   3   4
ENDBRANCH   2   3
ENDBRANCH   1   2
BRANCH   1  29
ATOM     29  C   UNL A   1      34.859  34.578  29.027  1.00  0.00     0.188 C 
BRANCH  29  30
ATOM     30  C   UNL A   1      34.199  34.179  30.375  1.00  0.00     0.188 C 
BRANCH  30  31
ATOM     31  O   UNL A   1      34.497  35.012  31.485  1.00  0.00    -0.376 OA
BRANCH  31  32
ATOM     32  C   UNL A   1      35.189  34.475  32.600  1.00  0.00     0.202 C 
BRANCH  32  33
ATOM     33  C   UNL A   1      34.793  33.071  33.084  1.00  0.00     0.261 C 
BRANCH  33  34
ATOM     34  O   UNL A   1      35.635  31.997  32.647  1.00  0.00    -0.460 OA
BRANCH  34  35
ATOM     35  C   UNL A   1      36.785  31.803  33.336  1.00  0.00     0.338 C 
ATOM     36  O   UNL A   1      36.969  31.961  34.520  1.00  0.00    -0.246 OA
BRANCH  35  37
ATOM     37  C   UNL A   1      37.747  31.160  32.414  1.00  0.00     0.060 A 
ATOM     38  C   UNL A   1      38.803  30.413  32.953  1.00  0.00     0.016 A 
ATOM     39  C   UNL A   1      37.591  31.275  31.031  1.00  0.00     0.016 A 
ATOM     40  C   UNL A   1      39.735  29.813  32.110  1.00  0.00     0.010 A 
ATOM     41  C   UNL A   1      38.542  30.699  30.187  1.00  0.00     0.010 A 
ATOM     42  C   UNL A   1      39.638  30.002  30.726  1.00  0.00    -0.014 A 
BRANCH  42  43
ATOM     43  C   UNL A   1      40.801  29.683  29.867  1.00  0.00     0.031 A 
ATOM     44  C   UNL A   1      40.871  28.308  29.261  1.00  0.00     0.074 A 
ATOM     45  C   UNL A   1      41.757  30.590  29.608  1.00  0.00     0.049 A 
ATOM     46  N   UNL A   1      41.800  27.773  28.512  1.00  0.00    -0.248 NA
ATOM     47  C   UNL A   1      39.735  27.416  29.544  1.00  0.00     0.031 C 
ATOM     48  C   UNL A   1      41.769  31.969  30.088  1.00  0.00     0.029 A 
ATOM     49  N   UNL A   1      42.909  30.474  28.873  1.00  0.00    -0.354 N 
ATOM     50  C   UNL A   1      41.369  26.477  28.251  1.00  0.00     0.074 A 
ATOM     51  C   UNL A   1      40.113  26.298  28.945  1.00  0.00     0.031 C 
ATOM     52  C   UNL A   1      42.880  32.575  29.635  1.00  0.00     0.029 A 
ATOM     53  C   UNL A   1      43.672  31.614  28.867  1.00  0.00     0.049 A 
ATOM     54  H   UNL A   1      43.165  29.651  28.397  1.00  0.00     0.167 HD
ATOM     55  C   UNL A   1      41.965  25.524  27.498  1.00  0.00     0.037 A 
ATOM     56  C   UNL A   1      44.880  31.844  28.316  1.00  0.00     0.037 A 
ATOM     57  C   UNL A   1      43.218  25.709  26.814  1.00  0.00     0.049 A 
ATOM     58  C   UNL A   1      45.570  30.738  27.560  1.00  0.00     0.074 A 
ATOM     59  C   UNL A   1      43.895  24.817  26.001  1.00  0.00     0.029 A 
ATOM     60  N   UNL A   1      43.990  26.859  26.877  1.00  0.00    -0.354 N 
ATOM     61  N   UNL A   1      45.147  29.526  27.292  1.00  0.00    -0.248 NA
ATOM     62  C   UNL A   1      46.910  31.033  27.033  1.00  0.00     0.031 C 
ATOM     63  C   UNL A   1      45.111  25.403  25.632  1.00  0.00     0.029 A 
ATOM     64  C   UNL A   1      45.157  26.686  26.153  1.00  0.00     0.049 A 
ATOM     65  H   UNL A   1      43.744  27.679  27.366  1.00  0.00     0.167 HD
ATOM     66  C   UNL A   1      46.149  28.929  26.533  1.00  0.00     0.074 A 
ATOM     67  C   UNL A   1      47.197  29.916  26.380  1.00  0.00     0.031 C 
ATOM     68  C   UNL A   1      46.192  27.680  26.005  1.00  0.00     0.037 A 
BRANCH  55  69
ATOM     69  C   UNL A   1      41.291  24.184  27.426  1.00  0.00     0.057 A 
ATOM     70  C   UNL A   1      41.752  23.073  28.146  1.00  0.00     0.134 A 
ATOM     71  C   UNL A   1      40.163  24.003  26.615  1.00  0.00     0.134 A 
ATOM     72  F   UNL A   1      42.837  23.171  28.929  1.00  0.00    -0.206 F 
ATOM     73  C   UNL A   1      41.140  21.824  28.031  1.00  0.00     0.040 A 
ATOM     74  C   UNL A   1      39.524  22.767  26.517  1.00  0.00     0.040 A 
ATOM     75  F   UNL A   1      39.666  25.023  25.900  1.00  0.00    -0.206 F 
ATOM     76  C   UNL A   1      40.019  21.669  27.218  1.00  0.00     0.006 A 
ENDBRANCH  55  69
BRANCH  56  77
ATOM     77  C   UNL A   1      45.517  33.179  28.449  1.00  0.00     0.057 A 
ATOM     78  C   UNL A   1      46.426  33.443  29.481  1.00  0.00     0.134 A 
ATOM     79  C   UNL A   1      45.225  34.226  27.565  1.00  0.00     0.134 A 
ATOM     80  F   UNL A   1      46.727  32.490  30.374  1.00  0.00    -0.206 F 
ATOM     81  C   UNL A   1      47.010  34.702  29.638  1.00  0.00     0.040 A 
ATOM     82  C   UNL A   1      45.822  35.481  27.695  1.00  0.00     0.040 A 
ATOM     83  F   UNL A   1      44.361  34.040  26.556  1.00  0.00    -0.206 F 
ATOM     84  C   UNL A   1      46.713  35.723  28.738  1.00  0.00     0.006 A 
ENDBRANCH  56  77
BRANCH  68  85
ATOM     85  C   UNL A   1      47.391  27.322  25.172  1.00  0.00     0.057 A 
ATOM     86  C   UNL A   1      47.500  27.684  23.823  1.00  0.00     0.134 A 
ATOM     87  C   UNL A   1      48.476  26.642  25.744  1.00  0.00     0.134 A 
ATOM     88  F   UNL A   1      46.494  28.328  23.210  1.00  0.00    -0.206 F 
ATOM     89  C   UNL A   1      48.628  27.361  23.068  1.00  0.00     0.040 A 
ATOM     90  C   UNL A   1      49.623  26.341  25.008  1.00  0.00     0.040 A 
ATOM     91  F   UNL A   1      48.447  26.275  27.034  1.00  0.00    -0.206 F 
ATOM     92  C   UNL A   1      49.698  26.694  23.663  1.00  0.00     0.006 A 
ENDBRANCH  68  85
ENDBRANCH  42  43
ENDBRANCH  35  37
ENDBRANCH  34  35
ENDBRANCH  33  34
ENDBRANCH  32  33
ENDBRANCH  31  32
ENDBRANCH  30  31
ENDBRANCH  29  30
ENDBRANCH   1  29
TORSDOF 22
ENDMDL
MODEL 2
REMARK VINA RESULT:     -10.7      6.168     13.303
REMARK SMILES Cc1ccc2oc(C(=O)N[C@@H]3C=C[C@H](C(=O)OCCOCCOCCOCCOC(=O)c4ccc(-c5c6nc(c(-c7c(F)cccc7F)c7ccc([nH]7)c(-c7c(F)cccc7F)c7nc(c(-c8c(F)cccc8F)c8ccc5[nH]8)C=C7)C=C6)cc4)C3)cc2c1
REMARK SMILES IDX 23 1 22 2 21 3 20 4 19 5 18 6 17 7 15 8 16 9 14 10 11 11
REMARK SMILES IDX 12 12 86 13 13 14 10 15 8 16 9 17 7 19 1 20 2 21 3 22 89 23
REMARK SMILES IDX 4 24 88 25 5 26 87 27 6 28 24 29 25 30 26 31 27 32 28 33
REMARK SMILES IDX 29 34 30 35 31 36 32 37 33 38 85 39 34 40 84 41 35 42 36 43
REMARK SMILES IDX 37 44 78 45 38 46 83 47 77 48 79 49 39 50 82 51 76 52 75 53
REMARK SMILES IDX 40 55 66 56 49 57 65 58 50 59 53 60 64 61 80 62 51 63 52 64
REMARK SMILES IDX 63 66 81 67 54 68 41 69 42 70 47 71 43 72 44 73 46 74 48 75
REMARK SMILES IDX 45 76 67 77 68 78 73 79 69 80 70 81 72 82 74 83 71 84 55 85
REMARK SMILES IDX 56 86 61 87 57 88 58 89 60 90 62 91 59 92
REMARK H PARENT 10 18 79 54 53 65
REMARK Flexibility Score: inf
ROOT
ATOM      1  O   UNL A   1      44.050  18.183  24.964  1.00  0.00    -0.377 OA
ENDROOT
BRANCH   1   2
ATOM      2  C   UNL A   1      44.811  19.202  24.346  1.00  0.00     0.188 C 
BRANCH   2   3
ATOM      3  C   UNL A   1      46.117  19.541  25.086  1.00  0.00     0.188 C 
BRANCH   3   4
ATOM      4  O   UNL A   1      46.216  20.913  25.428  1.00  0.00    -0.376 OA
BRANCH   4   5
ATOM      5  C   UNL A   1      46.437  21.897  24.429  1.00  0.00     0.202 C 
BRANCH   5   6
ATOM      6  C   UNL A   1      45.988  23.372  24.585  1.00  0.00     0.261 C 
BRANCH   6   7
ATOM      7  O   UNL A   1      46.947  24.396  24.280  1.00  0.00    -0.463 OA
BRANCH   7   8
ATOM      8  C   UNL A   1      46.763  25.557  24.949  1.00  0.00     0.312 C 
ATOM      9  O   UNL A   1      46.528  26.619  24.386  1.00  0.00    -0.252 OA
BRANCH   8  10
ATOM     10  C   UNL A   1      46.625  25.324  26.463  1.00  0.00     0.124 C 
ATOM     11  C   UNL A   1      45.837  27.379  27.457  1.00  0.00     0.106 C 
ATOM     12  C   UNL A   1      47.145  26.986  28.029  1.00  0.00    -0.006 C 
ATOM     13  C   UNL A   1      45.344  26.031  26.921  1.00  0.00     0.048 C 
ATOM     14  C   UNL A   1      47.605  25.866  27.450  1.00  0.00    -0.014 C 
BRANCH  11  15
ATOM     15  N   UNL A   1      45.906  28.484  26.492  1.00  0.00    -0.343 N 
ATOM     16  C   UNL A   1      45.820  29.871  26.441  1.00  0.00     0.287 C 
ATOM     17  O   UNL A   1      46.230  30.358  25.380  1.00  0.00    -0.266 OA
ATOM     18  H   UNL A   1      46.062  28.127  25.588  1.00  0.00     0.164 HD
BRANCH  16  19
ATOM     19  C   UNL A   1      45.308  30.703  27.522  1.00  0.00     0.192 A 
ATOM     20  C   UNL A   1      41.649  32.911  31.716  1.00  0.00     0.044 C 
ATOM     21  C   UNL A   1      42.874  32.412  31.003  1.00  0.00    -0.050 A 
ATOM     22  C   UNL A   1      43.991  31.933  31.706  1.00  0.00     0.007 A 
ATOM     23  C   UNL A   1      42.871  32.373  29.602  1.00  0.00     0.015 A 
ATOM     24  C   UNL A   1      45.067  31.303  31.050  1.00  0.00     0.048 A 
ATOM     25  C   UNL A   1      43.972  31.819  28.935  1.00  0.00     0.021 A 
ATOM     26  C   UNL A   1      44.979  31.212  29.663  1.00  0.00     0.135 A 
ATOM     27  C   UNL A   1      44.386  31.726  27.592  1.00  0.00     0.065 A 
ATOM     28  O   UNL A   1      45.799  30.517  28.811  1.00  0.00    -0.451 OA
ENDBRANCH  16  19
ENDBRANCH  11  15
ENDBRANCH   8  10
ENDBRANCH   7   8
ENDBRANCH   6   7
ENDBRANCH   5   6
ENDBRANCH   4   5
ENDBRANCH   3   4
ENDBRANCH   2   3
ENDBRANCH   1   2
BRANCH   1  29
ATOM     29  C   UNL A   1      43.190  18.559  26.036  1.00  0.00     0.188 C 
BRANCH  29  30
ATOM     30  C   UNL A   1      42.047  19.596  25.860  1.00  0.00     0.188 C 
BRANCH  30  31
ATOM     31  O   UNL A   1      42.274  20.877  26.429  1.00  0.00    -0.376 OA
BRANCH  31  32
ATOM     32  C   UNL A   1      42.250  22.027  25.602  1.00  0.00     0.202 C 
BRANCH  32  33
ATOM     33  C   UNL A   1      42.540  23.388  26.254  1.00  0.00     0.261 C 
BRANCH  33  34
ATOM     34  O   UNL A   1      41.572  24.417  26.015  1.00  0.00    -0.460 OA
BRANCH  34  35
ATOM     35  C   UNL A   1      42.049  25.651  25.729  1.00  0.00     0.338 C 
ATOM     36  O   UNL A   1      42.624  26.004  24.726  1.00  0.00    -0.246 OA
BRANCH  35  37
ATOM     37  C   UNL A   1      41.562  26.566  26.785  1.00  0.00     0.060 A 
ATOM     38  C   UNL A   1      42.116  27.851  26.875  1.00  0.00     0.016 A 
ATOM     39  C   UNL A   1      40.551  26.167  27.661  1.00  0.00     0.016 A 
ATOM     40  C   UNL A   1      41.692  28.726  27.871  1.00  0.00     0.010 A 
ATOM     41  C   UNL A   1      40.147  27.033  28.678  1.00  0.00     0.010 A 
ATOM     42  C   UNL A   1      40.746  28.299  28.810  1.00  0.00    -0.014 A 
BRANCH  42  43
ATOM     43  C   UNL A   1      40.562  29.072  30.059  1.00  0.00     0.031 A 
ATOM     44  C   UNL A   1      39.455  30.089  30.101  1.00  0.00     0.074 A 
ATOM     45  C   UNL A   1      41.336  28.865  31.137  1.00  0.00     0.049 A 
ATOM     46  N   UNL A   1      39.118  30.917  31.054  1.00  0.00    -0.248 NA
ATOM     47  C   UNL A   1      38.616  30.184  28.894  1.00  0.00     0.031 C 
ATOM     48  C   UNL A   1      42.399  27.869  31.239  1.00  0.00     0.029 A 
ATOM     49  N   UNL A   1      41.340  29.494  32.356  1.00  0.00    -0.354 N 
ATOM     50  C   UNL A   1      38.042  31.643  30.557  1.00  0.00     0.074 A 
ATOM     51  C   UNL A   1      37.803  31.178  29.208  1.00  0.00     0.031 C 
ATOM     52  C   UNL A   1      42.957  27.955  32.459  1.00  0.00     0.029 A 
ATOM     53  C   UNL A   1      42.315  29.036  33.207  1.00  0.00     0.049 A 
ATOM     54  H   UNL A   1      40.705  30.207  32.598  1.00  0.00     0.167 HD
ATOM     55  C   UNL A   1      37.316  32.606  31.170  1.00  0.00     0.037 A 
ATOM     56  C   UNL A   1      42.656  29.458  34.440  1.00  0.00     0.037 A 
ATOM     57  C   UNL A   1      37.563  33.066  32.511  1.00  0.00     0.049 A 
ATOM     58  C   UNL A   1      41.894  30.598  35.067  1.00  0.00     0.074 A 
ATOM     59  C   UNL A   1      36.870  34.018  33.237  1.00  0.00     0.029 A 
ATOM     60  N   UNL A   1      38.596  32.618  33.321  1.00  0.00    -0.354 N 
ATOM     61  N   UNL A   1      40.861  31.260  34.605  1.00  0.00    -0.248 NA
ATOM     62  C   UNL A   1      42.351  31.049  36.389  1.00  0.00     0.031 C 
ATOM     63  C   UNL A   1      37.527  34.196  34.460  1.00  0.00     0.029 A 
ATOM     64  C   UNL A   1      38.585  33.303  34.525  1.00  0.00     0.049 A 
ATOM     65  H   UNL A   1      39.242  31.916  33.077  1.00  0.00     0.167 HD
ATOM     66  C   UNL A   1      40.521  32.178  35.594  1.00  0.00     0.074 A 
ATOM     67  C   UNL A   1      41.455  31.981  36.683  1.00  0.00     0.031 C 
ATOM     68  C   UNL A   1      39.520  33.094  35.602  1.00  0.00     0.037 A 
BRANCH  55  69
ATOM     69  C   UNL A   1      36.226  33.260  30.369  1.00  0.00     0.057 A 
ATOM     70  C   UNL A   1      36.493  34.218  29.382  1.00  0.00     0.134 A 
ATOM     71  C   UNL A   1      34.885  32.927  30.598  1.00  0.00     0.134 A 
ATOM     72  F   UNL A   1      37.754  34.596  29.123  1.00  0.00    -0.206 F 
ATOM     73  C   UNL A   1      35.464  34.849  28.680  1.00  0.00     0.040 A 
ATOM     74  C   UNL A   1      33.849  33.527  29.881  1.00  0.00     0.040 A 
ATOM     75  F   UNL A   1      34.557  32.016  31.527  1.00  0.00    -0.206 F 
ATOM     76  C   UNL A   1      34.137  34.500  28.925  1.00  0.00     0.006 A 
ENDBRANCH  55  69
BRANCH  56  77
ATOM     77  C   UNL A   1      43.767  28.799  35.172  1.00  0.00     0.057 A 
ATOM     78  C   UNL A   1      45.080  29.271  35.064  1.00  0.00     0.134 A 
ATOM     79  C   UNL A   1      43.551  27.675  35.980  1.00  0.00     0.134 A 
ATOM     80  F   UNL A   1      45.355  30.327  34.286  1.00  0.00    -0.206 F 
ATOM     81  C   UNL A   1      46.140  28.644  35.722  1.00  0.00     0.040 A 
ATOM     82  C   UNL A   1      44.598  27.055  36.664  1.00  0.00     0.040 A 
ATOM     83  F   UNL A   1      42.316  27.171  36.124  1.00  0.00    -0.206 F 
ATOM     84  C   UNL A   1      45.898  27.536  36.530  1.00  0.00     0.006 A 
ENDBRANCH  56  77
BRANCH  68  85
ATOM     85  C   UNL A   1      39.352  33.924  36.845  1.00  0.00     0.057 A 
ATOM     86  C   UNL A   1      38.693  33.442  37.983  1.00  0.00     0.134 A 
ATOM     87  C   UNL A   1      39.901  35.213  36.917  1.00  0.00     0.134 A 
ATOM     88  F   UNL A   1      38.136  32.221  37.979  1.00  0.00    -0.206 F 
ATOM     89  C   UNL A   1      38.562  34.219  39.135  1.00  0.00     0.040 A 
ATOM     90  C   UNL A   1      39.804  35.987  38.074  1.00  0.00     0.040 A 
ATOM     91  F   UNL A   1      40.557  35.734  35.869  1.00  0.00    -0.206 F 
ATOM     92  C   UNL A   1      39.126  35.492  39.186  1.00  0.00     0.006 A 
ENDBRANCH  68  85
ENDBRANCH  42  43
ENDBRANCH  35  37
ENDBRANCH  34  35
ENDBRANCH  33  34
ENDBRANCH  32  33
ENDBRANCH  31  32
ENDBRANCH  30  31
ENDBRANCH  29  30
ENDBRANCH   1  29
TORSDOF 22
ENDMDL
MODEL 3
REMARK VINA RESULT:     -10.6      4.277      8.254
REMARK SMILES Cc1ccc2oc(C(=O)N[C@@H]3C=C[C@H](C(=O)OCCOCCOCCOCCOC(=O)c4ccc(-c5c6nc(c(-c7c(F)cccc7F)c7ccc([nH]7)c(-c7c(F)cccc7F)c7nc(c(-c8c(F)cccc8F)c8ccc5[nH]8)C=C7)C=C6)cc4)C3)cc2c1
REMARK SMILES IDX 23 1 22 2 21 3 20 4 19 5 18 6 17 7 15 8 16 9 14 10 11 11
REMARK SMILES IDX 12 12 86 13 13 14 10 15 8 16 9 17 7 19 1 20 2 21 3 22 89 23
REMARK SMILES IDX 4 24 88 25 5 26 87 27 6 28 24 29 25 30 26 31 27 32 28 33
REMARK SMILES IDX 29 34 30 35 31 36 32 37 33 38 85 39 34 40 84 41 35 42 36 43
REMARK SMILES IDX 37 44 78 45 38 46 83 47 77 48 79 49 39 50 82 51 76 52 75 53
REMARK SMILES IDX 40 55 66 56 49 57 65 58 50 59 53 60 64 61 80 62 51 63 52 64
REMARK SMILES IDX 63 66 81 67 54 68 41 69 42 70 47 71 43 72 44 73 46 74 48 75
REMARK SMILES IDX 45 76 67 77 68 78 73 79 69 80 70 81 72 82 74 83 71 84 55 85
REMARK SMILES IDX 56 86 61 87 57 88 58 89 60 90 62 91 59 92
REMARK H PARENT 10 18 79 54 53 65
REMARK Flexibility Score: inf
ROOT
ATOM      1  O   UNL A   1      33.743  28.263  25.404  1.00  0.00    -0.377 OA
ENDROOT
BRANCH   1   2
ATOM      2  C   UNL A   1      32.548  28.769  24.843  1.00  0.00     0.188 C 
BRANCH   2   3
ATOM      3  C   UNL A   1      31.501  27.687  24.524  1.00  0.00     0.188 C 
BRANCH   3   4
ATOM      4  O   UNL A   1      30.793  27.250  25.671  1.00  0.00    -0.376 OA
BRANCH   4   5
ATOM      5  C   UNL A   1      30.498  25.875  25.862  1.00  0.00     0.202 C 
BRANCH   5   6
ATOM      6  C   UNL A   1      31.543  24.854  26.380  1.00  0.00     0.261 C 
BRANCH   6   7
ATOM      7  O   UNL A   1      32.932  25.196  26.245  1.00  0.00    -0.463 OA
BRANCH   7   8
ATOM      8  C   UNL A   1      33.781  24.149  26.344  1.00  0.00     0.312 C 
ATOM      9  O   UNL A   1      33.531  23.149  27.008  1.00  0.00    -0.252 OA
BRANCH   8  10
ATOM     10  C   UNL A   1      34.938  24.258  25.337  1.00  0.00     0.124 C 
ATOM     11  C   UNL A   1      33.998  24.138  23.116  1.00  0.00     0.106 C 
ATOM     12  C   UNL A   1      34.967  23.040  23.338  1.00  0.00    -0.006 C 
ATOM     13  C   UNL A   1      34.458  25.141  24.180  1.00  0.00     0.048 C 
ATOM     14  C   UNL A   1      35.460  23.079  24.585  1.00  0.00    -0.014 C 
BRANCH  11  15
ATOM     15  N   UNL A   1      32.591  23.724  23.168  1.00  0.00    -0.343 N 
ATOM     16  C   UNL A   1      31.803  22.648  23.562  1.00  0.00     0.287 C 
ATOM     17  O   UNL A   1      30.598  22.916  23.647  1.00  0.00    -0.266 OA
ATOM     18  H   UNL A   1      32.020  24.439  22.807  1.00  0.00     0.164 HD
BRANCH  16  19
ATOM     19  C   UNL A   1      32.317  21.318  23.863  1.00  0.00     0.192 A 
ATOM     20  C   UNL A   1      32.593  15.672  25.836  1.00  0.00     0.044 C 
ATOM     21  C   UNL A   1      32.740  16.899  24.981  1.00  0.00    -0.050 A 
ATOM     22  C   UNL A   1      32.915  16.810  23.591  1.00  0.00     0.007 A 
ATOM     23  C   UNL A   1      32.640  18.159  25.586  1.00  0.00     0.015 A 
ATOM     24  C   UNL A   1      32.878  17.951  22.764  1.00  0.00     0.048 A 
ATOM     25  C   UNL A   1      32.681  19.305  24.780  1.00  0.00     0.021 A 
ATOM     26  C   UNL A   1      32.692  19.174  23.403  1.00  0.00     0.135 A 
ATOM     27  C   UNL A   1      32.745  20.692  25.014  1.00  0.00     0.065 A 
ATOM     28  O   UNL A   1      32.461  20.397  22.829  1.00  0.00    -0.451 OA
ENDBRANCH  16  19
ENDBRANCH  11  15
ENDBRANCH   8  10
ENDBRANCH   7   8
ENDBRANCH   6   7
ENDBRANCH   5   6
ENDBRANCH   4   5
ENDBRANCH   3   4
ENDBRANCH   2   3
ENDBRANCH   1   2
BRANCH   1  29
ATOM     29  C   UNL A   1      33.998  28.546  26.778  1.00  0.00     0.188 C 
BRANCH  29  30
ATOM     30  C   UNL A   1      34.657  29.872  27.246  1.00  0.00     0.188 C 
BRANCH  30  31
ATOM     31  O   UNL A   1      33.797  30.803  27.887  1.00  0.00    -0.376 OA
BRANCH  31  32
ATOM     32  C   UNL A   1      33.175  31.823  27.126  1.00  0.00     0.202 C 
BRANCH  32  33
ATOM     33  C   UNL A   1      32.429  32.932  27.885  1.00  0.00     0.261 C 
BRANCH  33  34
ATOM     34  O   UNL A   1      32.810  34.276  27.567  1.00  0.00    -0.460 OA
BRANCH  34  35
ATOM     35  C   UNL A   1      33.016  35.117  28.608  1.00  0.00     0.338 C 
ATOM     36  O   UNL A   1      32.295  36.011  28.984  1.00  0.00    -0.246 OA
BRANCH  35  37
ATOM     37  C   UNL A   1      34.196  34.620  29.348  1.00  0.00     0.060 A 
ATOM     38  C   UNL A   1      35.441  34.606  28.704  1.00  0.00     0.016 A 
ATOM     39  C   UNL A   1      34.078  34.198  30.673  1.00  0.00     0.016 A 
ATOM     40  C   UNL A   1      36.566  34.125  29.369  1.00  0.00     0.010 A 
ATOM     41  C   UNL A   1      35.199  33.688  31.330  1.00  0.00     0.010 A 
ATOM     42  C   UNL A   1      36.436  33.612  30.665  1.00  0.00    -0.014 A 
BRANCH  42  43
ATOM     43  C   UNL A   1      37.525  32.784  31.231  1.00  0.00     0.031 A 
ATOM     44  C   UNL A   1      38.087  33.179  32.569  1.00  0.00     0.074 A 
ATOM     45  C   UNL A   1      37.989  31.698  30.592  1.00  0.00     0.049 A 
ATOM     46  N   UNL A   1      39.065  32.646  33.253  1.00  0.00    -0.248 NA
ATOM     47  C   UNL A   1      37.456  34.340  33.220  1.00  0.00     0.031 C 
ATOM     48  C   UNL A   1      37.486  31.181  29.323  1.00  0.00     0.029 A 
ATOM     49  N   UNL A   1      38.999  30.835  30.935  1.00  0.00    -0.354 N 
ATOM     50  C   UNL A   1      39.179  33.417  34.405  1.00  0.00     0.074 A 
ATOM     51  C   UNL A   1      38.192  34.469  34.312  1.00  0.00     0.031 C 
ATOM     52  C   UNL A   1      38.193  30.087  28.990  1.00  0.00     0.029 A 
ATOM     53  C   UNL A   1      39.220  29.852  30.004  1.00  0.00     0.049 A 
ATOM     54  H   UNL A   1      39.517  30.914  31.770  1.00  0.00     0.167 HD
ATOM     55  C   UNL A   1      40.028  33.258  35.447  1.00  0.00     0.037 A 
ATOM     56  C   UNL A   1      40.158  28.885  29.973  1.00  0.00     0.037 A 
ATOM     57  C   UNL A   1      41.010  32.210  35.530  1.00  0.00     0.049 A 
ATOM     58  C   UNL A   1      41.155  28.786  31.100  1.00  0.00     0.074 A 
ATOM     59  C   UNL A   1      41.900  31.944  36.555  1.00  0.00     0.029 A 
ATOM     60  N   UNL A   1      41.243  31.267  34.540  1.00  0.00    -0.354 N 
ATOM     61  N   UNL A   1      41.240  29.497  32.198  1.00  0.00    -0.248 NA
ATOM     62  C   UNL A   1      42.188  27.747  30.977  1.00  0.00     0.031 C 
ATOM     63  C   UNL A   1      42.720  30.882  36.153  1.00  0.00     0.029 A 
ATOM     64  C   UNL A   1      42.291  30.441  34.912  1.00  0.00     0.049 A 
ATOM     65  H   UNL A   1      40.738  31.194  33.698  1.00  0.00     0.167 HD
ATOM     66  C   UNL A   1      42.309  28.968  32.915  1.00  0.00     0.074 A 
ATOM     67  C   UNL A   1      42.836  27.872  32.128  1.00  0.00     0.031 C 
ATOM     68  C   UNL A   1      42.803  29.350  34.119  1.00  0.00     0.037 A 
BRANCH  55  69
ATOM     69  C   UNL A   1      39.960  34.278  36.548  1.00  0.00     0.057 A 
ATOM     70  C   UNL A   1      39.193  34.083  37.704  1.00  0.00     0.134 A 
ATOM     71  C   UNL A   1      40.673  35.479  36.443  1.00  0.00     0.134 A 
ATOM     72  F   UNL A   1      38.472  32.963  37.862  1.00  0.00    -0.206 F 
ATOM     73  C   UNL A   1      39.106  35.062  38.696  1.00  0.00     0.040 A 
ATOM     74  C   UNL A   1      40.620  36.451  37.443  1.00  0.00     0.040 A 
ATOM     75  F   UNL A   1      41.431  35.731  35.365  1.00  0.00    -0.206 F 
ATOM     76  C   UNL A   1      39.825  36.249  38.569  1.00  0.00     0.006 A 
ENDBRANCH  55  69
BRANCH  56  77
ATOM     77  C   UNL A   1      40.201  27.926  28.840  1.00  0.00     0.057 A 
ATOM     78  C   UNL A   1      39.543  26.694  28.914  1.00  0.00     0.134 A 
ATOM     79  C   UNL A   1      40.912  28.207  27.665  1.00  0.00     0.134 A 
ATOM     80  F   UNL A   1      38.867  26.357  30.022  1.00  0.00    -0.206 F 
ATOM     81  C   UNL A   1      39.599  25.768  27.870  1.00  0.00     0.040 A 
ATOM     82  C   UNL A   1      40.955  27.301  26.603  1.00  0.00     0.040 A 
ATOM     83  F   UNL A   1      41.567  29.369  27.530  1.00  0.00    -0.206 F 
ATOM     84  C   UNL A   1      40.302  26.076  26.707  1.00  0.00     0.006 A 
ENDBRANCH  56  77
BRANCH  68  85
ATOM     85  C   UNL A   1      43.944  28.551  34.684  1.00  0.00     0.057 A 
ATOM     86  C   UNL A   1      45.282  28.918  34.492  1.00  0.00     0.134 A 
ATOM     87  C   UNL A   1      43.695  27.418  35.472  1.00  0.00     0.134 A 
ATOM     88  F   UNL A   1      45.592  29.986  33.739  1.00  0.00    -0.206 F 
ATOM     89  C   UNL A   1      46.330  28.176  35.039  1.00  0.00     0.040 A 
ATOM     90  C   UNL A   1      44.733  26.686  36.052  1.00  0.00     0.040 A 
ATOM     91  F   UNL A   1      42.438  27.015  35.709  1.00  0.00    -0.206 F 
ATOM     92  C   UNL A   1      46.056  27.060  35.829  1.00  0.00     0.006 A 
ENDBRANCH  68  85
ENDBRANCH  42  43
ENDBRANCH  35  37
ENDBRANCH  34  35
ENDBRANCH  33  34
ENDBRANCH  32  33
ENDBRANCH  31  32
ENDBRANCH  30  31
ENDBRANCH  29  30
ENDBRANCH   1  29
TORSDOF 22
ENDMDL
