MODEL 1
REMARK VINA RESULT:     -10.1      0.000      0.000
REMARK SMILES O=C(OCCOCCOCCOCCOC(=O)c1cc(OCc2ccccc2C(F)(F)F)cs1)c1ccc(-c2c3nc(c(-c4c(F)cccc4F)c4ccc([nH]4)c(-c4c(F)cccc4F)c4nc(c(-c5c(F)cccc5F)c5ccc2[nH]5)C=C4)C=C3)cc1
REMARK SMILES IDX 10 1 9 2 8 3 7 4 6 5 5 6 4 7 3 8 2 9 1 10 35 11 36 12 88 13
REMARK SMILES IDX 37 14 87 15 38 16 39 17 40 18 81 19 41 20 86 21 80 22 82 23
REMARK SMILES IDX 42 24 85 25 79 26 78 27 43 29 69 30 52 31 68 32 53 33 56 34
REMARK SMILES IDX 67 35 83 36 54 37 55 38 66 40 84 41 57 42 44 43 45 44 50 45
REMARK SMILES IDX 46 46 47 47 49 48 51 49 48 50 70 51 71 52 76 53 72 54 73 55
REMARK SMILES IDX 75 56 77 57 74 58 58 59 59 60 64 61 60 62 61 63 63 64 65 65
REMARK SMILES IDX 62 66 11 67 12 68 13 69 14 70 15 71 16 72 17 73 18 74 19 75
REMARK SMILES IDX 34 76 20 77 33 78 21 79 22 80 23 81 24 82 28 83 25 84 27 85
REMARK SMILES IDX 26 86 29 87 30 88 31 89 32 90
REMARK H PARENT 82 28 56 39
REMARK Flexibility Score: inf
ROOT
ATOM      1  C   UNL A   1      40.865  20.665  27.383  1.00  0.00     0.188 C 
ENDROOT
BRANCH   1   2
ATOM      2  O   UNL A   1      41.228  19.954  26.204  1.00  0.00    -0.377 OA
BRANCH   2   3
ATOM      3  C   UNL A   1      42.614  19.941  25.862  1.00  0.00     0.188 C 
BRANCH   3   4
ATOM      4  C   UNL A   1      43.397  21.200  26.231  1.00  0.00     0.188 C 
BRANCH   4   5
ATOM      5  O   UNL A   1      44.709  21.156  25.670  1.00  0.00    -0.376 OA
BRANCH   5   6
ATOM      6  C   UNL A   1      44.780  21.194  24.248  1.00  0.00     0.202 C 
BRANCH   6   7
ATOM      7  C   UNL A   1      44.618  22.582  23.621  1.00  0.00     0.261 C 
BRANCH   7   8
ATOM      8  O   UNL A   1      43.880  23.506  24.441  1.00  0.00    -0.460 OA
BRANCH   8   9
ATOM      9  C   UNL A   1      44.314  24.661  25.002  1.00  0.00     0.338 C 
ATOM     10  O   UNL A   1      45.435  25.076  24.713  1.00  0.00    -0.246 OA
BRANCH   9  11
ATOM     11  C   UNL A   1      43.487  25.487  25.931  1.00  0.00     0.060 A 
ATOM     12  C   UNL A   1      43.402  26.877  25.897  1.00  0.00     0.016 A 
ATOM     13  C   UNL A   1      42.685  24.806  26.861  1.00  0.00     0.016 A 
ATOM     14  C   UNL A   1      42.679  27.586  26.845  1.00  0.00     0.010 A 
ATOM     15  C   UNL A   1      41.900  25.508  27.782  1.00  0.00     0.010 A 
ATOM     16  C   UNL A   1      41.951  26.907  27.817  1.00  0.00    -0.014 A 
BRANCH  16  17
ATOM     17  C   UNL A   1      41.456  27.679  28.974  1.00  0.00     0.031 A 
ATOM     18  C   UNL A   1      42.280  27.650  30.230  1.00  0.00     0.074 A 
ATOM     19  C   UNL A   1      40.403  28.507  28.851  1.00  0.00     0.049 A 
ATOM     20  N   UNL A   1      42.043  28.187  31.396  1.00  0.00    -0.248 NA
ATOM     21  C   UNL A   1      43.556  26.916  30.158  1.00  0.00     0.031 C 
ATOM     22  C   UNL A   1      39.626  28.710  27.627  1.00  0.00     0.029 A 
ATOM     23  N   UNL A   1      39.834  29.365  29.753  1.00  0.00    -0.354 N 
ATOM     24  C   UNL A   1      43.105  27.804  32.206  1.00  0.00     0.074 A 
ATOM     25  C   UNL A   1      43.989  26.993  31.405  1.00  0.00     0.031 C 
ATOM     26  C   UNL A   1      38.710  29.668  27.844  1.00  0.00     0.029 A 
ATOM     27  C   UNL A   1      38.786  30.089  29.239  1.00  0.00     0.049 A 
ATOM     28  H   UNL A   1      40.146  29.455  30.683  1.00  0.00     0.167 HD
ATOM     29  C   UNL A   1      43.315  28.104  33.507  1.00  0.00     0.037 A 
ATOM     30  C   UNL A   1      37.969  30.971  29.845  1.00  0.00     0.037 A 
ATOM     31  C   UNL A   1      42.440  28.949  34.269  1.00  0.00     0.049 A 
ATOM     32  C   UNL A   1      38.188  31.245  31.309  1.00  0.00     0.074 A 
ATOM     33  C   UNL A   1      42.499  29.281  35.609  1.00  0.00     0.029 A 
ATOM     34  N   UNL A   1      41.344  29.613  33.735  1.00  0.00    -0.354 N 
ATOM     35  N   UNL A   1      39.134  30.795  32.101  1.00  0.00    -0.248 NA
ATOM     36  C   UNL A   1      37.219  32.128  31.968  1.00  0.00     0.031 C 
ATOM     37  C   UNL A   1      41.419  30.125  35.891  1.00  0.00     0.029 A 
ATOM     38  C   UNL A   1      40.713  30.352  34.717  1.00  0.00     0.049 A 
ATOM     39  H   UNL A   1      41.059  29.565  32.793  1.00  0.00     0.167 HD
ATOM     40  C   UNL A   1      38.884  31.352  33.348  1.00  0.00     0.074 A 
ATOM     41  C   UNL A   1      37.709  32.189  33.199  1.00  0.00     0.031 C 
ATOM     42  C   UNL A   1      39.555  31.185  34.515  1.00  0.00     0.037 A 
BRANCH  29  43
ATOM     43  C   UNL A   1      44.486  27.443  34.175  1.00  0.00     0.057 A 
ATOM     44  C   UNL A   1      44.389  26.193  34.800  1.00  0.00     0.134 A 
ATOM     45  C   UNL A   1      45.717  28.107  34.247  1.00  0.00     0.134 A 
ATOM     46  F   UNL A   1      43.228  25.521  34.800  1.00  0.00    -0.206 F 
ATOM     47  C   UNL A   1      45.465  25.644  35.502  1.00  0.00     0.040 A 
ATOM     48  C   UNL A   1      46.807  27.556  34.924  1.00  0.00     0.040 A 
ATOM     49  F   UNL A   1      45.876  29.312  33.678  1.00  0.00    -0.206 F 
ATOM     50  C   UNL A   1      46.680  26.326  35.563  1.00  0.00     0.006 A 
ENDBRANCH  29  43
BRANCH  30  51
ATOM     51  C   UNL A   1      36.860  31.618  29.094  1.00  0.00     0.057 A 
ATOM     52  C   UNL A   1      36.937  32.955  28.686  1.00  0.00     0.134 A 
ATOM     53  C   UNL A   1      35.688  30.919  28.775  1.00  0.00     0.134 A 
ATOM     54  F   UNL A   1      38.021  33.688  28.978  1.00  0.00    -0.206 F 
ATOM     55  C   UNL A   1      35.888  33.575  28.004  1.00  0.00     0.040 A 
ATOM     56  C   UNL A   1      34.643  31.518  28.069  1.00  0.00     0.040 A 
ATOM     57  F   UNL A   1      35.545  29.636  29.136  1.00  0.00    -0.206 F 
ATOM     58  C   UNL A   1      34.738  32.854  27.687  1.00  0.00     0.006 A 
ENDBRANCH  30  51
BRANCH  42  59
ATOM     59  C   UNL A   1      39.053  31.956  35.696  1.00  0.00     0.057 A 
ATOM     60  C   UNL A   1      39.412  33.290  35.913  1.00  0.00     0.134 A 
ATOM     61  C   UNL A   1      38.164  31.362  36.600  1.00  0.00     0.134 A 
ATOM     62  F   UNL A   1      40.270  33.907  35.085  1.00  0.00    -0.206 F 
ATOM     63  C   UNL A   1      38.922  34.004  37.005  1.00  0.00     0.040 A 
ATOM     64  C   UNL A   1      37.648  32.074  37.682  1.00  0.00     0.040 A 
ATOM     65  F   UNL A   1      37.776  30.088  36.439  1.00  0.00    -0.206 F 
ATOM     66  C   UNL A   1      38.031  33.397  37.890  1.00  0.00     0.006 A 
ENDBRANCH  42  59
ENDBRANCH  16  17
ENDBRANCH   9  11
ENDBRANCH   8   9
ENDBRANCH   7   8
ENDBRANCH   6   7
ENDBRANCH   5   6
ENDBRANCH   4   5
ENDBRANCH   3   4
ENDBRANCH   2   3
ENDBRANCH   1   2
BRANCH   1  67
ATOM     67  C   UNL A   1      40.109  22.003  27.230  1.00  0.00     0.188 C 
BRANCH  67  68
ATOM     68  O   UNL A   1      39.639  22.271  25.916  1.00  0.00    -0.376 OA
BRANCH  68  69
ATOM     69  C   UNL A   1      38.361  21.734  25.593  1.00  0.00     0.202 C 
BRANCH  69  70
ATOM     70  C   UNL A   1      37.236  22.769  25.468  1.00  0.00     0.261 C 
BRANCH  70  71
ATOM     71  O   UNL A   1      35.980  22.402  26.061  1.00  0.00    -0.459 OA
BRANCH  71  72
ATOM     72  C   UNL A   1      35.154  21.543  25.398  1.00  0.00     0.348 C 
ATOM     73  O   UNL A   1      35.470  20.437  25.003  1.00  0.00    -0.245 OA
BRANCH  72  74
ATOM     74  C   UNL A   1      33.831  22.142  25.393  1.00  0.00     0.116 A 
ATOM     75  C   UNL A   1      33.503  23.455  25.668  1.00  0.00     0.074 A 
ATOM     76  S   UNL A   1      32.428  21.186  25.191  1.00  0.00    -0.133 S 
ATOM     77  C   UNL A   1      32.108  23.663  25.828  1.00  0.00     0.131 A 
ATOM     78  C   UNL A   1      31.408  22.488  25.662  1.00  0.00     0.112 A 
BRANCH  77  79
ATOM     79  O   UNL A   1      31.452  24.798  26.187  1.00  0.00    -0.488 OA
BRANCH  79  80
ATOM     80  C   UNL A   1      31.211  25.731  25.125  1.00  0.00     0.266 C 
BRANCH  80  81
ATOM     81  C   UNL A   1      31.546  27.156  25.525  1.00  0.00     0.001 A 
ATOM     82  C   UNL A   1      32.187  27.367  26.763  1.00  0.00     0.008 A 
ATOM     83  C   UNL A   1      31.200  28.276  24.738  1.00  0.00     0.062 A 
ATOM     84  C   UNL A   1      32.372  28.650  27.272  1.00  0.00     0.000 A 
ATOM     85  C   UNL A   1      31.398  29.567  25.273  1.00  0.00     0.013 A 
ATOM     86  C   UNL A   1      31.961  29.751  26.535  1.00  0.00     0.001 A 
BRANCH  83  87
ATOM     87  C   UNL A   1      30.604  28.176  23.349  1.00  0.00     0.416 C 
ATOM     88  F   UNL A   1      30.401  29.390  22.770  1.00  0.00    -0.166 F 
ATOM     89  F   UNL A   1      31.426  27.496  22.494  1.00  0.00    -0.166 F 
ATOM     90  F   UNL A   1      29.417  27.514  23.285  1.00  0.00    -0.166 F 
ENDBRANCH  83  87
ENDBRANCH  80  81
ENDBRANCH  79  80
ENDBRANCH  77  79
ENDBRANCH  72  74
ENDBRANCH  71  72
ENDBRANCH  70  71
ENDBRANCH  69  70
ENDBRANCH  68  69
ENDBRANCH  67  68
ENDBRANCH   1  67
TORSDOF 24
ENDMDL
MODEL 2
REMARK VINA RESULT:      -9.7      1.784      2.863
REMARK SMILES O=C(OCCOCCOCCOCCOC(=O)c1cc(OCc2ccccc2C(F)(F)F)cs1)c1ccc(-c2c3nc(c(-c4c(F)cccc4F)c4ccc([nH]4)c(-c4c(F)cccc4F)c4nc(c(-c5c(F)cccc5F)c5ccc2[nH]5)C=C4)C=C3)cc1
REMARK SMILES IDX 10 1 9 2 8 3 7 4 6 5 5 6 4 7 3 8 2 9 1 10 35 11 36 12 88 13
REMARK SMILES IDX 37 14 87 15 38 16 39 17 40 18 81 19 41 20 86 21 80 22 82 23
REMARK SMILES IDX 42 24 85 25 79 26 78 27 43 29 69 30 52 31 68 32 53 33 56 34
REMARK SMILES IDX 67 35 83 36 54 37 55 38 66 40 84 41 57 42 44 43 45 44 50 45
REMARK SMILES IDX 46 46 47 47 49 48 51 49 48 50 70 51 71 52 76 53 72 54 73 55
REMARK SMILES IDX 75 56 77 57 74 58 58 59 59 60 64 61 60 62 61 63 63 64 65 65
REMARK SMILES IDX 62 66 11 67 12 68 13 69 14 70 15 71 16 72 17 73 18 74 19 75
REMARK SMILES IDX 34 76 20 77 33 78 21 79 22 80 23 81 24 82 28 83 25 84 27 85
REMARK SMILES IDX 26 86 29 87 30 88 31 89 32 90
REMARK H PARENT 82 28 56 39
REMARK Flexibility Score: inf
ROOT
ATOM      1  C   UNL A   1      35.646  22.309  25.453  1.00  0.00     0.188 C 
ENDROOT
BRANCH   1   2
ATOM      2  O   UNL A   1      37.014  22.073  25.767  1.00  0.00    -0.377 OA
BRANCH   2   3
ATOM      3  C   UNL A   1      37.799  23.213  26.118  1.00  0.00     0.188 C 
BRANCH   3   4
ATOM      4  C   UNL A   1      39.311  22.987  26.160  1.00  0.00     0.188 C 
BRANCH   4   5
ATOM      5  O   UNL A   1      39.613  21.742  26.790  1.00  0.00    -0.376 OA
BRANCH   5   6
ATOM      6  C   UNL A   1      40.978  21.337  26.747  1.00  0.00     0.202 C 
BRANCH   6   7
ATOM      7  C   UNL A   1      41.885  22.186  25.851  1.00  0.00     0.261 C 
BRANCH   7   8
ATOM      8  O   UNL A   1      42.518  23.280  26.538  1.00  0.00    -0.460 OA
BRANCH   8   9
ATOM      9  C   UNL A   1      42.524  24.593  26.201  1.00  0.00     0.338 C 
ATOM     10  O   UNL A   1      42.962  24.919  25.099  1.00  0.00    -0.246 OA
BRANCH   9  11
ATOM     11  C   UNL A   1      41.990  25.673  27.083  1.00  0.00     0.060 A 
ATOM     12  C   UNL A   1      42.406  27.002  27.053  1.00  0.00     0.016 A 
ATOM     13  C   UNL A   1      40.945  25.334  27.958  1.00  0.00     0.016 A 
ATOM     14  C   UNL A   1      41.927  27.936  27.959  1.00  0.00     0.010 A 
ATOM     15  C   UNL A   1      40.408  26.283  28.835  1.00  0.00     0.010 A 
ATOM     16  C   UNL A   1      40.949  27.574  28.881  1.00  0.00    -0.014 A 
BRANCH  16  17
ATOM     17  C   UNL A   1      40.692  28.490  30.011  1.00  0.00     0.031 A 
ATOM     18  C   UNL A   1      41.668  28.469  31.154  1.00  0.00     0.074 A 
ATOM     19  C   UNL A   1      39.724  29.419  29.938  1.00  0.00     0.049 A 
ATOM     20  N   UNL A   1      41.642  29.123  32.283  1.00  0.00    -0.248 NA
ATOM     21  C   UNL A   1      42.840  27.590  30.998  1.00  0.00     0.031 C 
ATOM     22  C   UNL A   1      38.818  29.610  28.804  1.00  0.00     0.029 A 
ATOM     23  N   UNL A   1      39.369  30.408  30.817  1.00  0.00    -0.354 N 
ATOM     24  C   UNL A   1      42.756  28.688  32.991  1.00  0.00     0.074 A 
ATOM     25  C   UNL A   1      43.439  27.718  32.170  1.00  0.00     0.031 C 
ATOM     26  C   UNL A   1      38.042  30.681  29.038  1.00  0.00     0.029 A 
ATOM     27  C   UNL A   1      38.344  31.203  30.367  1.00  0.00     0.049 A 
ATOM     28  H   UNL A   1      39.809  30.537  31.689  1.00  0.00     0.167 HD
ATOM     29  C   UNL A   1      43.165  29.067  34.223  1.00  0.00     0.037 A 
ATOM     30  C   UNL A   1      37.709  32.219  30.981  1.00  0.00     0.037 A 
ATOM     31  C   UNL A   1      42.490  30.066  35.001  1.00  0.00     0.049 A 
ATOM     32  C   UNL A   1      38.145  32.584  32.374  1.00  0.00     0.074 A 
ATOM     33  C   UNL A   1      42.758  30.497  36.286  1.00  0.00     0.029 A 
ATOM     34  N   UNL A   1      41.407  30.806  34.543  1.00  0.00    -0.354 N 
ATOM     35  N   UNL A   1      39.136  32.095  33.085  1.00  0.00    -0.248 NA
ATOM     36  C   UNL A   1      37.368  33.623  33.060  1.00  0.00     0.031 C 
ATOM     37  C   UNL A   1      41.817  31.479  36.616  1.00  0.00     0.029 A 
ATOM     38  C   UNL A   1      40.991  31.689  35.520  1.00  0.00     0.049 A 
ATOM     39  H   UNL A   1      40.998  30.714  33.652  1.00  0.00     0.167 HD
ATOM     40  C   UNL A   1      39.111  32.777  34.294  1.00  0.00     0.074 A 
ATOM     41  C   UNL A   1      38.019  33.728  34.210  1.00  0.00     0.031 C 
ATOM     42  C   UNL A   1      39.908  32.630  35.381  1.00  0.00     0.037 A 
BRANCH  29  43
ATOM     43  C   UNL A   1      44.339  28.333  34.803  1.00  0.00     0.057 A 
ATOM     44  C   UNL A   1      44.197  27.154  35.546  1.00  0.00     0.134 A 
ATOM     45  C   UNL A   1      45.630  28.859  34.667  1.00  0.00     0.134 A 
ATOM     46  F   UNL A   1      42.984  26.618  35.746  1.00  0.00    -0.206 F 
ATOM     47  C   UNL A   1      45.293  26.544  36.161  1.00  0.00     0.040 A 
ATOM     48  C   UNL A   1      46.737  28.244  35.256  1.00  0.00     0.040 A 
ATOM     49  F   UNL A   1      45.835  29.991  33.976  1.00  0.00    -0.206 F 
ATOM     50  C   UNL A   1      46.568  27.088  36.015  1.00  0.00     0.006 A 
ENDBRANCH  29  43
BRANCH  30  51
ATOM     51  C   UNL A   1      36.584  32.925  30.312  1.00  0.00     0.057 A 
ATOM     52  C   UNL A   1      36.810  33.862  29.297  1.00  0.00     0.134 A 
ATOM     53  C   UNL A   1      35.252  32.692  30.680  1.00  0.00     0.134 A 
ATOM     54  F   UNL A   1      38.061  34.150  28.910  1.00  0.00    -0.206 F 
ATOM     55  C   UNL A   1      35.759  34.547  28.684  1.00  0.00     0.040 A 
ATOM     56  C   UNL A   1      34.190  33.349  30.057  1.00  0.00     0.040 A 
ATOM     57  F   UNL A   1      34.961  31.809  31.648  1.00  0.00    -0.206 F 
ATOM     58  C   UNL A   1      34.442  34.287  29.059  1.00  0.00     0.006 A 
ENDBRANCH  30  51
BRANCH  42  59
ATOM     59  C   UNL A   1      39.648  33.547  36.536  1.00  0.00     0.057 A 
ATOM     60  C   UNL A   1      40.174  34.843  36.582  1.00  0.00     0.134 A 
ATOM     61  C   UNL A   1      38.824  33.138  37.591  1.00  0.00     0.134 A 
ATOM     62  F   UNL A   1      40.980  35.285  35.604  1.00  0.00    -0.206 F 
ATOM     63  C   UNL A   1      39.907  35.695  37.653  1.00  0.00     0.040 A 
ATOM     64  C   UNL A   1      38.530  33.989  38.654  1.00  0.00     0.040 A 
ATOM     65  F   UNL A   1      38.282  31.910  37.597  1.00  0.00    -0.206 F 
ATOM     66  C   UNL A   1      39.077  35.271  38.690  1.00  0.00     0.006 A 
ENDBRANCH  42  59
ENDBRANCH  16  17
ENDBRANCH   9  11
ENDBRANCH   8   9
ENDBRANCH   7   8
ENDBRANCH   6   7
ENDBRANCH   5   6
ENDBRANCH   4   5
ENDBRANCH   3   4
ENDBRANCH   2   3
ENDBRANCH   1   2
BRANCH   1  67
ATOM     67  C   UNL A   1      34.568  21.757  26.411  1.00  0.00     0.188 C 
BRANCH  67  68
ATOM     68  O   UNL A   1      33.727  22.746  26.990  1.00  0.00    -0.376 OA
BRANCH  68  69
ATOM     69  C   UNL A   1      32.330  22.566  26.789  1.00  0.00     0.202 C 
BRANCH  69  70
ATOM     70  C   UNL A   1      31.946  21.909  25.457  1.00  0.00     0.261 C 
BRANCH  70  71
ATOM     71  O   UNL A   1      31.552  22.808  24.407  1.00  0.00    -0.459 OA
BRANCH  71  72
ATOM     72  C   UNL A   1      32.218  22.778  23.217  1.00  0.00     0.348 C 
ATOM     73  O   UNL A   1      32.187  21.856  22.425  1.00  0.00    -0.245 OA
BRANCH  72  74
ATOM     74  C   UNL A   1      32.825  24.084  23.034  1.00  0.00     0.116 A 
ATOM     75  C   UNL A   1      33.393  24.888  24.003  1.00  0.00     0.074 A 
ATOM     76  S   UNL A   1      32.753  24.891  21.529  1.00  0.00    -0.133 S 
ATOM     77  C   UNL A   1      33.667  26.205  23.549  1.00  0.00     0.131 A 
ATOM     78  C   UNL A   1      33.300  26.362  22.231  1.00  0.00     0.112 A 
BRANCH  77  79
ATOM     79  O   UNL A   1      34.137  27.267  24.253  1.00  0.00    -0.488 OA
BRANCH  79  80
ATOM     80  C   UNL A   1      33.757  27.306  25.636  1.00  0.00     0.266 C 
BRANCH  80  81
ATOM     81  C   UNL A   1      33.648  28.725  26.162  1.00  0.00     0.001 A 
ATOM     82  C   UNL A   1      34.642  29.185  27.050  1.00  0.00     0.008 A 
ATOM     83  C   UNL A   1      32.573  29.582  25.842  1.00  0.00     0.062 A 
ATOM     84  C   UNL A   1      34.519  30.409  27.703  1.00  0.00     0.000 A 
ATOM     85  C   UNL A   1      32.469  30.818  26.515  1.00  0.00     0.013 A 
ATOM     86  C   UNL A   1      33.422  31.219  27.450  1.00  0.00     0.001 A 
BRANCH  83  87
ATOM     87  C   UNL A   1      31.502  29.244  24.826  1.00  0.00     0.416 C 
ATOM     88  F   UNL A   1      30.865  28.074  25.095  1.00  0.00    -0.166 F 
ATOM     89  F   UNL A   1      30.520  30.195  24.790  1.00  0.00    -0.166 F 
ATOM     90  F   UNL A   1      31.944  29.157  23.541  1.00  0.00    -0.166 F 
ENDBRANCH  83  87
ENDBRANCH  80  81
ENDBRANCH  79  80
ENDBRANCH  77  79
ENDBRANCH  72  74
ENDBRANCH  71  72
ENDBRANCH  70  71
ENDBRANCH  69  70
ENDBRANCH  68  69
ENDBRANCH  67  68
ENDBRANCH   1  67
TORSDOF 24
ENDMDL
MODEL 3
REMARK VINA RESULT:      -9.6      4.366      7.060
REMARK SMILES O=C(OCCOCCOCCOCCOC(=O)c1cc(OCc2ccccc2C(F)(F)F)cs1)c1ccc(-c2c3nc(c(-c4c(F)cccc4F)c4ccc([nH]4)c(-c4c(F)cccc4F)c4nc(c(-c5c(F)cccc5F)c5ccc2[nH]5)C=C4)C=C3)cc1
REMARK SMILES IDX 10 1 9 2 8 3 7 4 6 5 5 6 4 7 3 8 2 9 1 10 35 11 36 12 88 13
REMARK SMILES IDX 37 14 87 15 38 16 39 17 40 18 81 19 41 20 86 21 80 22 82 23
REMARK SMILES IDX 42 24 85 25 79 26 78 27 43 29 69 30 52 31 68 32 53 33 56 34
REMARK SMILES IDX 67 35 83 36 54 37 55 38 66 40 84 41 57 42 44 43 45 44 50 45
REMARK SMILES IDX 46 46 47 47 49 48 51 49 48 50 70 51 71 52 76 53 72 54 73 55
REMARK SMILES IDX 75 56 77 57 74 58 58 59 59 60 64 61 60 62 61 63 63 64 65 65
REMARK SMILES IDX 62 66 11 67 12 68 13 69 14 70 15 71 16 72 17 73 18 74 19 75
REMARK SMILES IDX 34 76 20 77 33 78 21 79 22 80 23 81 24 82 28 83 25 84 27 85
REMARK SMILES IDX 26 86 29 87 30 88 31 89 32 90
REMARK H PARENT 82 28 56 39
REMARK Flexibility Score: inf
ROOT
ATOM      1  C   UNL A   1      37.812  21.673  25.709  1.00  0.00     0.188 C 
ENDROOT
BRANCH   1   2
ATOM      2  O   UNL A   1      38.937  20.816  25.540  1.00  0.00    -0.377 OA
BRANCH   2   3
ATOM      3  C   UNL A   1      40.166  21.247  26.125  1.00  0.00     0.188 C 
BRANCH   3   4
ATOM      4  C   UNL A   1      41.001  20.153  26.789  1.00  0.00     0.188 C 
BRANCH   4   5
ATOM      5  O   UNL A   1      41.679  19.373  25.804  1.00  0.00    -0.376 OA
BRANCH   5   6
ATOM      6  C   UNL A   1      42.297  18.179  26.271  1.00  0.00     0.202 C 
BRANCH   6   7
ATOM      7  C   UNL A   1      43.798  18.063  25.988  1.00  0.00     0.261 C 
BRANCH   7   8
ATOM      8  O   UNL A   1      44.156  18.364  24.628  1.00  0.00    -0.460 OA
BRANCH   8   9
ATOM      9  C   UNL A   1      44.902  19.397  24.166  1.00  0.00     0.338 C 
ATOM     10  O   UNL A   1      45.753  19.175  23.306  1.00  0.00    -0.246 OA
BRANCH   9  11
ATOM     11  C   UNL A   1      44.724  20.809  24.617  1.00  0.00     0.060 A 
ATOM     12  C   UNL A   1      44.584  21.904  23.768  1.00  0.00     0.016 A 
ATOM     13  C   UNL A   1      44.620  21.037  25.999  1.00  0.00     0.016 A 
ATOM     14  C   UNL A   1      44.505  23.200  24.255  1.00  0.00     0.010 A 
ATOM     15  C   UNL A   1      44.477  22.334  26.504  1.00  0.00     0.010 A 
ATOM     16  C   UNL A   1      44.487  23.427  25.628  1.00  0.00    -0.014 A 
BRANCH  16  17
ATOM     17  C   UNL A   1      44.713  24.807  26.102  1.00  0.00     0.031 A 
ATOM     18  C   UNL A   1      46.061  25.418  25.841  1.00  0.00     0.074 A 
ATOM     19  C   UNL A   1      43.700  25.542  26.593  1.00  0.00     0.049 A 
ATOM     20  N   UNL A   1      46.535  26.579  26.202  1.00  0.00    -0.248 NA
ATOM     21  C   UNL A   1      47.007  24.603  25.057  1.00  0.00     0.031 C 
ATOM     22  C   UNL A   1      42.319  25.080  26.751  1.00  0.00     0.029 A 
ATOM     23  N   UNL A   1      43.664  26.847  27.009  1.00  0.00    -0.354 N 
ATOM     24  C   UNL A   1      47.846  26.606  25.743  1.00  0.00     0.074 A 
ATOM     25  C   UNL A   1      48.098  25.351  25.077  1.00  0.00     0.031 C 
ATOM     26  C   UNL A   1      41.563  26.101  27.186  1.00  0.00     0.029 A 
ATOM     27  C   UNL A   1      42.418  27.262  27.409  1.00  0.00     0.049 A 
ATOM     28  H   UNL A   1      44.456  27.431  27.018  1.00  0.00     0.167 HD
ATOM     29  C   UNL A   1      48.759  27.595  25.874  1.00  0.00     0.037 A 
ATOM     30  C   UNL A   1      42.028  28.444  27.923  1.00  0.00     0.037 A 
ATOM     31  C   UNL A   1      48.469  28.852  26.504  1.00  0.00     0.049 A 
ATOM     32  C   UNL A   1      43.074  29.510  28.112  1.00  0.00     0.074 A 
ATOM     33  C   UNL A   1      49.315  29.913  26.762  1.00  0.00     0.029 A 
ATOM     34  N   UNL A   1      47.209  29.217  26.965  1.00  0.00    -0.354 N 
ATOM     35  N   UNL A   1      44.343  29.492  27.773  1.00  0.00    -0.248 NA
ATOM     36  C   UNL A   1      42.644  30.749  28.771  1.00  0.00     0.031 C 
ATOM     37  C   UNL A   1      48.572  30.910  27.405  1.00  0.00     0.029 A 
ATOM     38  C   UNL A   1      47.255  30.485  27.509  1.00  0.00     0.049 A 
ATOM     39  H   UNL A   1      46.403  28.653  26.910  1.00  0.00     0.167 HD
ATOM     40  C   UNL A   1      44.859  30.720  28.163  1.00  0.00     0.074 A 
ATOM     41  C   UNL A   1      43.760  31.466  28.744  1.00  0.00     0.031 C 
ATOM     42  C   UNL A   1      46.127  31.192  28.060  1.00  0.00     0.037 A 
BRANCH  29  43
ATOM     43  C   UNL A   1      50.150  27.302  25.394  1.00  0.00     0.057 A 
ATOM     44  C   UNL A   1      50.523  27.425  24.049  1.00  0.00     0.134 A 
ATOM     45  C   UNL A   1      51.113  26.823  26.290  1.00  0.00     0.134 A 
ATOM     46  F   UNL A   1      49.638  27.842  23.133  1.00  0.00    -0.206 F 
ATOM     47  C   UNL A   1      51.795  27.051  23.609  1.00  0.00     0.040 A 
ATOM     48  C   UNL A   1      52.396  26.469  25.866  1.00  0.00     0.040 A 
ATOM     49  F   UNL A   1      50.819  26.672  27.591  1.00  0.00    -0.206 F 
ATOM     50  C   UNL A   1      52.737  26.573  24.520  1.00  0.00     0.006 A 
ENDBRANCH  29  43
BRANCH  30  51
ATOM     51  C   UNL A   1      40.615  28.666  28.329  1.00  0.00     0.057 A 
ATOM     52  C   UNL A   1      39.650  29.096  27.410  1.00  0.00     0.134 A 
ATOM     53  C   UNL A   1      40.193  28.467  29.651  1.00  0.00     0.134 A 
ATOM     54  F   UNL A   1      39.990  29.327  26.133  1.00  0.00    -0.206 F 
ATOM     55  C   UNL A   1      38.327  29.332  27.791  1.00  0.00     0.040 A 
ATOM     56  C   UNL A   1      38.868  28.671  30.039  1.00  0.00     0.040 A 
ATOM     57  F   UNL A   1      41.064  28.058  30.585  1.00  0.00    -0.206 F 
ATOM     58  C   UNL A   1      37.931  29.113  29.109  1.00  0.00     0.006 A 
ENDBRANCH  30  51
BRANCH  42  59
ATOM     59  C   UNL A   1      46.367  32.587  28.549  1.00  0.00     0.057 A 
ATOM     60  C   UNL A   1      46.674  32.858  29.887  1.00  0.00     0.134 A 
ATOM     61  C   UNL A   1      46.331  33.665  27.656  1.00  0.00     0.134 A 
ATOM     62  F   UNL A   1      46.710  31.866  30.790  1.00  0.00    -0.206 F 
ATOM     63  C   UNL A   1      46.916  34.159  30.326  1.00  0.00     0.040 A 
ATOM     64  C   UNL A   1      46.595  34.966  28.078  1.00  0.00     0.040 A 
ATOM     65  F   UNL A   1      46.052  33.466  26.358  1.00  0.00    -0.206 F 
ATOM     66  C   UNL A   1      46.883  35.216  29.418  1.00  0.00     0.006 A 
ENDBRANCH  42  59
ENDBRANCH  16  17
ENDBRANCH   9  11
ENDBRANCH   8   9
ENDBRANCH   7   8
ENDBRANCH   6   7
ENDBRANCH   5   6
ENDBRANCH   4   5
ENDBRANCH   3   4
ENDBRANCH   2   3
ENDBRANCH   1   2
BRANCH   1  67
ATOM     67  C   UNL A   1      36.513  21.337  24.944  1.00  0.00     0.188 C 
BRANCH  67  68
ATOM     68  O   UNL A   1      35.403  21.020  25.773  1.00  0.00    -0.376 OA
BRANCH  68  69
ATOM     69  C   UNL A   1      34.238  20.559  25.098  1.00  0.00     0.202 C 
BRANCH  69  70
ATOM     70  C   UNL A   1      33.313  21.665  24.572  1.00  0.00     0.261 C 
BRANCH  70  71
ATOM     71  O   UNL A   1      32.347  22.169  25.508  1.00  0.00    -0.459 OA
BRANCH  71  72
ATOM     72  C   UNL A   1      32.766  22.950  26.545  1.00  0.00     0.348 C 
ATOM     73  O   UNL A   1      32.976  22.553  27.675  1.00  0.00    -0.245 OA
BRANCH  72  74
ATOM     74  C   UNL A   1      33.039  24.269  26.003  1.00  0.00     0.116 A 
ATOM     75  C   UNL A   1      32.123  25.253  25.686  1.00  0.00     0.074 A 
ATOM     76  S   UNL A   1      34.615  24.716  25.514  1.00  0.00    -0.133 S 
ATOM     77  C   UNL A   1      32.684  26.324  24.943  1.00  0.00     0.131 A 
ATOM     78  C   UNL A   1      34.027  26.122  24.718  1.00  0.00     0.112 A 
BRANCH  77  79
ATOM     79  O   UNL A   1      32.059  27.400  24.398  1.00  0.00    -0.488 OA
BRANCH  79  80
ATOM     80  C   UNL A   1      31.536  27.205  23.076  1.00  0.00     0.266 C 
BRANCH  80  81
ATOM     81  C   UNL A   1      30.330  28.082  22.800  1.00  0.00     0.001 A 
ATOM     82  C   UNL A   1      30.524  29.275  22.075  1.00  0.00     0.008 A 
ATOM     83  C   UNL A   1      29.036  27.781  23.280  1.00  0.00     0.062 A 
ATOM     84  C   UNL A   1      29.501  30.210  21.930  1.00  0.00     0.000 A 
ATOM     85  C   UNL A   1      28.015  28.742  23.122  1.00  0.00     0.013 A 
ATOM     86  C   UNL A   1      28.250  29.952  22.470  1.00  0.00     0.001 A 
BRANCH  83  87
ATOM     87  C   UNL A   1      28.679  26.487  23.980  1.00  0.00     0.416 C 
ATOM     88  F   UNL A   1      29.075  25.383  23.291  1.00  0.00    -0.166 F 
ATOM     89  F   UNL A   1      29.282  26.389  25.204  1.00  0.00    -0.166 F 
ATOM     90  F   UNL A   1      27.352  26.325  24.237  1.00  0.00    -0.166 F 
ENDBRANCH  83  87
ENDBRANCH  80  81
ENDBRANCH  79  80
ENDBRANCH  77  79
ENDBRANCH  72  74
ENDBRANCH  71  72
ENDBRANCH  70  71
ENDBRANCH  69  70
ENDBRANCH  68  69
ENDBRANCH  67  68
ENDBRANCH   1  67
TORSDOF 24
ENDMDL
