MODEL 1
REMARK VINA RESULT:      -9.4      0.000      0.000
REMARK SMILES CCCCc1ncc(C[N@H+]2C[C@@H]3c4ccccc4OC[C@]3(C(=O)OCCOCCOCCOCCOC(=O)c3ccc(-c4c5nc(c(-c6c(F)cccc6F)c6ccc([nH]6)c(-c6c(F)cccc6F)c6nc(c(-c7c(F)cccc7F)c7ccc4[nH]7)C=C6)C=C5)cc3)C2)[nH]1
REMARK SMILES IDX 28 1 27 2 26 3 25 4 24 5 22 6 23 7 21 8 10 9 11 10 93 11
REMARK SMILES IDX 12 13 13 14 20 15 14 16 18 17 19 18 15 19 17 20 16 21 9 22
REMARK SMILES IDX 8 23 5 24 6 25 94 26 7 27 4 29 3 30 2 31 1 32 29 33 30 34
REMARK SMILES IDX 31 35 32 36 33 37 34 38 35 39 36 40 37 41 38 42 39 43 40 44
REMARK SMILES IDX 92 45 41 46 91 47 42 48 43 49 44 50 85 51 45 52 90 53 84 54
REMARK SMILES IDX 86 55 46 56 89 57 83 58 82 59 47 61 73 62 56 63 72 64 57 65
REMARK SMILES IDX 60 66 71 67 87 68 58 69 59 70 70 72 88 73 61 74 48 75 49 76
REMARK SMILES IDX 54 77 50 78 51 79 53 80 55 81 52 82 74 83 75 84 80 85 76 86
REMARK SMILES IDX 77 87 79 88 81 89 78 90 62 91 63 92 68 93 64 94 65 95 67 96
REMARK SMILES IDX 69 97 66 98
REMARK H PARENT 10 12 94 28 86 60 60 71
REMARK Flexibility Score: inf
ROOT
ATOM      1  C   UNL A   1      35.489  30.865  27.714  1.00  0.00     0.188 C 
ENDROOT
BRANCH   1   2
ATOM      2  O   UNL A   1      34.300  30.078  27.806  1.00  0.00    -0.376 OA
BRANCH   2   3
ATOM      3  C   UNL A   1      34.113  29.145  26.743  1.00  0.00     0.202 C 
BRANCH   3   4
ATOM      4  C   UNL A   1      32.925  28.180  26.938  1.00  0.00     0.261 C 
BRANCH   4   5
ATOM      5  O   UNL A   1      33.284  26.857  26.497  1.00  0.00    -0.463 OA
BRANCH   5   6
ATOM      6  C   UNL A   1      32.427  25.794  26.321  1.00  0.00     0.322 C 
ATOM      7  O   UNL A   1      31.345  25.721  26.866  1.00  0.00    -0.251 OA
BRANCH   6   8
ATOM      8  C   UNL A   1      33.172  24.755  25.434  1.00  0.00     0.162 C 
ATOM      9  N   UNL A   1      32.987  25.396  23.071  1.00  0.00    -0.328 N 
ATOM     10  C   UNL A   1      34.270  24.742  23.184  1.00  0.00     0.272 C 
ATOM     11  C   UNL A   1      32.226  24.814  24.198  1.00  0.00     0.286 C 
ATOM     12  H   UNL A   1      32.472  25.223  22.208  1.00  0.00     0.348 HD
ATOM     13  C   UNL A   1      34.569  24.687  24.701  1.00  0.00     0.105 C 
ATOM     14  C   UNL A   1      35.331  23.355  24.853  1.00  0.00     0.004 A 
ATOM     15  C   UNL A   1      33.335  23.649  26.499  1.00  0.00     0.255 C 
ATOM     16  C   UNL A   1      36.609  23.166  24.319  1.00  0.00     0.008 A 
ATOM     17  C   UNL A   1      34.692  22.241  25.416  1.00  0.00     0.123 A 
ATOM     18  O   UNL A   1      33.444  22.352  25.949  1.00  0.00    -0.492 OA
ATOM     19  C   UNL A   1      37.208  21.898  24.353  1.00  0.00     0.001 A 
ATOM     20  C   UNL A   1      35.279  20.982  25.461  1.00  0.00     0.047 A 
ATOM     21  C   UNL A   1      36.548  20.811  24.929  1.00  0.00     0.004 A 
BRANCH   9  22
ATOM     22  C   UNL A   1      33.069  26.856  22.894  1.00  0.00     0.319 C 
BRANCH  22  23
ATOM     23  C   UNL A   1      31.789  27.634  22.903  1.00  0.00     0.090 A 
ATOM     24  C   UNL A   1      30.333  29.265  23.355  1.00  0.00     0.106 A 
ATOM     25  N   UNL A   1      29.741  28.509  22.454  1.00  0.00    -0.241 NA
ATOM     26  N   UNL A   1      31.534  28.707  23.723  1.00  0.00    -0.341 N 
ATOM     27  C   UNL A   1      30.614  27.485  22.192  1.00  0.00     0.140 A 
ATOM     28  H   UNL A   1      32.115  29.024  24.451  1.00  0.00     0.168 HD
BRANCH  24  29
ATOM     29  C   UNL A   1      29.790  30.524  23.949  1.00  0.00     0.075 C 
BRANCH  29  30
ATOM     30  C   UNL A   1      28.476  31.043  23.354  1.00  0.00     0.008 C 
BRANCH  30  31
ATOM     31  C   UNL A   1      28.585  32.225  22.387  1.00  0.00    -0.003 C 
ATOM     32  C   UNL A   1      28.944  33.535  23.063  1.00  0.00     0.004 C 
ENDBRANCH  30  31
ENDBRANCH  29  30
ENDBRANCH  24  29
ENDBRANCH  22  23
ENDBRANCH   9  22
ENDBRANCH   6   8
ENDBRANCH   5   6
ENDBRANCH   4   5
ENDBRANCH   3   4
ENDBRANCH   2   3
ENDBRANCH   1   2
BRANCH   1  33
ATOM     33  C   UNL A   1      35.199  32.353  27.958  1.00  0.00     0.188 C 
BRANCH  33  34
ATOM     34  O   UNL A   1      33.979  32.880  27.470  1.00  0.00    -0.377 OA
BRANCH  34  35
ATOM     35  C   UNL A   1      33.406  33.970  28.166  1.00  0.00     0.188 C 
BRANCH  35  36
ATOM     36  C   UNL A   1      34.162  34.570  29.366  1.00  0.00     0.188 C 
BRANCH  36  37
ATOM     37  O   UNL A   1      33.432  34.560  30.586  1.00  0.00    -0.376 OA
BRANCH  37  38
ATOM     38  C   UNL A   1      34.153  34.463  31.804  1.00  0.00     0.202 C 
BRANCH  38  39
ATOM     39  C   UNL A   1      35.671  34.293  31.694  1.00  0.00     0.261 C 
BRANCH  39  40
ATOM     40  O   UNL A   1      36.231  33.204  32.436  1.00  0.00    -0.460 OA
BRANCH  40  41
ATOM     41  C   UNL A   1      37.166  32.433  31.837  1.00  0.00     0.338 C 
ATOM     42  O   UNL A   1      37.299  32.217  30.646  1.00  0.00    -0.246 OA
BRANCH  41  43
ATOM     43  C   UNL A   1      38.143  32.074  32.887  1.00  0.00     0.060 A 
ATOM     44  C   UNL A   1      37.703  31.494  34.079  1.00  0.00     0.016 A 
ATOM     45  C   UNL A   1      39.489  32.429  32.720  1.00  0.00     0.016 A 
ATOM     46  C   UNL A   1      38.618  31.235  35.096  1.00  0.00     0.010 A 
ATOM     47  C   UNL A   1      40.405  32.182  33.746  1.00  0.00     0.010 A 
ATOM     48  C   UNL A   1      39.978  31.551  34.923  1.00  0.00    -0.014 A 
BRANCH  48  49
ATOM     49  C   UNL A   1      40.962  30.969  35.861  1.00  0.00     0.031 A 
ATOM     50  C   UNL A   1      41.585  29.627  35.661  1.00  0.00     0.074 A 
ATOM     51  C   UNL A   1      41.296  31.729  36.922  1.00  0.00     0.049 A 
ATOM     52  N   UNL A   1      42.580  29.084  36.316  1.00  0.00    -0.248 NA
ATOM     53  C   UNL A   1      41.013  28.777  34.610  1.00  0.00     0.031 C 
ATOM     54  C   UNL A   1      40.702  33.032  37.236  1.00  0.00     0.029 A 
ATOM     55  N   UNL A   1      42.218  31.531  37.912  1.00  0.00    -0.354 N 
ATOM     56  C   UNL A   1      42.778  27.837  35.742  1.00  0.00     0.074 A 
ATOM     57  C   UNL A   1      41.759  27.683  34.720  1.00  0.00     0.031 C 
ATOM     58  C   UNL A   1      41.302  33.534  38.323  1.00  0.00     0.029 A 
ATOM     59  C   UNL A   1      42.308  32.586  38.785  1.00  0.00     0.049 A 
ATOM     60  H   UNL A   1      42.762  30.715  37.991  1.00  0.00     0.167 HD
ATOM     61  C   UNL A   1      43.732  26.918  36.036  1.00  0.00     0.037 A 
ATOM     62  C   UNL A   1      43.128  32.779  39.831  1.00  0.00     0.037 A 
ATOM     63  C   UNL A   1      44.715  27.075  37.084  1.00  0.00     0.049 A 
ATOM     64  C   UNL A   1      44.166  31.742  40.138  1.00  0.00     0.074 A 
ATOM     65  C   UNL A   1      45.753  26.227  37.431  1.00  0.00     0.029 A 
ATOM     66  N   UNL A   1      44.765  28.143  37.969  1.00  0.00    -0.354 N 
ATOM     67  N   UNL A   1      44.421  30.617  39.516  1.00  0.00    -0.248 NA
ATOM     68  C   UNL A   1      45.042  32.014  41.283  1.00  0.00     0.031 C 
ATOM     69  C   UNL A   1      46.397  26.755  38.558  1.00  0.00     0.029 A 
ATOM     70  C   UNL A   1      45.795  27.962  38.881  1.00  0.00     0.049 A 
ATOM     71  H   UNL A   1      44.158  28.918  37.953  1.00  0.00     0.167 HD
ATOM     72  C   UNL A   1      45.503  30.056  40.180  1.00  0.00     0.074 A 
ATOM     73  C   UNL A   1      45.869  30.981  41.234  1.00  0.00     0.031 C 
ATOM     74  C   UNL A   1      46.137  28.881  39.939  1.00  0.00     0.037 A 
BRANCH  61  75
ATOM     75  C   UNL A   1      43.755  25.659  35.216  1.00  0.00     0.057 A 
ATOM     76  C   UNL A   1      44.554  25.558  34.070  1.00  0.00     0.134 A 
ATOM     77  C   UNL A   1      42.955  24.554  35.541  1.00  0.00     0.134 A 
ATOM     78  F   UNL A   1      45.336  26.580  33.692  1.00  0.00    -0.206 F 
ATOM     79  C   UNL A   1      44.561  24.404  33.282  1.00  0.00     0.040 A 
ATOM     80  C   UNL A   1      42.972  23.386  34.774  1.00  0.00     0.040 A 
ATOM     81  F   UNL A   1      42.166  24.581  36.625  1.00  0.00    -0.206 F 
ATOM     82  C   UNL A   1      43.775  23.311  33.639  1.00  0.00     0.006 A 
ENDBRANCH  61  75
BRANCH  62  83
ATOM     83  C   UNL A   1      43.028  34.026  40.624  1.00  0.00     0.057 A 
ATOM     84  C   UNL A   1      43.773  35.163  40.291  1.00  0.00     0.134 A 
ATOM     85  C   UNL A   1      42.187  34.107  41.740  1.00  0.00     0.134 A 
ATOM     86  F   UNL A   1      44.611  35.140  39.243  1.00  0.00    -0.206 F 
ATOM     87  C   UNL A   1      43.686  36.337  41.037  1.00  0.00     0.040 A 
ATOM     88  C   UNL A   1      42.070  35.283  42.480  1.00  0.00     0.040 A 
ATOM     89  F   UNL A   1      41.445  33.051  42.103  1.00  0.00    -0.206 F 
ATOM     90  C   UNL A   1      42.823  36.402  42.129  1.00  0.00     0.006 A 
ENDBRANCH  62  83
BRANCH  74  91
ATOM     91  C   UNL A   1      47.301  28.554  40.830  1.00  0.00     0.057 A 
ATOM     92  C   UNL A   1      47.107  27.871  42.036  1.00  0.00     0.134 A 
ATOM     93  C   UNL A   1      48.616  28.893  40.484  1.00  0.00     0.134 A 
ATOM     94  F   UNL A   1      45.874  27.522  42.432  1.00  0.00    -0.206 F 
ATOM     95  C   UNL A   1      48.180  27.526  42.861  1.00  0.00     0.040 A 
ATOM     96  C   UNL A   1      49.700  28.525  41.284  1.00  0.00     0.040 A 
ATOM     97  F   UNL A   1      48.874  29.531  39.332  1.00  0.00    -0.206 F 
ATOM     98  C   UNL A   1      49.482  27.842  42.479  1.00  0.00     0.006 A 
ENDBRANCH  74  91
ENDBRANCH  48  49
ENDBRANCH  41  43
ENDBRANCH  40  41
ENDBRANCH  39  40
ENDBRANCH  38  39
ENDBRANCH  37  38
ENDBRANCH  36  37
ENDBRANCH  35  36
ENDBRANCH  34  35
ENDBRANCH  33  34
ENDBRANCH   1  33
TORSDOF 25
ENDMDL
MODEL 2
REMARK VINA RESULT:      -9.4      6.900     11.206
REMARK SMILES CCCCc1ncc(C[N@H+]2C[C@@H]3c4ccccc4OC[C@]3(C(=O)OCCOCCOCCOCCOC(=O)c3ccc(-c4c5nc(c(-c6c(F)cccc6F)c6ccc([nH]6)c(-c6c(F)cccc6F)c6nc(c(-c7c(F)cccc7F)c7ccc4[nH]7)C=C6)C=C5)cc3)C2)[nH]1
REMARK SMILES IDX 28 1 27 2 26 3 25 4 24 5 22 6 23 7 21 8 10 9 11 10 93 11
REMARK SMILES IDX 12 13 13 14 20 15 14 16 18 17 19 18 15 19 17 20 16 21 9 22
REMARK SMILES IDX 8 23 5 24 6 25 94 26 7 27 4 29 3 30 2 31 1 32 29 33 30 34
REMARK SMILES IDX 31 35 32 36 33 37 34 38 35 39 36 40 37 41 38 42 39 43 40 44
REMARK SMILES IDX 92 45 41 46 91 47 42 48 43 49 44 50 85 51 45 52 90 53 84 54
REMARK SMILES IDX 86 55 46 56 89 57 83 58 82 59 47 61 73 62 56 63 72 64 57 65
REMARK SMILES IDX 60 66 71 67 87 68 58 69 59 70 70 72 88 73 61 74 48 75 49 76
REMARK SMILES IDX 54 77 50 78 51 79 53 80 55 81 52 82 74 83 75 84 80 85 76 86
REMARK SMILES IDX 77 87 79 88 81 89 78 90 62 91 63 92 68 93 64 94 65 95 67 96
REMARK SMILES IDX 69 97 66 98
REMARK H PARENT 10 12 94 28 86 60 60 71
REMARK Flexibility Score: inf
ROOT
ATOM      1  C   UNL A   1      40.543  23.010  26.432  1.00  0.00     0.188 C 
ENDROOT
BRANCH   1   2
ATOM      2  O   UNL A   1      39.208  23.285  26.858  1.00  0.00    -0.376 OA
BRANCH   2   3
ATOM      3  C   UNL A   1      38.186  22.749  26.018  1.00  0.00     0.202 C 
BRANCH   3   4
ATOM      4  C   UNL A   1      37.133  23.777  25.553  1.00  0.00     0.261 C 
BRANCH   4   5
ATOM      5  O   UNL A   1      35.868  23.125  25.334  1.00  0.00    -0.463 OA
BRANCH   5   6
ATOM      6  C   UNL A   1      34.879  22.924  26.270  1.00  0.00     0.322 C 
ATOM      7  O   UNL A   1      34.959  23.330  27.412  1.00  0.00    -0.251 OA
BRANCH   6   8
ATOM      8  C   UNL A   1      33.796  22.030  25.600  1.00  0.00     0.162 C 
ATOM      9  N   UNL A   1      32.150  23.442  24.449  1.00  0.00    -0.328 N 
ATOM     10  C   UNL A   1      32.218  22.229  23.667  1.00  0.00     0.272 C 
ATOM     11  C   UNL A   1      32.583  22.988  25.789  1.00  0.00     0.286 C 
ATOM     12  H   UNL A   1      31.227  23.867  24.533  1.00  0.00     0.348 HD
ATOM     13  C   UNL A   1      33.505  21.511  24.138  1.00  0.00     0.105 C 
ATOM     14  C   UNL A   1      33.124  20.020  24.031  1.00  0.00     0.004 A 
ATOM     15  C   UNL A   1      34.134  20.711  26.328  1.00  0.00     0.255 C 
ATOM     16  C   UNL A   1      32.902  19.398  22.798  1.00  0.00     0.008 A 
ATOM     17  C   UNL A   1      32.849  19.280  25.189  1.00  0.00     0.123 A 
ATOM     18  O   UNL A   1      33.037  19.826  26.422  1.00  0.00    -0.492 OA
ATOM     19  C   UNL A   1      32.419  18.082  22.748  1.00  0.00     0.001 A 
ATOM     20  C   UNL A   1      32.377  17.974  25.151  1.00  0.00     0.047 A 
ATOM     21  C   UNL A   1      32.164  17.369  23.921  1.00  0.00     0.004 A 
BRANCH   9  22
ATOM     22  C   UNL A   1      32.784  24.608  23.809  1.00  0.00     0.319 C 
BRANCH  22  23
ATOM     23  C   UNL A   1      31.888  25.659  23.230  1.00  0.00     0.090 A 
ATOM     24  C   UNL A   1      30.579  27.464  23.117  1.00  0.00     0.106 A 
ATOM     25  N   UNL A   1      30.771  27.094  21.868  1.00  0.00    -0.241 NA
ATOM     26  N   UNL A   1      31.160  26.558  23.972  1.00  0.00    -0.341 N 
ATOM     27  C   UNL A   1      31.548  25.967  21.927  1.00  0.00     0.140 A 
ATOM     28  H   UNL A   1      31.069  26.553  24.952  1.00  0.00     0.168 HD
BRANCH  24  29
ATOM     29  C   UNL A   1      29.808  28.659  23.579  1.00  0.00     0.075 C 
BRANCH  29  30
ATOM     30  C   UNL A   1      29.354  29.636  22.488  1.00  0.00     0.008 C 
BRANCH  30  31
ATOM     31  C   UNL A   1      27.891  30.082  22.537  1.00  0.00    -0.003 C 
ATOM     32  C   UNL A   1      27.659  31.322  23.381  1.00  0.00     0.004 C 
ENDBRANCH  30  31
ENDBRANCH  29  30
ENDBRANCH  24  29
ENDBRANCH  22  23
ENDBRANCH   9  22
ENDBRANCH   6   8
ENDBRANCH   5   6
ENDBRANCH   4   5
ENDBRANCH   3   4
ENDBRANCH   2   3
ENDBRANCH   1   2
BRANCH   1  33
ATOM     33  C   UNL A   1      41.337  22.267  27.516  1.00  0.00     0.188 C 
BRANCH  33  34
ATOM     34  O   UNL A   1      40.749  21.119  28.100  1.00  0.00    -0.377 OA
BRANCH  34  35
ATOM     35  C   UNL A   1      41.153  19.853  27.615  1.00  0.00     0.188 C 
BRANCH  35  36
ATOM     36  C   UNL A   1      40.956  19.526  26.123  1.00  0.00     0.188 C 
BRANCH  36  37
ATOM     37  O   UNL A   1      42.010  18.768  25.542  1.00  0.00    -0.376 OA
BRANCH  37  38
ATOM     38  C   UNL A   1      43.160  18.498  26.327  1.00  0.00     0.202 C 
BRANCH  38  39
ATOM     39  C   UNL A   1      44.457  18.198  25.569  1.00  0.00     0.261 C 
BRANCH  39  40
ATOM     40  O   UNL A   1      45.284  19.330  25.278  1.00  0.00    -0.460 OA
BRANCH  40  41
ATOM     41  C   UNL A   1      44.909  20.158  24.278  1.00  0.00     0.338 C 
ATOM     42  O   UNL A   1      44.535  19.851  23.160  1.00  0.00    -0.246 OA
BRANCH  41  43
ATOM     43  C   UNL A   1      44.826  21.510  24.868  1.00  0.00     0.060 A 
ATOM     44  C   UNL A   1      45.016  21.685  26.241  1.00  0.00     0.016 A 
ATOM     45  C   UNL A   1      44.438  22.589  24.059  1.00  0.00     0.016 A 
ATOM     46  C   UNL A   1      44.854  22.948  26.802  1.00  0.00     0.010 A 
ATOM     47  C   UNL A   1      44.261  23.853  24.625  1.00  0.00     0.010 A 
ATOM     48  C   UNL A   1      44.504  24.045  25.993  1.00  0.00    -0.014 A 
BRANCH  48  49
ATOM     49  C   UNL A   1      44.666  25.408  26.542  1.00  0.00     0.031 A 
ATOM     50  C   UNL A   1      43.518  26.239  27.012  1.00  0.00     0.074 A 
ATOM     51  C   UNL A   1      45.927  25.874  26.620  1.00  0.00     0.049 A 
ATOM     52  N   UNL A   1      43.546  27.372  27.667  1.00  0.00    -0.248 NA
ATOM     53  C   UNL A   1      42.169  25.753  26.695  1.00  0.00     0.031 C 
ATOM     54  C   UNL A   1      47.112  25.161  26.136  1.00  0.00     0.029 A 
ATOM     55  N   UNL A   1      46.424  27.034  27.146  1.00  0.00    -0.354 N 
ATOM     56  C   UNL A   1      42.220  27.728  27.869  1.00  0.00     0.074 A 
ATOM     57  C   UNL A   1      41.414  26.713  27.215  1.00  0.00     0.031 C 
ATOM     58  C   UNL A   1      48.204  25.883  26.422  1.00  0.00     0.029 A 
ATOM     59  C   UNL A   1      47.793  27.109  27.094  1.00  0.00     0.049 A 
ATOM     60  H   UNL A   1      45.856  27.744  27.524  1.00  0.00     0.167 HD
ATOM     61  C   UNL A   1      41.730  28.794  28.549  1.00  0.00     0.037 A 
ATOM     62  C   UNL A   1      48.629  28.052  27.559  1.00  0.00     0.037 A 
ATOM     63  C   UNL A   1      42.551  29.814  29.162  1.00  0.00     0.049 A 
ATOM     64  C   UNL A   1      48.058  29.224  28.298  1.00  0.00     0.074 A 
ATOM     65  C   UNL A   1      42.157  30.908  29.914  1.00  0.00     0.029 A 
ATOM     66  N   UNL A   1      43.935  29.877  29.070  1.00  0.00    -0.354 N 
ATOM     67  N   UNL A   1      46.808  29.493  28.585  1.00  0.00    -0.248 NA
ATOM     68  C   UNL A   1      49.020  30.215  28.794  1.00  0.00     0.031 C 
ATOM     69  C   UNL A   1      43.296  31.659  30.231  1.00  0.00     0.029 A 
ATOM     70  C   UNL A   1      44.408  31.005  29.724  1.00  0.00     0.049 A 
ATOM     71  H   UNL A   1      44.500  29.216  28.608  1.00  0.00     0.167 HD
ATOM     72  C   UNL A   1      46.833  30.672  29.317  1.00  0.00     0.074 A 
ATOM     73  C   UNL A   1      48.227  31.048  29.449  1.00  0.00     0.031 C 
ATOM     74  C   UNL A   1      45.797  31.380  29.832  1.00  0.00     0.037 A 
BRANCH  61  75
ATOM     75  C   UNL A   1      40.237  28.915  28.664  1.00  0.00     0.057 A 
ATOM     76  C   UNL A   1      39.462  29.345  27.580  1.00  0.00     0.134 A 
ATOM     77  C   UNL A   1      39.566  28.638  29.864  1.00  0.00     0.134 A 
ATOM     78  F   UNL A   1      40.037  29.640  26.404  1.00  0.00    -0.206 F 
ATOM     79  C   UNL A   1      38.076  29.491  27.683  1.00  0.00     0.040 A 
ATOM     80  C   UNL A   1      38.178  28.756  29.972  1.00  0.00     0.040 A 
ATOM     81  F   UNL A   1      40.246  28.220  30.942  1.00  0.00    -0.206 F 
ATOM     82  C   UNL A   1      37.430  29.187  28.879  1.00  0.00     0.006 A 
ENDBRANCH  61  75
BRANCH  62  83
ATOM     83  C   UNL A   1      50.090  27.893  27.379  1.00  0.00     0.057 A 
ATOM     84  C   UNL A   1      50.730  28.320  26.210  1.00  0.00     0.134 A 
ATOM     85  C   UNL A   1      50.881  27.306  28.373  1.00  0.00     0.134 A 
ATOM     86  F   UNL A   1      50.022  28.874  25.214  1.00  0.00    -0.206 F 
ATOM     87  C   UNL A   1      52.105  28.169  26.034  1.00  0.00     0.040 A 
ATOM     88  C   UNL A   1      52.260  27.172  28.222  1.00  0.00     0.040 A 
ATOM     89  F   UNL A   1      50.323  26.884  29.517  1.00  0.00    -0.206 F 
ATOM     90  C   UNL A   1      52.876  27.603  27.048  1.00  0.00     0.006 A 
ENDBRANCH  62  83
BRANCH  74  91
ATOM     91  C   UNL A   1      46.152  32.622  30.599  1.00  0.00     0.057 A 
ATOM     92  C   UNL A   1      46.420  32.561  31.972  1.00  0.00     0.134 A 
ATOM     93  C   UNL A   1      46.254  33.873  29.976  1.00  0.00     0.134 A 
ATOM     94  F   UNL A   1      46.335  31.397  32.632  1.00  0.00    -0.206 F 
ATOM     95  C   UNL A   1      46.786  33.698  32.695  1.00  0.00     0.040 A 
ATOM     96  C   UNL A   1      46.651  35.010  30.681  1.00  0.00     0.040 A 
ATOM     97  F   UNL A   1      46.029  33.998  28.658  1.00  0.00    -0.206 F 
ATOM     98  C   UNL A   1      46.916  34.924  32.047  1.00  0.00     0.006 A 
ENDBRANCH  74  91
ENDBRANCH  48  49
ENDBRANCH  41  43
ENDBRANCH  40  41
ENDBRANCH  39  40
ENDBRANCH  38  39
ENDBRANCH  37  38
ENDBRANCH  36  37
ENDBRANCH  35  36
ENDBRANCH  34  35
ENDBRANCH  33  34
ENDBRANCH   1  33
TORSDOF 25
ENDMDL
MODEL 3
REMARK VINA RESULT:      -9.2      5.187      9.948
REMARK SMILES CCCCc1ncc(C[N@H+]2C[C@@H]3c4ccccc4OC[C@]3(C(=O)OCCOCCOCCOCCOC(=O)c3ccc(-c4c5nc(c(-c6c(F)cccc6F)c6ccc([nH]6)c(-c6c(F)cccc6F)c6nc(c(-c7c(F)cccc7F)c7ccc4[nH]7)C=C6)C=C5)cc3)C2)[nH]1
REMARK SMILES IDX 28 1 27 2 26 3 25 4 24 5 22 6 23 7 21 8 10 9 11 10 93 11
REMARK SMILES IDX 12 13 13 14 20 15 14 16 18 17 19 18 15 19 17 20 16 21 9 22
REMARK SMILES IDX 8 23 5 24 6 25 94 26 7 27 4 29 3 30 2 31 1 32 29 33 30 34
REMARK SMILES IDX 31 35 32 36 33 37 34 38 35 39 36 40 37 41 38 42 39 43 40 44
REMARK SMILES IDX 92 45 41 46 91 47 42 48 43 49 44 50 85 51 45 52 90 53 84 54
REMARK SMILES IDX 86 55 46 56 89 57 83 58 82 59 47 61 73 62 56 63 72 64 57 65
REMARK SMILES IDX 60 66 71 67 87 68 58 69 59 70 70 72 88 73 61 74 48 75 49 76
REMARK SMILES IDX 54 77 50 78 51 79 53 80 55 81 52 82 74 83 75 84 80 85 76 86
REMARK SMILES IDX 77 87 79 88 81 89 78 90 62 91 63 92 68 93 64 94 65 95 67 96
REMARK SMILES IDX 69 97 66 98
REMARK H PARENT 10 12 94 28 86 60 60 71
REMARK Flexibility Score: inf
ROOT
ATOM      1  C   UNL A   1      40.250  26.384  28.079  1.00  0.00     0.188 C 
ENDROOT
BRANCH   1   2
ATOM      2  O   UNL A   1      41.097  27.044  29.021  1.00  0.00    -0.376 OA
BRANCH   2   3
ATOM      3  C   UNL A   1      40.422  27.912  29.930  1.00  0.00     0.202 C 
BRANCH   3   4
ATOM      4  C   UNL A   1      39.053  27.393  30.417  1.00  0.00     0.261 C 
BRANCH   4   5
ATOM      5  O   UNL A   1      38.173  28.498  30.692  1.00  0.00    -0.463 OA
BRANCH   5   6
ATOM      6  C   UNL A   1      37.703  28.881  31.928  1.00  0.00     0.322 C 
ATOM      7  O   UNL A   1      37.650  28.125  32.877  1.00  0.00    -0.251 OA
BRANCH   6   8
ATOM      8  C   UNL A   1      37.193  30.344  31.786  1.00  0.00     0.162 C 
ATOM      9  N   UNL A   1      36.401  30.727  29.494  1.00  0.00    -0.328 N 
ATOM     10  C   UNL A   1      35.570  31.568  30.324  1.00  0.00     0.272 C 
ATOM     11  C   UNL A   1      37.627  30.577  30.309  1.00  0.00     0.286 C 
ATOM     12  H   UNL A   1      36.660  31.113  28.586  1.00  0.00     0.348 HD
ATOM     13  C   UNL A   1      35.783  31.054  31.768  1.00  0.00     0.105 C 
ATOM     14  C   UNL A   1      35.683  32.343  32.610  1.00  0.00     0.004 A 
ATOM     15  C   UNL A   1      37.799  30.905  33.091  1.00  0.00     0.255 C 
ATOM     16  C   UNL A   1      34.483  33.048  32.747  1.00  0.00     0.008 A 
ATOM     17  C   UNL A   1      36.840  32.924  33.147  1.00  0.00     0.123 A 
ATOM     18  O   UNL A   1      38.043  32.295  33.044  1.00  0.00    -0.492 OA
ATOM     19  C   UNL A   1      34.464  34.289  33.399  1.00  0.00     0.001 A 
ATOM     20  C   UNL A   1      36.831  34.149  33.801  1.00  0.00     0.047 A 
ATOM     21  C   UNL A   1      35.633  34.836  33.931  1.00  0.00     0.004 A 
BRANCH   9  22
ATOM     22  C   UNL A   1      35.709  29.545  28.951  1.00  0.00     0.319 C 
BRANCH  22  23
ATOM     23  C   UNL A   1      34.815  29.743  27.765  1.00  0.00     0.090 A 
ATOM     24  C   UNL A   1      33.735  29.304  25.862  1.00  0.00     0.106 A 
ATOM     25  N   UNL A   1      33.232  30.442  26.294  1.00  0.00    -0.241 NA
ATOM     26  N   UNL A   1      34.766  28.904  26.678  1.00  0.00    -0.341 N 
ATOM     27  C   UNL A   1      33.911  30.737  27.447  1.00  0.00     0.140 A 
ATOM     28  H   UNL A   1      35.369  28.144  26.511  1.00  0.00     0.168 HD
BRANCH  24  29
ATOM     29  C   UNL A   1      33.308  28.552  24.642  1.00  0.00     0.075 C 
BRANCH  29  30
ATOM     30  C   UNL A   1      34.234  28.652  23.425  1.00  0.00     0.008 C 
BRANCH  30  31
ATOM     31  C   UNL A   1      33.691  28.094  22.107  1.00  0.00    -0.003 C 
ATOM     32  C   UNL A   1      33.286  26.633  22.183  1.00  0.00     0.004 C 
ENDBRANCH  30  31
ENDBRANCH  29  30
ENDBRANCH  24  29
ENDBRANCH  22  23
ENDBRANCH   9  22
ENDBRANCH   6   8
ENDBRANCH   5   6
ENDBRANCH   4   5
ENDBRANCH   3   4
ENDBRANCH   2   3
ENDBRANCH   1   2
BRANCH   1  33
ATOM     33  C   UNL A   1      40.535  24.876  28.026  1.00  0.00     0.188 C 
BRANCH  33  34
ATOM     34  O   UNL A   1      41.287  24.381  26.934  1.00  0.00    -0.377 OA
BRANCH  34  35
ATOM     35  C   UNL A   1      41.157  23.010  26.611  1.00  0.00     0.188 C 
BRANCH  35  36
ATOM     36  C   UNL A   1      42.408  22.221  26.182  1.00  0.00     0.188 C 
BRANCH  36  37
ATOM     37  O   UNL A   1      42.829  22.467  24.846  1.00  0.00    -0.376 OA
BRANCH  37  38
ATOM     38  C   UNL A   1      43.709  23.552  24.604  1.00  0.00     0.202 C 
BRANCH  38  39
ATOM     39  C   UNL A   1      45.204  23.288  24.814  1.00  0.00     0.261 C 
BRANCH  39  40
ATOM     40  O   UNL A   1      45.861  24.141  25.758  1.00  0.00    -0.460 OA
BRANCH  40  41
ATOM     41  C   UNL A   1      46.300  25.347  25.336  1.00  0.00     0.338 C 
ATOM     42  O   UNL A   1      46.848  25.611  24.281  1.00  0.00    -0.246 OA
BRANCH  41  43
ATOM     43  C   UNL A   1      45.788  26.337  26.307  1.00  0.00     0.060 A 
ATOM     44  C   UNL A   1      44.430  26.666  26.317  1.00  0.00     0.016 A 
ATOM     45  C   UNL A   1      46.695  27.024  27.128  1.00  0.00     0.016 A 
ATOM     46  C   UNL A   1      43.971  27.659  27.177  1.00  0.00     0.010 A 
ATOM     47  C   UNL A   1      46.235  28.031  27.980  1.00  0.00     0.010 A 
ATOM     48  C   UNL A   1      44.865  28.327  28.033  1.00  0.00    -0.014 A 
BRANCH  48  49
ATOM     49  C   UNL A   1      44.313  29.121  29.151  1.00  0.00     0.031 A 
ATOM     50  C   UNL A   1      44.033  28.546  30.500  1.00  0.00     0.074 A 
ATOM     51  C   UNL A   1      44.083  30.424  28.900  1.00  0.00     0.049 A 
ATOM     52  N   UNL A   1      43.712  29.173  31.604  1.00  0.00    -0.248 NA
ATOM     53  C   UNL A   1      44.103  27.085  30.630  1.00  0.00     0.031 C 
ATOM     54  C   UNL A   1      44.271  31.070  27.598  1.00  0.00     0.029 A 
ATOM     55  N   UNL A   1      43.665  31.435  29.720  1.00  0.00    -0.354 N 
ATOM     56  C   UNL A   1      43.567  28.190  32.572  1.00  0.00     0.074 A 
ATOM     57  C   UNL A   1      43.782  26.918  31.908  1.00  0.00     0.031 C 
ATOM     58  C   UNL A   1      44.006  32.377  27.716  1.00  0.00     0.029 A 
ATOM     59  C   UNL A   1      43.619  32.655  29.093  1.00  0.00     0.049 A 
ATOM     60  H   UNL A   1      43.423  31.302  30.665  1.00  0.00     0.167 HD
ATOM     61  C   UNL A   1      43.295  28.344  33.892  1.00  0.00     0.037 A 
ATOM     62  C   UNL A   1      43.320  33.870  29.581  1.00  0.00     0.037 A 
ATOM     63  C   UNL A   1      43.048  29.619  34.527  1.00  0.00     0.049 A 
ATOM     64  C   UNL A   1      43.013  34.009  31.042  1.00  0.00     0.074 A 
ATOM     65  C   UNL A   1      42.811  29.889  35.864  1.00  0.00     0.029 A 
ATOM     66  N   UNL A   1      42.981  30.836  33.861  1.00  0.00    -0.354 N 
ATOM     67  N   UNL A   1      42.992  33.088  31.974  1.00  0.00    -0.248 NA
ATOM     68  C   UNL A   1      42.707  35.362  31.520  1.00  0.00     0.031 C 
ATOM     69  C   UNL A   1      42.549  31.259  35.998  1.00  0.00     0.029 A 
ATOM     70  C   UNL A   1      42.677  31.854  34.753  1.00  0.00     0.049 A 
ATOM     71  H   UNL A   1      43.130  30.958  32.895  1.00  0.00     0.167 HD
ATOM     72  C   UNL A   1      42.694  33.753  33.155  1.00  0.00     0.074 A 
ATOM     73  C   UNL A   1      42.570  35.158  32.821  1.00  0.00     0.031 C 
ATOM     74  C   UNL A   1      42.537  33.247  34.404  1.00  0.00     0.037 A 
BRANCH  61  75
ATOM     75  C   UNL A   1      43.246  27.103  34.738  1.00  0.00     0.057 A 
ATOM     76  C   UNL A   1      42.045  26.411  34.936  1.00  0.00     0.134 A 
ATOM     77  C   UNL A   1      44.387  26.611  35.388  1.00  0.00     0.134 A 
ATOM     78  F   UNL A   1      40.911  26.832  34.355  1.00  0.00    -0.206 F 
ATOM     79  C   UNL A   1      41.981  25.274  35.745  1.00  0.00     0.040 A 
ATOM     80  C   UNL A   1      44.340  25.460  36.179  1.00  0.00     0.040 A 
ATOM     81  F   UNL A   1      45.571  27.223  35.241  1.00  0.00    -0.206 F 
ATOM     82  C   UNL A   1      43.132  24.790  36.362  1.00  0.00     0.006 A 
ENDBRANCH  61  75
BRANCH  62  83
ATOM     83  C   UNL A   1      43.347  35.050  28.686  1.00  0.00     0.057 A 
ATOM     84  C   UNL A   1      42.171  35.581  28.146  1.00  0.00     0.134 A 
ATOM     85  C   UNL A   1      44.554  35.671  28.346  1.00  0.00     0.134 A 
ATOM     86  F   UNL A   1      40.984  35.018  28.421  1.00  0.00    -0.206 F 
ATOM     87  C   UNL A   1      42.192  36.689  27.300  1.00  0.00     0.040 A 
ATOM     88  C   UNL A   1      44.588  36.795  27.522  1.00  0.00     0.040 A 
ATOM     89  F   UNL A   1      45.712  35.208  28.838  1.00  0.00    -0.206 F 
ATOM     90  C   UNL A   1      43.404  37.306  26.994  1.00  0.00     0.006 A 
ENDBRANCH  62  83
BRANCH  74  91
ATOM     91  C   UNL A   1      42.230  34.236  35.492  1.00  0.00     0.057 A 
ATOM     92  C   UNL A   1      43.263  34.876  36.187  1.00  0.00     0.134 A 
ATOM     93  C   UNL A   1      40.914  34.574  35.836  1.00  0.00     0.134 A 
ATOM     94  F   UNL A   1      44.546  34.594  35.913  1.00  0.00    -0.206 F 
ATOM     95  C   UNL A   1      42.999  35.824  37.177  1.00  0.00     0.040 A 
ATOM     96  C   UNL A   1      40.638  35.545  36.801  1.00  0.00     0.040 A 
ATOM     97  F   UNL A   1      39.877  34.012  35.196  1.00  0.00    -0.206 F 
ATOM     98  C   UNL A   1      41.684  36.171  37.476  1.00  0.00     0.006 A 
ENDBRANCH  74  91
ENDBRANCH  48  49
ENDBRANCH  41  43
ENDBRANCH  40  41
ENDBRANCH  39  40
ENDBRANCH  38  39
ENDBRANCH  37  38
ENDBRANCH  36  37
ENDBRANCH  35  36
ENDBRANCH  34  35
ENDBRANCH  33  34
ENDBRANCH   1  33
TORSDOF 25
ENDMDL
