MODEL 1
REMARK VINA RESULT:     -10.2      0.000      0.000
REMARK SMILES COc1cc(Cl)ccc1NC(=O)COc1ccccc1C(=O)OCCOCCOCCOCCOC(=O)c1ccc(-c2c3nc(c(-c4c(F)cccc4F)c4ccc([nH]4)c(-c4c(F)cccc4F)c4nc(c(-c5c(F)cccc5F)c5ccc2[nH]5)C=C4)C=C3)cc1
REMARK SMILES IDX 27 1 26 2 25 3 24 4 23 5 21 6 22 7 20 8 15 9 16 10 17 11
REMARK SMILES IDX 19 12 18 13 14 14 13 15 11 16 10 17 12 19 9 20 3 21 4 22
REMARK SMILES IDX 5 23 8 24 6 25 7 26 2 27 1 28 28 29 29 30 30 31 31 32 32 33
REMARK SMILES IDX 33 34 34 35 35 36 36 37 37 38 38 39 39 40 91 41 40 42 90 43
REMARK SMILES IDX 41 44 42 45 43 46 84 47 44 48 89 49 83 50 85 51 45 52 88 53
REMARK SMILES IDX 82 54 81 55 46 57 72 58 55 59 71 60 56 61 59 62 70 63 86 64
REMARK SMILES IDX 57 65 58 66 69 68 87 69 60 70 47 71 48 72 53 73 49 74 50 75
REMARK SMILES IDX 52 76 54 77 51 78 73 79 74 80 79 81 75 82 76 83 78 84 80 85
REMARK SMILES IDX 77 86 61 87 62 88 67 89 63 90 64 91 66 92 68 93 65 94
REMARK H PARENT 10 18 85 56 59 67
REMARK Flexibility Score: inf
ROOT
ATOM      1  C   UNL A   1      38.198  23.885  26.745  1.00  0.00     0.188 C 
ENDROOT
BRANCH   1   2
ATOM      2  O   UNL A   1      37.113  23.963  25.819  1.00  0.00    -0.376 OA
BRANCH   2   3
ATOM      3  C   UNL A   1      37.230  23.227  24.606  1.00  0.00     0.202 C 
BRANCH   3   4
ATOM      4  C   UNL A   1      36.405  21.936  24.632  1.00  0.00     0.261 C 
BRANCH   4   5
ATOM      5  O   UNL A   1      35.137  22.104  23.973  1.00  0.00    -0.460 OA
BRANCH   5   6
ATOM      6  C   UNL A   1      34.104  21.441  24.533  1.00  0.00     0.342 C 
ATOM      7  O   UNL A   1      34.056  20.239  24.757  1.00  0.00    -0.246 OA
BRANCH   6   8
ATOM      8  C   UNL A   1      33.069  22.379  25.030  1.00  0.00     0.102 A 
ATOM      9  C   UNL A   1      32.202  23.195  24.289  1.00  0.00     0.134 A 
ATOM     10  C   UNL A   1      31.264  23.975  25.000  1.00  0.00     0.047 A 
ATOM     11  C   UNL A   1      31.178  23.965  26.392  1.00  0.00     0.004 A 
ATOM     12  C   UNL A   1      32.997  22.406  26.445  1.00  0.00     0.019 A 
ATOM     13  C   UNL A   1      32.062  23.188  27.122  1.00  0.00     0.001 A 
BRANCH   9  14
ATOM     14  O   UNL A   1      32.058  23.427  22.956  1.00  0.00    -0.483 OA
BRANCH  14  15
ATOM     15  C   UNL A   1      31.714  24.668  22.381  1.00  0.00     0.329 C 
BRANCH  15  16
ATOM     16  C   UNL A   1      32.883  25.504  21.857  1.00  0.00     0.262 C 
ATOM     17  N   UNL A   1      33.651  26.211  22.733  1.00  0.00    -0.320 N 
ATOM     18  H   UNL A   1      34.608  26.233  22.503  1.00  0.00     0.170 HD
ATOM     19  O   UNL A   1      33.188  25.491  20.660  1.00  0.00    -0.271 OA
BRANCH  17  20
ATOM     20  C   UNL A   1      33.320  26.913  23.904  1.00  0.00     0.084 A 
ATOM     21  C   UNL A   1      32.437  27.991  23.776  1.00  0.00     0.143 A 
ATOM     22  C   UNL A   1      32.013  28.737  24.874  1.00  0.00     0.069 A 
ATOM     23  C   UNL A   1      32.398  28.342  26.142  1.00  0.00     0.044 A 
ATOM     24  C   UNL A   1      33.719  26.540  25.184  1.00  0.00     0.031 A 
ATOM     25  Cl  UNL A   1      31.791  29.184  27.513  1.00  0.00    -0.084 Cl
ATOM     26  C   UNL A   1      33.245  27.245  26.303  1.00  0.00     0.023 A 
BRANCH  21  27
ATOM     27  O   UNL A   1      31.986  28.345  22.537  1.00  0.00    -0.495 OA
ATOM     28  C   UNL A   1      30.563  28.369  22.540  1.00  0.00     0.278 C 
ENDBRANCH  21  27
ENDBRANCH  17  20
ENDBRANCH  15  16
ENDBRANCH  14  15
ENDBRANCH   9  14
ENDBRANCH   6   8
ENDBRANCH   5   6
ENDBRANCH   4   5
ENDBRANCH   3   4
ENDBRANCH   2   3
ENDBRANCH   1   2
BRANCH   1  29
ATOM     29  C   UNL A   1      39.498  23.189  26.324  1.00  0.00     0.188 C 
BRANCH  29  30
ATOM     30  O   UNL A   1      39.701  21.889  26.874  1.00  0.00    -0.377 OA
BRANCH  30  31
ATOM     31  C   UNL A   1      39.915  20.807  25.966  1.00  0.00     0.188 C 
BRANCH  31  32
ATOM     32  C   UNL A   1      41.020  19.782  26.284  1.00  0.00     0.188 C 
BRANCH  32  33
ATOM     33  O   UNL A   1      42.178  20.030  25.501  1.00  0.00    -0.376 OA
BRANCH  33  34
ATOM     34  C   UNL A   1      43.204  20.764  26.159  1.00  0.00     0.202 C 
BRANCH  34  35
ATOM     35  C   UNL A   1      43.948  21.629  25.130  1.00  0.00     0.261 C 
BRANCH  35  36
ATOM     36  O   UNL A   1      43.413  22.970  25.039  1.00  0.00    -0.460 OA
BRANCH  36  37
ATOM     37  C   UNL A   1      44.234  24.033  25.177  1.00  0.00     0.338 C 
ATOM     38  O   UNL A   1      45.247  24.272  24.551  1.00  0.00    -0.246 OA
BRANCH  37  39
ATOM     39  C   UNL A   1      43.586  24.941  26.161  1.00  0.00     0.060 A 
ATOM     40  C   UNL A   1      43.691  26.324  25.968  1.00  0.00     0.016 A 
ATOM     41  C   UNL A   1      42.748  24.442  27.169  1.00  0.00     0.016 A 
ATOM     42  C   UNL A   1      42.914  27.208  26.737  1.00  0.00     0.010 A 
ATOM     43  C   UNL A   1      41.998  25.331  27.964  1.00  0.00     0.010 A 
ATOM     44  C   UNL A   1      42.073  26.724  27.757  1.00  0.00    -0.014 A 
BRANCH  44  45
ATOM     45  C   UNL A   1      41.585  27.665  28.812  1.00  0.00     0.031 A 
ATOM     46  C   UNL A   1      42.357  27.649  30.108  1.00  0.00     0.074 A 
ATOM     47  C   UNL A   1      40.549  28.519  28.680  1.00  0.00     0.049 A 
ATOM     48  N   UNL A   1      42.131  28.271  31.235  1.00  0.00    -0.248 NA
ATOM     49  C   UNL A   1      43.561  26.799  30.120  1.00  0.00     0.031 C 
ATOM     50  C   UNL A   1      39.742  28.720  27.478  1.00  0.00     0.029 A 
ATOM     51  N   UNL A   1      39.996  29.392  29.597  1.00  0.00    -0.354 N 
ATOM     52  C   UNL A   1      43.147  27.865  32.092  1.00  0.00     0.074 A 
ATOM     53  C   UNL A   1      43.986  26.945  31.361  1.00  0.00     0.031 C 
ATOM     54  C   UNL A   1      38.796  29.647  27.734  1.00  0.00     0.029 A 
ATOM     55  C   UNL A   1      38.898  30.080  29.131  1.00  0.00     0.049 A 
ATOM     56  H   UNL A   1      40.357  29.512  30.505  1.00  0.00     0.167 HD
ATOM     57  C   UNL A   1      43.370  28.214  33.379  1.00  0.00     0.037 A 
ATOM     58  C   UNL A   1      38.060  30.933  29.764  1.00  0.00     0.037 A 
ATOM     59  C   UNL A   1      42.548  29.120  34.127  1.00  0.00     0.049 A 
ATOM     60  C   UNL A   1      38.283  31.262  31.226  1.00  0.00     0.074 A 
ATOM     61  C   UNL A   1      42.686  29.523  35.442  1.00  0.00     0.029 A 
ATOM     62  N   UNL A   1      41.427  29.760  33.622  1.00  0.00    -0.354 N 
ATOM     63  N   UNL A   1      39.235  30.857  32.032  1.00  0.00    -0.248 NA
ATOM     64  C   UNL A   1      37.306  32.157  31.871  1.00  0.00     0.031 C 
ATOM     65  C   UNL A   1      41.621  30.376  35.748  1.00  0.00     0.029 A 
ATOM     66  C   UNL A   1      40.853  30.543  34.607  1.00  0.00     0.049 A 
ATOM     67  H   UNL A   1      41.091  29.669  32.701  1.00  0.00     0.167 HD
ATOM     68  C   UNL A   1      38.987  31.462  33.261  1.00  0.00     0.074 A 
ATOM     69  C   UNL A   1      37.800  32.273  33.097  1.00  0.00     0.031 C 
ATOM     70  C   UNL A   1      39.678  31.356  34.424  1.00  0.00     0.037 A 
BRANCH  57  71
ATOM     71  C   UNL A   1      44.521  27.542  34.065  1.00  0.00     0.057 A 
ATOM     72  C   UNL A   1      45.810  28.092  34.074  1.00  0.00     0.134 A 
ATOM     73  C   UNL A   1      44.344  26.296  34.680  1.00  0.00     0.134 A 
ATOM     74  F   UNL A   1      46.052  29.266  33.468  1.00  0.00    -0.206 F 
ATOM     75  C   UNL A   1      46.889  27.411  34.637  1.00  0.00     0.040 A 
ATOM     76  C   UNL A   1      45.409  25.620  35.275  1.00  0.00     0.040 A 
ATOM     77  F   UNL A   1      43.137  25.711  34.699  1.00  0.00    -0.206 F 
ATOM     78  C   UNL A   1      46.688  26.171  35.243  1.00  0.00     0.006 A 
ENDBRANCH  57  71
BRANCH  58  79
ATOM     79  C   UNL A   1      36.885  31.518  29.053  1.00  0.00     0.057 A 
ATOM     80  C   UNL A   1      36.870  32.854  28.629  1.00  0.00     0.134 A 
ATOM     81  C   UNL A   1      35.720  30.771  28.838  1.00  0.00     0.134 A 
ATOM     82  F   UNL A   1      37.932  33.643  28.845  1.00  0.00    -0.206 F 
ATOM     83  C   UNL A   1      35.743  33.424  28.027  1.00  0.00     0.040 A 
ATOM     84  C   UNL A   1      34.595  31.320  28.216  1.00  0.00     0.040 A 
ATOM     85  F   UNL A   1      35.652  29.493  29.240  1.00  0.00    -0.206 F 
ATOM     86  C   UNL A   1      34.603  32.654  27.813  1.00  0.00     0.006 A 
ENDBRANCH  58  79
BRANCH  70  87
ATOM     87  C   UNL A   1      39.204  32.157  35.602  1.00  0.00     0.057 A 
ATOM     88  C   UNL A   1      39.543  33.505  35.769  1.00  0.00     0.134 A 
ATOM     89  C   UNL A   1      38.330  31.590  36.541  1.00  0.00     0.134 A 
ATOM     90  F   UNL A   1      40.376  34.108  34.908  1.00  0.00    -0.206 F 
ATOM     91  C   UNL A   1      39.042  34.256  36.835  1.00  0.00     0.040 A 
ATOM     92  C   UNL A   1      37.805  32.337  37.596  1.00  0.00     0.040 A 
ATOM     93  F   UNL A   1      37.953  30.307  36.432  1.00  0.00    -0.206 F 
ATOM     94  C   UNL A   1      38.164  33.674  37.747  1.00  0.00     0.006 A 
ENDBRANCH  70  87
ENDBRANCH  44  45
ENDBRANCH  37  39
ENDBRANCH  36  37
ENDBRANCH  35  36
ENDBRANCH  34  35
ENDBRANCH  33  34
ENDBRANCH  32  33
ENDBRANCH  31  32
ENDBRANCH  30  31
ENDBRANCH  29  30
ENDBRANCH   1  29
TORSDOF 25
ENDMDL
MODEL 2
REMARK VINA RESULT:      -9.8      1.399      2.179
REMARK SMILES COc1cc(Cl)ccc1NC(=O)COc1ccccc1C(=O)OCCOCCOCCOCCOC(=O)c1ccc(-c2c3nc(c(-c4c(F)cccc4F)c4ccc([nH]4)c(-c4c(F)cccc4F)c4nc(c(-c5c(F)cccc5F)c5ccc2[nH]5)C=C4)C=C3)cc1
REMARK SMILES IDX 27 1 26 2 25 3 24 4 23 5 21 6 22 7 20 8 15 9 16 10 17 11
REMARK SMILES IDX 19 12 18 13 14 14 13 15 11 16 10 17 12 19 9 20 3 21 4 22
REMARK SMILES IDX 5 23 8 24 6 25 7 26 2 27 1 28 28 29 29 30 30 31 31 32 32 33
REMARK SMILES IDX 33 34 34 35 35 36 36 37 37 38 38 39 39 40 91 41 40 42 90 43
REMARK SMILES IDX 41 44 42 45 43 46 84 47 44 48 89 49 83 50 85 51 45 52 88 53
REMARK SMILES IDX 82 54 81 55 46 57 72 58 55 59 71 60 56 61 59 62 70 63 86 64
REMARK SMILES IDX 57 65 58 66 69 68 87 69 60 70 47 71 48 72 53 73 49 74 50 75
REMARK SMILES IDX 52 76 54 77 51 78 73 79 74 80 79 81 75 82 76 83 78 84 80 85
REMARK SMILES IDX 77 86 61 87 62 88 67 89 63 90 64 91 66 92 68 93 65 94
REMARK H PARENT 10 18 85 56 59 67
REMARK Flexibility Score: inf
ROOT
ATOM      1  C   UNL A   1      39.792  22.368  26.572  1.00  0.00     0.188 C 
ENDROOT
BRANCH   1   2
ATOM      2  O   UNL A   1      39.249  21.311  25.778  1.00  0.00    -0.376 OA
BRANCH   2   3
ATOM      3  C   UNL A   1      37.877  21.403  25.412  1.00  0.00     0.202 C 
BRANCH   3   4
ATOM      4  C   UNL A   1      37.295  22.792  25.697  1.00  0.00     0.261 C 
BRANCH   4   5
ATOM      5  O   UNL A   1      35.883  22.731  25.969  1.00  0.00    -0.460 OA
BRANCH   5   6
ATOM      6  C   UNL A   1      35.192  21.837  25.232  1.00  0.00     0.342 C 
ATOM      7  O   UNL A   1      35.153  20.628  25.416  1.00  0.00    -0.246 OA
BRANCH   6   8
ATOM      8  C   UNL A   1      34.313  22.516  24.250  1.00  0.00     0.102 A 
ATOM      9  C   UNL A   1      32.913  22.566  24.219  1.00  0.00     0.134 A 
ATOM     10  C   UNL A   1      32.303  23.323  23.195  1.00  0.00     0.047 A 
ATOM     11  C   UNL A   1      33.037  24.007  22.226  1.00  0.00     0.004 A 
ATOM     12  C   UNL A   1      35.048  23.184  23.237  1.00  0.00     0.019 A 
ATOM     13  C   UNL A   1      34.419  23.923  22.236  1.00  0.00     0.001 A 
BRANCH   9  14
ATOM     14  O   UNL A   1      31.947  22.004  24.996  1.00  0.00    -0.483 OA
BRANCH  14  15
ATOM     15  C   UNL A   1      30.794  22.669  25.465  1.00  0.00     0.329 C 
BRANCH  15  16
ATOM     16  C   UNL A   1      30.954  23.418  26.789  1.00  0.00     0.262 C 
ATOM     17  N   UNL A   1      31.207  24.757  26.778  1.00  0.00    -0.320 N 
ATOM     18  H   UNL A   1      30.761  25.257  27.499  1.00  0.00     0.170 HD
ATOM     19  O   UNL A   1      30.786  22.844  27.870  1.00  0.00    -0.271 OA
BRANCH  17  20
ATOM     20  C   UNL A   1      31.991  25.550  25.923  1.00  0.00     0.084 A 
ATOM     21  C   UNL A   1      31.316  26.413  25.053  1.00  0.00     0.143 A 
ATOM     22  C   UNL A   1      31.990  27.270  24.186  1.00  0.00     0.069 A 
ATOM     23  C   UNL A   1      33.370  27.342  24.254  1.00  0.00     0.044 A 
ATOM     24  C   UNL A   1      33.380  25.615  25.964  1.00  0.00     0.031 A 
ATOM     25  Cl  UNL A   1      34.209  28.476  23.269  1.00  0.00    -0.084 Cl
ATOM     26  C   UNL A   1      34.068  26.523  25.141  1.00  0.00     0.023 A 
BRANCH  21  27
ATOM     27  O   UNL A   1      29.951  26.409  25.031  1.00  0.00    -0.495 OA
ATOM     28  C   UNL A   1      29.499  25.880  23.789  1.00  0.00     0.278 C 
ENDBRANCH  21  27
ENDBRANCH  17  20
ENDBRANCH  15  16
ENDBRANCH  14  15
ENDBRANCH   9  14
ENDBRANCH   6   8
ENDBRANCH   5   6
ENDBRANCH   4   5
ENDBRANCH   3   4
ENDBRANCH   2   3
ENDBRANCH   1   2
BRANCH   1  29
ATOM     29  C   UNL A   1      40.597  22.023  27.831  1.00  0.00     0.188 C 
BRANCH  29  30
ATOM     30  O   UNL A   1      41.785  21.267  27.608  1.00  0.00    -0.377 OA
BRANCH  30  31
ATOM     31  C   UNL A   1      42.349  21.281  26.296  1.00  0.00     0.188 C 
BRANCH  31  32
ATOM     32  C   UNL A   1      42.978  19.988  25.745  1.00  0.00     0.188 C 
BRANCH  32  33
ATOM     33  O   UNL A   1      43.900  20.279  24.706  1.00  0.00    -0.376 OA
BRANCH  33  34
ATOM     34  C   UNL A   1      44.763  21.382  24.957  1.00  0.00     0.202 C 
BRANCH  34  35
ATOM     35  C   UNL A   1      44.469  22.497  23.942  1.00  0.00     0.261 C 
BRANCH  35  36
ATOM     36  O   UNL A   1      43.998  23.712  24.570  1.00  0.00    -0.460 OA
BRANCH  36  37
ATOM     37  C   UNL A   1      44.885  24.614  25.042  1.00  0.00     0.338 C 
ATOM     38  O   UNL A   1      46.026  24.796  24.668  1.00  0.00    -0.246 OA
BRANCH  37  39
ATOM     39  C   UNL A   1      44.151  25.448  26.031  1.00  0.00     0.060 A 
ATOM     40  C   UNL A   1      44.187  26.841  25.891  1.00  0.00     0.016 A 
ATOM     41  C   UNL A   1      43.304  24.868  26.987  1.00  0.00     0.016 A 
ATOM     42  C   UNL A   1      43.335  27.653  26.660  1.00  0.00     0.010 A 
ATOM     43  C   UNL A   1      42.477  25.685  27.782  1.00  0.00     0.010 A 
ATOM     44  C   UNL A   1      42.484  27.087  27.627  1.00  0.00    -0.014 A 
BRANCH  44  45
ATOM     45  C   UNL A   1      41.905  27.960  28.695  1.00  0.00     0.031 A 
ATOM     46  C   UNL A   1      42.666  27.989  29.997  1.00  0.00     0.074 A 
ATOM     47  C   UNL A   1      40.798  28.720  28.569  1.00  0.00     0.049 A 
ATOM     48  N   UNL A   1      42.377  28.568  31.134  1.00  0.00    -0.248 NA
ATOM     49  C   UNL A   1      43.941  27.251  30.005  1.00  0.00     0.031 C 
ATOM     50  C   UNL A   1      39.985  28.871  27.363  1.00  0.00     0.029 A 
ATOM     51  N   UNL A   1      40.162  29.523  29.496  1.00  0.00    -0.354 N 
ATOM     52  C   UNL A   1      43.419  28.238  31.992  1.00  0.00     0.074 A 
ATOM     53  C   UNL A   1      44.342  27.411  31.252  1.00  0.00     0.031 C 
ATOM     54  C   UNL A   1      38.957  29.704  27.628  1.00  0.00     0.029 A 
ATOM     55  C   UNL A   1      39.009  30.118  29.033  1.00  0.00     0.049 A 
ATOM     56  H   UNL A   1      40.504  29.657  30.410  1.00  0.00     0.167 HD
ATOM     57  C   UNL A   1      43.600  28.581  33.287  1.00  0.00     0.037 A 
ATOM     58  C   UNL A   1      38.094  30.881  29.674  1.00  0.00     0.037 A 
ATOM     59  C   UNL A   1      42.694  29.396  34.044  1.00  0.00     0.049 A 
ATOM     60  C   UNL A   1      38.276  31.200  31.144  1.00  0.00     0.074 A 
ATOM     61  C   UNL A   1      42.786  29.785  35.367  1.00  0.00     0.029 A 
ATOM     62  N   UNL A   1      41.524  29.942  33.540  1.00  0.00    -0.354 N 
ATOM     63  N   UNL A   1      39.255  30.868  31.951  1.00  0.00    -0.248 NA
ATOM     64  C   UNL A   1      37.217  31.992  31.795  1.00  0.00     0.031 C 
ATOM     65  C   UNL A   1      41.646  30.533  35.679  1.00  0.00     0.029 A 
ATOM     66  C   UNL A   1      40.875  30.652  34.534  1.00  0.00     0.049 A 
ATOM     67  H   UNL A   1      41.204  29.839  32.615  1.00  0.00     0.167 HD
ATOM     68  C   UNL A   1      38.944  31.425  33.188  1.00  0.00     0.074 A 
ATOM     69  C   UNL A   1      37.690  32.129  33.028  1.00  0.00     0.031 C 
ATOM     70  C   UNL A   1      39.632  31.359  34.355  1.00  0.00     0.037 A 
BRANCH  57  71
ATOM     71  C   UNL A   1      44.802  28.002  33.971  1.00  0.00     0.057 A 
ATOM     72  C   UNL A   1      46.039  28.662  33.993  1.00  0.00     0.134 A 
ATOM     73  C   UNL A   1      44.730  26.739  34.571  1.00  0.00     0.134 A 
ATOM     74  F   UNL A   1      46.181  29.859  33.403  1.00  0.00    -0.206 F 
ATOM     75  C   UNL A   1      47.170  28.069  34.554  1.00  0.00     0.040 A 
ATOM     76  C   UNL A   1      45.846  26.149  35.163  1.00  0.00     0.040 A 
ATOM     77  F   UNL A   1      43.578  26.052  34.576  1.00  0.00    -0.206 F 
ATOM     78  C   UNL A   1      47.073  26.809  35.145  1.00  0.00     0.006 A 
ENDBRANCH  57  71
BRANCH  58  79
ATOM     79  C   UNL A   1      36.877  31.371  28.962  1.00  0.00     0.057 A 
ATOM     80  C   UNL A   1      36.759  32.700  28.532  1.00  0.00     0.134 A 
ATOM     81  C   UNL A   1      35.771  30.537  28.755  1.00  0.00     0.134 A 
ATOM     82  F   UNL A   1      37.759  33.568  28.742  1.00  0.00    -0.206 F 
ATOM     83  C   UNL A   1      35.591  33.180  27.930  1.00  0.00     0.040 A 
ATOM     84  C   UNL A   1      34.606  30.996  28.132  1.00  0.00     0.040 A 
ATOM     85  F   UNL A   1      35.801  29.259  29.163  1.00  0.00    -0.206 F 
ATOM     86  C   UNL A   1      34.512  32.324  27.723  1.00  0.00     0.006 A 
ENDBRANCH  58  79
BRANCH  70  87
ATOM     87  C   UNL A   1      39.080  32.092  35.543  1.00  0.00     0.057 A 
ATOM     88  C   UNL A   1      38.268  31.461  36.493  1.00  0.00     0.134 A 
ATOM     89  C   UNL A   1      39.433  33.428  35.781  1.00  0.00     0.134 A 
ATOM     90  F   UNL A   1      37.890  30.185  36.326  1.00  0.00    -0.206 F 
ATOM     91  C   UNL A   1      37.814  32.137  37.629  1.00  0.00     0.040 A 
ATOM     92  C   UNL A   1      39.007  34.106  36.923  1.00  0.00     0.040 A 
ATOM     93  F   UNL A   1      40.222  34.087  34.918  1.00  0.00    -0.206 F 
ATOM     94  C   UNL A   1      38.190  33.461  37.850  1.00  0.00     0.006 A 
ENDBRANCH  70  87
ENDBRANCH  44  45
ENDBRANCH  37  39
ENDBRANCH  36  37
ENDBRANCH  35  36
ENDBRANCH  34  35
ENDBRANCH  33  34
ENDBRANCH  32  33
ENDBRANCH  31  32
ENDBRANCH  30  31
ENDBRANCH  29  30
ENDBRANCH   1  29
TORSDOF 25
ENDMDL
MODEL 3
REMARK VINA RESULT:      -9.6      1.743      6.462
REMARK SMILES COc1cc(Cl)ccc1NC(=O)COc1ccccc1C(=O)OCCOCCOCCOCCOC(=O)c1ccc(-c2c3nc(c(-c4c(F)cccc4F)c4ccc([nH]4)c(-c4c(F)cccc4F)c4nc(c(-c5c(F)cccc5F)c5ccc2[nH]5)C=C4)C=C3)cc1
REMARK SMILES IDX 27 1 26 2 25 3 24 4 23 5 21 6 22 7 20 8 15 9 16 10 17 11
REMARK SMILES IDX 19 12 18 13 14 14 13 15 11 16 10 17 12 19 9 20 3 21 4 22
REMARK SMILES IDX 5 23 8 24 6 25 7 26 2 27 1 28 28 29 29 30 30 31 31 32 32 33
REMARK SMILES IDX 33 34 34 35 35 36 36 37 37 38 38 39 39 40 91 41 40 42 90 43
REMARK SMILES IDX 41 44 42 45 43 46 84 47 44 48 89 49 83 50 85 51 45 52 88 53
REMARK SMILES IDX 82 54 81 55 46 57 72 58 55 59 71 60 56 61 59 62 70 63 86 64
REMARK SMILES IDX 57 65 58 66 69 68 87 69 60 70 47 71 48 72 53 73 49 74 50 75
REMARK SMILES IDX 52 76 54 77 51 78 73 79 74 80 79 81 75 82 76 83 78 84 80 85
REMARK SMILES IDX 77 86 61 87 62 88 67 89 63 90 64 91 66 92 68 93 65 94
REMARK H PARENT 10 18 85 56 59 67
REMARK Flexibility Score: inf
ROOT
ATOM      1  C   UNL A   1      38.712  23.234  26.466  1.00  0.00     0.188 C 
ENDROOT
BRANCH   1   2
ATOM      2  O   UNL A   1      38.197  22.602  25.292  1.00  0.00    -0.376 OA
BRANCH   2   3
ATOM      3  C   UNL A   1      36.951  21.924  25.404  1.00  0.00     0.202 C 
BRANCH   3   4
ATOM      4  C   UNL A   1      35.941  22.395  24.352  1.00  0.00     0.261 C 
BRANCH   4   5
ATOM      5  O   UNL A   1      35.441  23.711  24.649  1.00  0.00    -0.460 OA
BRANCH   5   6
ATOM      6  C   UNL A   1      34.786  23.828  25.822  1.00  0.00     0.342 C 
ATOM      7  O   UNL A   1      34.973  23.149  26.823  1.00  0.00    -0.246 OA
BRANCH   6   8
ATOM      8  C   UNL A   1      33.909  25.023  25.831  1.00  0.00     0.102 A 
ATOM      9  C   UNL A   1      32.768  25.264  26.608  1.00  0.00     0.134 A 
ATOM     10  C   UNL A   1      32.123  26.512  26.465  1.00  0.00     0.047 A 
ATOM     11  C   UNL A   1      32.577  27.495  25.585  1.00  0.00     0.004 A 
ATOM     12  C   UNL A   1      34.338  26.016  24.913  1.00  0.00     0.019 A 
ATOM     13  C   UNL A   1      33.681  27.240  24.791  1.00  0.00     0.001 A 
BRANCH   9  14
ATOM     14  O   UNL A   1      32.090  24.513  27.519  1.00  0.00    -0.483 OA
BRANCH  14  15
ATOM     15  C   UNL A   1      31.726  23.162  27.347  1.00  0.00     0.329 C 
BRANCH  15  16
ATOM     16  C   UNL A   1      30.344  22.920  26.736  1.00  0.00     0.262 C 
ATOM     17  N   UNL A   1      30.205  22.879  25.382  1.00  0.00    -0.320 N 
ATOM     18  H   UNL A   1      29.552  22.216  25.063  1.00  0.00     0.170 HD
ATOM     19  O   UNL A   1      29.364  22.689  27.452  1.00  0.00    -0.271 OA
BRANCH  17  20
ATOM     20  C   UNL A   1      30.828  23.615  24.359  1.00  0.00     0.084 A 
ATOM     21  C   UNL A   1      31.874  22.994  23.670  1.00  0.00     0.143 A 
ATOM     22  C   UNL A   1      32.541  23.615  22.616  1.00  0.00     0.069 A 
ATOM     23  C   UNL A   1      32.090  24.844  22.169  1.00  0.00     0.044 A 
ATOM     24  C   UNL A   1      30.400  24.863  23.916  1.00  0.00     0.031 A 
ATOM     25  Cl  UNL A   1      32.830  25.571  20.798  1.00  0.00    -0.084 Cl
ATOM     26  C   UNL A   1      31.021  25.469  22.811  1.00  0.00     0.023 A 
BRANCH  21  27
ATOM     27  O   UNL A   1      32.279  21.746  24.049  1.00  0.00    -0.495 OA
ATOM     28  C   UNL A   1      32.274  20.883  22.916  1.00  0.00     0.278 C 
ENDBRANCH  21  27
ENDBRANCH  17  20
ENDBRANCH  15  16
ENDBRANCH  14  15
ENDBRANCH   9  14
ENDBRANCH   6   8
ENDBRANCH   5   6
ENDBRANCH   4   5
ENDBRANCH   3   4
ENDBRANCH   2   3
ENDBRANCH   1   2
BRANCH   1  29
ATOM     29  C   UNL A   1      40.028  22.734  27.074  1.00  0.00     0.188 C 
BRANCH  29  30
ATOM     30  O   UNL A   1      41.000  22.280  26.135  1.00  0.00    -0.377 OA
BRANCH  30  31
ATOM     31  C   UNL A   1      41.600  21.003  26.359  1.00  0.00     0.188 C 
BRANCH  31  32
ATOM     32  C   UNL A   1      42.994  20.725  25.768  1.00  0.00     0.188 C 
BRANCH  32  33
ATOM     33  O   UNL A   1      43.944  21.662  26.252  1.00  0.00    -0.376 OA
BRANCH  33  34
ATOM     34  C   UNL A   1      44.855  22.156  25.277  1.00  0.00     0.202 C 
BRANCH  34  35
ATOM     35  C   UNL A   1      44.092  23.022  24.263  1.00  0.00     0.261 C 
BRANCH  35  36
ATOM     36  O   UNL A   1      43.642  24.275  24.827  1.00  0.00    -0.460 OA
BRANCH  36  37
ATOM     37  C   UNL A   1      44.545  25.187  25.248  1.00  0.00     0.338 C 
ATOM     38  O   UNL A   1      45.590  25.498  24.710  1.00  0.00    -0.246 OA
BRANCH  37  39
ATOM     39  C   UNL A   1      43.953  25.847  26.442  1.00  0.00     0.060 A 
ATOM     40  C   UNL A   1      44.210  27.208  26.651  1.00  0.00     0.016 A 
ATOM     41  C   UNL A   1      43.024  25.182  27.256  1.00  0.00     0.016 A 
ATOM     42  C   UNL A   1      43.496  27.921  27.631  1.00  0.00     0.010 A 
ATOM     43  C   UNL A   1      42.337  25.889  28.261  1.00  0.00     0.010 A 
ATOM     44  C   UNL A   1      42.566  27.267  28.460  1.00  0.00    -0.014 A 
BRANCH  44  45
ATOM     45  C   UNL A   1      42.132  27.921  29.734  1.00  0.00     0.031 A 
ATOM     46  C   UNL A   1      40.869  28.740  29.648  1.00  0.00     0.074 A 
ATOM     47  C   UNL A   1      42.759  27.809  30.923  1.00  0.00     0.049 A 
ATOM     48  N   UNL A   1      40.289  29.498  30.543  1.00  0.00    -0.248 NA
ATOM     49  C   UNL A   1      40.165  28.691  28.355  1.00  0.00     0.031 C 
ATOM     50  C   UNL A   1      43.944  27.000  31.203  1.00  0.00     0.029 A 
ATOM     51  N   UNL A   1      42.468  28.398  32.138  1.00  0.00    -0.354 N 
ATOM     52  C   UNL A   1      39.174  30.031  29.909  1.00  0.00     0.074 A 
ATOM     53  C   UNL A   1      39.158  29.518  28.560  1.00  0.00     0.031 C 
ATOM     54  C   UNL A   1      44.282  27.152  32.501  1.00  0.00     0.029 A 
ATOM     55  C   UNL A   1      43.365  28.100  33.140  1.00  0.00     0.049 A 
ATOM     56  H   UNL A   1      41.686  28.980  32.276  1.00  0.00     0.167 HD
ATOM     57  C   UNL A   1      38.241  30.882  30.394  1.00  0.00     0.037 A 
ATOM     58  C   UNL A   1      43.450  28.559  34.410  1.00  0.00     0.037 A 
ATOM     59  C   UNL A   1      38.240  31.409  31.728  1.00  0.00     0.049 A 
ATOM     60  C   UNL A   1      42.436  29.564  34.918  1.00  0.00     0.074 A 
ATOM     61  C   UNL A   1      37.344  32.289  32.306  1.00  0.00     0.029 A 
ATOM     62  N   UNL A   1      39.190  31.106  32.691  1.00  0.00    -0.354 N 
ATOM     63  N   UNL A   1      41.397  30.077  34.304  1.00  0.00    -0.248 NA
ATOM     64  C   UNL A   1      42.616  30.064  36.293  1.00  0.00     0.031 C 
ATOM     65  C   UNL A   1      37.776  32.554  33.608  1.00  0.00     0.029 A 
ATOM     66  C   UNL A   1      38.911  31.797  33.856  1.00  0.00     0.049 A 
ATOM     67  H   UNL A   1      39.949  30.493  32.563  1.00  0.00     0.167 HD
ATOM     68  C   UNL A   1      40.790  30.934  35.218  1.00  0.00     0.074 A 
ATOM     69  C   UNL A   1      41.569  30.867  36.436  1.00  0.00     0.031 C 
ATOM     70  C   UNL A   1      39.689  31.710  35.065  1.00  0.00     0.037 A 
BRANCH  57  71
ATOM     71  C   UNL A   1      37.187  31.338  29.431  1.00  0.00     0.057 A 
ATOM     72  C   UNL A   1      37.233  32.596  28.814  1.00  0.00     0.134 A 
ATOM     73  C   UNL A   1      36.081  30.522  29.160  1.00  0.00     0.134 A 
ATOM     74  F   UNL A   1      38.248  33.438  29.063  1.00  0.00    -0.206 F 
ATOM     75  C   UNL A   1      36.198  33.041  27.992  1.00  0.00     0.040 A 
ATOM     76  C   UNL A   1      35.055  30.944  28.314  1.00  0.00     0.040 A 
ATOM     77  F   UNL A   1      35.973  29.311  29.724  1.00  0.00    -0.206 F 
ATOM     78  C   UNL A   1      35.106  32.212  27.737  1.00  0.00     0.006 A 
ENDBRANCH  57  71
BRANCH  58  79
ATOM     79  C   UNL A   1      44.564  28.126  35.304  1.00  0.00     0.057 A 
ATOM     80  C   UNL A   1      44.475  26.965  36.085  1.00  0.00     0.134 A 
ATOM     81  C   UNL A   1      45.722  28.901  35.451  1.00  0.00     0.134 A 
ATOM     82  F   UNL A   1      43.374  26.201  36.033  1.00  0.00    -0.206 F 
ATOM     83  C   UNL A   1      45.487  26.597  36.978  1.00  0.00     0.040 A 
ATOM     84  C   UNL A   1      46.752  28.532  36.321  1.00  0.00     0.040 A 
ATOM     85  F   UNL A   1      45.867  30.039  34.755  1.00  0.00    -0.206 F 
ATOM     86  C   UNL A   1      46.633  27.378  37.092  1.00  0.00     0.006 A 
ENDBRANCH  58  79
BRANCH  70  87
ATOM     87  C   UNL A   1      39.226  32.520  36.242  1.00  0.00     0.057 A 
ATOM     88  C   UNL A   1      38.291  32.028  37.161  1.00  0.00     0.134 A 
ATOM     89  C   UNL A   1      39.786  33.779  36.501  1.00  0.00     0.134 A 
ATOM     90  F   UNL A   1      37.715  30.832  36.971  1.00  0.00    -0.206 F 
ATOM     91  C   UNL A   1      37.918  32.767  38.287  1.00  0.00     0.040 A 
ATOM     92  C   UNL A   1      39.440  34.515  37.634  1.00  0.00     0.040 A 
ATOM     93  F   UNL A   1      40.699  34.302  35.668  1.00  0.00    -0.206 F 
ATOM     94  C   UNL A   1      38.499  34.010  38.530  1.00  0.00     0.006 A 
ENDBRANCH  70  87
ENDBRANCH  44  45
ENDBRANCH  37  39
ENDBRANCH  36  37
ENDBRANCH  35  36
ENDBRANCH  34  35
ENDBRANCH  33  34
ENDBRANCH  32  33
ENDBRANCH  31  32
ENDBRANCH  30  31
ENDBRANCH  29  30
ENDBRANCH   1  29
TORSDOF 25
ENDMDL
