MODEL 1
REMARK VINA RESULT:     -11.1      0.000      0.000
REMARK SMILES CC1=Nc2ncnn2[C@H](c2ccc(F)cc2)[C@@H]1C(=O)OCCOCCOCCOCCOC(=O)c1ccc(-c2c3nc(c(-c4c(F)cccc4F)c4ccc([nH]4)c(-c4c(F)cccc4F)c4nc(c(-c5c(F)cccc5F)c5ccc2[nH]5)C=C4)C=C3)cc1
REMARK SMILES IDX 27 1 26 2 25 3 24 4 23 5 22 6 21 7 20 8 18 9 19 10 17 11
REMARK SMILES IDX 1 12 2 13 3 14 4 15 9 16 5 17 8 18 6 19 7 20 10 21 11 22
REMARK SMILES IDX 16 23 12 24 15 25 13 26 14 27 28 28 29 29 30 30 31 31 32 32
REMARK SMILES IDX 33 33 34 34 35 35 36 36 88 37 37 38 87 39 38 40 39 41 40 42
REMARK SMILES IDX 81 43 41 44 86 45 80 46 82 47 42 48 85 49 79 50 78 51 43 53
REMARK SMILES IDX 69 54 52 55 68 56 53 57 56 58 67 59 83 60 54 61 55 62 66 64
REMARK SMILES IDX 84 65 57 66 44 67 45 68 50 69 46 70 47 71 49 72 51 73 48 74
REMARK SMILES IDX 70 75 71 76 76 77 72 78 73 79 75 80 77 81 74 82 58 83 59 84
REMARK SMILES IDX 64 85 60 86 61 87 63 88 65 89 62 90
REMARK H PARENT 82 52 56 63
REMARK Flexibility Score: inf
ROOT
ATOM      1  C   UNL A   1      40.216  20.828  26.303  1.00  0.00     0.188 C 
ENDROOT
BRANCH   1   2
ATOM      2  O   UNL A   1      39.395  21.946  26.534  1.00  0.00    -0.377 OA
BRANCH   2   3
ATOM      3  C   UNL A   1      38.224  22.085  25.752  1.00  0.00     0.188 C 
BRANCH   3   4
ATOM      4  C   UNL A   1      37.626  23.474  25.469  1.00  0.00     0.188 C 
BRANCH   4   5
ATOM      5  O   UNL A   1      36.673  23.486  24.421  1.00  0.00    -0.376 OA
BRANCH   5   6
ATOM      6  C   UNL A   1      35.355  23.090  24.751  1.00  0.00     0.202 C 
BRANCH   6   7
ATOM      7  C   UNL A   1      34.657  24.040  25.722  1.00  0.00     0.261 C 
BRANCH   7   8
ATOM      8  O   UNL A   1      34.535  25.446  25.396  1.00  0.00    -0.463 OA
BRANCH   8   9
ATOM      9  C   UNL A   1      33.433  26.191  25.650  1.00  0.00     0.317 C 
ATOM     10  O   UNL A   1      32.543  25.943  26.445  1.00  0.00    -0.251 OA
BRANCH   9  11
ATOM     11  C   UNL A   1      33.391  27.379  24.744  1.00  0.00     0.173 C 
ATOM     12  C   UNL A   1      33.663  29.146  26.662  1.00  0.00     0.063 C 
ATOM     13  C   UNL A   1      32.882  28.621  25.474  1.00  0.00     0.036 C 
ATOM     14  N   UNL A   1      31.856  29.327  25.130  1.00  0.00    -0.220 NA
ATOM     15  C   UNL A   1      31.138  28.958  24.053  1.00  0.00     0.248 A 
ATOM     16  C   UNL A   1      32.600  27.020  23.461  1.00  0.00     0.161 C 
ATOM     17  N   UNL A   1      30.121  29.579  23.500  1.00  0.00    -0.198 NA
ATOM     18  N   UNL A   1      31.419  27.850  23.295  1.00  0.00    -0.221 N 
ATOM     19  C   UNL A   1      29.857  28.846  22.384  1.00  0.00     0.248 A 
ATOM     20  N   UNL A   1      30.655  27.796  22.188  1.00  0.00    -0.157 NA
BRANCH  16  21
ATOM     21  C   UNL A   1      32.288  25.540  23.155  1.00  0.00    -0.022 A 
ATOM     22  C   UNL A   1      33.161  24.815  22.326  1.00  0.00     0.009 A 
ATOM     23  C   UNL A   1      31.162  24.856  23.660  1.00  0.00     0.009 A 
ATOM     24  C   UNL A   1      32.983  23.445  22.114  1.00  0.00     0.039 A 
ATOM     25  C   UNL A   1      31.030  23.471  23.521  1.00  0.00     0.039 A 
ATOM     26  C   UNL A   1      31.948  22.777  22.754  1.00  0.00     0.123 A 
ATOM     27  F   UNL A   1      31.825  21.451  22.613  1.00  0.00    -0.207 F 
ENDBRANCH  16  21
ENDBRANCH   9  11
ENDBRANCH   8   9
ENDBRANCH   7   8
ENDBRANCH   6   7
ENDBRANCH   5   6
ENDBRANCH   4   5
ENDBRANCH   3   4
ENDBRANCH   2   3
ENDBRANCH   1   2
BRANCH   1  28
ATOM     28  C   UNL A   1      41.320  20.475  27.326  1.00  0.00     0.188 C 
BRANCH  28  29
ATOM     29  O   UNL A   1      41.925  19.209  27.546  1.00  0.00    -0.376 OA
BRANCH  29  30
ATOM     30  C   UNL A   1      43.021  18.566  26.916  1.00  0.00     0.202 C 
BRANCH  30  31
ATOM     31  C   UNL A   1      43.285  18.493  25.422  1.00  0.00     0.261 C 
BRANCH  31  32
ATOM     32  O   UNL A   1      43.405  19.744  24.816  1.00  0.00    -0.460 OA
BRANCH  32  33
ATOM     33  C   UNL A   1      44.525  19.809  24.072  1.00  0.00     0.338 C 
ATOM     34  O   UNL A   1      45.069  18.911  23.457  1.00  0.00    -0.246 OA
BRANCH  33  35
ATOM     35  C   UNL A   1      45.108  21.129  24.256  1.00  0.00     0.060 A 
ATOM     36  C   UNL A   1      45.963  21.221  25.349  1.00  0.00     0.016 A 
ATOM     37  C   UNL A   1      44.376  22.204  23.738  1.00  0.00     0.016 A 
ATOM     38  C   UNL A   1      45.837  22.331  26.135  1.00  0.00     0.010 A 
ATOM     39  C   UNL A   1      44.220  23.291  24.543  1.00  0.00     0.010 A 
ATOM     40  C   UNL A   1      44.889  23.292  25.765  1.00  0.00    -0.014 A 
BRANCH  40  41
ATOM     41  C   UNL A   1      44.739  24.428  26.630  1.00  0.00     0.031 A 
ATOM     42  C   UNL A   1      45.947  25.267  26.570  1.00  0.00     0.074 A 
ATOM     43  C   UNL A   1      43.593  24.685  27.280  1.00  0.00     0.049 A 
ATOM     44  N   UNL A   1      46.822  25.435  27.500  1.00  0.00    -0.248 NA
ATOM     45  C   UNL A   1      46.360  25.788  25.251  1.00  0.00     0.031 C 
ATOM     46  C   UNL A   1      42.308  24.004  27.098  1.00  0.00     0.029 A 
ATOM     47  N   UNL A   1      43.295  25.690  28.147  1.00  0.00    -0.354 N 
ATOM     48  C   UNL A   1      47.726  26.340  26.961  1.00  0.00     0.074 A 
ATOM     49  C   UNL A   1      47.552  26.310  25.536  1.00  0.00     0.031 C 
ATOM     50  C   UNL A   1      41.328  24.764  27.636  1.00  0.00     0.029 A 
ATOM     51  C   UNL A   1      41.931  25.907  28.299  1.00  0.00     0.049 A 
ATOM     52  H   UNL A   1      43.979  26.215  28.620  1.00  0.00     0.167 HD
ATOM     53  C   UNL A   1      48.206  27.334  27.751  1.00  0.00     0.037 A 
ATOM     54  C   UNL A   1      41.360  27.002  28.858  1.00  0.00     0.037 A 
ATOM     55  C   UNL A   1      48.028  27.015  29.144  1.00  0.00     0.049 A 
ATOM     56  C   UNL A   1      42.384  27.660  29.706  1.00  0.00     0.074 A 
ATOM     57  C   UNL A   1      48.595  26.149  30.053  1.00  0.00     0.029 A 
ATOM     58  N   UNL A   1      46.811  27.392  29.644  1.00  0.00    -0.354 N 
ATOM     59  N   UNL A   1      42.855  27.140  30.806  1.00  0.00    -0.248 NA
ATOM     60  C   UNL A   1      43.159  28.773  29.164  1.00  0.00     0.031 C 
ATOM     61  C   UNL A   1      47.629  25.957  31.084  1.00  0.00     0.029 A 
ATOM     62  C   UNL A   1      46.502  26.725  30.796  1.00  0.00     0.049 A 
ATOM     63  H   UNL A   1      46.227  28.065  29.222  1.00  0.00     0.167 HD
ATOM     64  C   UNL A   1      44.171  27.555  30.842  1.00  0.00     0.074 A 
ATOM     65  C   UNL A   1      44.244  28.694  29.938  1.00  0.00     0.031 C 
ATOM     66  C   UNL A   1      45.150  26.728  31.309  1.00  0.00     0.037 A 
BRANCH  53  67
ATOM     67  C   UNL A   1      48.297  28.770  27.293  1.00  0.00     0.057 A 
ATOM     68  C   UNL A   1      47.187  29.601  27.019  1.00  0.00     0.134 A 
ATOM     69  C   UNL A   1      49.522  29.440  27.433  1.00  0.00     0.134 A 
ATOM     70  F   UNL A   1      45.929  29.146  26.987  1.00  0.00    -0.206 F 
ATOM     71  C   UNL A   1      47.290  30.985  26.875  1.00  0.00     0.040 A 
ATOM     72  C   UNL A   1      49.626  30.833  27.347  1.00  0.00     0.040 A 
ATOM     73  F   UNL A   1      50.640  28.764  27.738  1.00  0.00    -0.206 F 
ATOM     74  C   UNL A   1      48.508  31.610  27.065  1.00  0.00     0.006 A 
ENDBRANCH  53  67
BRANCH  54  75
ATOM     75  C   UNL A   1      40.082  27.667  28.514  1.00  0.00     0.057 A 
ATOM     76  C   UNL A   1      39.930  28.463  27.365  1.00  0.00     0.134 A 
ATOM     77  C   UNL A   1      39.053  27.763  29.464  1.00  0.00     0.134 A 
ATOM     78  F   UNL A   1      40.871  28.500  26.411  1.00  0.00    -0.206 F 
ATOM     79  C   UNL A   1      38.846  29.328  27.190  1.00  0.00     0.040 A 
ATOM     80  C   UNL A   1      37.971  28.638  29.309  1.00  0.00     0.040 A 
ATOM     81  F   UNL A   1      39.114  27.064  30.607  1.00  0.00    -0.206 F 
ATOM     82  C   UNL A   1      37.874  29.435  28.175  1.00  0.00     0.006 A 
ENDBRANCH  54  75
BRANCH  66  83
ATOM     83  C   UNL A   1      44.755  25.663  32.283  1.00  0.00     0.057 A 
ATOM     84  C   UNL A   1      44.546  24.368  31.793  1.00  0.00     0.134 A 
ATOM     85  C   UNL A   1      44.508  25.877  33.645  1.00  0.00     0.134 A 
ATOM     86  F   UNL A   1      44.729  24.101  30.490  1.00  0.00    -0.206 F 
ATOM     87  C   UNL A   1      44.110  23.329  32.614  1.00  0.00     0.040 A 
ATOM     88  C   UNL A   1      44.107  24.835  34.488  1.00  0.00     0.040 A 
ATOM     89  F   UNL A   1      44.608  27.099  34.187  1.00  0.00    -0.206 F 
ATOM     90  C   UNL A   1      43.900  23.558  33.970  1.00  0.00     0.006 A 
ENDBRANCH  66  83
ENDBRANCH  40  41
ENDBRANCH  33  35
ENDBRANCH  32  33
ENDBRANCH  31  32
ENDBRANCH  30  31
ENDBRANCH  29  30
ENDBRANCH  28  29
ENDBRANCH   1  28
TORSDOF 21
ENDMDL
MODEL 2
REMARK VINA RESULT:     -10.9      2.121      3.246
REMARK SMILES CC1=Nc2ncnn2[C@H](c2ccc(F)cc2)[C@@H]1C(=O)OCCOCCOCCOCCOC(=O)c1ccc(-c2c3nc(c(-c4c(F)cccc4F)c4ccc([nH]4)c(-c4c(F)cccc4F)c4nc(c(-c5c(F)cccc5F)c5ccc2[nH]5)C=C4)C=C3)cc1
REMARK SMILES IDX 27 1 26 2 25 3 24 4 23 5 22 6 21 7 20 8 18 9 19 10 17 11
REMARK SMILES IDX 1 12 2 13 3 14 4 15 9 16 5 17 8 18 6 19 7 20 10 21 11 22
REMARK SMILES IDX 16 23 12 24 15 25 13 26 14 27 28 28 29 29 30 30 31 31 32 32
REMARK SMILES IDX 33 33 34 34 35 35 36 36 88 37 37 38 87 39 38 40 39 41 40 42
REMARK SMILES IDX 81 43 41 44 86 45 80 46 82 47 42 48 85 49 79 50 78 51 43 53
REMARK SMILES IDX 69 54 52 55 68 56 53 57 56 58 67 59 83 60 54 61 55 62 66 64
REMARK SMILES IDX 84 65 57 66 44 67 45 68 50 69 46 70 47 71 49 72 51 73 48 74
REMARK SMILES IDX 70 75 71 76 76 77 72 78 73 79 75 80 77 81 74 82 58 83 59 84
REMARK SMILES IDX 64 85 60 86 61 87 63 88 65 89 62 90
REMARK H PARENT 82 52 56 63
REMARK Flexibility Score: inf
ROOT
ATOM      1  C   UNL A   1      40.153  22.392  26.527  1.00  0.00     0.188 C 
ENDROOT
BRANCH   1   2
ATOM      2  O   UNL A   1      38.782  22.104  26.412  1.00  0.00    -0.377 OA
BRANCH   2   3
ATOM      3  C   UNL A   1      38.370  21.226  25.382  1.00  0.00     0.188 C 
BRANCH   3   4
ATOM      4  C   UNL A   1      37.087  21.499  24.578  1.00  0.00     0.188 C 
BRANCH   4   5
ATOM      5  O   UNL A   1      36.149  22.318  25.254  1.00  0.00    -0.376 OA
BRANCH   5   6
ATOM      6  C   UNL A   1      35.311  21.682  26.200  1.00  0.00     0.202 C 
BRANCH   6   7
ATOM      7  C   UNL A   1      34.478  22.657  27.029  1.00  0.00     0.261 C 
BRANCH   7   8
ATOM      8  O   UNL A   1      33.644  23.640  26.367  1.00  0.00    -0.463 OA
BRANCH   8   9
ATOM      9  C   UNL A   1      32.303  23.734  26.536  1.00  0.00     0.317 C 
ATOM     10  O   UNL A   1      31.689  23.708  27.588  1.00  0.00    -0.251 OA
BRANCH   9  11
ATOM     11  C   UNL A   1      31.619  23.804  25.209  1.00  0.00     0.173 C 
ATOM     12  C   UNL A   1      31.980  21.273  24.624  1.00  0.00     0.063 C 
ATOM     13  C   UNL A   1      32.143  22.732  24.253  1.00  0.00     0.036 C 
ATOM     14  N   UNL A   1      32.670  22.954  23.093  1.00  0.00    -0.220 NA
ATOM     15  C   UNL A   1      32.802  24.222  22.665  1.00  0.00     0.248 A 
ATOM     16  C   UNL A   1      31.705  25.250  24.661  1.00  0.00     0.161 C 
ATOM     17  N   UNL A   1      33.234  24.648  21.500  1.00  0.00    -0.198 NA
ATOM     18  N   UNL A   1      32.425  25.316  23.400  1.00  0.00    -0.221 N 
ATOM     19  C   UNL A   1      33.048  25.995  21.553  1.00  0.00     0.248 A 
ATOM     20  N   UNL A   1      32.512  26.453  22.685  1.00  0.00    -0.157 NA
BRANCH  16  21
ATOM     21  C   UNL A   1      32.134  26.392  25.607  1.00  0.00    -0.022 A 
ATOM     22  C   UNL A   1      33.479  26.797  25.621  1.00  0.00     0.009 A 
ATOM     23  C   UNL A   1      31.248  27.065  26.474  1.00  0.00     0.009 A 
ATOM     24  C   UNL A   1      33.892  27.901  26.374  1.00  0.00     0.039 A 
ATOM     25  C   UNL A   1      31.639  28.220  27.159  1.00  0.00     0.039 A 
ATOM     26  C   UNL A   1      32.958  28.631  27.097  1.00  0.00     0.123 A 
ATOM     27  F   UNL A   1      33.341  29.733  27.754  1.00  0.00    -0.207 F 
ENDBRANCH  16  21
ENDBRANCH   9  11
ENDBRANCH   8   9
ENDBRANCH   7   8
ENDBRANCH   6   7
ENDBRANCH   5   6
ENDBRANCH   4   5
ENDBRANCH   3   4
ENDBRANCH   2   3
ENDBRANCH   1   2
BRANCH   1  28
ATOM     28  C   UNL A   1      40.941  21.847  27.742  1.00  0.00     0.188 C 
BRANCH  28  29
ATOM     29  O   UNL A   1      41.881  20.783  27.758  1.00  0.00    -0.376 OA
BRANCH  29  30
ATOM     30  C   UNL A   1      42.061  19.671  26.896  1.00  0.00     0.202 C 
BRANCH  30  31
ATOM     31  C   UNL A   1      42.832  19.661  25.589  1.00  0.00     0.261 C 
BRANCH  31  32
ATOM     32  O   UNL A   1      43.156  20.935  25.123  1.00  0.00    -0.460 OA
BRANCH  32  33
ATOM     33  C   UNL A   1      44.487  21.132  25.154  1.00  0.00     0.338 C 
ATOM     34  O   UNL A   1      45.361  20.312  25.364  1.00  0.00    -0.246 OA
BRANCH  33  35
ATOM     35  C   UNL A   1      44.730  22.563  25.064  1.00  0.00     0.060 A 
ATOM     36  C   UNL A   1      45.718  23.024  25.928  1.00  0.00     0.016 A 
ATOM     37  C   UNL A   1      43.661  23.342  24.607  1.00  0.00     0.016 A 
ATOM     38  C   UNL A   1      45.453  24.184  26.600  1.00  0.00     0.010 A 
ATOM     39  C   UNL A   1      43.378  24.477  25.305  1.00  0.00     0.010 A 
ATOM     40  C   UNL A   1      44.237  24.827  26.344  1.00  0.00    -0.014 A 
BRANCH  40  41
ATOM     41  C   UNL A   1      43.959  26.018  27.094  1.00  0.00     0.031 A 
ATOM     42  C   UNL A   1      44.973  27.044  26.802  1.00  0.00     0.074 A 
ATOM     43  C   UNL A   1      42.853  26.149  27.845  1.00  0.00     0.049 A 
ATOM     44  N   UNL A   1      45.886  27.481  27.599  1.00  0.00    -0.248 NA
ATOM     45  C   UNL A   1      45.149  27.459  25.396  1.00  0.00     0.031 C 
ATOM     46  C   UNL A   1      41.709  25.233  27.891  1.00  0.00     0.029 A 
ATOM     47  N   UNL A   1      42.454  27.187  28.629  1.00  0.00    -0.354 N 
ATOM     48  C   UNL A   1      46.544  28.457  26.862  1.00  0.00     0.074 A 
ATOM     49  C   UNL A   1      46.242  28.215  25.480  1.00  0.00     0.031 C 
ATOM     50  C   UNL A   1      40.660  25.870  28.457  1.00  0.00     0.029 A 
ATOM     51  C   UNL A   1      41.096  27.176  28.918  1.00  0.00     0.049 A 
ATOM     52  H   UNL A   1      43.069  27.881  28.958  1.00  0.00     0.167 HD
ATOM     53  C   UNL A   1      46.901  29.612  27.479  1.00  0.00     0.037 A 
ATOM     54  C   UNL A   1      40.383  28.214  29.420  1.00  0.00     0.037 A 
ATOM     55  C   UNL A   1      46.924  29.446  28.909  1.00  0.00     0.049 A 
ATOM     56  C   UNL A   1      41.341  29.146  30.066  1.00  0.00     0.074 A 
ATOM     57  C   UNL A   1      47.730  28.818  29.832  1.00  0.00     0.029 A 
ATOM     58  N   UNL A   1      45.711  29.662  29.507  1.00  0.00    -0.354 N 
ATOM     59  N   UNL A   1      42.006  28.862  31.150  1.00  0.00    -0.248 NA
ATOM     60  C   UNL A   1      41.834  30.301  29.319  1.00  0.00     0.031 C 
ATOM     61  C   UNL A   1      46.922  28.590  30.985  1.00  0.00     0.029 A 
ATOM     62  C   UNL A   1      45.648  29.102  30.753  1.00  0.00     0.049 A 
ATOM     63  H   UNL A   1      44.972  30.161  29.088  1.00  0.00     0.167 HD
ATOM     64  C   UNL A   1      43.217  29.505  30.985  1.00  0.00     0.074 A 
ATOM     65  C   UNL A   1      42.984  30.515  29.963  1.00  0.00     0.031 C 
ATOM     66  C   UNL A   1      44.376  28.931  31.418  1.00  0.00     0.037 A 
BRANCH  53  67
ATOM     67  C   UNL A   1      46.673  30.971  26.862  1.00  0.00     0.057 A 
ATOM     68  C   UNL A   1      45.403  31.524  26.575  1.00  0.00     0.134 A 
ATOM     69  C   UNL A   1      47.737  31.886  26.846  1.00  0.00     0.134 A 
ATOM     70  F   UNL A   1      44.267  30.824  26.677  1.00  0.00    -0.206 F 
ATOM     71  C   UNL A   1      45.211  32.872  26.274  1.00  0.00     0.040 A 
ATOM     72  C   UNL A   1      47.546  33.250  26.602  1.00  0.00     0.040 A 
ATOM     73  F   UNL A   1      48.983  31.489  27.147  1.00  0.00    -0.206 F 
ATOM     74  C   UNL A   1      46.281  33.748  26.313  1.00  0.00     0.006 A 
ENDBRANCH  53  67
BRANCH  54  75
ATOM     75  C   UNL A   1      38.975  28.593  29.162  1.00  0.00     0.057 A 
ATOM     76  C   UNL A   1      38.569  29.222  27.972  1.00  0.00     0.134 A 
ATOM     77  C   UNL A   1      38.038  28.598  30.206  1.00  0.00     0.134 A 
ATOM     78  F   UNL A   1      39.394  29.332  26.921  1.00  0.00    -0.206 F 
ATOM     79  C   UNL A   1      37.326  29.850  27.842  1.00  0.00     0.040 A 
ATOM     80  C   UNL A   1      36.797  29.237  30.095  1.00  0.00     0.040 A 
ATOM     81  F   UNL A   1      38.335  28.046  31.391  1.00  0.00    -0.206 F 
ATOM     82  C   UNL A   1      36.445  29.880  28.914  1.00  0.00     0.006 A 
ENDBRANCH  54  75
BRANCH  66  83
ATOM     83  C   UNL A   1      44.287  27.945  32.542  1.00  0.00     0.057 A 
ATOM     84  C   UNL A   1      44.448  28.422  33.848  1.00  0.00     0.134 A 
ATOM     85  C   UNL A   1      44.124  26.563  32.382  1.00  0.00     0.134 A 
ATOM     86  F   UNL A   1      44.644  29.731  34.071  1.00  0.00    -0.206 F 
ATOM     87  C   UNL A   1      44.448  27.568  34.950  1.00  0.00     0.040 A 
ATOM     88  C   UNL A   1      44.084  25.700  33.481  1.00  0.00     0.040 A 
ATOM     89  F   UNL A   1      44.039  26.009  31.164  1.00  0.00    -0.206 F 
ATOM     90  C   UNL A   1      44.254  26.202  34.770  1.00  0.00     0.006 A 
ENDBRANCH  66  83
ENDBRANCH  40  41
ENDBRANCH  33  35
ENDBRANCH  32  33
ENDBRANCH  31  32
ENDBRANCH  30  31
ENDBRANCH  29  30
ENDBRANCH  28  29
ENDBRANCH   1  28
TORSDOF 21
ENDMDL
MODEL 3
REMARK VINA RESULT:     -10.9      2.361      3.430
REMARK SMILES CC1=Nc2ncnn2[C@H](c2ccc(F)cc2)[C@@H]1C(=O)OCCOCCOCCOCCOC(=O)c1ccc(-c2c3nc(c(-c4c(F)cccc4F)c4ccc([nH]4)c(-c4c(F)cccc4F)c4nc(c(-c5c(F)cccc5F)c5ccc2[nH]5)C=C4)C=C3)cc1
REMARK SMILES IDX 27 1 26 2 25 3 24 4 23 5 22 6 21 7 20 8 18 9 19 10 17 11
REMARK SMILES IDX 1 12 2 13 3 14 4 15 9 16 5 17 8 18 6 19 7 20 10 21 11 22
REMARK SMILES IDX 16 23 12 24 15 25 13 26 14 27 28 28 29 29 30 30 31 31 32 32
REMARK SMILES IDX 33 33 34 34 35 35 36 36 88 37 37 38 87 39 38 40 39 41 40 42
REMARK SMILES IDX 81 43 41 44 86 45 80 46 82 47 42 48 85 49 79 50 78 51 43 53
REMARK SMILES IDX 69 54 52 55 68 56 53 57 56 58 67 59 83 60 54 61 55 62 66 64
REMARK SMILES IDX 84 65 57 66 44 67 45 68 50 69 46 70 47 71 49 72 51 73 48 74
REMARK SMILES IDX 70 75 71 76 76 77 72 78 73 79 75 80 77 81 74 82 58 83 59 84
REMARK SMILES IDX 64 85 60 86 61 87 63 88 65 89 62 90
REMARK H PARENT 82 52 56 63
REMARK Flexibility Score: inf
ROOT
ATOM      1  C   UNL A   1      42.175  19.365  26.965  1.00  0.00     0.188 C 
ENDROOT
BRANCH   1   2
ATOM      2  O   UNL A   1      41.324  20.166  26.183  1.00  0.00    -0.377 OA
BRANCH   2   3
ATOM      3  C   UNL A   1      40.376  20.978  26.849  1.00  0.00     0.188 C 
BRANCH   3   4
ATOM      4  C   UNL A   1      39.589  22.057  26.088  1.00  0.00     0.188 C 
BRANCH   4   5
ATOM      5  O   UNL A   1      38.186  21.864  26.102  1.00  0.00    -0.376 OA
BRANCH   5   6
ATOM      6  C   UNL A   1      37.420  22.675  25.232  1.00  0.00     0.202 C 
BRANCH   6   7
ATOM      7  C   UNL A   1      36.083  22.052  24.837  1.00  0.00     0.261 C 
BRANCH   7   8
ATOM      8  O   UNL A   1      34.899  22.881  24.739  1.00  0.00    -0.463 OA
BRANCH   8   9
ATOM      9  C   UNL A   1      34.305  23.221  23.570  1.00  0.00     0.317 C 
ATOM     10  O   UNL A   1      34.765  23.102  22.448  1.00  0.00    -0.251 OA
BRANCH   9  11
ATOM     11  C   UNL A   1      32.980  23.861  23.830  1.00  0.00     0.173 C 
ATOM     12  C   UNL A   1      33.978  26.143  24.651  1.00  0.00     0.063 C 
ATOM     13  C   UNL A   1      33.084  24.947  24.902  1.00  0.00     0.036 C 
ATOM     14  N   UNL A   1      32.415  24.976  26.008  1.00  0.00    -0.220 NA
ATOM     15  C   UNL A   1      31.558  23.976  26.282  1.00  0.00     0.248 A 
ATOM     16  C   UNL A   1      31.928  22.764  24.129  1.00  0.00     0.161 C 
ATOM     17  N   UNL A   1      30.738  23.863  27.302  1.00  0.00    -0.198 NA
ATOM     18  N   UNL A   1      31.360  22.898  25.460  1.00  0.00    -0.221 N 
ATOM     19  C   UNL A   1      30.026  22.737  27.027  1.00  0.00     0.248 A 
ATOM     20  N   UNL A   1      30.339  22.128  25.883  1.00  0.00    -0.157 NA
BRANCH  16  21
ATOM     21  C   UNL A   1      32.262  21.291  23.812  1.00  0.00    -0.022 A 
ATOM     22  C   UNL A   1      32.726  20.459  24.845  1.00  0.00     0.009 A 
ATOM     23  C   UNL A   1      32.132  20.716  22.530  1.00  0.00     0.009 A 
ATOM     24  C   UNL A   1      32.931  19.092  24.633  1.00  0.00     0.039 A 
ATOM     25  C   UNL A   1      32.252  19.336  22.337  1.00  0.00     0.039 A 
ATOM     26  C   UNL A   1      32.645  18.536  23.394  1.00  0.00     0.123 A 
ATOM     27  F   UNL A   1      32.767  17.214  23.215  1.00  0.00    -0.207 F 
ENDBRANCH  16  21
ENDBRANCH   9  11
ENDBRANCH   8   9
ENDBRANCH   7   8
ENDBRANCH   6   7
ENDBRANCH   5   6
ENDBRANCH   4   5
ENDBRANCH   3   4
ENDBRANCH   2   3
ENDBRANCH   1   2
BRANCH   1  28
ATOM     28  C   UNL A   1      43.181  18.421  26.264  1.00  0.00     0.188 C 
BRANCH  28  29
ATOM     29  O   UNL A   1      44.101  18.747  25.233  1.00  0.00    -0.376 OA
BRANCH  29  30
ATOM     30  C   UNL A   1      45.510  18.902  25.241  1.00  0.00     0.202 C 
BRANCH  30  31
ATOM     31  C   UNL A   1      46.295  20.039  24.611  1.00  0.00     0.261 C 
BRANCH  31  32
ATOM     32  O   UNL A   1      45.995  21.289  25.151  1.00  0.00    -0.460 OA
BRANCH  32  33
ATOM     33  C   UNL A   1      44.930  21.834  24.534  1.00  0.00     0.338 C 
ATOM     34  O   UNL A   1      44.753  21.988  23.340  1.00  0.00    -0.246 OA
BRANCH  33  35
ATOM     35  C   UNL A   1      44.056  22.387  25.557  1.00  0.00     0.060 A 
ATOM     36  C   UNL A   1      43.051  23.208  25.056  1.00  0.00     0.016 A 
ATOM     37  C   UNL A   1      44.606  22.511  26.837  1.00  0.00     0.016 A 
ATOM     38  C   UNL A   1      42.819  24.374  25.729  1.00  0.00     0.010 A 
ATOM     39  C   UNL A   1      44.405  23.692  27.486  1.00  0.00     0.010 A 
ATOM     40  C   UNL A   1      43.581  24.633  26.874  1.00  0.00    -0.014 A 
BRANCH  40  41
ATOM     41  C   UNL A   1      43.354  25.884  27.539  1.00  0.00     0.031 A 
ATOM     42  C   UNL A   1      44.427  26.834  27.204  1.00  0.00     0.074 A 
ATOM     43  C   UNL A   1      42.243  26.122  28.256  1.00  0.00     0.049 A 
ATOM     44  N   UNL A   1      45.349  27.273  27.991  1.00  0.00    -0.248 NA
ATOM     45  C   UNL A   1      44.652  27.145  25.778  1.00  0.00     0.031 C 
ATOM     46  C   UNL A   1      41.051  25.273  28.335  1.00  0.00     0.029 A 
ATOM     47  N   UNL A   1      41.887  27.229  28.962  1.00  0.00    -0.354 N 
ATOM     48  C   UNL A   1      46.072  28.162  27.208  1.00  0.00     0.074 A 
ATOM     49  C   UNL A   1      45.783  27.847  25.837  1.00  0.00     0.031 C 
ATOM     50  C   UNL A   1      40.027  26.000  28.836  1.00  0.00     0.029 A 
ATOM     51  C   UNL A   1      40.525  27.309  29.221  1.00  0.00     0.049 A 
ATOM     52  H   UNL A   1      42.532  27.909  29.259  1.00  0.00     0.167 HD
ATOM     53  C   UNL A   1      46.479  29.334  27.756  1.00  0.00     0.037 A 
ATOM     54  C   UNL A   1      39.860  28.413  29.639  1.00  0.00     0.037 A 
ATOM     55  C   UNL A   1      46.466  29.262  29.194  1.00  0.00     0.049 A 
ATOM     56  C   UNL A   1      40.855  29.333  30.245  1.00  0.00     0.074 A 
ATOM     57  C   UNL A   1      47.220  28.653  30.173  1.00  0.00     0.029 A 
ATOM     58  N   UNL A   1      45.256  29.580  29.750  1.00  0.00    -0.354 N 
ATOM     59  N   UNL A   1      41.484  29.087  31.360  1.00  0.00    -0.248 NA
ATOM     60  C   UNL A   1      41.424  30.410  29.436  1.00  0.00     0.031 C 
ATOM     61  C   UNL A   1      46.380  28.545  31.320  1.00  0.00     0.029 A 
ATOM     62  C   UNL A   1      45.140  29.107  31.028  1.00  0.00     0.049 A 
ATOM     63  H   UNL A   1      44.553  30.090  29.284  1.00  0.00     0.167 HD
ATOM     64  C   UNL A   1      42.730  29.652  31.180  1.00  0.00     0.074 A 
ATOM     65  C   UNL A   1      42.571  30.604  30.090  1.00  0.00     0.031 C 
ATOM     66  C   UNL A   1      43.848  29.047  31.675  1.00  0.00     0.037 A 
BRANCH  53  67
ATOM     67  C   UNL A   1      46.336  30.660  27.048  1.00  0.00     0.057 A 
ATOM     68  C   UNL A   1      45.104  31.267  26.712  1.00  0.00     0.134 A 
ATOM     69  C   UNL A   1      47.454  31.507  26.981  1.00  0.00     0.134 A 
ATOM     70  F   UNL A   1      43.928  30.645  26.849  1.00  0.00    -0.206 F 
ATOM     71  C   UNL A   1      44.994  32.602  26.321  1.00  0.00     0.040 A 
ATOM     72  C   UNL A   1      47.346  32.862  26.646  1.00  0.00     0.040 A 
ATOM     73  F   UNL A   1      48.672  31.059  27.320  1.00  0.00    -0.206 F 
ATOM     74  C   UNL A   1      46.114  33.413  26.312  1.00  0.00     0.006 A 
ENDBRANCH  53  67
BRANCH  54  75
ATOM     75  C   UNL A   1      38.479  28.848  29.326  1.00  0.00     0.057 A 
ATOM     76  C   UNL A   1      38.128  29.409  28.086  1.00  0.00     0.134 A 
ATOM     77  C   UNL A   1      37.528  28.982  30.349  1.00  0.00     0.134 A 
ATOM     78  F   UNL A   1      38.975  29.395  27.046  1.00  0.00    -0.206 F 
ATOM     79  C   UNL A   1      36.925  30.092  27.885  1.00  0.00     0.040 A 
ATOM     80  C   UNL A   1      36.327  29.678  30.166  1.00  0.00     0.040 A 
ATOM     81  F   UNL A   1      37.775  28.504  31.577  1.00  0.00    -0.206 F 
ATOM     82  C   UNL A   1      36.030  30.249  28.935  1.00  0.00     0.006 A 
ENDBRANCH  54  75
BRANCH  66  83
ATOM     83  C   UNL A   1      43.685  28.143  32.857  1.00  0.00     0.057 A 
ATOM     84  C   UNL A   1      43.607  28.729  34.126  1.00  0.00     0.134 A 
ATOM     85  C   UNL A   1      43.674  26.744  32.798  1.00  0.00     0.134 A 
ATOM     86  F   UNL A   1      43.649  30.065  34.258  1.00  0.00    -0.206 F 
ATOM     87  C   UNL A   1      43.523  27.964  35.288  1.00  0.00     0.040 A 
ATOM     88  C   UNL A   1      43.552  25.965  33.953  1.00  0.00     0.040 A 
ATOM     89  F   UNL A   1      43.820  26.096  31.634  1.00  0.00    -0.206 F 
ATOM     90  C   UNL A   1      43.484  26.576  35.204  1.00  0.00     0.006 A 
ENDBRANCH  66  83
ENDBRANCH  40  41
ENDBRANCH  33  35
ENDBRANCH  32  33
ENDBRANCH  31  32
ENDBRANCH  30  31
ENDBRANCH  29  30
ENDBRANCH  28  29
ENDBRANCH   1  28
TORSDOF 21
ENDMDL
