MODEL 1
REMARK VINA RESULT:      -8.5      0.000      0.000
REMARK SMILES CCCCCCNC(=O)Oc1cccc(-c2ccc([C@@H](C)C(=O)OCCOCCOCCOCCOC(=O)c3ccc(-c4c5nc(c(-c6c(F)cccc6F)c6ccc([nH]6)c(-c6c(F)cccc6F)c6nc(c(-c7c(F)cccc7F)c7ccc4[nH]7)C=C6)C=C5)cc3)cc2F)c1
REMARK SMILES IDX 26 1 25 2 24 3 22 4 23 5 20 6 21 7 19 8 16 9 17 10 94 11
REMARK SMILES IDX 18 12 93 13 95 14 15 15 11 16 12 17 96 18 13 19 14 20 10 21
REMARK SMILES IDX 8 22 7 23 9 25 6 26 5 27 4 28 3 29 2 30 1 31 27 32 28 33
REMARK SMILES IDX 29 34 30 35 31 36 32 37 33 38 34 39 35 40 36 41 37 42 38 43
REMARK SMILES IDX 39 44 40 45 92 46 41 47 91 48 42 49 43 50 44 51 85 52 45 53
REMARK SMILES IDX 90 54 84 55 86 56 46 57 89 58 83 59 82 60 47 62 73 63 56 64
REMARK SMILES IDX 72 65 57 66 60 67 71 68 87 69 58 70 59 71 70 73 88 74 61 75
REMARK SMILES IDX 48 76 49 77 54 78 50 79 51 80 53 81 55 82 52 83 74 84 75 85
REMARK SMILES IDX 80 86 76 87 77 88 79 89 81 90 78 91 62 92 63 93 68 94 64 95
REMARK SMILES IDX 65 96 67 97 69 98 66 99
REMARK H PARENT 7 24 86 61 60 72
REMARK Flexibility Score: inf
ROOT
ATOM      1  C   UNL A   1      40.744  26.566  27.101  1.00  0.00     0.202 C 
ENDROOT
BRANCH   1   2
ATOM      2  C   UNL A   1      41.727  25.416  26.801  1.00  0.00     0.261 C 
BRANCH   2   3
ATOM      3  O   UNL A   1      41.440  24.133  27.396  1.00  0.00    -0.463 OA
BRANCH   3   4
ATOM      4  C   UNL A   1      41.358  23.085  26.546  1.00  0.00     0.313 C 
ATOM      5  O   UNL A   1      42.129  22.920  25.602  1.00  0.00    -0.252 OA
BRANCH   4   6
ATOM      6  C   UNL A   1      40.215  22.102  26.796  1.00  0.00     0.126 C 
ATOM      7  C   UNL A   1      40.724  20.693  26.513  1.00  0.00     0.025 C 
BRANCH   6   8
ATOM      8  C   UNL A   1      38.824  22.317  26.197  1.00  0.00    -0.031 A 
ATOM      9  C   UNL A   1      36.199  22.577  25.046  1.00  0.00     0.018 A 
ATOM     10  C   UNL A   1      36.858  23.668  25.648  1.00  0.00     0.012 A 
ATOM     11  C   UNL A   1      36.886  21.359  25.040  1.00  0.00     0.131 A 
ATOM     12  C   UNL A   1      38.146  23.543  26.212  1.00  0.00     0.005 A 
ATOM     13  C   UNL A   1      38.170  21.228  25.584  1.00  0.00     0.044 A 
ATOM     14  F   UNL A   1      36.326  20.270  24.488  1.00  0.00    -0.206 F 
BRANCH   9  15
ATOM     15  C   UNL A   1      34.876  22.727  24.403  1.00  0.00    -0.012 A 
ATOM     16  C   UNL A   1      33.082  24.084  23.462  1.00  0.00     0.133 A 
ATOM     17  C   UNL A   1      32.281  22.958  23.286  1.00  0.00     0.047 A 
ATOM     18  C   UNL A   1      34.362  23.982  24.022  1.00  0.00     0.056 A 
ATOM     19  C   UNL A   1      32.774  21.710  23.654  1.00  0.00     0.004 A 
ATOM     20  C   UNL A   1      34.056  21.598  24.205  1.00  0.00     0.009 A 
BRANCH  16  21
ATOM     21  O   UNL A   1      32.481  25.328  23.185  1.00  0.00    -0.410 OA
BRANCH  21  22
ATOM     22  C   UNL A   1      32.964  26.077  22.124  1.00  0.00     0.412 C 
ATOM     23  N   UNL A   1      32.579  27.391  22.166  1.00  0.00    -0.321 N 
ATOM     24  H   UNL A   1      32.933  27.973  21.453  1.00  0.00     0.167 HD
ATOM     25  O   UNL A   1      33.658  25.657  21.204  1.00  0.00    -0.224 OA
BRANCH  23  26
ATOM     26  C   UNL A   1      31.710  28.023  23.141  1.00  0.00     0.119 C 
BRANCH  26  27
ATOM     27  C   UNL A   1      30.754  29.031  22.503  1.00  0.00     0.021 C 
BRANCH  27  28
ATOM     28  C   UNL A   1      29.344  29.063  23.107  1.00  0.00     0.002 C 
BRANCH  28  29
ATOM     29  C   UNL A   1      28.299  29.860  22.317  1.00  0.00    -0.000 C 
BRANCH  29  30
ATOM     30  C   UNL A   1      27.685  31.055  23.051  1.00  0.00    -0.003 C 
ATOM     31  C   UNL A   1      28.711  32.091  23.483  1.00  0.00     0.004 C 
ENDBRANCH  29  30
ENDBRANCH  28  29
ENDBRANCH  27  28
ENDBRANCH  26  27
ENDBRANCH  23  26
ENDBRANCH  21  22
ENDBRANCH  16  21
ENDBRANCH   9  15
ENDBRANCH   6   8
ENDBRANCH   4   6
ENDBRANCH   3   4
ENDBRANCH   2   3
ENDBRANCH   1   2
BRANCH   1  32
ATOM     32  O   UNL A   1      40.271  26.806  28.418  1.00  0.00    -0.376 OA
BRANCH  32  33
ATOM     33  C   UNL A   1      39.273  27.787  28.665  1.00  0.00     0.188 C 
BRANCH  33  34
ATOM     34  C   UNL A   1      39.270  29.123  27.909  1.00  0.00     0.188 C 
BRANCH  34  35
ATOM     35  O   UNL A   1      38.739  30.218  28.626  1.00  0.00    -0.377 OA
BRANCH  35  36
ATOM     36  C   UNL A   1      37.488  30.716  28.182  1.00  0.00     0.188 C 
BRANCH  36  37
ATOM     37  C   UNL A   1      37.118  32.156  28.586  1.00  0.00     0.188 C 
BRANCH  37  38
ATOM     38  O   UNL A   1      35.851  32.273  29.223  1.00  0.00    -0.376 OA
BRANCH  38  39
ATOM     39  C   UNL A   1      35.346  33.571  29.508  1.00  0.00     0.202 C 
BRANCH  39  40
ATOM     40  C   UNL A   1      34.458  33.757  30.749  1.00  0.00     0.261 C 
BRANCH  40  41
ATOM     41  O   UNL A   1      34.382  32.649  31.655  1.00  0.00    -0.460 OA
BRANCH  41  42
ATOM     42  C   UNL A   1      34.867  32.804  32.905  1.00  0.00     0.338 C 
ATOM     43  O   UNL A   1      34.249  33.077  33.911  1.00  0.00    -0.246 OA
BRANCH  42  44
ATOM     44  C   UNL A   1      36.280  32.360  32.877  1.00  0.00     0.060 A 
ATOM     45  C   UNL A   1      37.242  33.091  33.590  1.00  0.00     0.016 A 
ATOM     46  C   UNL A   1      36.648  31.224  32.153  1.00  0.00     0.016 A 
ATOM     47  C   UNL A   1      38.586  32.716  33.540  1.00  0.00     0.010 A 
ATOM     48  C   UNL A   1      37.997  30.867  32.081  1.00  0.00     0.010 A 
ATOM     49  C   UNL A   1      38.975  31.636  32.740  1.00  0.00    -0.014 A 
BRANCH  49  50
ATOM     50  C   UNL A   1      40.400  31.455  32.370  1.00  0.00     0.031 A 
ATOM     51  C   UNL A   1      41.166  30.365  33.070  1.00  0.00     0.074 A 
ATOM     52  C   UNL A   1      41.012  32.237  31.464  1.00  0.00     0.049 A 
ATOM     53  N   UNL A   1      42.448  30.103  33.056  1.00  0.00    -0.248 NA
ATOM     54  C   UNL A   1      40.373  29.451  33.910  1.00  0.00     0.031 C 
ATOM     55  C   UNL A   1      40.369  33.279  30.669  1.00  0.00     0.029 A 
ATOM     56  N   UNL A   1      42.332  32.284  31.081  1.00  0.00    -0.354 N 
ATOM     57  C   UNL A   1      42.615  29.013  33.902  1.00  0.00     0.074 A 
ATOM     58  C   UNL A   1      41.312  28.674  34.426  1.00  0.00     0.031 C 
ATOM     59  C   UNL A   1      41.302  33.887  29.914  1.00  0.00     0.029 A 
ATOM     60  C   UNL A   1      42.612  33.306  30.207  1.00  0.00     0.049 A 
ATOM     61  H   UNL A   1      43.010  31.648  31.403  1.00  0.00     0.167 HD
ATOM     62  C   UNL A   1      43.755  28.355  34.215  1.00  0.00     0.037 A 
ATOM     63  C   UNL A   1      43.797  33.744  29.735  1.00  0.00     0.037 A 
ATOM     64  C   UNL A   1      45.050  28.700  33.693  1.00  0.00     0.049 A 
ATOM     65  C   UNL A   1      45.068  33.053  30.166  1.00  0.00     0.074 A 
ATOM     66  C   UNL A   1      46.268  28.095  33.942  1.00  0.00     0.029 A 
ATOM     67  N   UNL A   1      45.292  29.750  32.820  1.00  0.00    -0.354 N 
ATOM     68  N   UNL A   1      45.222  32.023  30.964  1.00  0.00    -0.248 NA
ATOM     69  C   UNL A   1      46.332  33.588  29.635  1.00  0.00     0.031 C 
ATOM     70  C   UNL A   1      47.257  28.815  33.267  1.00  0.00     0.029 A 
ATOM     71  C   UNL A   1      46.645  29.823  32.540  1.00  0.00     0.049 A 
ATOM     72  H   UNL A   1      44.605  30.353  32.455  1.00  0.00     0.167 HD
ATOM     73  C   UNL A   1      46.587  31.758  30.990  1.00  0.00     0.074 A 
ATOM     74  C   UNL A   1      47.219  32.739  30.134  1.00  0.00     0.031 C 
ATOM     75  C   UNL A   1      47.255  30.785  31.656  1.00  0.00     0.037 A 
BRANCH  62  76
ATOM     76  C   UNL A   1      43.658  27.225  35.196  1.00  0.00     0.057 A 
ATOM     77  C   UNL A   1      43.607  27.442  36.580  1.00  0.00     0.134 A 
ATOM     78  C   UNL A   1      43.586  25.900  34.748  1.00  0.00     0.134 A 
ATOM     79  F   UNL A   1      43.688  28.685  37.077  1.00  0.00    -0.206 F 
ATOM     80  C   UNL A   1      43.511  26.380  37.481  1.00  0.00     0.040 A 
ATOM     81  C   UNL A   1      43.458  24.833  35.638  1.00  0.00     0.040 A 
ATOM     82  F   UNL A   1      43.627  25.621  33.436  1.00  0.00    -0.206 F 
ATOM     83  C   UNL A   1      43.427  25.072  37.009  1.00  0.00     0.006 A 
ENDBRANCH  62  76
BRANCH  63  84
ATOM     84  C   UNL A   1      43.853  34.916  28.821  1.00  0.00     0.057 A 
ATOM     85  C   UNL A   1      43.957  36.221  29.319  1.00  0.00     0.134 A 
ATOM     86  C   UNL A   1      43.767  34.765  27.431  1.00  0.00     0.134 A 
ATOM     87  F   UNL A   1      44.017  36.435  30.642  1.00  0.00    -0.206 F 
ATOM     88  C   UNL A   1      43.949  37.332  28.473  1.00  0.00     0.040 A 
ATOM     89  C   UNL A   1      43.787  35.865  26.572  1.00  0.00     0.040 A 
ATOM     90  F   UNL A   1      43.665  33.544  26.887  1.00  0.00    -0.206 F 
ATOM     91  C   UNL A   1      43.869  37.154  27.094  1.00  0.00     0.006 A 
ENDBRANCH  63  84
BRANCH  75  92
ATOM     92  C   UNL A   1      48.734  30.663  31.431  1.00  0.00     0.057 A 
ATOM     93  C   UNL A   1      49.274  29.903  30.388  1.00  0.00     0.134 A 
ATOM     94  C   UNL A   1      49.627  31.400  32.223  1.00  0.00     0.134 A 
ATOM     95  F   UNL A   1      48.477  29.167  29.599  1.00  0.00    -0.206 F 
ATOM     96  C   UNL A   1      50.649  29.871  30.145  1.00  0.00     0.040 A 
ATOM     97  C   UNL A   1      50.998  31.400  31.973  1.00  0.00     0.040 A 
ATOM     98  F   UNL A   1      49.174  32.159  33.233  1.00  0.00    -0.206 F 
ATOM     99  C   UNL A   1      51.514  30.632  30.932  1.00  0.00     0.006 A 
ENDBRANCH  75  92
ENDBRANCH  49  50
ENDBRANCH  42  44
ENDBRANCH  41  42
ENDBRANCH  40  41
ENDBRANCH  39  40
ENDBRANCH  38  39
ENDBRANCH  37  38
ENDBRANCH  36  37
ENDBRANCH  35  36
ENDBRANCH  34  35
ENDBRANCH  33  34
ENDBRANCH  32  33
ENDBRANCH   1  32
TORSDOF 29
ENDMDL
MODEL 2
REMARK VINA RESULT:      -8.4      1.961      6.133
REMARK SMILES CCCCCCNC(=O)Oc1cccc(-c2ccc([C@@H](C)C(=O)OCCOCCOCCOCCOC(=O)c3ccc(-c4c5nc(c(-c6c(F)cccc6F)c6ccc([nH]6)c(-c6c(F)cccc6F)c6nc(c(-c7c(F)cccc7F)c7ccc4[nH]7)C=C6)C=C5)cc3)cc2F)c1
REMARK SMILES IDX 26 1 25 2 24 3 22 4 23 5 20 6 21 7 19 8 16 9 17 10 94 11
REMARK SMILES IDX 18 12 93 13 95 14 15 15 11 16 12 17 96 18 13 19 14 20 10 21
REMARK SMILES IDX 8 22 7 23 9 25 6 26 5 27 4 28 3 29 2 30 1 31 27 32 28 33
REMARK SMILES IDX 29 34 30 35 31 36 32 37 33 38 34 39 35 40 36 41 37 42 38 43
REMARK SMILES IDX 39 44 40 45 92 46 41 47 91 48 42 49 43 50 44 51 85 52 45 53
REMARK SMILES IDX 90 54 84 55 86 56 46 57 89 58 83 59 82 60 47 62 73 63 56 64
REMARK SMILES IDX 72 65 57 66 60 67 71 68 87 69 58 70 59 71 70 73 88 74 61 75
REMARK SMILES IDX 48 76 49 77 54 78 50 79 51 80 53 81 55 82 52 83 74 84 75 85
REMARK SMILES IDX 80 86 76 87 77 88 79 89 81 90 78 91 62 92 63 93 68 94 64 95
REMARK SMILES IDX 65 96 67 97 69 98 66 99
REMARK H PARENT 7 24 86 61 60 72
REMARK Flexibility Score: inf
ROOT
ATOM      1  C   UNL A   1      40.789  26.159  27.115  1.00  0.00     0.202 C 
ENDROOT
BRANCH   1   2
ATOM      2  C   UNL A   1      41.941  25.155  26.914  1.00  0.00     0.261 C 
BRANCH   2   3
ATOM      3  O   UNL A   1      41.740  23.813  27.407  1.00  0.00    -0.463 OA
BRANCH   3   4
ATOM      4  C   UNL A   1      41.544  22.857  26.471  1.00  0.00     0.313 C 
ATOM      5  O   UNL A   1      42.283  22.700  25.501  1.00  0.00    -0.252 OA
BRANCH   4   6
ATOM      6  C   UNL A   1      40.313  21.971  26.661  1.00  0.00     0.126 C 
ATOM      7  C   UNL A   1      40.645  20.573  26.151  1.00  0.00     0.025 C 
BRANCH   6   8
ATOM      8  C   UNL A   1      38.925  22.414  26.194  1.00  0.00    -0.031 A 
ATOM      9  C   UNL A   1      36.293  23.111  25.263  1.00  0.00     0.018 A 
ATOM     10  C   UNL A   1      37.070  24.001  26.030  1.00  0.00     0.012 A 
ATOM     11  C   UNL A   1      36.866  21.867  24.980  1.00  0.00     0.131 A 
ATOM     12  C   UNL A   1      38.362  23.662  26.486  1.00  0.00     0.005 A 
ATOM     13  C   UNL A   1      38.152  21.527  25.416  1.00  0.00     0.044 A 
ATOM     14  F   UNL A   1      36.189  20.960  24.257  1.00  0.00    -0.206 F 
BRANCH   9  15
ATOM     15  C   UNL A   1      34.964  23.493  24.736  1.00  0.00    -0.012 A 
ATOM     16  C   UNL A   1      33.343  25.152  23.988  1.00  0.00     0.133 A 
ATOM     17  C   UNL A   1      32.362  24.174  23.845  1.00  0.00     0.047 A 
ATOM     18  C   UNL A   1      34.630  24.828  24.437  1.00  0.00     0.056 A 
ATOM     19  C   UNL A   1      32.676  22.850  24.133  1.00  0.00     0.004 A 
ATOM     20  C   UNL A   1      33.962  22.515  24.573  1.00  0.00     0.009 A 
BRANCH  16  21
ATOM     21  O   UNL A   1      32.928  26.485  23.799  1.00  0.00    -0.410 OA
BRANCH  21  22
ATOM     22  C   UNL A   1      32.189  27.100  24.799  1.00  0.00     0.412 C 
ATOM     23  N   UNL A   1      31.193  27.909  24.321  1.00  0.00    -0.321 N 
ATOM     24  H   UNL A   1      30.615  28.335  24.995  1.00  0.00     0.167 HD
ATOM     25  O   UNL A   1      32.372  26.979  26.005  1.00  0.00    -0.224 OA
BRANCH  23  26
ATOM     26  C   UNL A   1      30.894  28.209  22.932  1.00  0.00     0.119 C 
BRANCH  26  27
ATOM     27  C   UNL A   1      29.461  28.706  22.740  1.00  0.00     0.021 C 
BRANCH  27  28
ATOM     28  C   UNL A   1      29.321  29.977  21.892  1.00  0.00     0.002 C 
BRANCH  28  29
ATOM     29  C   UNL A   1      28.176  30.918  22.286  1.00  0.00    -0.000 C 
BRANCH  29  30
ATOM     30  C   UNL A   1      28.391  32.396  21.950  1.00  0.00    -0.003 C 
ATOM     31  C   UNL A   1      28.912  33.213  23.122  1.00  0.00     0.004 C 
ENDBRANCH  29  30
ENDBRANCH  28  29
ENDBRANCH  27  28
ENDBRANCH  26  27
ENDBRANCH  23  26
ENDBRANCH  21  22
ENDBRANCH  16  21
ENDBRANCH   9  15
ENDBRANCH   6   8
ENDBRANCH   4   6
ENDBRANCH   3   4
ENDBRANCH   2   3
ENDBRANCH   1   2
BRANCH   1  32
ATOM     32  O   UNL A   1      40.383  26.564  28.414  1.00  0.00    -0.376 OA
BRANCH  32  33
ATOM     33  C   UNL A   1      39.312  27.482  28.590  1.00  0.00     0.188 C 
BRANCH  33  34
ATOM     34  C   UNL A   1      39.216  28.758  27.742  1.00  0.00     0.188 C 
BRANCH  34  35
ATOM     35  O   UNL A   1      38.981  29.946  28.469  1.00  0.00    -0.377 OA
BRANCH  35  36
ATOM     36  C   UNL A   1      37.681  30.503  28.365  1.00  0.00     0.188 C 
BRANCH  36  37
ATOM     37  C   UNL A   1      37.477  31.925  28.922  1.00  0.00     0.188 C 
BRANCH  37  38
ATOM     38  O   UNL A   1      36.601  31.989  30.041  1.00  0.00    -0.376 OA
BRANCH  38  39
ATOM     39  C   UNL A   1      36.205  33.265  30.527  1.00  0.00     0.202 C 
BRANCH  39  40
ATOM     40  C   UNL A   1      35.501  33.345  31.892  1.00  0.00     0.261 C 
BRANCH  40  41
ATOM     41  O   UNL A   1      35.781  32.291  32.821  1.00  0.00    -0.460 OA
BRANCH  41  42
ATOM     42  C   UNL A   1      36.581  32.558  33.875  1.00  0.00     0.338 C 
ATOM     43  O   UNL A   1      36.288  33.135  34.900  1.00  0.00    -0.246 OA
BRANCH  42  44
ATOM     44  C   UNL A   1      37.845  31.818  33.655  1.00  0.00     0.060 A 
ATOM     45  C   UNL A   1      39.000  32.215  34.345  1.00  0.00     0.016 A 
ATOM     46  C   UNL A   1      37.885  30.736  32.774  1.00  0.00     0.016 A 
ATOM     47  C   UNL A   1      40.212  31.561  34.118  1.00  0.00     0.010 A 
ATOM     48  C   UNL A   1      39.104  30.100  32.527  1.00  0.00     0.010 A 
ATOM     49  C   UNL A   1      40.280  30.537  33.166  1.00  0.00    -0.014 A 
BRANCH  49  50
ATOM     50  C   UNL A   1      41.593  30.094  32.637  1.00  0.00     0.031 A 
ATOM     51  C   UNL A   1      42.220  30.925  31.550  1.00  0.00     0.074 A 
ATOM     52  C   UNL A   1      42.208  28.983  33.080  1.00  0.00     0.049 A 
ATOM     53  N   UNL A   1      43.268  30.676  30.809  1.00  0.00    -0.248 NA
ATOM     54  C   UNL A   1      41.564  32.210  31.256  1.00  0.00     0.031 C 
ATOM     55  C   UNL A   1      41.741  28.132  34.171  1.00  0.00     0.029 A 
ATOM     56  N   UNL A   1      43.357  28.371  32.639  1.00  0.00    -0.354 N 
ATOM     57  C   UNL A   1      43.380  31.760  29.946  1.00  0.00     0.074 A 
ATOM     58  C   UNL A   1      42.287  32.658  30.242  1.00  0.00     0.031 C 
ATOM     59  C   UNL A   1      42.581  27.087  34.294  1.00  0.00     0.029 A 
ATOM     60  C   UNL A   1      43.614  27.174  33.263  1.00  0.00     0.049 A 
ATOM     61  H   UNL A   1      43.938  28.752  31.943  1.00  0.00     0.167 HD
ATOM     62  C   UNL A   1      44.312  31.985  28.991  1.00  0.00     0.037 A 
ATOM     63  C   UNL A   1      44.551  26.242  32.999  1.00  0.00     0.037 A 
ATOM     64  C   UNL A   1      45.395  31.086  28.699  1.00  0.00     0.049 A 
ATOM     65  C   UNL A   1      45.527  26.469  31.869  1.00  0.00     0.074 A 
ATOM     66  C   UNL A   1      46.396  31.222  27.754  1.00  0.00     0.029 A 
ATOM     67  N   UNL A   1      45.612  29.878  29.345  1.00  0.00    -0.354 N 
ATOM     68  N   UNL A   1      45.630  27.495  31.058  1.00  0.00    -0.248 NA
ATOM     69  C   UNL A   1      46.513  25.408  31.615  1.00  0.00     0.031 C 
ATOM     70  C   UNL A   1      47.184  30.069  27.788  1.00  0.00     0.029 A 
ATOM     71  C   UNL A   1      46.718  29.249  28.802  1.00  0.00     0.049 A 
ATOM     72  H   UNL A   1      45.061  29.522  30.079  1.00  0.00     0.167 HD
ATOM     73  C   UNL A   1      46.719  27.225  30.235  1.00  0.00     0.074 A 
ATOM     74  C   UNL A   1      47.238  25.937  30.639  1.00  0.00     0.031 C 
ATOM     75  C   UNL A   1      47.245  27.981  29.241  1.00  0.00     0.037 A 
BRANCH  62  76
ATOM     76  C   UNL A   1      44.175  33.232  28.167  1.00  0.00     0.057 A 
ATOM     77  C   UNL A   1      43.757  33.198  26.830  1.00  0.00     0.134 A 
ATOM     78  C   UNL A   1      44.437  34.487  28.730  1.00  0.00     0.134 A 
ATOM     79  F   UNL A   1      43.506  32.027  26.225  1.00  0.00    -0.206 F 
ATOM     80  C   UNL A   1      43.629  34.366  26.076  1.00  0.00     0.040 A 
ATOM     81  C   UNL A   1      44.281  35.664  27.996  1.00  0.00     0.040 A 
ATOM     82  F   UNL A   1      44.837  34.591  30.006  1.00  0.00    -0.206 F 
ATOM     83  C   UNL A   1      43.882  35.604  26.663  1.00  0.00     0.006 A 
ENDBRANCH  62  76
BRANCH  63  84
ATOM     84  C   UNL A   1      44.604  24.986  33.794  1.00  0.00     0.057 A 
ATOM     85  C   UNL A   1      45.152  24.965  35.083  1.00  0.00     0.134 A 
ATOM     86  C   UNL A   1      44.145  23.770  33.273  1.00  0.00     0.134 A 
ATOM     87  F   UNL A   1      45.634  26.092  35.629  1.00  0.00    -0.206 F 
ATOM     88  C   UNL A   1      45.263  23.781  35.814  1.00  0.00     0.040 A 
ATOM     89  C   UNL A   1      44.223  22.583  34.005  1.00  0.00     0.040 A 
ATOM     90  F   UNL A   1      43.610  23.718  32.045  1.00  0.00    -0.206 F 
ATOM     91  C   UNL A   1      44.791  22.586  35.276  1.00  0.00     0.006 A 
ENDBRANCH  63  84
BRANCH  75  92
ATOM     92  C   UNL A   1      48.494  27.491  28.567  1.00  0.00     0.057 A 
ATOM     93  C   UNL A   1      48.463  26.739  27.387  1.00  0.00     0.134 A 
ATOM     94  C   UNL A   1      49.751  27.863  29.064  1.00  0.00     0.134 A 
ATOM     95  F   UNL A   1      47.293  26.343  26.862  1.00  0.00    -0.206 F 
ATOM     96  C   UNL A   1      49.637  26.366  26.730  1.00  0.00     0.040 A 
ATOM     97  C   UNL A   1      50.930  27.521  28.402  1.00  0.00     0.040 A 
ATOM     98  F   UNL A   1      49.851  28.594  30.185  1.00  0.00    -0.206 F 
ATOM     99  C   UNL A   1      50.875  26.769  27.231  1.00  0.00     0.006 A 
ENDBRANCH  75  92
ENDBRANCH  49  50
ENDBRANCH  42  44
ENDBRANCH  41  42
ENDBRANCH  40  41
ENDBRANCH  39  40
ENDBRANCH  38  39
ENDBRANCH  37  38
ENDBRANCH  36  37
ENDBRANCH  35  36
ENDBRANCH  34  35
ENDBRANCH  33  34
ENDBRANCH  32  33
ENDBRANCH   1  32
TORSDOF 29
ENDMDL
MODEL 3
REMARK VINA RESULT:      -8.3      2.091      2.885
REMARK SMILES CCCCCCNC(=O)Oc1cccc(-c2ccc([C@@H](C)C(=O)OCCOCCOCCOCCOC(=O)c3ccc(-c4c5nc(c(-c6c(F)cccc6F)c6ccc([nH]6)c(-c6c(F)cccc6F)c6nc(c(-c7c(F)cccc7F)c7ccc4[nH]7)C=C6)C=C5)cc3)cc2F)c1
REMARK SMILES IDX 26 1 25 2 24 3 22 4 23 5 20 6 21 7 19 8 16 9 17 10 94 11
REMARK SMILES IDX 18 12 93 13 95 14 15 15 11 16 12 17 96 18 13 19 14 20 10 21
REMARK SMILES IDX 8 22 7 23 9 25 6 26 5 27 4 28 3 29 2 30 1 31 27 32 28 33
REMARK SMILES IDX 29 34 30 35 31 36 32 37 33 38 34 39 35 40 36 41 37 42 38 43
REMARK SMILES IDX 39 44 40 45 92 46 41 47 91 48 42 49 43 50 44 51 85 52 45 53
REMARK SMILES IDX 90 54 84 55 86 56 46 57 89 58 83 59 82 60 47 62 73 63 56 64
REMARK SMILES IDX 72 65 57 66 60 67 71 68 87 69 58 70 59 71 70 73 88 74 61 75
REMARK SMILES IDX 48 76 49 77 54 78 50 79 51 80 53 81 55 82 52 83 74 84 75 85
REMARK SMILES IDX 80 86 76 87 77 88 79 89 81 90 78 91 62 92 63 93 68 94 64 95
REMARK SMILES IDX 65 96 67 97 69 98 66 99
REMARK H PARENT 7 24 86 61 60 72
REMARK Flexibility Score: inf
ROOT
ATOM      1  C   UNL A   1      40.585  26.506  27.217  1.00  0.00     0.202 C 
ENDROOT
BRANCH   1   2
ATOM      2  C   UNL A   1      41.821  25.590  27.113  1.00  0.00     0.261 C 
BRANCH   2   3
ATOM      3  O   UNL A   1      41.683  24.239  27.600  1.00  0.00    -0.463 OA
BRANCH   3   4
ATOM      4  C   UNL A   1      41.545  23.276  26.661  1.00  0.00     0.313 C 
ATOM      5  O   UNL A   1      42.295  23.167  25.692  1.00  0.00    -0.252 OA
BRANCH   4   6
ATOM      6  C   UNL A   1      40.368  22.319  26.844  1.00  0.00     0.126 C 
ATOM      7  C   UNL A   1      40.813  20.925  26.419  1.00  0.00     0.025 C 
BRANCH   6   8
ATOM      8  C   UNL A   1      38.976  22.644  26.299  1.00  0.00    -0.031 A 
ATOM      9  C   UNL A   1      36.346  23.116  25.231  1.00  0.00     0.018 A 
ATOM     10  C   UNL A   1      37.039  24.101  25.962  1.00  0.00     0.012 A 
ATOM     11  C   UNL A   1      37.001  21.893  25.054  1.00  0.00     0.131 A 
ATOM     12  C   UNL A   1      38.329  23.873  26.485  1.00  0.00     0.005 A 
ATOM     13  C   UNL A   1      38.287  21.662  25.558  1.00  0.00     0.044 A 
ATOM     14  F   UNL A   1      36.408  20.900  24.372  1.00  0.00    -0.206 F 
BRANCH   9  15
ATOM     15  C   UNL A   1      35.019  23.381  24.633  1.00  0.00    -0.012 A 
ATOM     16  C   UNL A   1      33.413  24.838  23.520  1.00  0.00     0.133 A 
ATOM     17  C   UNL A   1      32.419  23.866  23.614  1.00  0.00     0.047 A 
ATOM     18  C   UNL A   1      34.698  24.612  24.029  1.00  0.00     0.056 A 
ATOM     19  C   UNL A   1      32.720  22.643  24.205  1.00  0.00     0.004 A 
ATOM     20  C   UNL A   1      34.004  22.405  24.708  1.00  0.00     0.009 A 
BRANCH  16  21
ATOM     21  O   UNL A   1      33.013  26.094  23.023  1.00  0.00    -0.410 OA
BRANCH  21  22
ATOM     22  C   UNL A   1      32.863  27.144  23.916  1.00  0.00     0.412 C 
ATOM     23  N   UNL A   1      31.651  27.775  23.815  1.00  0.00    -0.321 N 
ATOM     24  H   UNL A   1      31.482  28.502  24.457  1.00  0.00     0.167 HD
ATOM     25  O   UNL A   1      33.700  27.523  24.727  1.00  0.00    -0.224 OA
BRANCH  23  26
ATOM     26  C   UNL A   1      30.588  27.493  22.867  1.00  0.00     0.119 C 
BRANCH  26  27
ATOM     27  C   UNL A   1      29.203  27.801  23.437  1.00  0.00     0.021 C 
BRANCH  27  28
ATOM     28  C   UNL A   1      28.320  28.692  22.555  1.00  0.00     0.002 C 
BRANCH  28  29
ATOM     29  C   UNL A   1      27.497  29.754  23.294  1.00  0.00    -0.000 C 
BRANCH  29  30
ATOM     30  C   UNL A   1      27.665  31.190  22.789  1.00  0.00    -0.003 C 
ATOM     31  C   UNL A   1      29.090  31.522  22.375  1.00  0.00     0.004 C 
ENDBRANCH  29  30
ENDBRANCH  28  29
ENDBRANCH  27  28
ENDBRANCH  26  27
ENDBRANCH  23  26
ENDBRANCH  21  22
ENDBRANCH  16  21
ENDBRANCH   9  15
ENDBRANCH   6   8
ENDBRANCH   4   6
ENDBRANCH   3   4
ENDBRANCH   2   3
ENDBRANCH   1   2
BRANCH   1  32
ATOM     32  O   UNL A   1      39.962  26.763  28.467  1.00  0.00    -0.376 OA
BRANCH  32  33
ATOM     33  C   UNL A   1      38.935  27.739  28.583  1.00  0.00     0.188 C 
BRANCH  33  34
ATOM     34  C   UNL A   1      39.012  29.064  27.811  1.00  0.00     0.188 C 
BRANCH  34  35
ATOM     35  O   UNL A   1      39.172  30.216  28.612  1.00  0.00    -0.377 OA
BRANCH  35  36
ATOM     36  C   UNL A   1      38.002  30.978  28.862  1.00  0.00     0.188 C 
BRANCH  36  37
ATOM     37  C   UNL A   1      38.153  32.231  29.747  1.00  0.00     0.188 C 
BRANCH  37  38
ATOM     38  O   UNL A   1      37.411  32.177  30.960  1.00  0.00    -0.376 OA
BRANCH  38  39
ATOM     39  C   UNL A   1      37.182  33.384  31.676  1.00  0.00     0.202 C 
BRANCH  39  40
ATOM     40  C   UNL A   1      36.370  33.321  32.980  1.00  0.00     0.261 C 
BRANCH  40  41
ATOM     41  O   UNL A   1      36.509  32.131  33.765  1.00  0.00    -0.460 OA
BRANCH  41  42
ATOM     42  C   UNL A   1      37.378  32.138  34.798  1.00  0.00     0.338 C 
ATOM     43  O   UNL A   1      37.172  32.502  35.936  1.00  0.00    -0.246 OA
BRANCH  42  44
ATOM     44  C   UNL A   1      38.585  31.405  34.351  1.00  0.00     0.060 A 
ATOM     45  C   UNL A   1      39.851  31.883  34.718  1.00  0.00     0.016 A 
ATOM     46  C   UNL A   1      38.463  30.249  33.578  1.00  0.00     0.016 A 
ATOM     47  C   UNL A   1      41.003  31.234  34.270  1.00  0.00     0.010 A 
ATOM     48  C   UNL A   1      39.616  29.617  33.106  1.00  0.00     0.010 A 
ATOM     49  C   UNL A   1      40.889  30.131  33.416  1.00  0.00    -0.014 A 
BRANCH  49  50
ATOM     50  C   UNL A   1      42.061  29.667  32.633  1.00  0.00     0.031 A 
ATOM     51  C   UNL A   1      42.814  28.472  33.152  1.00  0.00     0.074 A 
ATOM     52  C   UNL A   1      42.468  30.289  31.513  1.00  0.00     0.049 A 
ATOM     53  N   UNL A   1      43.954  27.967  32.759  1.00  0.00    -0.248 NA
ATOM     54  C   UNL A   1      42.194  27.754  34.279  1.00  0.00     0.031 C 
ATOM     55  C   UNL A   1      41.790  31.411  30.871  1.00  0.00     0.029 A 
ATOM     56  N   UNL A   1      43.577  30.070  30.731  1.00  0.00    -0.354 N 
ATOM     57  C   UNL A   1      44.198  26.892  33.604  1.00  0.00     0.074 A 
ATOM     58  C   UNL A   1      43.100  26.826  34.542  1.00  0.00     0.031 C 
ATOM     59  C   UNL A   1      42.515  31.804  29.807  1.00  0.00     0.029 A 
ATOM     60  C   UNL A   1      43.728  30.991  29.723  1.00  0.00     0.049 A 
ATOM     61  H   UNL A   1      44.202  29.324  30.879  1.00  0.00     0.167 HD
ATOM     62  C   UNL A   1      45.246  26.036  33.600  1.00  0.00     0.037 A 
ATOM     63  C   UNL A   1      44.750  31.177  28.863  1.00  0.00     0.037 A 
ATOM     64  C   UNL A   1      46.337  26.109  32.666  1.00  0.00     0.049 A 
ATOM     65  C   UNL A   1      45.953  30.268  28.933  1.00  0.00     0.074 A 
ATOM     66  C   UNL A   1      47.447  25.287  32.573  1.00  0.00     0.029 A 
ATOM     67  N   UNL A   1      46.459  27.066  31.670  1.00  0.00    -0.354 N 
ATOM     68  N   UNL A   1      46.179  29.252  29.732  1.00  0.00    -0.248 NA
ATOM     69  C   UNL A   1      47.045  30.532  27.984  1.00  0.00     0.031 C 
ATOM     70  C   UNL A   1      48.269  25.783  31.558  1.00  0.00     0.029 A 
ATOM     71  C   UNL A   1      47.636  26.868  30.972  1.00  0.00     0.049 A 
ATOM     72  H   UNL A   1      45.805  27.779  31.487  1.00  0.00     0.167 HD
ATOM     73  C   UNL A   1      47.410  28.730  29.350  1.00  0.00     0.074 A 
ATOM     74  C   UNL A   1      47.886  29.543  28.253  1.00  0.00     0.031 C 
ATOM     75  C   UNL A   1      48.080  27.666  29.857  1.00  0.00     0.037 A 
BRANCH  62  76
ATOM     76  C   UNL A   1      45.282  24.976  34.660  1.00  0.00     0.057 A 
ATOM     77  C   UNL A   1      45.873  25.194  35.912  1.00  0.00     0.134 A 
ATOM     78  C   UNL A   1      44.689  23.727  34.436  1.00  0.00     0.134 A 
ATOM     79  F   UNL A   1      46.473  26.362  36.187  1.00  0.00    -0.206 F 
ATOM     80  C   UNL A   1      45.894  24.199  36.892  1.00  0.00     0.040 A 
ATOM     81  C   UNL A   1      44.676  22.737  35.419  1.00  0.00     0.040 A 
ATOM     82  F   UNL A   1      44.103  23.452  33.261  1.00  0.00    -0.206 F 
ATOM     83  C   UNL A   1      45.286  22.970  36.648  1.00  0.00     0.006 A 
ENDBRANCH  62  76
BRANCH  63  84
ATOM     84  C   UNL A   1      44.706  32.288  27.876  1.00  0.00     0.057 A 
ATOM     85  C   UNL A   1      44.119  32.117  26.616  1.00  0.00     0.134 A 
ATOM     86  C   UNL A   1      45.280  33.536  28.151  1.00  0.00     0.134 A 
ATOM     87  F   UNL A   1      43.575  30.937  26.280  1.00  0.00    -0.206 F 
ATOM     88  C   UNL A   1      44.127  33.133  25.658  1.00  0.00     0.040 A 
ATOM     89  C   UNL A   1      45.269  34.571  27.214  1.00  0.00     0.040 A 
ATOM     90  F   UNL A   1      45.859  33.768  29.338  1.00  0.00    -0.206 F 
ATOM     91  C   UNL A   1      44.698  34.367  25.960  1.00  0.00     0.006 A 
ENDBRANCH  63  84
BRANCH  75  92
ATOM     92  C   UNL A   1      49.360  27.255  29.189  1.00  0.00     0.057 A 
ATOM     93  C   UNL A   1      50.613  27.686  29.639  1.00  0.00     0.134 A 
ATOM     94  C   UNL A   1      49.336  26.334  28.131  1.00  0.00     0.134 A 
ATOM     95  F   UNL A   1      50.708  28.573  30.641  1.00  0.00    -0.206 F 
ATOM     96  C   UNL A   1      51.795  27.223  29.058  1.00  0.00     0.040 A 
ATOM     97  C   UNL A   1      50.509  25.843  27.561  1.00  0.00     0.040 A 
ATOM     98  F   UNL A   1      48.167  25.871  27.660  1.00  0.00    -0.206 F 
ATOM     99  C   UNL A   1      51.744  26.289  28.023  1.00  0.00     0.006 A 
ENDBRANCH  75  92
ENDBRANCH  49  50
ENDBRANCH  42  44
ENDBRANCH  41  42
ENDBRANCH  40  41
ENDBRANCH  39  40
ENDBRANCH  38  39
ENDBRANCH  37  38
ENDBRANCH  36  37
ENDBRANCH  35  36
ENDBRANCH  34  35
ENDBRANCH  33  34
ENDBRANCH  32  33
ENDBRANCH   1  32
TORSDOF 29
ENDMDL
