MODEL 1
REMARK VINA RESULT:      -9.6      0.000      0.000
REMARK SMILES C[C@H]1[C@@H](C(=O)OCCOCCOCCOCCOC(=O)c2ccc(-c3c4nc(c(-c5c(F)cccc5F)c5ccc([nH]5)c(-c5c(F)cccc5F)c5nc(c(-c6c(F)cccc6F)c6ccc3[nH]6)C=C5)C=C4)cc2)CC[N@@H+]1CC1(O)CCCC1
REMARK SMILES IDX 11 1 10 2 9 3 8 4 7 5 6 6 4 7 5 8 3 9 1 10 2 11 77 12 75 13
REMARK SMILES IDX 76 14 78 16 79 17 81 18 84 19 82 20 83 21 80 22 12 24 13 25
REMARK SMILES IDX 14 26 15 27 16 28 17 29 18 30 19 31 20 32 21 33 22 34 74 35
REMARK SMILES IDX 23 36 73 37 24 38 25 39 26 40 67 41 27 42 72 43 66 44 68 45
REMARK SMILES IDX 28 46 71 47 65 48 64 49 29 51 55 52 38 53 54 54 39 55 42 56
REMARK SMILES IDX 53 57 69 58 40 59 41 60 52 62 70 63 43 64 30 65 31 66 36 67
REMARK SMILES IDX 32 68 33 69 35 70 37 71 34 72 56 73 57 74 62 75 58 76 59 77
REMARK SMILES IDX 61 78 63 79 60 80 44 81 45 82 50 83 46 84 47 85 49 86 51 87
REMARK SMILES IDX 48 88
REMARK H PARENT 77 15 80 23 68 50 42 61
REMARK Flexibility Score: inf
ROOT
ATOM      1  C   UNL A   1      35.126  31.093  27.549  1.00  0.00     0.188 C 
ENDROOT
BRANCH   1   2
ATOM      2  C   UNL A   1      34.383  29.773  27.263  1.00  0.00     0.188 C 
BRANCH   2   3
ATOM      3  O   UNL A   1      32.987  29.928  27.121  1.00  0.00    -0.376 OA
BRANCH   3   4
ATOM      4  C   UNL A   1      32.432  29.797  25.829  1.00  0.00     0.202 C 
BRANCH   4   5
ATOM      5  C   UNL A   1      31.620  28.543  25.454  1.00  0.00     0.261 C 
BRANCH   5   6
ATOM      6  O   UNL A   1      31.861  27.946  24.169  1.00  0.00    -0.463 OA
BRANCH   6   7
ATOM      7  C   UNL A   1      33.144  27.803  23.785  1.00  0.00     0.315 C 
ATOM      8  O   UNL A   1      33.773  28.687  23.209  1.00  0.00    -0.252 OA
BRANCH   7   9
ATOM      9  C   UNL A   1      33.808  26.494  24.195  1.00  0.00     0.162 C 
ATOM     10  C   UNL A   1      32.298  24.916  22.694  1.00  0.00     0.076 C 
ATOM     11  C   UNL A   1      33.505  25.100  23.611  1.00  0.00     0.195 C 
ATOM     12  N   UNL A   1      33.439  24.155  24.748  1.00  0.00    -0.330 N 
ATOM     13  C   UNL A   1      33.835  26.303  25.717  1.00  0.00     0.083 C 
ATOM     14  C   UNL A   1      33.282  24.912  25.986  1.00  0.00     0.263 C 
ATOM     15  H   UNL A   1      32.618  23.573  24.580  1.00  0.00     0.348 HD
BRANCH  12  16
ATOM     16  C   UNL A   1      34.511  23.142  24.834  1.00  0.00     0.297 C 
BRANCH  16  17
ATOM     17  C   UNL A   1      34.153  21.628  24.786  1.00  0.00     0.113 C 
ATOM     18  C   UNL A   1      33.068  21.260  23.775  1.00  0.00     0.041 C 
ATOM     19  C   UNL A   1      33.520  21.128  26.087  1.00  0.00     0.041 C 
ATOM     20  C   UNL A   1      32.554  19.897  24.212  1.00  0.00     0.003 C 
ATOM     21  C   UNL A   1      32.898  19.784  25.693  1.00  0.00     0.003 C 
BRANCH  17  22
ATOM     22  O   UNL A   1      35.338  20.846  24.587  1.00  0.00    -0.384 OA
ATOM     23  H   UNL A   1      35.109  20.020  24.132  1.00  0.00     0.211 HD
ENDBRANCH  17  22
ENDBRANCH  16  17
ENDBRANCH  12  16
ENDBRANCH   7   9
ENDBRANCH   6   7
ENDBRANCH   5   6
ENDBRANCH   4   5
ENDBRANCH   3   4
ENDBRANCH   2   3
ENDBRANCH   1   2
BRANCH   1  24
ATOM     24  O   UNL A   1      34.487  32.265  28.032  1.00  0.00    -0.377 OA
BRANCH  24  25
ATOM     25  C   UNL A   1      35.289  33.327  28.504  1.00  0.00     0.188 C 
BRANCH  25  26
ATOM     26  C   UNL A   1      34.651  34.255  29.553  1.00  0.00     0.188 C 
BRANCH  26  27
ATOM     27  O   UNL A   1      35.399  34.370  30.754  1.00  0.00    -0.376 OA
BRANCH  27  28
ATOM     28  C   UNL A   1      34.711  34.653  31.963  1.00  0.00     0.202 C 
BRANCH  28  29
ATOM     29  C   UNL A   1      34.350  33.520  32.944  1.00  0.00     0.261 C 
BRANCH  29  30
ATOM     30  O   UNL A   1      35.073  32.290  32.823  1.00  0.00    -0.460 OA
BRANCH  30  31
ATOM     31  C   UNL A   1      36.285  32.223  33.400  1.00  0.00     0.338 C 
ATOM     32  O   UNL A   1      36.597  32.614  34.517  1.00  0.00    -0.246 OA
BRANCH  31  33
ATOM     33  C   UNL A   1      37.150  31.409  32.528  1.00  0.00     0.060 A 
ATOM     34  C   UNL A   1      38.212  30.703  33.108  1.00  0.00     0.016 A 
ATOM     35  C   UNL A   1      36.913  31.332  31.152  1.00  0.00     0.016 A 
ATOM     36  C   UNL A   1      39.063  29.947  32.312  1.00  0.00     0.010 A 
ATOM     37  C   UNL A   1      37.794  30.607  30.346  1.00  0.00     0.010 A 
ATOM     38  C   UNL A   1      38.897  29.951  30.921  1.00  0.00    -0.014 A 
BRANCH  38  39
ATOM     39  C   UNL A   1      40.040  29.514  30.090  1.00  0.00     0.031 A 
ATOM     40  C   UNL A   1      41.165  30.492  29.886  1.00  0.00     0.074 A 
ATOM     41  C   UNL A   1      40.130  28.259  29.620  1.00  0.00     0.049 A 
ATOM     42  N   UNL A   1      42.302  30.336  29.258  1.00  0.00    -0.248 NA
ATOM     43  C   UNL A   1      40.985  31.828  30.480  1.00  0.00     0.031 C 
ATOM     44  C   UNL A   1      39.128  27.211  29.805  1.00  0.00     0.029 A 
ATOM     45  N   UNL A   1      41.125  27.654  28.898  1.00  0.00    -0.354 N 
ATOM     46  C   UNL A   1      42.968  31.549  29.384  1.00  0.00     0.074 A 
ATOM     47  C   UNL A   1      42.096  32.443  30.110  1.00  0.00     0.031 C 
ATOM     48  C   UNL A   1      39.561  26.087  29.207  1.00  0.00     0.029 A 
ATOM     49  C   UNL A   1      40.856  26.346  28.580  1.00  0.00     0.049 A 
ATOM     50  H   UNL A   1      41.955  28.112  28.634  1.00  0.00     0.167 HD
ATOM     51  C   UNL A   1      44.203  31.884  28.945  1.00  0.00     0.037 A 
ATOM     52  C   UNL A   1      41.574  25.468  27.852  1.00  0.00     0.037 A 
ATOM     53  C   UNL A   1      45.062  30.993  28.213  1.00  0.00     0.049 A 
ATOM     54  C   UNL A   1      42.913  25.891  27.303  1.00  0.00     0.074 A 
ATOM     55  C   UNL A   1      46.332  31.231  27.720  1.00  0.00     0.029 A 
ATOM     56  N   UNL A   1      44.732  29.692  27.862  1.00  0.00    -0.354 N 
ATOM     57  N   UNL A   1      43.545  27.033  27.443  1.00  0.00    -0.248 NA
ATOM     58  C   UNL A   1      43.642  24.898  26.503  1.00  0.00     0.031 C 
ATOM     59  C   UNL A   1      46.747  30.094  27.018  1.00  0.00     0.029 A 
ATOM     60  C   UNL A   1      45.765  29.123  27.135  1.00  0.00     0.049 A 
ATOM     61  H   UNL A   1      43.889  29.240  28.094  1.00  0.00     0.167 HD
ATOM     62  C   UNL A   1      44.759  26.882  26.781  1.00  0.00     0.074 A 
ATOM     63  C   UNL A   1      44.778  25.533  26.255  1.00  0.00     0.031 C 
ATOM     64  C   UNL A   1      45.768  27.776  26.624  1.00  0.00     0.037 A 
BRANCH  51  65
ATOM     65  C   UNL A   1      44.672  33.285  29.213  1.00  0.00     0.057 A 
ATOM     66  C   UNL A   1      45.404  33.619  30.360  1.00  0.00     0.134 A 
ATOM     67  C   UNL A   1      44.395  34.312  28.302  1.00  0.00     0.134 A 
ATOM     68  F   UNL A   1      45.685  32.687  31.284  1.00  0.00    -0.206 F 
ATOM     69  C   UNL A   1      45.821  34.929  30.604  1.00  0.00     0.040 A 
ATOM     70  C   UNL A   1      44.833  35.619  28.521  1.00  0.00     0.040 A 
ATOM     71  F   UNL A   1      43.698  34.063  27.184  1.00  0.00    -0.206 F 
ATOM     72  C   UNL A   1      45.542  35.932  29.678  1.00  0.00     0.006 A 
ENDBRANCH  51  65
BRANCH  52  73
ATOM     73  C   UNL A   1      41.045  24.105  27.590  1.00  0.00     0.057 A 
ATOM     74  C   UNL A   1      41.572  22.980  28.235  1.00  0.00     0.134 A 
ATOM     75  C   UNL A   1      40.022  23.890  26.658  1.00  0.00     0.134 A 
ATOM     76  F   UNL A   1      42.570  23.115  29.122  1.00  0.00    -0.206 F 
ATOM     77  C   UNL A   1      41.120  21.691  27.945  1.00  0.00     0.040 A 
ATOM     78  C   UNL A   1      39.540  22.611  26.380  1.00  0.00     0.040 A 
ATOM     79  F   UNL A   1      39.474  24.925  26.004  1.00  0.00    -0.206 F 
ATOM     80  C   UNL A   1      40.097  21.504  27.017  1.00  0.00     0.006 A 
ENDBRANCH  52  73
BRANCH  64  81
ATOM     81  C   UNL A   1      46.996  27.304  25.896  1.00  0.00     0.057 A 
ATOM     82  C   UNL A   1      48.044  26.642  26.547  1.00  0.00     0.134 A 
ATOM     83  C   UNL A   1      47.119  27.498  24.513  1.00  0.00     0.134 A 
ATOM     84  F   UNL A   1      47.997  26.431  27.872  1.00  0.00    -0.206 F 
ATOM     85  C   UNL A   1      49.187  26.228  25.859  1.00  0.00     0.040 A 
ATOM     86  C   UNL A   1      48.239  27.057  23.807  1.00  0.00     0.040 A 
ATOM     87  F   UNL A   1      46.146  28.111  23.820  1.00  0.00    -0.206 F 
ATOM     88  C   UNL A   1      49.282  26.430  24.483  1.00  0.00     0.006 A 
ENDBRANCH  64  81
ENDBRANCH  38  39
ENDBRANCH  31  33
ENDBRANCH  30  31
ENDBRANCH  29  30
ENDBRANCH  28  29
ENDBRANCH  27  28
ENDBRANCH  26  27
ENDBRANCH  25  26
ENDBRANCH  24  25
ENDBRANCH   1  24
TORSDOF 23
ENDMDL
MODEL 2
REMARK VINA RESULT:      -9.3      1.381      6.425
REMARK SMILES C[C@H]1[C@@H](C(=O)OCCOCCOCCOCCOC(=O)c2ccc(-c3c4nc(c(-c5c(F)cccc5F)c5ccc([nH]5)c(-c5c(F)cccc5F)c5nc(c(-c6c(F)cccc6F)c6ccc3[nH]6)C=C5)C=C4)cc2)CC[N@@H+]1CC1(O)CCCC1
REMARK SMILES IDX 11 1 10 2 9 3 8 4 7 5 6 6 4 7 5 8 3 9 1 10 2 11 77 12 75 13
REMARK SMILES IDX 76 14 78 16 79 17 81 18 84 19 82 20 83 21 80 22 12 24 13 25
REMARK SMILES IDX 14 26 15 27 16 28 17 29 18 30 19 31 20 32 21 33 22 34 74 35
REMARK SMILES IDX 23 36 73 37 24 38 25 39 26 40 67 41 27 42 72 43 66 44 68 45
REMARK SMILES IDX 28 46 71 47 65 48 64 49 29 51 55 52 38 53 54 54 39 55 42 56
REMARK SMILES IDX 53 57 69 58 40 59 41 60 52 62 70 63 43 64 30 65 31 66 36 67
REMARK SMILES IDX 32 68 33 69 35 70 37 71 34 72 56 73 57 74 62 75 58 76 59 77
REMARK SMILES IDX 61 78 63 79 60 80 44 81 45 82 50 83 46 84 47 85 49 86 51 87
REMARK SMILES IDX 48 88
REMARK H PARENT 77 15 80 23 68 50 42 61
REMARK Flexibility Score: inf
ROOT
ATOM      1  C   UNL A   1      31.995  29.139  27.161  1.00  0.00     0.188 C 
ENDROOT
BRANCH   1   2
ATOM      2  C   UNL A   1      31.764  28.300  25.889  1.00  0.00     0.188 C 
BRANCH   2   3
ATOM      3  O   UNL A   1      32.701  28.555  24.864  1.00  0.00    -0.376 OA
BRANCH   3   4
ATOM      4  C   UNL A   1      32.640  27.764  23.696  1.00  0.00     0.202 C 
BRANCH   4   5
ATOM      5  C   UNL A   1      33.423  26.441  23.609  1.00  0.00     0.261 C 
BRANCH   5   6
ATOM      6  O   UNL A   1      32.964  25.335  24.405  1.00  0.00    -0.463 OA
BRANCH   6   7
ATOM      7  C   UNL A   1      31.996  24.558  23.883  1.00  0.00     0.315 C 
ATOM      8  O   UNL A   1      30.912  24.997  23.508  1.00  0.00    -0.252 OA
BRANCH   7   9
ATOM      9  C   UNL A   1      32.366  23.091  23.694  1.00  0.00     0.162 C 
ATOM     10  C   UNL A   1      30.998  22.175  25.771  1.00  0.00     0.076 C 
ATOM     11  C   UNL A   1      31.818  21.904  24.512  1.00  0.00     0.195 C 
ATOM     12  N   UNL A   1      32.966  21.022  24.821  1.00  0.00    -0.330 N 
ATOM     13  C   UNL A   1      33.883  22.873  23.622  1.00  0.00     0.083 C 
ATOM     14  C   UNL A   1      34.205  21.761  24.608  1.00  0.00     0.263 C 
ATOM     15  H   UNL A   1      32.866  20.769  25.805  1.00  0.00     0.348 HD
BRANCH  12  16
ATOM     16  C   UNL A   1      32.977  19.694  24.172  1.00  0.00     0.297 C 
BRANCH  16  17
ATOM     17  C   UNL A   1      33.152  18.410  25.035  1.00  0.00     0.113 C 
ATOM     18  C   UNL A   1      34.476  17.677  24.828  1.00  0.00     0.041 C 
ATOM     19  C   UNL A   1      32.150  17.312  24.671  1.00  0.00     0.041 C 
ATOM     20  C   UNL A   1      34.249  16.272  25.365  1.00  0.00     0.003 C 
ATOM     21  C   UNL A   1      32.741  16.055  25.320  1.00  0.00     0.003 C 
BRANCH  17  22
ATOM     22  O   UNL A   1      32.933  18.712  26.420  1.00  0.00    -0.384 OA
ATOM     23  H   UNL A   1      32.181  19.320  26.503  1.00  0.00     0.211 HD
ENDBRANCH  17  22
ENDBRANCH  16  17
ENDBRANCH  12  16
ENDBRANCH   7   9
ENDBRANCH   6   7
ENDBRANCH   5   6
ENDBRANCH   4   5
ENDBRANCH   3   4
ENDBRANCH   2   3
ENDBRANCH   1   2
BRANCH   1  24
ATOM     24  O   UNL A   1      33.216  29.801  27.454  1.00  0.00    -0.377 OA
BRANCH  24  25
ATOM     25  C   UNL A   1      33.284  31.201  27.281  1.00  0.00     0.188 C 
BRANCH  25  26
ATOM     26  C   UNL A   1      34.193  31.970  28.257  1.00  0.00     0.188 C 
BRANCH  26  27
ATOM     27  O   UNL A   1      33.688  33.239  28.640  1.00  0.00    -0.376 OA
BRANCH  27  28
ATOM     28  C   UNL A   1      34.576  34.181  29.223  1.00  0.00     0.202 C 
BRANCH  28  29
ATOM     29  C   UNL A   1      34.838  34.176  30.741  1.00  0.00     0.261 C 
BRANCH  29  30
ATOM     30  O   UNL A   1      36.124  33.729  31.185  1.00  0.00    -0.460 OA
BRANCH  30  31
ATOM     31  C   UNL A   1      36.180  32.562  31.850  1.00  0.00     0.338 C 
ATOM     32  O   UNL A   1      35.397  32.153  32.697  1.00  0.00    -0.246 OA
BRANCH  31  33
ATOM     33  C   UNL A   1      37.251  31.753  31.242  1.00  0.00     0.060 A 
ATOM     34  C   UNL A   1      38.235  31.207  32.078  1.00  0.00     0.016 A 
ATOM     35  C   UNL A   1      37.282  31.522  29.864  1.00  0.00     0.016 A 
ATOM     36  C   UNL A   1      39.273  30.461  31.535  1.00  0.00     0.010 A 
ATOM     37  C   UNL A   1      38.349  30.808  29.313  1.00  0.00     0.010 A 
ATOM     38  C   UNL A   1      39.370  30.317  30.145  1.00  0.00    -0.014 A 
BRANCH  38  39
ATOM     39  C   UNL A   1      40.678  29.910  29.584  1.00  0.00     0.031 A 
ATOM     40  C   UNL A   1      40.808  28.499  29.078  1.00  0.00     0.074 A 
ATOM     41  C   UNL A   1      41.682  30.789  29.429  1.00  0.00     0.049 A 
ATOM     42  N   UNL A   1      41.819  27.915  28.487  1.00  0.00    -0.248 NA
ATOM     43  C   UNL A   1      39.633  27.629  29.259  1.00  0.00     0.031 C 
ATOM     44  C   UNL A   1      41.647  32.194  29.829  1.00  0.00     0.029 A 
ATOM     45  N   UNL A   1      42.926  30.622  28.878  1.00  0.00    -0.354 N 
ATOM     46  C   UNL A   1      41.398  26.616  28.226  1.00  0.00     0.074 A 
ATOM     47  C   UNL A   1      40.061  26.484  28.756  1.00  0.00     0.031 C 
ATOM     48  C   UNL A   1      42.823  32.763  29.510  1.00  0.00     0.029 A 
ATOM     49  C   UNL A   1      43.696  31.758  28.908  1.00  0.00     0.049 A 
ATOM     50  H   UNL A   1      43.236  29.770  28.496  1.00  0.00     0.167 HD
ATOM     51  C   UNL A   1      42.063  25.627  27.587  1.00  0.00     0.037 A 
ATOM     52  C   UNL A   1      44.967  31.950  28.503  1.00  0.00     0.037 A 
ATOM     53  C   UNL A   1      43.398  25.761  27.070  1.00  0.00     0.049 A 
ATOM     54  C   UNL A   1      45.717  30.807  27.868  1.00  0.00     0.074 A 
ATOM     55  C   UNL A   1      44.165  24.821  26.408  1.00  0.00     0.029 A 
ATOM     56  N   UNL A   1      44.167  26.912  27.168  1.00  0.00    -0.354 N 
ATOM     57  N   UNL A   1      45.307  29.588  27.606  1.00  0.00    -0.248 NA
ATOM     58  C   UNL A   1      47.104  31.071  27.463  1.00  0.00     0.031 C 
ATOM     59  C   UNL A   1      45.422  25.382  26.158  1.00  0.00     0.029 A 
ATOM     60  C   UNL A   1      45.413  26.696  26.600  1.00  0.00     0.049 A 
ATOM     61  H   UNL A   1      43.873  27.755  27.580  1.00  0.00     0.167 HD
ATOM     62  C   UNL A   1      46.371  28.954  26.974  1.00  0.00     0.074 A 
ATOM     63  C   UNL A   1      47.437  29.930  26.879  1.00  0.00     0.031 C 
ATOM     64  C   UNL A   1      46.460  27.681  26.511  1.00  0.00     0.037 A 
BRANCH  51  65
ATOM     65  C   UNL A   1      41.365  24.303  27.454  1.00  0.00     0.057 A 
ATOM     66  C   UNL A   1      41.722  23.191  28.229  1.00  0.00     0.134 A 
ATOM     67  C   UNL A   1      40.315  24.144  26.542  1.00  0.00     0.134 A 
ATOM     68  F   UNL A   1      42.733  23.270  29.107  1.00  0.00    -0.206 F 
ATOM     69  C   UNL A   1      41.075  21.963  28.084  1.00  0.00     0.040 A 
ATOM     70  C   UNL A   1      39.641  22.929  26.410  1.00  0.00     0.040 A 
ATOM     71  F   UNL A   1      39.923  25.167  25.767  1.00  0.00    -0.206 F 
ATOM     72  C   UNL A   1      40.026  21.832  27.176  1.00  0.00     0.006 A 
ENDBRANCH  51  65
BRANCH  52  73
ATOM     73  C   UNL A   1      45.620  33.272  28.691  1.00  0.00     0.057 A 
ATOM     74  C   UNL A   1      46.346  33.569  29.850  1.00  0.00     0.134 A 
ATOM     75  C   UNL A   1      45.501  34.283  27.730  1.00  0.00     0.134 A 
ATOM     76  F   UNL A   1      46.477  32.651  30.820  1.00  0.00    -0.206 F 
ATOM     77  C   UNL A   1      46.909  34.831  30.058  1.00  0.00     0.040 A 
ATOM     78  C   UNL A   1      46.084  35.538  27.911  1.00  0.00     0.040 A 
ATOM     79  F   UNL A   1      44.818  34.064  26.597  1.00  0.00    -0.206 F 
ATOM     80  C   UNL A   1      46.782  35.818  29.083  1.00  0.00     0.006 A 
ENDBRANCH  52  73
BRANCH  64  81
ATOM     81  C   UNL A   1      47.735  27.290  25.816  1.00  0.00     0.057 A 
ATOM     82  C   UNL A   1      47.916  27.454  24.438  1.00  0.00     0.134 A 
ATOM     83  C   UNL A   1      48.807  26.761  26.548  1.00  0.00     0.134 A 
ATOM     84  F   UNL A   1      46.928  27.947  23.675  1.00  0.00    -0.206 F 
ATOM     85  C   UNL A   1      49.100  27.067  23.805  1.00  0.00     0.040 A 
ATOM     86  C   UNL A   1      50.008  26.404  25.934  1.00  0.00     0.040 A 
ATOM     87  F   UNL A   1      48.709  26.591  27.876  1.00  0.00    -0.206 F 
ATOM     88  C   UNL A   1      50.152  26.546  24.557  1.00  0.00     0.006 A 
ENDBRANCH  64  81
ENDBRANCH  38  39
ENDBRANCH  31  33
ENDBRANCH  30  31
ENDBRANCH  29  30
ENDBRANCH  28  29
ENDBRANCH  27  28
ENDBRANCH  26  27
ENDBRANCH  25  26
ENDBRANCH  24  25
ENDBRANCH   1  24
TORSDOF 23
ENDMDL
MODEL 3
REMARK VINA RESULT:      -9.2      2.343      8.494
REMARK SMILES C[C@H]1[C@@H](C(=O)OCCOCCOCCOCCOC(=O)c2ccc(-c3c4nc(c(-c5c(F)cccc5F)c5ccc([nH]5)c(-c5c(F)cccc5F)c5nc(c(-c6c(F)cccc6F)c6ccc3[nH]6)C=C5)C=C4)cc2)CC[N@@H+]1CC1(O)CCCC1
REMARK SMILES IDX 11 1 10 2 9 3 8 4 7 5 6 6 4 7 5 8 3 9 1 10 2 11 77 12 75 13
REMARK SMILES IDX 76 14 78 16 79 17 81 18 84 19 82 20 83 21 80 22 12 24 13 25
REMARK SMILES IDX 14 26 15 27 16 28 17 29 18 30 19 31 20 32 21 33 22 34 74 35
REMARK SMILES IDX 23 36 73 37 24 38 25 39 26 40 67 41 27 42 72 43 66 44 68 45
REMARK SMILES IDX 28 46 71 47 65 48 64 49 29 51 55 52 38 53 54 54 39 55 42 56
REMARK SMILES IDX 53 57 69 58 40 59 41 60 52 62 70 63 43 64 30 65 31 66 36 67
REMARK SMILES IDX 32 68 33 69 35 70 37 71 34 72 56 73 57 74 62 75 58 76 59 77
REMARK SMILES IDX 61 78 63 79 60 80 44 81 45 82 50 83 46 84 47 85 49 86 51 87
REMARK SMILES IDX 48 88
REMARK H PARENT 77 15 80 23 68 50 42 61
REMARK Flexibility Score: inf
ROOT
ATOM      1  C   UNL A   1      34.368  23.822  26.357  1.00  0.00     0.188 C 
ENDROOT
BRANCH   1   2
ATOM      2  C   UNL A   1      33.040  23.050  26.483  1.00  0.00     0.188 C 
BRANCH   2   3
ATOM      3  O   UNL A   1      32.709  22.299  25.335  1.00  0.00    -0.376 OA
BRANCH   3   4
ATOM      4  C   UNL A   1      32.004  22.948  24.297  1.00  0.00     0.202 C 
BRANCH   4   5
ATOM      5  C   UNL A   1      32.762  23.569  23.109  1.00  0.00     0.261 C 
BRANCH   5   6
ATOM      6  O   UNL A   1      32.149  24.675  22.425  1.00  0.00    -0.463 OA
BRANCH   6   7
ATOM      7  C   UNL A   1      31.251  25.405  23.113  1.00  0.00     0.315 C 
ATOM      8  O   UNL A   1      30.139  24.984  23.421  1.00  0.00    -0.252 OA
BRANCH   7   9
ATOM      9  C   UNL A   1      31.737  26.774  23.575  1.00  0.00     0.162 C 
ATOM     10  C   UNL A   1      31.466  26.320  26.172  1.00  0.00     0.076 C 
ATOM     11  C   UNL A   1      31.959  27.213  25.036  1.00  0.00     0.195 C 
ATOM     12  N   UNL A   1      31.403  28.578  25.170  1.00  0.00    -0.330 N 
ATOM     13  C   UNL A   1      30.964  27.924  22.915  1.00  0.00     0.083 C 
ATOM     14  C   UNL A   1      30.519  28.844  24.041  1.00  0.00     0.263 C 
ATOM     15  H   UNL A   1      30.875  28.579  26.044  1.00  0.00     0.348 HD
BRANCH  12  16
ATOM     16  C   UNL A   1      32.370  29.670  25.405  1.00  0.00     0.297 C 
BRANCH  16  17
ATOM     17  C   UNL A   1      33.199  29.702  26.723  1.00  0.00     0.113 C 
ATOM     18  C   UNL A   1      33.707  31.085  27.125  1.00  0.00     0.041 C 
ATOM     19  C   UNL A   1      34.515  28.928  26.613  1.00  0.00     0.041 C 
ATOM     20  C   UNL A   1      34.837  30.830  28.111  1.00  0.00     0.003 C 
ATOM     21  C   UNL A   1      35.322  29.415  27.821  1.00  0.00     0.003 C 
BRANCH  17  22
ATOM     22  O   UNL A   1      32.459  29.088  27.787  1.00  0.00    -0.384 OA
ATOM     23  H   UNL A   1      31.741  28.551  27.414  1.00  0.00     0.211 HD
ENDBRANCH  17  22
ENDBRANCH  16  17
ENDBRANCH  12  16
ENDBRANCH   7   9
ENDBRANCH   6   7
ENDBRANCH   5   6
ENDBRANCH   4   5
ENDBRANCH   3   4
ENDBRANCH   2   3
ENDBRANCH   1   2
BRANCH   1  24
ATOM     24  O   UNL A   1      35.620  23.196  26.119  1.00  0.00    -0.377 OA
BRANCH  24  25
ATOM     25  C   UNL A   1      36.115  23.153  24.797  1.00  0.00     0.188 C 
BRANCH  25  26
ATOM     26  C   UNL A   1      37.036  21.971  24.447  1.00  0.00     0.188 C 
BRANCH  26  27
ATOM     27  O   UNL A   1      36.630  20.735  25.013  1.00  0.00    -0.376 OA
BRANCH  27  28
ATOM     28  C   UNL A   1      37.427  19.583  24.782  1.00  0.00     0.202 C 
BRANCH  28  29
ATOM     29  C   UNL A   1      38.886  19.527  25.274  1.00  0.00     0.261 C 
BRANCH  29  30
ATOM     30  O   UNL A   1      39.290  20.496  26.248  1.00  0.00    -0.460 OA
BRANCH  30  31
ATOM     31  C   UNL A   1      40.605  20.617  26.495  1.00  0.00     0.338 C 
ATOM     32  O   UNL A   1      41.497  19.849  26.157  1.00  0.00    -0.246 OA
BRANCH  31  33
ATOM     33  C   UNL A   1      40.829  21.950  27.082  1.00  0.00     0.060 A 
ATOM     34  C   UNL A   1      40.137  23.043  26.544  1.00  0.00     0.016 A 
ATOM     35  C   UNL A   1      41.704  22.122  28.159  1.00  0.00     0.016 A 
ATOM     36  C   UNL A   1      40.345  24.318  27.056  1.00  0.00     0.010 A 
ATOM     37  C   UNL A   1      41.945  23.409  28.646  1.00  0.00     0.010 A 
ATOM     38  C   UNL A   1      41.299  24.514  28.062  1.00  0.00    -0.014 A 
BRANCH  38  39
ATOM     39  C   UNL A   1      41.803  25.889  28.275  1.00  0.00     0.031 A 
ATOM     40  C   UNL A   1      43.141  26.238  27.681  1.00  0.00     0.074 A 
ATOM     41  C   UNL A   1      41.056  26.827  28.880  1.00  0.00     0.049 A 
ATOM     42  N   UNL A   1      43.775  27.382  27.669  1.00  0.00    -0.248 NA
ATOM     43  C   UNL A   1      43.859  25.145  27.001  1.00  0.00     0.031 C 
ATOM     44  C   UNL A   1      39.724  26.618  29.441  1.00  0.00     0.029 A 
ATOM     45  N   UNL A   1      41.317  28.153  29.109  1.00  0.00    -0.354 N 
ATOM     46  C   UNL A   1      44.959  27.145  26.981  1.00  0.00     0.074 A 
ATOM     47  C   UNL A   1      44.977  25.744  26.628  1.00  0.00     0.031 C 
ATOM     48  C   UNL A   1      39.283  27.780  29.955  1.00  0.00     0.029 A 
ATOM     49  C   UNL A   1      40.311  28.804  29.778  1.00  0.00     0.049 A 
ATOM     50  H   UNL A   1      42.147  28.597  28.820  1.00  0.00     0.167 HD
ATOM     51  C   UNL A   1      45.939  28.021  26.661  1.00  0.00     0.037 A 
ATOM     52  C   UNL A   1      40.242  30.079  30.206  1.00  0.00     0.037 A 
ATOM     53  C   UNL A   1      45.921  29.412  27.024  1.00  0.00     0.049 A 
ATOM     54  C   UNL A   1      41.384  31.017  29.908  1.00  0.00     0.074 A 
ATOM     55  C   UNL A   1      46.863  30.387  26.751  1.00  0.00     0.029 A 
ATOM     56  N   UNL A   1      44.908  30.022  27.750  1.00  0.00    -0.354 N 
ATOM     57  N   UNL A   1      42.492  30.792  29.241  1.00  0.00    -0.248 NA
ATOM     58  C   UNL A   1      41.261  32.390  30.415  1.00  0.00     0.031 C 
ATOM     59  C   UNL A   1      46.450  31.574  27.364  1.00  0.00     0.029 A 
ATOM     60  C   UNL A   1      45.216  31.357  27.958  1.00  0.00     0.049 A 
ATOM     61  H   UNL A   1      44.093  29.574  28.071  1.00  0.00     0.167 HD
ATOM     62  C   UNL A   1      43.177  32.001  29.217  1.00  0.00     0.074 A 
ATOM     63  C   UNL A   1      42.351  32.959  29.923  1.00  0.00     0.031 C 
ATOM     64  C   UNL A   1      44.379  32.297  28.659  1.00  0.00     0.037 A 
BRANCH  51  65
ATOM     65  C   UNL A   1      47.126  27.483  25.915  1.00  0.00     0.057 A 
ATOM     66  C   UNL A   1      47.202  27.512  24.515  1.00  0.00     0.134 A 
ATOM     67  C   UNL A   1      48.213  26.938  26.609  1.00  0.00     0.134 A 
ATOM     68  F   UNL A   1      46.187  28.001  23.788  1.00  0.00    -0.206 F 
ATOM     69  C   UNL A   1      48.305  26.994  23.834  1.00  0.00     0.040 A 
ATOM     70  C   UNL A   1      49.334  26.445  25.939  1.00  0.00     0.040 A 
ATOM     71  F   UNL A   1      48.205  26.877  27.949  1.00  0.00    -0.206 F 
ATOM     72  C   UNL A   1      49.379  26.466  24.547  1.00  0.00     0.006 A 
ENDBRANCH  51  65
BRANCH  52  73
ATOM     73  C   UNL A   1      39.058  30.549  30.971  1.00  0.00     0.057 A 
ATOM     74  C   UNL A   1      38.965  30.373  32.356  1.00  0.00     0.134 A 
ATOM     75  C   UNL A   1      37.971  31.153  30.326  1.00  0.00     0.134 A 
ATOM     76  F   UNL A   1      39.963  29.780  33.030  1.00  0.00    -0.206 F 
ATOM     77  C   UNL A   1      37.827  30.757  33.069  1.00  0.00     0.040 A 
ATOM     78  C   UNL A   1      36.840  31.569  31.030  1.00  0.00     0.040 A 
ATOM     79  F   UNL A   1      37.994  31.351  29.000  1.00  0.00    -0.206 F 
ATOM     80  C   UNL A   1      36.762  31.362  32.405  1.00  0.00     0.006 A 
ENDBRANCH  52  73
BRANCH  64  81
ATOM     81  C   UNL A   1      44.846  33.723  28.749  1.00  0.00     0.057 A 
ATOM     82  C   UNL A   1      44.487  34.689  27.801  1.00  0.00     0.134 A 
ATOM     83  C   UNL A   1      45.651  34.139  29.818  1.00  0.00     0.134 A 
ATOM     84  F   UNL A   1      43.725  34.358  26.746  1.00  0.00    -0.206 F 
ATOM     85  C   UNL A   1      44.946  36.005  27.889  1.00  0.00     0.040 A 
ATOM     86  C   UNL A   1      46.086  35.459  29.937  1.00  0.00     0.040 A 
ATOM     87  F   UNL A   1      46.021  33.271  30.773  1.00  0.00    -0.206 F 
ATOM     88  C   UNL A   1      45.744  36.394  28.964  1.00  0.00     0.006 A 
ENDBRANCH  64  81
ENDBRANCH  38  39
ENDBRANCH  31  33
ENDBRANCH  30  31
ENDBRANCH  29  30
ENDBRANCH  28  29
ENDBRANCH  27  28
ENDBRANCH  26  27
ENDBRANCH  25  26
ENDBRANCH  24  25
ENDBRANCH   1  24
TORSDOF 23
ENDMDL
