MODEL 1
REMARK VINA RESULT:      -9.1      0.000      0.000
REMARK SMILES O=C(CSc1nc2cnccc2n1CCC1CC1)OCCOCCOCCOCCOC(=O)c1ccc(-c2c3nc(c(-c4c(F)cccc4F)c4ccc([nH]4)c(-c4c(F)cccc4F)c4nc(c(-c5c(F)cccc5F)c5ccc2[nH]5)C=C4)C=C3)cc1
REMARK SMILES IDX 23 1 22 2 21 3 20 4 19 5 2 6 1 7 3 8 4 9 5 10 6 11 13 12
REMARK SMILES IDX 7 13 12 14 8 15 11 16 9 17 10 18 14 19 15 20 16 21 17 22
REMARK SMILES IDX 18 23 24 24 25 25 26 26 27 27 28 28 29 29 30 30 31 31 32 32
REMARK SMILES IDX 33 33 34 34 35 35 87 36 36 37 86 38 37 39 38 40 39 41 80 42
REMARK SMILES IDX 40 43 85 44 79 45 81 46 41 47 84 48 78 49 77 50 42 52 68 53
REMARK SMILES IDX 51 54 67 55 52 56 55 57 66 58 82 59 53 60 54 61 65 63 83 64
REMARK SMILES IDX 56 65 43 66 44 67 49 68 45 69 46 70 48 71 50 72 47 73 69 74
REMARK SMILES IDX 70 75 75 76 71 77 72 78 74 79 76 80 73 81 57 82 58 83 63 84
REMARK SMILES IDX 59 85 60 86 62 87 64 88 61 89
REMARK H PARENT 81 51 55 62
REMARK Flexibility Score: inf
ROOT
ATOM      1  C   UNL A   1      34.078  28.758  26.408  1.00  0.00     0.188 C 
ENDROOT
BRANCH   1   2
ATOM      2  O   UNL A   1      33.465  28.092  25.307  1.00  0.00    -0.376 OA
BRANCH   2   3
ATOM      3  C   UNL A   1      33.295  28.504  23.966  1.00  0.00     0.202 C 
BRANCH   3   4
ATOM      4  C   UNL A   1      33.647  27.616  22.790  1.00  0.00     0.261 C 
BRANCH   4   5
ATOM      5  O   UNL A   1      33.348  26.248  23.052  1.00  0.00    -0.463 OA
BRANCH   5   6
ATOM      6  C   UNL A   1      33.067  25.321  22.114  1.00  0.00     0.316 C 
ATOM      7  O   UNL A   1      33.278  25.575  20.929  1.00  0.00    -0.251 OA
BRANCH   6   8
ATOM      8  C   UNL A   1      32.624  23.963  22.569  1.00  0.00     0.200 C 
BRANCH   8   9
ATOM      9  S   UNL A   1      32.349  23.898  24.358  1.00  0.00    -0.076 SA
BRANCH   9  10
ATOM     10  C   UNL A   1      33.821  23.307  25.059  1.00  0.00     0.169 A 
ATOM     11  N   UNL A   1      34.769  24.124  25.464  1.00  0.00    -0.221 NA
ATOM     12  N   UNL A   1      34.290  22.012  24.933  1.00  0.00    -0.319 N 
ATOM     13  C   UNL A   1      35.910  23.359  25.548  1.00  0.00     0.108 A 
ATOM     14  C   UNL A   1      35.620  22.020  25.320  1.00  0.00     0.072 A 
ATOM     15  C   UNL A   1      37.246  23.717  25.757  1.00  0.00     0.141 A 
ATOM     16  C   UNL A   1      36.588  21.016  25.373  1.00  0.00     0.049 A 
ATOM     17  N   UNL A   1      38.223  22.766  25.760  1.00  0.00    -0.262 NA
ATOM     18  C   UNL A   1      37.879  21.469  25.588  1.00  0.00     0.113 A 
BRANCH  12  19
ATOM     19  C   UNL A   1      33.757  20.889  24.177  1.00  0.00     0.125 C 
BRANCH  19  20
ATOM     20  C   UNL A   1      33.388  19.645  24.986  1.00  0.00     0.025 C 
BRANCH  20  21
ATOM     21  C   UNL A   1      33.339  18.379  24.201  1.00  0.00    -0.009 C 
ATOM     22  C   UNL A   1      34.311  17.351  24.477  1.00  0.00     0.004 C 
ATOM     23  C   UNL A   1      32.847  17.048  24.805  1.00  0.00     0.004 C 
ENDBRANCH  20  21
ENDBRANCH  19  20
ENDBRANCH  12  19
ENDBRANCH   9  10
ENDBRANCH   8   9
ENDBRANCH   6   8
ENDBRANCH   5   6
ENDBRANCH   4   5
ENDBRANCH   3   4
ENDBRANCH   2   3
ENDBRANCH   1   2
BRANCH   1  24
ATOM     24  C   UNL A   1      33.935  30.247  26.743  1.00  0.00     0.188 C 
BRANCH  24  25
ATOM     25  O   UNL A   1      32.733  30.598  27.391  1.00  0.00    -0.377 OA
BRANCH  25  26
ATOM     26  C   UNL A   1      32.088  31.727  26.853  1.00  0.00     0.188 C 
BRANCH  26  27
ATOM     27  C   UNL A   1      32.624  33.080  27.368  1.00  0.00     0.188 C 
BRANCH  27  28
ATOM     28  O   UNL A   1      33.449  33.116  28.519  1.00  0.00    -0.376 OA
BRANCH  28  29
ATOM     29  C   UNL A   1      34.725  33.721  28.391  1.00  0.00     0.202 C 
BRANCH  29  30
ATOM     30  C   UNL A   1      35.921  32.834  27.972  1.00  0.00     0.261 C 
BRANCH  30  31
ATOM     31  O   UNL A   1      36.294  31.802  28.919  1.00  0.00    -0.460 OA
BRANCH  31  32
ATOM     32  C   UNL A   1      37.219  32.085  29.877  1.00  0.00     0.338 C 
ATOM     33  O   UNL A   1      37.099  32.917  30.767  1.00  0.00    -0.246 OA
BRANCH  32  34
ATOM     34  C   UNL A   1      38.256  30.994  29.905  1.00  0.00     0.060 A 
ATOM     35  C   UNL A   1      39.629  31.249  29.924  1.00  0.00     0.016 A 
ATOM     36  C   UNL A   1      37.815  29.684  29.627  1.00  0.00     0.016 A 
ATOM     37  C   UNL A   1      40.528  30.230  29.560  1.00  0.00     0.010 A 
ATOM     38  C   UNL A   1      38.714  28.675  29.236  1.00  0.00     0.010 A 
ATOM     39  C   UNL A   1      40.081  28.940  29.179  1.00  0.00    -0.014 A 
BRANCH  39  40
ATOM     40  C   UNL A   1      41.094  27.855  29.095  1.00  0.00     0.031 A 
ATOM     41  C   UNL A   1      41.932  27.835  30.331  1.00  0.00     0.074 A 
ATOM     42  C   UNL A   1      41.266  26.831  28.221  1.00  0.00     0.049 A 
ATOM     43  N   UNL A   1      43.196  28.072  30.449  1.00  0.00    -0.248 NA
ATOM     44  C   UNL A   1      41.218  27.682  31.610  1.00  0.00     0.031 C 
ATOM     45  C   UNL A   1      40.383  26.394  27.141  1.00  0.00     0.029 A 
ATOM     46  N   UNL A   1      42.280  25.893  28.169  1.00  0.00    -0.354 N 
ATOM     47  C   UNL A   1      43.474  27.941  31.809  1.00  0.00     0.074 A 
ATOM     48  C   UNL A   1      42.207  27.867  32.483  1.00  0.00     0.031 C 
ATOM     49  C   UNL A   1      40.811  25.207  26.646  1.00  0.00     0.029 A 
ATOM     50  C   UNL A   1      42.039  24.811  27.319  1.00  0.00     0.049 A 
ATOM     51  H   UNL A   1      43.108  25.980  28.692  1.00  0.00     0.167 HD
ATOM     52  C   UNL A   1      44.729  27.684  32.264  1.00  0.00     0.037 A 
ATOM     53  C   UNL A   1      42.744  23.648  27.202  1.00  0.00     0.037 A 
ATOM     54  C   UNL A   1      45.724  28.014  31.279  1.00  0.00     0.049 A 
ATOM     55  C   UNL A   1      44.071  23.830  27.830  1.00  0.00     0.074 A 
ATOM     56  C   UNL A   1      46.094  29.159  30.600  1.00  0.00     0.029 A 
ATOM     57  N   UNL A   1      46.337  26.980  30.621  1.00  0.00    -0.354 N 
ATOM     58  N   UNL A   1      45.051  24.506  27.309  1.00  0.00    -0.248 NA
ATOM     59  C   UNL A   1      44.197  23.550  29.250  1.00  0.00     0.031 C 
ATOM     60  C   UNL A   1      46.489  28.710  29.306  1.00  0.00     0.029 A 
ATOM     61  C   UNL A   1      46.382  27.320  29.297  1.00  0.00     0.049 A 
ATOM     62  H   UNL A   1      46.679  26.151  31.023  1.00  0.00     0.167 HD
ATOM     63  C   UNL A   1      45.640  25.144  28.387  1.00  0.00     0.074 A 
ATOM     64  C   UNL A   1      45.151  24.430  29.562  1.00  0.00     0.031 C 
ATOM     65  C   UNL A   1      46.240  26.360  28.234  1.00  0.00     0.037 A 
BRANCH  52  66
ATOM     66  C   UNL A   1      45.024  26.764  33.427  1.00  0.00     0.057 A 
ATOM     67  C   UNL A   1      45.516  27.192  34.678  1.00  0.00     0.134 A 
ATOM     68  C   UNL A   1      44.491  25.461  33.413  1.00  0.00     0.134 A 
ATOM     69  F   UNL A   1      46.005  28.421  34.883  1.00  0.00    -0.206 F 
ATOM     70  C   UNL A   1      45.437  26.410  35.832  1.00  0.00     0.040 A 
ATOM     71  C   UNL A   1      44.357  24.692  34.574  1.00  0.00     0.040 A 
ATOM     72  F   UNL A   1      43.991  24.933  32.285  1.00  0.00    -0.206 F 
ATOM     73  C   UNL A   1      44.818  25.173  35.793  1.00  0.00     0.006 A 
ENDBRANCH  52  66
BRANCH  53  74
ATOM     74  C   UNL A   1      42.311  22.288  26.776  1.00  0.00     0.057 A 
ATOM     75  C   UNL A   1      41.270  21.619  27.439  1.00  0.00     0.134 A 
ATOM     76  C   UNL A   1      43.084  21.496  25.907  1.00  0.00     0.134 A 
ATOM     77  F   UNL A   1      40.516  22.252  28.350  1.00  0.00    -0.206 F 
ATOM     78  C   UNL A   1      41.021  20.252  27.267  1.00  0.00     0.040 A 
ATOM     79  C   UNL A   1      42.850  20.122  25.730  1.00  0.00     0.040 A 
ATOM     80  F   UNL A   1      44.132  22.019  25.253  1.00  0.00    -0.206 F 
ATOM     81  C   UNL A   1      41.821  19.494  26.422  1.00  0.00     0.006 A 
ENDBRANCH  53  74
BRANCH  65  82
ATOM     82  C   UNL A   1      46.564  26.813  26.843  1.00  0.00     0.057 A 
ATOM     83  C   UNL A   1      47.879  26.666  26.379  1.00  0.00     0.134 A 
ATOM     84  C   UNL A   1      45.654  27.433  25.977  1.00  0.00     0.134 A 
ATOM     85  F   UNL A   1      48.824  26.137  27.171  1.00  0.00    -0.206 F 
ATOM     86  C   UNL A   1      48.264  27.068  25.101  1.00  0.00     0.040 A 
ATOM     87  C   UNL A   1      46.008  27.749  24.667  1.00  0.00     0.040 A 
ATOM     88  F   UNL A   1      44.421  27.778  26.376  1.00  0.00    -0.206 F 
ATOM     89  C   UNL A   1      47.314  27.572  24.225  1.00  0.00     0.006 A 
ENDBRANCH  65  82
ENDBRANCH  39  40
ENDBRANCH  32  34
ENDBRANCH  31  32
ENDBRANCH  30  31
ENDBRANCH  29  30
ENDBRANCH  28  29
ENDBRANCH  27  28
ENDBRANCH  26  27
ENDBRANCH  25  26
ENDBRANCH  24  25
ENDBRANCH   1  24
TORSDOF 25
ENDMDL
MODEL 2
REMARK VINA RESULT:      -8.8      1.720      3.093
REMARK SMILES O=C(CSc1nc2cnccc2n1CCC1CC1)OCCOCCOCCOCCOC(=O)c1ccc(-c2c3nc(c(-c4c(F)cccc4F)c4ccc([nH]4)c(-c4c(F)cccc4F)c4nc(c(-c5c(F)cccc5F)c5ccc2[nH]5)C=C4)C=C3)cc1
REMARK SMILES IDX 23 1 22 2 21 3 20 4 19 5 2 6 1 7 3 8 4 9 5 10 6 11 13 12
REMARK SMILES IDX 7 13 12 14 8 15 11 16 9 17 10 18 14 19 15 20 16 21 17 22
REMARK SMILES IDX 18 23 24 24 25 25 26 26 27 27 28 28 29 29 30 30 31 31 32 32
REMARK SMILES IDX 33 33 34 34 35 35 87 36 36 37 86 38 37 39 38 40 39 41 80 42
REMARK SMILES IDX 40 43 85 44 79 45 81 46 41 47 84 48 78 49 77 50 42 52 68 53
REMARK SMILES IDX 51 54 67 55 52 56 55 57 66 58 82 59 53 60 54 61 65 63 83 64
REMARK SMILES IDX 56 65 43 66 44 67 49 68 45 69 46 70 48 71 50 72 47 73 69 74
REMARK SMILES IDX 70 75 75 76 71 77 72 78 74 79 76 80 73 81 57 82 58 83 63 84
REMARK SMILES IDX 59 85 60 86 62 87 64 88 61 89
REMARK H PARENT 81 51 55 62
REMARK Flexibility Score: inf
ROOT
ATOM      1  C   UNL A   1      33.375  27.304  23.803  1.00  0.00     0.188 C 
ENDROOT
BRANCH   1   2
ATOM      2  O   UNL A   1      32.243  26.702  23.181  1.00  0.00    -0.376 OA
BRANCH   2   3
ATOM      3  C   UNL A   1      30.884  27.091  23.177  1.00  0.00     0.202 C 
BRANCH   3   4
ATOM      4  C   UNL A   1      29.888  26.580  24.199  1.00  0.00     0.261 C 
BRANCH   4   5
ATOM      5  O   UNL A   1      30.086  25.199  24.486  1.00  0.00    -0.463 OA
BRANCH   5   6
ATOM      6  C   UNL A   1      31.114  24.693  25.196  1.00  0.00     0.316 C 
ATOM      7  O   UNL A   1      31.294  25.067  26.354  1.00  0.00    -0.251 OA
BRANCH   6   8
ATOM      8  C   UNL A   1      31.928  23.594  24.581  1.00  0.00     0.200 C 
BRANCH   8   9
ATOM      9  S   UNL A   1      32.774  22.591  25.829  1.00  0.00    -0.076 SA
BRANCH   9  10
ATOM     10  C   UNL A   1      33.061  21.043  25.101  1.00  0.00     0.169 A 
ATOM     11  N   UNL A   1      32.110  20.140  25.004  1.00  0.00    -0.221 NA
ATOM     12  N   UNL A   1      34.310  20.484  24.902  1.00  0.00    -0.319 N 
ATOM     13  C   UNL A   1      32.754  18.940  24.796  1.00  0.00     0.108 A 
ATOM     14  C   UNL A   1      34.118  19.141  24.628  1.00  0.00     0.072 A 
ATOM     15  C   UNL A   1      32.275  17.627  24.789  1.00  0.00     0.141 A 
ATOM     16  C   UNL A   1      35.010  18.098  24.373  1.00  0.00     0.049 A 
ATOM     17  N   UNL A   1      33.130  16.582  24.597  1.00  0.00    -0.262 NA
ATOM     18  C   UNL A   1      34.441  16.836  24.383  1.00  0.00     0.113 A 
BRANCH  12  19
ATOM     19  C   UNL A   1      35.628  20.971  25.282  1.00  0.00     0.125 C 
BRANCH  19  20
ATOM     20  C   UNL A   1      36.354  21.832  24.247  1.00  0.00     0.025 C 
BRANCH  20  21
ATOM     21  C   UNL A   1      37.012  23.051  24.796  1.00  0.00    -0.009 C 
ATOM     22  C   UNL A   1      36.805  23.389  26.182  1.00  0.00     0.004 C 
ATOM     23  C   UNL A   1      38.217  22.980  25.756  1.00  0.00     0.004 C 
ENDBRANCH  20  21
ENDBRANCH  19  20
ENDBRANCH  12  19
ENDBRANCH   9  10
ENDBRANCH   8   9
ENDBRANCH   6   8
ENDBRANCH   5   6
ENDBRANCH   4   5
ENDBRANCH   3   4
ENDBRANCH   2   3
ENDBRANCH   1   2
BRANCH   1  24
ATOM     24  C   UNL A   1      33.532  28.796  24.119  1.00  0.00     0.188 C 
BRANCH  24  25
ATOM     25  O   UNL A   1      32.384  29.415  24.655  1.00  0.00    -0.377 OA
BRANCH  25  26
ATOM     26  C   UNL A   1      32.351  29.468  26.061  1.00  0.00     0.188 C 
BRANCH  26  27
ATOM     27  C   UNL A   1      33.419  30.385  26.694  1.00  0.00     0.188 C 
BRANCH  27  28
ATOM     28  O   UNL A   1      33.036  31.344  27.665  1.00  0.00    -0.376 OA
BRANCH  28  29
ATOM     29  C   UNL A   1      33.350  32.701  27.404  1.00  0.00     0.202 C 
BRANCH  29  30
ATOM     30  C   UNL A   1      34.304  33.435  28.375  1.00  0.00     0.261 C 
BRANCH  30  31
ATOM     31  O   UNL A   1      35.565  32.768  28.634  1.00  0.00    -0.460 OA
BRANCH  31  32
ATOM     32  C   UNL A   1      35.720  32.071  29.793  1.00  0.00     0.338 C 
ATOM     33  O   UNL A   1      34.935  32.056  30.732  1.00  0.00    -0.246 OA
BRANCH  32  34
ATOM     34  C   UNL A   1      36.810  31.048  29.615  1.00  0.00     0.060 A 
ATOM     35  C   UNL A   1      36.628  29.688  29.877  1.00  0.00     0.016 A 
ATOM     36  C   UNL A   1      38.123  31.533  29.443  1.00  0.00     0.016 A 
ATOM     37  C   UNL A   1      37.752  28.864  30.071  1.00  0.00     0.010 A 
ATOM     38  C   UNL A   1      39.244  30.714  29.665  1.00  0.00     0.010 A 
ATOM     39  C   UNL A   1      39.072  29.372  30.001  1.00  0.00    -0.014 A 
BRANCH  39  40
ATOM     40  C   UNL A   1      40.187  28.390  29.928  1.00  0.00     0.031 A 
ATOM     41  C   UNL A   1      40.833  28.243  31.267  1.00  0.00     0.074 A 
ATOM     42  C   UNL A   1      40.585  27.529  28.957  1.00  0.00     0.049 A 
ATOM     43  N   UNL A   1      42.036  28.552  31.617  1.00  0.00    -0.248 NA
ATOM     44  C   UNL A   1      39.957  27.843  32.381  1.00  0.00     0.031 C 
ATOM     45  C   UNL A   1      39.917  27.199  27.700  1.00  0.00     0.029 A 
ATOM     46  N   UNL A   1      41.681  26.687  28.936  1.00  0.00    -0.354 N 
ATOM     47  C   UNL A   1      42.123  28.235  32.972  1.00  0.00     0.074 A 
ATOM     48  C   UNL A   1      40.784  27.963  33.417  1.00  0.00     0.031 C 
ATOM     49  C   UNL A   1      40.525  26.137  27.118  1.00  0.00     0.029 A 
ATOM     50  C   UNL A   1      41.674  25.734  27.915  1.00  0.00     0.049 A 
ATOM     51  H   UNL A   1      42.411  26.755  29.593  1.00  0.00     0.167 HD
ATOM     52  C   UNL A   1      43.316  28.004  33.581  1.00  0.00     0.037 A 
ATOM     53  C   UNL A   1      42.497  24.659  27.751  1.00  0.00     0.037 A 
ATOM     54  C   UNL A   1      44.408  28.555  32.824  1.00  0.00     0.049 A 
ATOM     55  C   UNL A   1      43.695  24.840  28.602  1.00  0.00     0.074 A 
ATOM     56  C   UNL A   1      44.761  29.815  32.380  1.00  0.00     0.029 A 
ATOM     57  N   UNL A   1      45.209  27.683  32.133  1.00  0.00    -0.354 N 
ATOM     58  N   UNL A   1      44.670  25.659  28.344  1.00  0.00    -0.248 NA
ATOM     59  C   UNL A   1      43.637  24.355  29.970  1.00  0.00     0.031 C 
ATOM     60  C   UNL A   1      45.384  29.600  31.116  1.00  0.00     0.029 A 
ATOM     61  C   UNL A   1      45.415  28.224  30.894  1.00  0.00     0.049 A 
ATOM     62  H   UNL A   1      45.567  26.829  32.464  1.00  0.00     0.167 HD
ATOM     63  C   UNL A   1      45.029  26.166  29.581  1.00  0.00     0.074 A 
ATOM     64  C   UNL A   1      44.444  25.245  30.551  1.00  0.00     0.031 C 
ATOM     65  C   UNL A   1      45.524  27.431  29.698  1.00  0.00     0.037 A 
BRANCH  52  66
ATOM     66  C   UNL A   1      43.525  26.940  34.635  1.00  0.00     0.057 A 
ATOM     67  C   UNL A   1      43.486  27.177  36.025  1.00  0.00     0.134 A 
ATOM     68  C   UNL A   1      43.434  25.586  34.261  1.00  0.00     0.134 A 
ATOM     69  F   UNL A   1      43.504  28.407  36.553  1.00  0.00    -0.206 F 
ATOM     70  C   UNL A   1      43.315  26.157  36.963  1.00  0.00     0.040 A 
ATOM     71  C   UNL A   1      43.208  24.564  35.188  1.00  0.00     0.040 A 
ATOM     72  F   UNL A   1      43.461  25.226  32.968  1.00  0.00    -0.206 F 
ATOM     73  C   UNL A   1      43.132  24.850  36.545  1.00  0.00     0.006 A 
ENDBRANCH  52  66
BRANCH  53  74
ATOM     74  C   UNL A   1      42.266  23.352  27.074  1.00  0.00     0.057 A 
ATOM     75  C   UNL A   1      41.428  22.381  27.644  1.00  0.00     0.134 A 
ATOM     76  C   UNL A   1      43.074  22.908  26.011  1.00  0.00     0.134 A 
ATOM     77  F   UNL A   1      40.671  22.667  28.712  1.00  0.00    -0.206 F 
ATOM     78  C   UNL A   1      41.403  21.052  27.202  1.00  0.00     0.040 A 
ATOM     79  C   UNL A   1      43.065  21.577  25.562  1.00  0.00     0.040 A 
ATOM     80  F   UNL A   1      43.945  23.739  25.419  1.00  0.00    -0.206 F 
ATOM     81  C   UNL A   1      42.234  20.641  26.168  1.00  0.00     0.006 A 
ENDBRANCH  53  74
BRANCH  65  82
ATOM     82  C   UNL A   1      46.003  28.116  28.454  1.00  0.00     0.057 A 
ATOM     83  C   UNL A   1      45.078  28.843  27.691  1.00  0.00     0.134 A 
ATOM     84  C   UNL A   1      47.310  28.040  27.958  1.00  0.00     0.134 A 
ATOM     85  F   UNL A   1      43.792  28.912  28.067  1.00  0.00    -0.206 F 
ATOM     86  C   UNL A   1      45.441  29.503  26.518  1.00  0.00     0.040 A 
ATOM     87  C   UNL A   1      47.700  28.776  26.841  1.00  0.00     0.040 A 
ATOM     88  F   UNL A   1      48.232  27.238  28.512  1.00  0.00    -0.206 F 
ATOM     89  C   UNL A   1      46.767  29.506  26.115  1.00  0.00     0.006 A 
ENDBRANCH  65  82
ENDBRANCH  39  40
ENDBRANCH  32  34
ENDBRANCH  31  32
ENDBRANCH  30  31
ENDBRANCH  29  30
ENDBRANCH  28  29
ENDBRANCH  27  28
ENDBRANCH  26  27
ENDBRANCH  25  26
ENDBRANCH  24  25
ENDBRANCH   1  24
TORSDOF 25
ENDMDL
MODEL 3
REMARK VINA RESULT:      -8.4      4.335      9.555
REMARK SMILES O=C(CSc1nc2cnccc2n1CCC1CC1)OCCOCCOCCOCCOC(=O)c1ccc(-c2c3nc(c(-c4c(F)cccc4F)c4ccc([nH]4)c(-c4c(F)cccc4F)c4nc(c(-c5c(F)cccc5F)c5ccc2[nH]5)C=C4)C=C3)cc1
REMARK SMILES IDX 23 1 22 2 21 3 20 4 19 5 2 6 1 7 3 8 4 9 5 10 6 11 13 12
REMARK SMILES IDX 7 13 12 14 8 15 11 16 9 17 10 18 14 19 15 20 16 21 17 22
REMARK SMILES IDX 18 23 24 24 25 25 26 26 27 27 28 28 29 29 30 30 31 31 32 32
REMARK SMILES IDX 33 33 34 34 35 35 87 36 36 37 86 38 37 39 38 40 39 41 80 42
REMARK SMILES IDX 40 43 85 44 79 45 81 46 41 47 84 48 78 49 77 50 42 52 68 53
REMARK SMILES IDX 51 54 67 55 52 56 55 57 66 58 82 59 53 60 54 61 65 63 83 64
REMARK SMILES IDX 56 65 43 66 44 67 49 68 45 69 46 70 48 71 50 72 47 73 69 74
REMARK SMILES IDX 70 75 75 76 71 77 72 78 74 79 76 80 73 81 57 82 58 83 63 84
REMARK SMILES IDX 59 85 60 86 62 87 64 88 61 89
REMARK H PARENT 81 51 55 62
REMARK Flexibility Score: inf
ROOT
ATOM      1  C   UNL A   1      34.889  21.831  24.437  1.00  0.00     0.188 C 
ENDROOT
BRANCH   1   2
ATOM      2  O   UNL A   1      33.637  21.375  23.932  1.00  0.00    -0.376 OA
BRANCH   2   3
ATOM      3  C   UNL A   1      32.338  21.914  24.078  1.00  0.00     0.202 C 
BRANCH   3   4
ATOM      4  C   UNL A   1      31.932  22.744  25.279  1.00  0.00     0.261 C 
BRANCH   4   5
ATOM      5  O   UNL A   1      31.475  24.038  24.897  1.00  0.00    -0.463 OA
BRANCH   5   6
ATOM      6  C   UNL A   1      31.022  24.983  25.745  1.00  0.00     0.316 C 
ATOM      7  O   UNL A   1      31.445  25.014  26.900  1.00  0.00    -0.251 OA
BRANCH   6   8
ATOM      8  C   UNL A   1      30.109  26.043  25.205  1.00  0.00     0.200 C 
BRANCH   8   9
ATOM      9  S   UNL A   1      30.753  26.790  23.686  1.00  0.00    -0.076 SA
BRANCH   9  10
ATOM     10  C   UNL A   1      29.874  28.267  23.456  1.00  0.00     0.169 A 
ATOM     11  N   UNL A   1      29.142  28.474  22.383  1.00  0.00    -0.221 NA
ATOM     12  N   UNL A   1      30.124  29.447  24.132  1.00  0.00    -0.319 N 
ATOM     13  C   UNL A   1      28.956  29.837  22.315  1.00  0.00     0.108 A 
ATOM     14  C   UNL A   1      29.471  30.457  23.446  1.00  0.00     0.072 A 
ATOM     15  C   UNL A   1      28.412  30.643  21.311  1.00  0.00     0.141 A 
ATOM     16  C   UNL A   1      29.394  31.835  23.653  1.00  0.00     0.049 A 
ATOM     17  N   UNL A   1      28.372  31.998  21.460  1.00  0.00    -0.262 NA
ATOM     18  C   UNL A   1      28.837  32.547  22.605  1.00  0.00     0.113 A 
BRANCH  12  19
ATOM     19  C   UNL A   1      31.161  29.774  25.100  1.00  0.00     0.125 C 
BRANCH  19  20
ATOM     20  C   UNL A   1      32.601  29.492  24.669  1.00  0.00     0.025 C 
BRANCH  20  21
ATOM     21  C   UNL A   1      33.494  28.995  25.754  1.00  0.00    -0.009 C 
ATOM     22  C   UNL A   1      32.913  28.271  26.856  1.00  0.00     0.004 C 
ATOM     23  C   UNL A   1      33.847  27.503  25.917  1.00  0.00     0.004 C 
ENDBRANCH  20  21
ENDBRANCH  19  20
ENDBRANCH  12  19
ENDBRANCH   9  10
ENDBRANCH   8   9
ENDBRANCH   6   8
ENDBRANCH   5   6
ENDBRANCH   4   5
ENDBRANCH   3   4
ENDBRANCH   2   3
ENDBRANCH   1   2
BRANCH   1  24
ATOM     24  C   UNL A   1      35.988  20.945  25.034  1.00  0.00     0.188 C 
BRANCH  24  25
ATOM     25  O   UNL A   1      37.275  21.148  24.493  1.00  0.00    -0.377 OA
BRANCH  25  26
ATOM     26  C   UNL A   1      38.329  20.948  25.403  1.00  0.00     0.188 C 
BRANCH  26  27
ATOM     27  C   UNL A   1      39.026  19.575  25.287  1.00  0.00     0.188 C 
BRANCH  27  28
ATOM     28  O   UNL A   1      40.312  19.391  25.853  1.00  0.00    -0.376 OA
BRANCH  28  29
ATOM     29  C   UNL A   1      40.920  20.510  26.474  1.00  0.00     0.202 C 
BRANCH  29  30
ATOM     30  C   UNL A   1      42.414  20.788  26.187  1.00  0.00     0.261 C 
BRANCH  30  31
ATOM     31  O   UNL A   1      42.923  22.048  26.691  1.00  0.00    -0.460 OA
BRANCH  31  32
ATOM     32  C   UNL A   1      42.943  23.132  25.869  1.00  0.00     0.338 C 
ATOM     33  O   UNL A   1      42.992  23.105  24.646  1.00  0.00    -0.246 OA
BRANCH  32  34
ATOM     34  C   UNL A   1      42.541  24.355  26.648  1.00  0.00     0.060 A 
ATOM     35  C   UNL A   1      41.657  25.317  26.153  1.00  0.00     0.016 A 
ATOM     36  C   UNL A   1      43.301  24.663  27.796  1.00  0.00     0.016 A 
ATOM     37  C   UNL A   1      41.627  26.596  26.739  1.00  0.00     0.010 A 
ATOM     38  C   UNL A   1      43.289  25.950  28.361  1.00  0.00     0.010 A 
ATOM     39  C   UNL A   1      42.465  26.940  27.828  1.00  0.00    -0.014 A 
BRANCH  39  40
ATOM     40  C   UNL A   1      42.163  28.197  28.562  1.00  0.00     0.031 A 
ATOM     41  C   UNL A   1      43.240  29.204  28.324  1.00  0.00     0.074 A 
ATOM     42  C   UNL A   1      41.062  28.624  29.230  1.00  0.00     0.049 A 
ATOM     43  N   UNL A   1      44.068  29.712  29.174  1.00  0.00    -0.248 NA
ATOM     44  C   UNL A   1      43.512  29.560  26.921  1.00  0.00     0.031 C 
ATOM     45  C   UNL A   1      39.740  28.002  29.304  1.00  0.00     0.029 A 
ATOM     46  N   UNL A   1      40.877  29.789  29.951  1.00  0.00    -0.354 N 
ATOM     47  C   UNL A   1      44.872  30.581  28.438  1.00  0.00     0.074 A 
ATOM     48  C   UNL A   1      44.596  30.322  27.052  1.00  0.00     0.031 C 
ATOM     49  C   UNL A   1      38.862  28.852  29.888  1.00  0.00     0.029 A 
ATOM     50  C   UNL A   1      39.553  30.065  30.299  1.00  0.00     0.049 A 
ATOM     51  H   UNL A   1      41.624  30.380  30.199  1.00  0.00     0.167 HD
ATOM     52  C   UNL A   1      45.549  31.604  29.024  1.00  0.00     0.037 A 
ATOM     53  C   UNL A   1      39.034  31.211  30.827  1.00  0.00     0.037 A 
ATOM     54  C   UNL A   1      45.697  31.395  30.440  1.00  0.00     0.049 A 
ATOM     55  C   UNL A   1      40.141  32.029  31.372  1.00  0.00     0.074 A 
ATOM     56  C   UNL A   1      46.269  30.422  31.236  1.00  0.00     0.029 A 
ATOM     57  N   UNL A   1      44.918  32.148  31.279  1.00  0.00    -0.354 N 
ATOM     58  N   UNL A   1      40.774  31.776  32.477  1.00  0.00    -0.248 NA
ATOM     59  C   UNL A   1      40.805  32.959  30.475  1.00  0.00     0.031 C 
ATOM     60  C   UNL A   1      45.429  30.343  32.385  1.00  0.00     0.029 A 
ATOM     61  C   UNL A   1      44.429  31.303  32.237  1.00  0.00     0.049 A 
ATOM     62  H   UNL A   1      44.743  33.113  31.207  1.00  0.00     0.167 HD
ATOM     63  C   UNL A   1      42.091  32.104  32.202  1.00  0.00     0.074 A 
ATOM     64  C   UNL A   1      42.031  32.933  31.003  1.00  0.00     0.031 C 
ATOM     65  C   UNL A   1      43.116  31.439  32.810  1.00  0.00     0.037 A 
BRANCH  52  66
ATOM     66  C   UNL A   1      45.716  32.967  28.391  1.00  0.00     0.057 A 
ATOM     67  C   UNL A   1      44.650  33.832  28.068  1.00  0.00     0.134 A 
ATOM     68  C   UNL A   1      46.987  33.572  28.409  1.00  0.00     0.134 A 
ATOM     69  F   UNL A   1      43.372  33.437  28.061  1.00  0.00    -0.206 F 
ATOM     70  C   UNL A   1      44.826  35.198  27.835  1.00  0.00     0.040 A 
ATOM     71  C   UNL A   1      47.167  34.948  28.231  1.00  0.00     0.040 A 
ATOM     72  F   UNL A   1      48.086  32.858  28.701  1.00  0.00    -0.206 F 
ATOM     73  C   UNL A   1      46.081  35.769  27.958  1.00  0.00     0.006 A 
ENDBRANCH  52  66
BRANCH  53  74
ATOM     74  C   UNL A   1      37.667  31.794  30.729  1.00  0.00     0.057 A 
ATOM     75  C   UNL A   1      36.824  31.853  31.851  1.00  0.00     0.134 A 
ATOM     76  C   UNL A   1      37.046  32.039  29.490  1.00  0.00     0.134 A 
ATOM     77  F   UNL A   1      37.287  31.559  33.074  1.00  0.00    -0.206 F 
ATOM     78  C   UNL A   1      35.454  32.121  31.752  1.00  0.00     0.040 A 
ATOM     79  C   UNL A   1      35.671  32.303  29.376  1.00  0.00     0.040 A 
ATOM     80  F   UNL A   1      37.745  31.967  28.348  1.00  0.00    -0.206 F 
ATOM     81  C   UNL A   1      34.868  32.333  30.510  1.00  0.00     0.006 A 
ENDBRANCH  53  74
BRANCH  65  82
ATOM     82  C   UNL A   1      42.800  30.618  34.022  1.00  0.00     0.057 A 
ATOM     83  C   UNL A   1      42.466  29.267  33.848  1.00  0.00     0.134 A 
ATOM     84  C   UNL A   1      42.757  31.115  35.330  1.00  0.00     0.134 A 
ATOM     85  F   UNL A   1      42.424  28.730  32.619  1.00  0.00    -0.206 F 
ATOM     86  C   UNL A   1      42.152  28.436  34.922  1.00  0.00     0.040 A 
ATOM     87  C   UNL A   1      42.539  30.269  36.415  1.00  0.00     0.040 A 
ATOM     88  F   UNL A   1      42.890  32.424  35.594  1.00  0.00    -0.206 F 
ATOM     89  C   UNL A   1      42.232  28.929  36.216  1.00  0.00     0.006 A 
ENDBRANCH  65  82
ENDBRANCH  39  40
ENDBRANCH  32  34
ENDBRANCH  31  32
ENDBRANCH  30  31
ENDBRANCH  29  30
ENDBRANCH  28  29
ENDBRANCH  27  28
ENDBRANCH  26  27
ENDBRANCH  25  26
ENDBRANCH  24  25
ENDBRANCH   1  24
TORSDOF 25
ENDMDL
