MODEL 1
REMARK VINA RESULT:     -10.9      0.000      0.000
REMARK SMILES C[C@@H]1c2ccccc2-c2ccc(C(=O)OCCOCCOCCOCCOC(=O)c3ccc(-c4c5nc(c(-c6c(F)cccc6F)c6ccc([nH]6)c(-c6c(F)cccc6F)c6nc(c(-c7c(F)cccc7F)c7ccc4[nH]7)C=C6)C=C5)cc3)cc21
REMARK SMILES IDX 22 1 21 2 20 3 19 4 18 5 17 6 16 7 15 8 13 9 14 10 12 11
REMARK SMILES IDX 1 12 2 13 3 14 85 15 4 16 8 17 9 18 84 19 5 20 7 21 10 22
REMARK SMILES IDX 6 23 11 24 23 25 24 26 25 27 26 28 27 29 28 30 29 31 30 32
REMARK SMILES IDX 31 33 83 34 32 35 82 36 33 37 34 38 35 39 76 40 36 41 81 42
REMARK SMILES IDX 75 43 77 44 37 45 80 46 74 47 73 48 38 50 64 51 47 52 63 53
REMARK SMILES IDX 48 54 51 55 62 56 78 57 49 58 50 59 61 61 79 62 52 63 39 64
REMARK SMILES IDX 40 65 45 66 41 67 42 68 44 69 46 70 43 71 65 72 66 73 71 74
REMARK SMILES IDX 67 75 68 76 70 77 72 78 69 79 53 80 54 81 59 82 55 83 56 84
REMARK SMILES IDX 58 85 60 86 57 87
REMARK H PARENT 77 49 51 60
REMARK Flexibility Score: inf
ROOT
ATOM      1  C   UNL A   1      40.679  21.086  26.094  1.00  0.00     0.188 C 
ENDROOT
BRANCH   1   2
ATOM      2  O   UNL A   1      39.359  21.274  26.597  1.00  0.00    -0.377 OA
BRANCH   2   3
ATOM      3  C   UNL A   1      38.335  21.758  25.739  1.00  0.00     0.188 C 
BRANCH   3   4
ATOM      4  C   UNL A   1      37.345  20.747  25.120  1.00  0.00     0.188 C 
BRANCH   4   5
ATOM      5  O   UNL A   1      36.219  21.353  24.510  1.00  0.00    -0.376 OA
BRANCH   5   6
ATOM      6  C   UNL A   1      36.376  22.587  23.838  1.00  0.00     0.202 C 
BRANCH   6   7
ATOM      7  C   UNL A   1      35.538  23.797  24.280  1.00  0.00     0.261 C 
BRANCH   7   8
ATOM      8  O   UNL A   1      35.437  24.019  25.691  1.00  0.00    -0.460 OA
BRANCH   8   9
ATOM      9  C   UNL A   1      34.268  23.673  26.274  1.00  0.00     0.338 C 
ATOM     10  O   UNL A   1      34.113  22.841  27.150  1.00  0.00    -0.246 OA
BRANCH   9  11
ATOM     11  C   UNL A   1      33.223  24.624  25.826  1.00  0.00     0.060 A 
ATOM     12  C   UNL A   1      31.967  28.889  27.063  1.00  0.00     0.018 C 
ATOM     13  C   UNL A   1      32.219  28.340  25.664  1.00  0.00     0.047 C 
ATOM     14  C   UNL A   1      31.053  28.608  24.722  1.00  0.00    -0.033 A 
ATOM     15  C   UNL A   1      32.303  26.817  25.620  1.00  0.00    -0.032 A 
ATOM     16  C   UNL A   1      30.608  29.825  24.229  1.00  0.00     0.005 A 
ATOM     17  C   UNL A   1      30.477  27.392  24.295  1.00  0.00    -0.014 A 
ATOM     18  C   UNL A   1      31.239  26.295  24.847  1.00  0.00    -0.014 A 
ATOM     19  C   UNL A   1      33.297  25.992  26.128  1.00  0.00     0.020 A 
ATOM     20  C   UNL A   1      29.568  29.816  23.296  1.00  0.00     0.000 A 
ATOM     21  C   UNL A   1      29.429  27.386  23.389  1.00  0.00     0.009 A 
ATOM     22  C   UNL A   1      31.120  24.933  24.626  1.00  0.00     0.010 A 
ATOM     23  C   UNL A   1      28.979  28.609  22.885  1.00  0.00     0.001 A 
ATOM     24  C   UNL A   1      32.129  24.097  25.106  1.00  0.00     0.016 A 
ENDBRANCH   9  11
ENDBRANCH   8   9
ENDBRANCH   7   8
ENDBRANCH   6   7
ENDBRANCH   5   6
ENDBRANCH   4   5
ENDBRANCH   3   4
ENDBRANCH   2   3
ENDBRANCH   1   2
BRANCH   1  25
ATOM     25  C   UNL A   1      41.458  19.763  26.297  1.00  0.00     0.188 C 
BRANCH  25  26
ATOM     26  O   UNL A   1      42.446  19.499  25.317  1.00  0.00    -0.376 OA
BRANCH  26  27
ATOM     27  C   UNL A   1      43.764  19.951  25.565  1.00  0.00     0.202 C 
BRANCH  27  28
ATOM     28  C   UNL A   1      44.138  21.340  25.031  1.00  0.00     0.261 C 
BRANCH  28  29
ATOM     29  O   UNL A   1      43.778  22.456  25.859  1.00  0.00    -0.460 OA
BRANCH  29  30
ATOM     30  C   UNL A   1      44.058  23.689  25.392  1.00  0.00     0.338 C 
ATOM     31  O   UNL A   1      44.657  23.974  24.366  1.00  0.00    -0.246 OA
BRANCH  30  32
ATOM     32  C   UNL A   1      43.348  24.661  26.246  1.00  0.00     0.060 A 
ATOM     33  C   UNL A   1      43.785  25.992  26.281  1.00  0.00     0.016 A 
ATOM     34  C   UNL A   1      42.246  24.257  27.004  1.00  0.00     0.016 A 
ATOM     35  C   UNL A   1      43.143  26.916  27.105  1.00  0.00     0.010 A 
ATOM     36  C   UNL A   1      41.618  25.177  27.846  1.00  0.00     0.010 A 
ATOM     37  C   UNL A   1      42.090  26.499  27.930  1.00  0.00    -0.014 A 
BRANCH  37  38
ATOM     38  C   UNL A   1      41.631  27.376  29.033  1.00  0.00     0.031 A 
ATOM     39  C   UNL A   1      42.358  27.298  30.348  1.00  0.00     0.074 A 
ATOM     40  C   UNL A   1      40.612  28.238  28.875  1.00  0.00     0.049 A 
ATOM     41  N   UNL A   1      42.122  27.925  31.471  1.00  0.00    -0.248 NA
ATOM     42  C   UNL A   1      43.506  26.379  30.401  1.00  0.00     0.031 C 
ATOM     43  C   UNL A   1      39.857  28.440  27.641  1.00  0.00     0.029 A 
ATOM     44  N   UNL A   1      40.034  29.102  29.771  1.00  0.00    -0.354 N 
ATOM     45  C   UNL A   1      43.085  27.470  32.363  1.00  0.00     0.074 A 
ATOM     46  C   UNL A   1      43.883  26.489  31.664  1.00  0.00     0.031 C 
ATOM     47  C   UNL A   1      38.907  29.366  27.860  1.00  0.00     0.029 A 
ATOM     48  C   UNL A   1      38.966  29.795  29.257  1.00  0.00     0.049 A 
ATOM     49  H   UNL A   1      40.356  29.215  30.695  1.00  0.00     0.167 HD
ATOM     50  C   UNL A   1      43.294  27.846  33.647  1.00  0.00     0.037 A 
ATOM     51  C   UNL A   1      38.123  30.659  29.856  1.00  0.00     0.037 A 
ATOM     52  C   UNL A   1      42.492  28.817  34.343  1.00  0.00     0.049 A 
ATOM     53  C   UNL A   1      38.321  30.999  31.310  1.00  0.00     0.074 A 
ATOM     54  C   UNL A   1      42.628  29.278  35.640  1.00  0.00     0.029 A 
ATOM     55  N   UNL A   1      41.395  29.469  33.799  1.00  0.00    -0.354 N 
ATOM     56  N   UNL A   1      39.249  30.585  32.141  1.00  0.00    -0.248 NA
ATOM     57  C   UNL A   1      37.356  31.931  31.910  1.00  0.00     0.031 C 
ATOM     58  C   UNL A   1      41.576  30.161  35.902  1.00  0.00     0.029 A 
ATOM     59  C   UNL A   1      40.826  30.305  34.746  1.00  0.00     0.049 A 
ATOM     60  H   UNL A   1      41.070  29.355  32.878  1.00  0.00     0.167 HD
ATOM     61  C   UNL A   1      39.000  31.232  33.347  1.00  0.00     0.074 A 
ATOM     62  C   UNL A   1      37.840  32.073  33.136  1.00  0.00     0.031 C 
ATOM     63  C   UNL A   1      39.674  31.143  34.522  1.00  0.00     0.037 A 
BRANCH  50  64
ATOM     64  C   UNL A   1      44.410  27.167  34.388  1.00  0.00     0.057 A 
ATOM     65  C   UNL A   1      44.220  25.971  35.093  1.00  0.00     0.134 A 
ATOM     66  C   UNL A   1      45.698  27.719  34.394  1.00  0.00     0.134 A 
ATOM     67  F   UNL A   1      43.008  25.396  35.142  1.00  0.00    -0.206 F 
ATOM     68  C   UNL A   1      45.259  25.367  35.803  1.00  0.00     0.040 A 
ATOM     69  C   UNL A   1      46.753  27.108  35.074  1.00  0.00     0.040 A 
ATOM     70  F   UNL A   1      45.954  28.862  33.739  1.00  0.00    -0.206 F 
ATOM     71  C   UNL A   1      46.532  25.933  35.790  1.00  0.00     0.006 A 
ENDBRANCH  50  64
BRANCH  51  72
ATOM     72  C   UNL A   1      37.006  31.262  29.084  1.00  0.00     0.057 A 
ATOM     73  C   UNL A   1      37.048  32.600  28.671  1.00  0.00     0.134 A 
ATOM     74  C   UNL A   1      35.861  30.525  28.758  1.00  0.00     0.134 A 
ATOM     75  F   UNL A   1      38.106  33.366  28.974  1.00  0.00    -0.206 F 
ATOM     76  C   UNL A   1      35.989  33.186  27.977  1.00  0.00     0.040 A 
ATOM     77  C   UNL A   1      34.806  31.090  28.040  1.00  0.00     0.040 A 
ATOM     78  F   UNL A   1      35.756  29.239  29.125  1.00  0.00    -0.206 F 
ATOM     79  C   UNL A   1      34.864  32.427  27.654  1.00  0.00     0.006 A 
ENDBRANCH  51  72
BRANCH  63  80
ATOM     80  C   UNL A   1      39.208  32.010  35.657  1.00  0.00     0.057 A 
ATOM     81  C   UNL A   1      38.314  31.548  36.632  1.00  0.00     0.134 A 
ATOM     82  C   UNL A   1      39.696  33.317  35.799  1.00  0.00     0.134 A 
ATOM     83  F   UNL A   1      37.800  30.311  36.553  1.00  0.00    -0.206 F 
ATOM     84  C   UNL A   1      37.902  32.362  37.689  1.00  0.00     0.040 A 
ATOM     85  C   UNL A   1      39.316  34.128  36.868  1.00  0.00     0.040 A 
ATOM     86  F   UNL A   1      40.563  33.820  34.909  1.00  0.00    -0.206 F 
ATOM     87  C   UNL A   1      38.410  33.654  37.813  1.00  0.00     0.006 A 
ENDBRANCH  63  80
ENDBRANCH  37  38
ENDBRANCH  30  32
ENDBRANCH  29  30
ENDBRANCH  28  29
ENDBRANCH  27  28
ENDBRANCH  26  27
ENDBRANCH  25  26
ENDBRANCH   1  25
TORSDOF 20
ENDMDL
MODEL 2
REMARK VINA RESULT:     -10.8      5.982     12.106
REMARK SMILES C[C@@H]1c2ccccc2-c2ccc(C(=O)OCCOCCOCCOCCOC(=O)c3ccc(-c4c5nc(c(-c6c(F)cccc6F)c6ccc([nH]6)c(-c6c(F)cccc6F)c6nc(c(-c7c(F)cccc7F)c7ccc4[nH]7)C=C6)C=C5)cc3)cc21
REMARK SMILES IDX 22 1 21 2 20 3 19 4 18 5 17 6 16 7 15 8 13 9 14 10 12 11
REMARK SMILES IDX 1 12 2 13 3 14 85 15 4 16 8 17 9 18 84 19 5 20 7 21 10 22
REMARK SMILES IDX 6 23 11 24 23 25 24 26 25 27 26 28 27 29 28 30 29 31 30 32
REMARK SMILES IDX 31 33 83 34 32 35 82 36 33 37 34 38 35 39 76 40 36 41 81 42
REMARK SMILES IDX 75 43 77 44 37 45 80 46 74 47 73 48 38 50 64 51 47 52 63 53
REMARK SMILES IDX 48 54 51 55 62 56 78 57 49 58 50 59 61 61 79 62 52 63 39 64
REMARK SMILES IDX 40 65 45 66 41 67 42 68 44 69 46 70 43 71 65 72 66 73 71 74
REMARK SMILES IDX 67 75 68 76 70 77 72 78 69 79 53 80 54 81 59 82 55 83 56 84
REMARK SMILES IDX 58 85 60 86 57 87
REMARK H PARENT 77 49 51 60
REMARK Flexibility Score: inf
ROOT
ATOM      1  C   UNL A   1      32.921  35.682  29.296  1.00  0.00     0.188 C 
ENDROOT
BRANCH   1   2
ATOM      2  O   UNL A   1      33.086  36.844  30.104  1.00  0.00    -0.377 OA
BRANCH   2   3
ATOM      3  C   UNL A   1      32.936  36.754  31.514  1.00  0.00     0.188 C 
BRANCH   3   4
ATOM      4  C   UNL A   1      34.007  37.402  32.417  1.00  0.00     0.188 C 
BRANCH   4   5
ATOM      5  O   UNL A   1      34.414  36.581  33.498  1.00  0.00    -0.376 OA
BRANCH   5   6
ATOM      6  C   UNL A   1      34.458  35.179  33.323  1.00  0.00     0.202 C 
BRANCH   6   7
ATOM      7  C   UNL A   1      35.199  34.314  34.357  1.00  0.00     0.261 C 
BRANCH   7   8
ATOM      8  O   UNL A   1      36.593  34.589  34.533  1.00  0.00    -0.460 OA
BRANCH   8   9
ATOM      9  C   UNL A   1      37.414  33.520  34.608  1.00  0.00     0.338 C 
ATOM     10  O   UNL A   1      37.227  32.505  35.256  1.00  0.00    -0.246 OA
BRANCH   9  11
ATOM     11  C   UNL A   1      38.491  33.685  33.602  1.00  0.00     0.060 A 
ATOM     12  C   UNL A   1      38.664  33.632  28.991  1.00  0.00     0.018 C 
ATOM     13  C   UNL A   1      39.257  34.653  29.953  1.00  0.00     0.047 C 
ATOM     14  C   UNL A   1      40.738  34.897  29.692  1.00  0.00    -0.033 A 
ATOM     15  C   UNL A   1      39.276  34.177  31.402  1.00  0.00    -0.032 A 
ATOM     16  C   UNL A   1      41.331  35.498  28.593  1.00  0.00     0.005 A 
ATOM     17  C   UNL A   1      41.504  34.497  30.808  1.00  0.00    -0.014 A 
ATOM     18  C   UNL A   1      40.611  34.053  31.854  1.00  0.00    -0.014 A 
ATOM     19  C   UNL A   1      38.204  33.984  32.262  1.00  0.00     0.020 A 
ATOM     20  C   UNL A   1      42.713  35.697  28.618  1.00  0.00     0.000 A 
ATOM     21  C   UNL A   1      42.878  34.671  30.821  1.00  0.00     0.009 A 
ATOM     22  C   UNL A   1      40.890  33.671  33.155  1.00  0.00     0.010 A 
ATOM     23  C   UNL A   1      43.481  35.281  29.718  1.00  0.00     0.001 A 
ATOM     24  C   UNL A   1      39.822  33.503  34.037  1.00  0.00     0.016 A 
ENDBRANCH   9  11
ENDBRANCH   8   9
ENDBRANCH   7   8
ENDBRANCH   6   7
ENDBRANCH   5   6
ENDBRANCH   4   5
ENDBRANCH   3   4
ENDBRANCH   2   3
ENDBRANCH   1   2
BRANCH   1  25
ATOM     25  C   UNL A   1      34.069  35.115  28.424  1.00  0.00     0.188 C 
BRANCH  25  26
ATOM     26  O   UNL A   1      35.261  34.819  29.129  1.00  0.00    -0.376 OA
BRANCH  26  27
ATOM     27  C   UNL A   1      35.231  33.758  30.066  1.00  0.00     0.202 C 
BRANCH  27  28
ATOM     28  C   UNL A   1      34.667  32.416  29.583  1.00  0.00     0.261 C 
BRANCH  28  29
ATOM     29  O   UNL A   1      35.608  31.337  29.469  1.00  0.00    -0.460 OA
BRANCH  29  30
ATOM     30  C   UNL A   1      36.276  30.979  30.584  1.00  0.00     0.338 C 
ATOM     31  O   UNL A   1      35.881  31.047  31.738  1.00  0.00    -0.246 OA
BRANCH  30  32
ATOM     32  C   UNL A   1      37.520  30.306  30.161  1.00  0.00     0.060 A 
ATOM     33  C   UNL A   1      38.447  29.905  31.132  1.00  0.00     0.016 A 
ATOM     34  C   UNL A   1      37.762  30.065  28.806  1.00  0.00     0.016 A 
ATOM     35  C   UNL A   1      39.640  29.294  30.746  1.00  0.00     0.010 A 
ATOM     36  C   UNL A   1      38.967  29.474  28.420  1.00  0.00     0.010 A 
ATOM     37  C   UNL A   1      39.927  29.124  29.385  1.00  0.00    -0.014 A 
BRANCH  37  38
ATOM     38  C   UNL A   1      41.309  28.790  28.964  1.00  0.00     0.031 A 
ATOM     39  C   UNL A   1      41.595  27.379  28.531  1.00  0.00     0.074 A 
ATOM     40  C   UNL A   1      42.284  29.715  28.942  1.00  0.00     0.049 A 
ATOM     41  N   UNL A   1      42.724  26.831  28.162  1.00  0.00    -0.248 NA
ATOM     42  C   UNL A   1      40.446  26.458  28.518  1.00  0.00     0.031 C 
ATOM     43  C   UNL A   1      42.125  31.123  29.295  1.00  0.00     0.029 A 
ATOM     44  N   UNL A   1      43.611  29.596  28.611  1.00  0.00    -0.354 N 
ATOM     45  C   UNL A   1      42.422  25.503  27.883  1.00  0.00     0.074 A 
ATOM     46  C   UNL A   1      41.016  25.319  28.161  1.00  0.00     0.031 C 
ATOM     47  C   UNL A   1      43.314  31.739  29.169  1.00  0.00     0.029 A 
ATOM     48  C   UNL A   1      44.322  30.760  28.761  1.00  0.00     0.049 A 
ATOM     49  H   UNL A   1      44.014  28.755  28.295  1.00  0.00     0.167 HD
ATOM     50  C   UNL A   1      43.242  24.528  27.426  1.00  0.00     0.037 A 
ATOM     51  C   UNL A   1      45.638  30.999  28.606  1.00  0.00     0.037 A 
ATOM     52  C   UNL A   1      44.644  24.712  27.158  1.00  0.00     0.049 A 
ATOM     53  C   UNL A   1      46.550  29.878  28.177  1.00  0.00     0.074 A 
ATOM     54  C   UNL A   1      45.558  23.792  26.680  1.00  0.00     0.029 A 
ATOM     55  N   UNL A   1      45.334  25.898  27.359  1.00  0.00    -0.354 N 
ATOM     56  N   UNL A   1      46.254  28.632  27.891  1.00  0.00    -0.248 NA
ATOM     57  C   UNL A   1      47.978  30.198  28.046  1.00  0.00     0.031 C 
ATOM     58  C   UNL A   1      46.816  24.402  26.651  1.00  0.00     0.029 A 
ATOM     59  C   UNL A   1      46.673  25.724  27.043  1.00  0.00     0.049 A 
ATOM     60  H   UNL A   1      44.934  26.738  27.678  1.00  0.00     0.167 HD
ATOM     61  C   UNL A   1      47.451  28.031  27.513  1.00  0.00     0.074 A 
ATOM     62  C   UNL A   1      48.474  29.053  27.597  1.00  0.00     0.031 C 
ATOM     63  C   UNL A   1      47.681  26.751  27.126  1.00  0.00     0.037 A 
BRANCH  50  64
ATOM     64  C   UNL A   1      42.642  23.164  27.228  1.00  0.00     0.057 A 
ATOM     65  C   UNL A   1      42.362  22.649  25.956  1.00  0.00     0.134 A 
ATOM     66  C   UNL A   1      42.343  22.353  28.331  1.00  0.00     0.134 A 
ATOM     67  F   UNL A   1      42.609  23.380  24.857  1.00  0.00    -0.206 F 
ATOM     68  C   UNL A   1      41.775  21.394  25.788  1.00  0.00     0.040 A 
ATOM     69  C   UNL A   1      41.786  21.083  28.175  1.00  0.00     0.040 A 
ATOM     70  F   UNL A   1      42.587  22.781  29.579  1.00  0.00    -0.206 F 
ATOM     71  C   UNL A   1      41.491  20.604  26.900  1.00  0.00     0.006 A 
ENDBRANCH  50  64
BRANCH  51  72
ATOM     72  C   UNL A   1      46.183  32.358  28.862  1.00  0.00     0.057 A 
ATOM     73  C   UNL A   1      46.265  33.312  27.841  1.00  0.00     0.134 A 
ATOM     74  C   UNL A   1      46.652  32.730  30.128  1.00  0.00     0.134 A 
ATOM     75  F   UNL A   1      45.856  33.009  26.600  1.00  0.00    -0.206 F 
ATOM     76  C   UNL A   1      46.808  34.578  28.063  1.00  0.00     0.040 A 
ATOM     77  C   UNL A   1      47.172  34.002  30.372  1.00  0.00     0.040 A 
ATOM     78  F   UNL A   1      46.603  31.863  31.150  1.00  0.00    -0.206 F 
ATOM     79  C   UNL A   1      47.258  34.929  29.336  1.00  0.00     0.006 A 
ENDBRANCH  51  72
BRANCH  63  80
ATOM     80  C   UNL A   1      49.081  26.391  26.716  1.00  0.00     0.057 A 
ATOM     81  C   UNL A   1      49.986  25.785  27.597  1.00  0.00     0.134 A 
ATOM     82  C   UNL A   1      49.517  26.618  25.402  1.00  0.00     0.134 A 
ATOM     83  F   UNL A   1      49.638  25.547  28.872  1.00  0.00    -0.206 F 
ATOM     84  C   UNL A   1      51.279  25.444  27.197  1.00  0.00     0.040 A 
ATOM     85  C   UNL A   1      50.795  26.252  24.982  1.00  0.00     0.040 A 
ATOM     86  F   UNL A   1      48.700  27.184  24.502  1.00  0.00    -0.206 F 
ATOM     87  C   UNL A   1      51.684  25.670  25.882  1.00  0.00     0.006 A 
ENDBRANCH  63  80
ENDBRANCH  37  38
ENDBRANCH  30  32
ENDBRANCH  29  30
ENDBRANCH  28  29
ENDBRANCH  27  28
ENDBRANCH  26  27
ENDBRANCH  25  26
ENDBRANCH   1  25
TORSDOF 20
ENDMDL
MODEL 3
REMARK VINA RESULT:     -10.5      4.823     10.284
REMARK SMILES C[C@@H]1c2ccccc2-c2ccc(C(=O)OCCOCCOCCOCCOC(=O)c3ccc(-c4c5nc(c(-c6c(F)cccc6F)c6ccc([nH]6)c(-c6c(F)cccc6F)c6nc(c(-c7c(F)cccc7F)c7ccc4[nH]7)C=C6)C=C5)cc3)cc21
REMARK SMILES IDX 22 1 21 2 20 3 19 4 18 5 17 6 16 7 15 8 13 9 14 10 12 11
REMARK SMILES IDX 1 12 2 13 3 14 85 15 4 16 8 17 9 18 84 19 5 20 7 21 10 22
REMARK SMILES IDX 6 23 11 24 23 25 24 26 25 27 26 28 27 29 28 30 29 31 30 32
REMARK SMILES IDX 31 33 83 34 32 35 82 36 33 37 34 38 35 39 76 40 36 41 81 42
REMARK SMILES IDX 75 43 77 44 37 45 80 46 74 47 73 48 38 50 64 51 47 52 63 53
REMARK SMILES IDX 48 54 51 55 62 56 78 57 49 58 50 59 61 61 79 62 52 63 39 64
REMARK SMILES IDX 40 65 45 66 41 67 42 68 44 69 46 70 43 71 65 72 66 73 71 74
REMARK SMILES IDX 67 75 68 76 70 77 72 78 69 79 53 80 54 81 59 82 55 83 56 84
REMARK SMILES IDX 58 85 60 86 57 87
REMARK H PARENT 77 49 51 60
REMARK Flexibility Score: inf
ROOT
ATOM      1  C   UNL A   1      34.723  34.749  28.748  1.00  0.00     0.188 C 
ENDROOT
BRANCH   1   2
ATOM      2  O   UNL A   1      35.202  33.427  28.516  1.00  0.00    -0.377 OA
BRANCH   2   3
ATOM      3  C   UNL A   1      34.305  32.413  28.088  1.00  0.00     0.188 C 
BRANCH   3   4
ATOM      4  C   UNL A   1      34.881  31.051  27.643  1.00  0.00     0.188 C 
BRANCH   4   5
ATOM      5  O   UNL A   1      33.910  30.023  27.554  1.00  0.00    -0.376 OA
BRANCH   5   6
ATOM      6  C   UNL A   1      33.621  29.452  26.292  1.00  0.00     0.202 C 
BRANCH   6   7
ATOM      7  C   UNL A   1      32.199  29.570  25.720  1.00  0.00     0.261 C 
BRANCH   7   8
ATOM      8  O   UNL A   1      31.403  28.381  25.746  1.00  0.00    -0.460 OA
BRANCH   8   9
ATOM      9  C   UNL A   1      31.593  27.550  26.794  1.00  0.00     0.338 C 
ATOM     10  O   UNL A   1      31.401  27.808  27.969  1.00  0.00    -0.246 OA
BRANCH   9  11
ATOM     11  C   UNL A   1      31.873  26.191  26.268  1.00  0.00     0.060 A 
ATOM     12  C   UNL A   1      35.528  24.145  24.334  1.00  0.00     0.018 C 
ATOM     13  C   UNL A   1      34.648  23.642  25.472  1.00  0.00     0.047 C 
ATOM     14  C   UNL A   1      34.120  22.237  25.212  1.00  0.00    -0.033 A 
ATOM     15  C   UNL A   1      33.352  24.432  25.627  1.00  0.00    -0.032 A 
ATOM     16  C   UNL A   1      34.829  21.048  25.155  1.00  0.00     0.005 A 
ATOM     17  C   UNL A   1      32.712  22.253  25.114  1.00  0.00    -0.014 A 
ATOM     18  C   UNL A   1      32.241  23.597  25.364  1.00  0.00    -0.014 A 
ATOM     19  C   UNL A   1      33.184  25.737  26.068  1.00  0.00     0.020 A 
ATOM     20  C   UNL A   1      34.111  19.860  24.994  1.00  0.00     0.000 A 
ATOM     21  C   UNL A   1      32.002  21.078  24.930  1.00  0.00     0.009 A 
ATOM     22  C   UNL A   1      30.947  24.076  25.477  1.00  0.00     0.010 A 
ATOM     23  C   UNL A   1      32.711  19.875  24.876  1.00  0.00     0.001 A 
ATOM     24  C   UNL A   1      30.764  25.377  25.949  1.00  0.00     0.016 A 
ENDBRANCH   9  11
ENDBRANCH   8   9
ENDBRANCH   7   8
ENDBRANCH   6   7
ENDBRANCH   5   6
ENDBRANCH   4   5
ENDBRANCH   3   4
ENDBRANCH   2   3
ENDBRANCH   1   2
BRANCH   1  25
ATOM     25  C   UNL A   1      33.273  35.030  29.214  1.00  0.00     0.188 C 
BRANCH  25  26
ATOM     26  O   UNL A   1      33.046  34.841  30.600  1.00  0.00    -0.376 OA
BRANCH  26  27
ATOM     27  C   UNL A   1      34.164  34.890  31.467  1.00  0.00     0.202 C 
BRANCH  27  28
ATOM     28  C   UNL A   1      34.645  33.559  32.061  1.00  0.00     0.261 C 
BRANCH  28  29
ATOM     29  O   UNL A   1      36.032  33.244  31.865  1.00  0.00    -0.460 OA
BRANCH  29  30
ATOM     30  C   UNL A   1      36.568  32.293  32.656  1.00  0.00     0.338 C 
ATOM     31  O   UNL A   1      36.185  31.949  33.764  1.00  0.00    -0.246 OA
BRANCH  30  32
ATOM     32  C   UNL A   1      37.606  31.594  31.873  1.00  0.00     0.060 A 
ATOM     33  C   UNL A   1      38.659  30.957  32.543  1.00  0.00     0.016 A 
ATOM     34  C   UNL A   1      37.530  31.560  30.478  1.00  0.00     0.016 A 
ATOM     35  C   UNL A   1      39.663  30.318  31.817  1.00  0.00     0.010 A 
ATOM     36  C   UNL A   1      38.547  30.939  29.751  1.00  0.00     0.010 A 
ATOM     37  C   UNL A   1      39.638  30.351  30.416  1.00  0.00    -0.014 A 
BRANCH  37  38
ATOM     38  C   UNL A   1      40.850  29.973  29.652  1.00  0.00     0.031 A 
ATOM     39  C   UNL A   1      40.932  28.576  29.101  1.00  0.00     0.074 A 
ATOM     40  C   UNL A   1      41.847  30.847  29.430  1.00  0.00     0.049 A 
ATOM     41  N   UNL A   1      41.900  27.994  28.441  1.00  0.00    -0.248 NA
ATOM     42  C   UNL A   1      39.760  27.717  29.334  1.00  0.00     0.031 C 
ATOM     43  C   UNL A   1      41.868  32.239  29.871  1.00  0.00     0.029 A 
ATOM     44  N   UNL A   1      43.042  30.680  28.776  1.00  0.00    -0.354 N 
ATOM     45  C   UNL A   1      41.456  26.702  28.189  1.00  0.00     0.074 A 
ATOM     46  C   UNL A   1      40.152  26.573  28.798  1.00  0.00     0.031 C 
ATOM     47  C   UNL A   1      43.026  32.800  29.482  1.00  0.00     0.029 A 
ATOM     48  C   UNL A   1      43.840  31.797  28.796  1.00  0.00     0.049 A 
ATOM     49  H   UNL A   1      43.303  29.840  28.334  1.00  0.00     0.167 HD
ATOM     50  C   UNL A   1      42.076  25.714  27.501  1.00  0.00     0.037 A 
ATOM     51  C   UNL A   1      45.092  31.978  28.330  1.00  0.00     0.037 A 
ATOM     52  C   UNL A   1      43.379  25.842  26.903  1.00  0.00     0.049 A 
ATOM     53  C   UNL A   1      45.798  30.838  27.642  1.00  0.00     0.074 A 
ATOM     54  C   UNL A   1      44.089  24.906  26.174  1.00  0.00     0.029 A 
ATOM     55  N   UNL A   1      44.171  26.978  26.978  1.00  0.00    -0.354 N 
ATOM     56  N   UNL A   1      45.363  29.627  27.384  1.00  0.00    -0.248 NA
ATOM     57  C   UNL A   1      47.169  31.092  27.175  1.00  0.00     0.031 C 
ATOM     58  C   UNL A   1      45.337  25.453  25.862  1.00  0.00     0.029 A 
ATOM     59  C   UNL A   1      45.378  26.755  26.334  1.00  0.00     0.049 A 
ATOM     60  H   UNL A   1      43.915  27.818  27.422  1.00  0.00     0.167 HD
ATOM     61  C   UNL A   1      46.391  28.989  26.696  1.00  0.00     0.074 A 
ATOM     62  C   UNL A   1      47.466  29.952  26.569  1.00  0.00     0.031 C 
ATOM     63  C   UNL A   1      46.438  27.724  26.209  1.00  0.00     0.037 A 
BRANCH  50  64
ATOM     64  C   UNL A   1      41.362  24.396  27.399  1.00  0.00     0.057 A 
ATOM     65  C   UNL A   1      40.277  24.200  26.534  1.00  0.00     0.134 A 
ATOM     66  C   UNL A   1      41.769  23.305  28.178  1.00  0.00     0.134 A 
ATOM     67  F   UNL A   1      39.825  25.207  25.772  1.00  0.00    -0.206 F 
ATOM     68  C   UNL A   1      39.602  22.980  26.473  1.00  0.00     0.040 A 
ATOM     69  C   UNL A   1      41.123  22.070  28.103  1.00  0.00     0.040 A 
ATOM     70  F   UNL A   1      42.802  23.420  29.027  1.00  0.00    -0.206 F 
ATOM     71  C   UNL A   1      40.029  21.908  27.255  1.00  0.00     0.006 A 
ENDBRANCH  50  64
BRANCH  51  72
ATOM     72  C   UNL A   1      45.767  33.290  28.503  1.00  0.00     0.057 A 
ATOM     73  C   UNL A   1      46.521  33.573  29.648  1.00  0.00     0.134 A 
ATOM     74  C   UNL A   1      45.658  34.300  27.539  1.00  0.00     0.134 A 
ATOM     75  F   UNL A   1      46.643  32.657  30.620  1.00  0.00    -0.206 F 
ATOM     76  C   UNL A   1      47.129  34.815  29.836  1.00  0.00     0.040 A 
ATOM     77  C   UNL A   1      46.283  35.538  27.701  1.00  0.00     0.040 A 
ATOM     78  F   UNL A   1      44.948  34.095  26.420  1.00  0.00    -0.206 F 
ATOM     79  C   UNL A   1      47.016  35.801  28.856  1.00  0.00     0.006 A 
ENDBRANCH  51  72
BRANCH  63  80
ATOM     80  C   UNL A   1      47.671  27.318  25.450  1.00  0.00     0.057 A 
ATOM     81  C   UNL A   1      48.753  26.680  26.070  1.00  0.00     0.134 A 
ATOM     82  C   UNL A   1      47.755  27.532  24.067  1.00  0.00     0.134 A 
ATOM     83  F   UNL A   1      48.743  26.452  27.393  1.00  0.00    -0.206 F 
ATOM     84  C   UNL A   1      49.885  26.296  25.348  1.00  0.00     0.040 A 
ATOM     85  C   UNL A   1      48.867  27.124  23.330  1.00  0.00     0.040 A 
ATOM     86  F   UNL A   1      46.751  28.127  23.408  1.00  0.00    -0.206 F 
ATOM     87  C   UNL A   1      49.940  26.511  23.972  1.00  0.00     0.006 A 
ENDBRANCH  63  80
ENDBRANCH  37  38
ENDBRANCH  30  32
ENDBRANCH  29  30
ENDBRANCH  28  29
ENDBRANCH  27  28
ENDBRANCH  26  27
ENDBRANCH  25  26
ENDBRANCH   1  25
TORSDOF 20
ENDMDL
