MODEL 1
REMARK VINA RESULT:     -10.4      0.000      0.000
REMARK SMILES Cc1ccc(NC(=O)C[N@H+]2CCC[C@@H](C(=O)OCCOCCOCCOCCOC(=O)c3ccc(-c4c5nc(c(-c6c(F)cccc6F)c6ccc([nH]6)c(-c6c(F)cccc6F)c6nc(c(-c7c(F)cccc7F)c7ccc4[nH]7)C=C6)C=C5)cc3)C2)cc1F
REMARK SMILES IDX 22 1 21 2 20 3 19 4 18 5 17 6 15 7 16 8 14 9 10 10 11 11
REMARK SMILES IDX 86 12 12 14 13 15 9 16 7 17 6 18 8 20 5 21 1 22 2 23 3 24
REMARK SMILES IDX 88 25 4 26 87 27 89 28 23 29 24 30 25 31 26 32 27 33 28 34
REMARK SMILES IDX 29 35 30 36 31 37 32 38 33 39 85 40 34 41 84 42 35 43 36 44
REMARK SMILES IDX 37 45 78 46 38 47 83 48 77 49 79 50 39 51 82 52 76 53 75 54
REMARK SMILES IDX 40 56 66 57 49 58 65 59 50 60 53 61 64 62 80 63 51 64 52 65
REMARK SMILES IDX 63 67 81 68 54 69 41 70 42 71 47 72 43 73 44 74 46 75 48 76
REMARK SMILES IDX 45 77 67 78 68 79 73 80 69 81 70 82 72 83 74 84 71 85 55 86
REMARK SMILES IDX 56 87 61 88 57 89 58 90 60 91 62 92 59 93
REMARK H PARENT 10 13 6 19 79 55 53 66
REMARK Flexibility Score: inf
ROOT
ATOM      1  C   UNL A   1      32.178  28.686  24.227  1.00  0.00     0.188 C 
ENDROOT
BRANCH   1   2
ATOM      2  C   UNL A   1      33.267  28.829  23.137  1.00  0.00     0.188 C 
BRANCH   2   3
ATOM      3  O   UNL A   1      33.351  27.793  22.176  1.00  0.00    -0.376 OA
BRANCH   3   4
ATOM      4  C   UNL A   1      32.652  26.566  22.244  1.00  0.00     0.202 C 
BRANCH   4   5
ATOM      5  C   UNL A   1      33.294  25.195  22.475  1.00  0.00     0.261 C 
BRANCH   5   6
ATOM      6  O   UNL A   1      34.604  25.194  23.012  1.00  0.00    -0.463 OA
BRANCH   6   7
ATOM      7  C   UNL A   1      34.715  25.263  24.360  1.00  0.00     0.314 C 
ATOM      8  O   UNL A   1      34.179  26.093  25.078  1.00  0.00    -0.252 OA
BRANCH   7   9
ATOM      9  C   UNL A   1      35.633  24.155  24.813  1.00  0.00     0.154 C 
ATOM     10  N   UNL A   1      35.485  22.285  26.339  1.00  0.00    -0.326 N 
ATOM     11  C   UNL A   1      36.035  21.359  25.329  1.00  0.00     0.262 C 
ATOM     12  C   UNL A   1      34.715  23.300  25.637  1.00  0.00     0.278 C 
ATOM     13  H   UNL A   1      36.251  22.726  26.848  1.00  0.00     0.348 HD
ATOM     14  C   UNL A   1      36.964  22.092  24.341  1.00  0.00     0.062 C 
ATOM     15  C   UNL A   1      36.320  23.340  23.727  1.00  0.00     0.027 C 
BRANCH  10  16
ATOM     16  C   UNL A   1      34.704  21.598  27.400  1.00  0.00     0.363 C 
BRANCH  16  17
ATOM     17  C   UNL A   1      33.183  21.870  27.404  1.00  0.00     0.279 C 
ATOM     18  N   UNL A   1      32.297  21.395  26.468  1.00  0.00    -0.321 N 
ATOM     19  H   UNL A   1      31.371  21.698  26.609  1.00  0.00     0.170 HD
ATOM     20  O   UNL A   1      32.686  22.480  28.363  1.00  0.00    -0.268 OA
BRANCH  18  21
ATOM     21  C   UNL A   1      32.457  20.558  25.342  1.00  0.00     0.044 A 
ATOM     22  C   UNL A   1      32.244  18.060  21.822  1.00  0.00     0.047 C 
ATOM     23  C   UNL A   1      32.373  18.960  23.014  1.00  0.00    -0.015 A 
ATOM     24  C   UNL A   1      32.110  20.328  22.933  1.00  0.00     0.008 A 
ATOM     25  C   UNL A   1      32.731  18.426  24.253  1.00  0.00     0.128 A 
ATOM     26  C   UNL A   1      32.170  21.124  24.086  1.00  0.00     0.026 A 
ATOM     27  C   UNL A   1      32.774  19.208  25.407  1.00  0.00     0.065 A 
ATOM     28  F   UNL A   1      33.020  17.121  24.352  1.00  0.00    -0.207 F 
ENDBRANCH  18  21
ENDBRANCH  16  17
ENDBRANCH  10  16
ENDBRANCH   7   9
ENDBRANCH   6   7
ENDBRANCH   5   6
ENDBRANCH   4   5
ENDBRANCH   3   4
ENDBRANCH   2   3
ENDBRANCH   1   2
BRANCH   1  29
ATOM     29  O   UNL A   1      31.814  29.865  24.913  1.00  0.00    -0.377 OA
BRANCH  29  30
ATOM     30  C   UNL A   1      31.952  29.899  26.328  1.00  0.00     0.188 C 
BRANCH  30  31
ATOM     31  C   UNL A   1      32.808  28.872  27.133  1.00  0.00     0.188 C 
BRANCH  31  32
ATOM     32  O   UNL A   1      34.190  29.151  27.274  1.00  0.00    -0.376 OA
BRANCH  32  33
ATOM     33  C   UNL A   1      34.835  30.403  27.362  1.00  0.00     0.202 C 
BRANCH  33  34
ATOM     34  C   UNL A   1      34.180  31.581  28.094  1.00  0.00     0.261 C 
BRANCH  34  35
ATOM     35  O   UNL A   1      34.657  31.755  29.413  1.00  0.00    -0.460 OA
BRANCH  35  36
ATOM     36  C   UNL A   1      34.556  33.035  29.790  1.00  0.00     0.338 C 
ATOM     37  O   UNL A   1      33.940  33.923  29.204  1.00  0.00    -0.246 OA
BRANCH  36  38
ATOM     38  C   UNL A   1      35.291  33.263  31.033  1.00  0.00     0.060 A 
ATOM     39  C   UNL A   1      36.313  34.208  30.869  1.00  0.00     0.016 A 
ATOM     40  C   UNL A   1      35.420  32.097  31.781  1.00  0.00     0.016 A 
ATOM     41  C   UNL A   1      37.591  33.736  30.973  1.00  0.00     0.010 A 
ATOM     42  C   UNL A   1      36.686  31.614  31.861  1.00  0.00     0.010 A 
ATOM     43  C   UNL A   1      37.723  32.404  31.349  1.00  0.00    -0.014 A 
BRANCH  43  44
ATOM     44  C   UNL A   1      38.982  31.737  31.301  1.00  0.00     0.031 A 
ATOM     45  C   UNL A   1      38.989  30.540  30.475  1.00  0.00     0.074 A 
ATOM     46  C   UNL A   1      40.020  32.285  31.960  1.00  0.00     0.049 A 
ATOM     47  N   UNL A   1      39.629  29.475  30.776  1.00  0.00    -0.248 NA
ATOM     48  C   UNL A   1      38.116  30.388  29.307  1.00  0.00     0.031 C 
ATOM     49  C   UNL A   1      41.430  31.990  31.800  1.00  0.00     0.029 A 
ATOM     50  N   UNL A   1      39.964  33.154  33.053  1.00  0.00    -0.354 N 
ATOM     51  C   UNL A   1      39.611  28.710  29.636  1.00  0.00     0.074 A 
ATOM     52  C   UNL A   1      38.495  29.187  28.860  1.00  0.00     0.031 C 
ATOM     53  C   UNL A   1      42.093  32.449  32.874  1.00  0.00     0.029 A 
ATOM     54  C   UNL A   1      41.110  32.930  33.832  1.00  0.00     0.049 A 
ATOM     55  H   UNL A   1      39.250  33.805  33.243  1.00  0.00     0.167 HD
ATOM     56  C   UNL A   1      40.710  27.960  29.359  1.00  0.00     0.037 A 
ATOM     57  C   UNL A   1      40.997  32.468  35.110  1.00  0.00     0.037 A 
ATOM     58  C   UNL A   1      41.731  28.198  30.379  1.00  0.00     0.049 A 
ATOM     59  C   UNL A   1      41.519  31.066  35.279  1.00  0.00     0.074 A 
ATOM     60  C   UNL A   1      42.818  29.057  30.417  1.00  0.00     0.029 A 
ATOM     61  N   UNL A   1      41.484  27.831  31.692  1.00  0.00    -0.354 N 
ATOM     62  N   UNL A   1      41.652  30.206  34.307  1.00  0.00    -0.248 NA
ATOM     63  C   UNL A   1      41.973  30.540  36.557  1.00  0.00     0.031 C 
ATOM     64  C   UNL A   1      43.267  29.143  31.759  1.00  0.00     0.029 A 
ATOM     65  C   UNL A   1      42.449  28.341  32.536  1.00  0.00     0.049 A 
ATOM     66  H   UNL A   1      40.723  27.280  31.985  1.00  0.00     0.167 HD
ATOM     67  C   UNL A   1      42.210  29.042  34.785  1.00  0.00     0.074 A 
ATOM     68  C   UNL A   1      42.401  29.318  36.197  1.00  0.00     0.031 C 
ATOM     69  C   UNL A   1      42.455  27.981  33.950  1.00  0.00     0.037 A 
BRANCH  56  70
ATOM     70  C   UNL A   1      41.001  27.322  28.030  1.00  0.00     0.057 A 
ATOM     71  C   UNL A   1      41.616  28.066  27.004  1.00  0.00     0.134 A 
ATOM     72  C   UNL A   1      40.721  25.986  27.693  1.00  0.00     0.134 A 
ATOM     73  F   UNL A   1      42.012  29.333  27.186  1.00  0.00    -0.206 F 
ATOM     74  C   UNL A   1      41.868  27.550  25.730  1.00  0.00     0.040 A 
ATOM     75  C   UNL A   1      40.934  25.465  26.409  1.00  0.00     0.040 A 
ATOM     76  F   UNL A   1      40.282  25.106  28.602  1.00  0.00    -0.206 F 
ATOM     77  C   UNL A   1      41.509  26.250  25.420  1.00  0.00     0.006 A 
ENDBRANCH  56  70
BRANCH  57  78
ATOM     78  C   UNL A   1      39.859  33.065  35.852  1.00  0.00     0.057 A 
ATOM     79  C   UNL A   1      38.715  32.265  36.025  1.00  0.00     0.134 A 
ATOM     80  C   UNL A   1      40.046  34.128  36.740  1.00  0.00     0.134 A 
ATOM     81  F   UNL A   1      38.477  31.241  35.189  1.00  0.00    -0.206 F 
ATOM     82  C   UNL A   1      37.871  32.417  37.123  1.00  0.00     0.040 A 
ATOM     83  C   UNL A   1      39.203  34.293  37.841  1.00  0.00     0.040 A 
ATOM     84  F   UNL A   1      41.115  34.931  36.635  1.00  0.00    -0.206 F 
ATOM     85  C   UNL A   1      38.137  33.416  38.051  1.00  0.00     0.006 A 
ENDBRANCH  57  78
BRANCH  69  86
ATOM     86  C   UNL A   1      42.781  26.526  34.300  1.00  0.00     0.057 A 
ATOM     87  C   UNL A   1      43.914  25.814  33.890  1.00  0.00     0.134 A 
ATOM     88  C   UNL A   1      41.945  25.783  35.182  1.00  0.00     0.134 A 
ATOM     89  F   UNL A   1      44.839  26.336  33.085  1.00  0.00    -0.206 F 
ATOM     90  C   UNL A   1      44.189  24.501  34.306  1.00  0.00     0.040 A 
ATOM     91  C   UNL A   1      42.235  24.496  35.645  1.00  0.00     0.040 A 
ATOM     92  F   UNL A   1      40.790  26.257  35.667  1.00  0.00    -0.206 F 
ATOM     93  C   UNL A   1      43.362  23.843  35.200  1.00  0.00     0.006 A 
ENDBRANCH  69  86
ENDBRANCH  43  44
ENDBRANCH  36  38
ENDBRANCH  35  36
ENDBRANCH  34  35
ENDBRANCH  33  34
ENDBRANCH  32  33
ENDBRANCH  31  32
ENDBRANCH  30  31
ENDBRANCH  29  30
ENDBRANCH   1  29
TORSDOF 23
ENDMDL
MODEL 2
REMARK VINA RESULT:     -10.0      4.704      9.736
REMARK SMILES Cc1ccc(NC(=O)C[N@H+]2CCC[C@@H](C(=O)OCCOCCOCCOCCOC(=O)c3ccc(-c4c5nc(c(-c6c(F)cccc6F)c6ccc([nH]6)c(-c6c(F)cccc6F)c6nc(c(-c7c(F)cccc7F)c7ccc4[nH]7)C=C6)C=C5)cc3)C2)cc1F
REMARK SMILES IDX 22 1 21 2 20 3 19 4 18 5 17 6 15 7 16 8 14 9 10 10 11 11
REMARK SMILES IDX 86 12 12 14 13 15 9 16 7 17 6 18 8 20 5 21 1 22 2 23 3 24
REMARK SMILES IDX 88 25 4 26 87 27 89 28 23 29 24 30 25 31 26 32 27 33 28 34
REMARK SMILES IDX 29 35 30 36 31 37 32 38 33 39 85 40 34 41 84 42 35 43 36 44
REMARK SMILES IDX 37 45 78 46 38 47 83 48 77 49 79 50 39 51 82 52 76 53 75 54
REMARK SMILES IDX 40 56 66 57 49 58 65 59 50 60 53 61 64 62 80 63 51 64 52 65
REMARK SMILES IDX 63 67 81 68 54 69 41 70 42 71 47 72 43 73 44 74 46 75 48 76
REMARK SMILES IDX 45 77 67 78 68 79 73 80 69 81 70 82 72 83 74 84 71 85 55 86
REMARK SMILES IDX 56 87 61 88 57 89 58 90 60 91 62 92 59 93
REMARK H PARENT 10 13 6 19 79 55 53 66
REMARK Flexibility Score: inf
ROOT
ATOM      1  C   UNL A   1      35.465  22.029  24.011  1.00  0.00     0.188 C 
ENDROOT
BRANCH   1   2
ATOM      2  C   UNL A   1      35.450  23.358  23.217  1.00  0.00     0.188 C 
BRANCH   2   3
ATOM      3  O   UNL A   1      34.262  23.670  22.514  1.00  0.00    -0.376 OA
BRANCH   3   4
ATOM      4  C   UNL A   1      33.670  24.952  22.450  1.00  0.00     0.202 C 
BRANCH   4   5
ATOM      5  C   UNL A   1      32.263  25.252  21.925  1.00  0.00     0.261 C 
BRANCH   5   6
ATOM      6  O   UNL A   1      31.586  26.344  22.519  1.00  0.00    -0.463 OA
BRANCH   6   7
ATOM      7  C   UNL A   1      30.466  26.061  23.224  1.00  0.00     0.314 C 
ATOM      8  O   UNL A   1      30.019  24.944  23.435  1.00  0.00    -0.252 OA
BRANCH   7   9
ATOM      9  C   UNL A   1      29.854  27.363  23.678  1.00  0.00     0.154 C 
ATOM     10  N   UNL A   1      30.681  29.476  24.514  1.00  0.00    -0.326 N 
ATOM     11  C   UNL A   1      29.835  30.233  23.568  1.00  0.00     0.262 C 
ATOM     12  C   UNL A   1      31.064  28.232  23.867  1.00  0.00     0.278 C 
ATOM     13  H   UNL A   1      30.147  29.274  25.359  1.00  0.00     0.348 HD
ATOM     14  C   UNL A   1      28.558  29.448  23.204  1.00  0.00     0.062 C 
ATOM     15  C   UNL A   1      28.847  28.015  22.742  1.00  0.00     0.027 C 
BRANCH  10  16
ATOM     16  C   UNL A   1      31.846  30.254  25.008  1.00  0.00     0.363 C 
BRANCH  16  17
ATOM     17  C   UNL A   1      32.156  30.124  26.516  1.00  0.00     0.279 C 
ATOM     18  N   UNL A   1      32.435  28.945  27.163  1.00  0.00    -0.321 N 
ATOM     19  H   UNL A   1      32.573  29.047  28.132  1.00  0.00     0.170 HD
ATOM     20  O   UNL A   1      32.257  31.156  27.198  1.00  0.00    -0.268 OA
BRANCH  18  21
ATOM     21  C   UNL A   1      32.563  27.615  26.708  1.00  0.00     0.044 A 
ATOM     22  C   UNL A   1      32.877  23.365  25.994  1.00  0.00     0.047 C 
ATOM     23  C   UNL A   1      32.723  24.843  26.187  1.00  0.00    -0.015 A 
ATOM     24  C   UNL A   1      31.518  25.407  26.607  1.00  0.00     0.008 A 
ATOM     25  C   UNL A   1      33.814  25.689  25.980  1.00  0.00     0.128 A 
ATOM     26  C   UNL A   1      31.435  26.786  26.846  1.00  0.00     0.026 A 
ATOM     27  C   UNL A   1      33.744  27.058  26.235  1.00  0.00     0.065 A 
ATOM     28  F   UNL A   1      34.974  25.177  25.545  1.00  0.00    -0.207 F 
ENDBRANCH  18  21
ENDBRANCH  16  17
ENDBRANCH  10  16
ENDBRANCH   7   9
ENDBRANCH   6   7
ENDBRANCH   5   6
ENDBRANCH   4   5
ENDBRANCH   3   4
ENDBRANCH   2   3
ENDBRANCH   1   2
BRANCH   1  29
ATOM     29  O   UNL A   1      36.415  21.927  25.050  1.00  0.00    -0.377 OA
BRANCH  29  30
ATOM     30  C   UNL A   1      37.575  22.746  24.993  1.00  0.00     0.188 C 
BRANCH  30  31
ATOM     31  C   UNL A   1      38.609  22.855  26.157  1.00  0.00     0.188 C 
BRANCH  31  32
ATOM     32  O   UNL A   1      39.372  21.699  26.456  1.00  0.00    -0.376 OA
BRANCH  32  33
ATOM     33  C   UNL A   1      40.673  21.362  26.027  1.00  0.00     0.202 C 
BRANCH  33  34
ATOM     34  C   UNL A   1      41.808  22.394  26.058  1.00  0.00     0.261 C 
BRANCH  34  35
ATOM     35  O   UNL A   1      43.093  21.816  25.952  1.00  0.00    -0.460 OA
BRANCH  35  36
ATOM     36  C   UNL A   1      43.818  22.436  25.014  1.00  0.00     0.338 C 
ATOM     37  O   UNL A   1      43.526  22.557  23.826  1.00  0.00    -0.246 OA
BRANCH  36  38
ATOM     38  C   UNL A   1      45.045  22.981  25.591  1.00  0.00     0.060 A 
ATOM     39  C   UNL A   1      45.132  22.729  26.968  1.00  0.00     0.016 A 
ATOM     40  C   UNL A   1      45.409  24.185  24.995  1.00  0.00     0.016 A 
ATOM     41  C   UNL A   1      45.044  23.820  27.785  1.00  0.00     0.010 A 
ATOM     42  C   UNL A   1      45.296  25.271  25.801  1.00  0.00     0.010 A 
ATOM     43  C   UNL A   1      45.003  25.058  27.154  1.00  0.00    -0.014 A 
BRANCH  43  44
ATOM     44  C   UNL A   1      44.714  26.253  27.875  1.00  0.00     0.031 A 
ATOM     45  C   UNL A   1      43.327  26.679  27.784  1.00  0.00     0.074 A 
ATOM     46  C   UNL A   1      45.704  26.827  28.584  1.00  0.00     0.049 A 
ATOM     47  N   UNL A   1      42.965  27.902  27.694  1.00  0.00    -0.248 NA
ATOM     48  C   UNL A   1      42.223  25.729  27.611  1.00  0.00     0.031 C 
ATOM     49  C   UNL A   1      45.586  27.824  29.628  1.00  0.00     0.029 A 
ATOM     50  N   UNL A   1      47.079  26.700  28.371  1.00  0.00    -0.354 N 
ATOM     51  C   UNL A   1      41.610  27.895  27.914  1.00  0.00     0.074 A 
ATOM     52  C   UNL A   1      41.172  26.554  27.624  1.00  0.00     0.031 C 
ATOM     53  C   UNL A   1      46.784  28.403  29.812  1.00  0.00     0.029 A 
ATOM     54  C   UNL A   1      47.684  27.896  28.789  1.00  0.00     0.049 A 
ATOM     55  H   UNL A   1      47.540  25.914  27.997  1.00  0.00     0.167 HD
ATOM     56  C   UNL A   1      41.072  28.945  28.588  1.00  0.00     0.037 A 
ATOM     57  C   UNL A   1      48.347  28.683  27.893  1.00  0.00     0.037 A 
ATOM     58  C   UNL A   1      42.137  29.867  28.982  1.00  0.00     0.049 A 
ATOM     59  C   UNL A   1      47.656  29.996  27.637  1.00  0.00     0.074 A 
ATOM     60  C   UNL A   1      42.859  29.997  30.158  1.00  0.00     0.029 A 
ATOM     61  N   UNL A   1      42.869  30.525  28.006  1.00  0.00    -0.354 N 
ATOM     62  N   UNL A   1      46.389  30.217  27.854  1.00  0.00    -0.248 NA
ATOM     63  C   UNL A   1      48.354  31.176  27.153  1.00  0.00     0.031 C 
ATOM     64  C   UNL A   1      43.994  30.804  29.892  1.00  0.00     0.029 A 
ATOM     65  C   UNL A   1      43.965  31.158  28.554  1.00  0.00     0.049 A 
ATOM     66  H   UNL A   1      42.637  30.540  27.049  1.00  0.00     0.167 HD
ATOM     67  C   UNL A   1      46.088  31.530  27.574  1.00  0.00     0.074 A 
ATOM     68  C   UNL A   1      47.362  32.082  27.153  1.00  0.00     0.031 C 
ATOM     69  C   UNL A   1      44.812  32.012  27.728  1.00  0.00     0.037 A 
BRANCH  56  70
ATOM     70  C   UNL A   1      39.695  28.965  29.191  1.00  0.00     0.057 A 
ATOM     71  C   UNL A   1      38.586  29.351  28.414  1.00  0.00     0.134 A 
ATOM     72  C   UNL A   1      39.385  28.605  30.514  1.00  0.00     0.134 A 
ATOM     73  F   UNL A   1      38.700  29.656  27.115  1.00  0.00    -0.206 F 
ATOM     74  C   UNL A   1      37.288  29.440  28.926  1.00  0.00     0.040 A 
ATOM     75  C   UNL A   1      38.095  28.725  31.052  1.00  0.00     0.040 A 
ATOM     76  F   UNL A   1      40.299  28.069  31.333  1.00  0.00    -0.206 F 
ATOM     77  C   UNL A   1      37.040  29.146  30.255  1.00  0.00     0.006 A 
ENDBRANCH  56  70
BRANCH  57  78
ATOM     78  C   UNL A   1      49.136  27.911  26.903  1.00  0.00     0.057 A 
ATOM     79  C   UNL A   1      48.583  27.759  25.618  1.00  0.00     0.134 A 
ATOM     80  C   UNL A   1      50.520  27.755  27.034  1.00  0.00     0.134 A 
ATOM     81  F   UNL A   1      47.258  27.879  25.438  1.00  0.00    -0.206 F 
ATOM     82  C   UNL A   1      49.382  27.612  24.487  1.00  0.00     0.040 A 
ATOM     83  C   UNL A   1      51.329  27.602  25.906  1.00  0.00     0.040 A 
ATOM     84  F   UNL A   1      51.115  27.886  28.228  1.00  0.00    -0.206 F 
ATOM     85  C   UNL A   1      50.762  27.565  24.630  1.00  0.00     0.006 A 
ENDBRANCH  57  78
BRANCH  69  86
ATOM     86  C   UNL A   1      44.198  33.316  27.210  1.00  0.00     0.057 A 
ATOM     87  C   UNL A   1      43.955  33.636  25.870  1.00  0.00     0.134 A 
ATOM     88  C   UNL A   1      43.734  34.314  28.115  1.00  0.00     0.134 A 
ATOM     89  F   UNL A   1      44.288  32.827  24.865  1.00  0.00    -0.206 F 
ATOM     90  C   UNL A   1      43.322  34.823  25.466  1.00  0.00     0.040 A 
ATOM     91  C   UNL A   1      43.055  35.473  27.728  1.00  0.00     0.040 A 
ATOM     92  F   UNL A   1      43.895  34.229  29.442  1.00  0.00    -0.206 F 
ATOM     93  C   UNL A   1      42.851  35.738  26.392  1.00  0.00     0.006 A 
ENDBRANCH  69  86
ENDBRANCH  43  44
ENDBRANCH  36  38
ENDBRANCH  35  36
ENDBRANCH  34  35
ENDBRANCH  33  34
ENDBRANCH  32  33
ENDBRANCH  31  32
ENDBRANCH  30  31
ENDBRANCH  29  30
ENDBRANCH   1  29
TORSDOF 23
ENDMDL
MODEL 3
REMARK VINA RESULT:      -9.8      2.766      4.268
REMARK SMILES Cc1ccc(NC(=O)C[N@H+]2CCC[C@@H](C(=O)OCCOCCOCCOCCOC(=O)c3ccc(-c4c5nc(c(-c6c(F)cccc6F)c6ccc([nH]6)c(-c6c(F)cccc6F)c6nc(c(-c7c(F)cccc7F)c7ccc4[nH]7)C=C6)C=C5)cc3)C2)cc1F
REMARK SMILES IDX 22 1 21 2 20 3 19 4 18 5 17 6 15 7 16 8 14 9 10 10 11 11
REMARK SMILES IDX 86 12 12 14 13 15 9 16 7 17 6 18 8 20 5 21 1 22 2 23 3 24
REMARK SMILES IDX 88 25 4 26 87 27 89 28 23 29 24 30 25 31 26 32 27 33 28 34
REMARK SMILES IDX 29 35 30 36 31 37 32 38 33 39 85 40 34 41 84 42 35 43 36 44
REMARK SMILES IDX 37 45 78 46 38 47 83 48 77 49 79 50 39 51 82 52 76 53 75 54
REMARK SMILES IDX 40 56 66 57 49 58 65 59 50 60 53 61 64 62 80 63 51 64 52 65
REMARK SMILES IDX 63 67 81 68 54 69 41 70 42 71 47 72 43 73 44 74 46 75 48 76
REMARK SMILES IDX 45 77 67 78 68 79 73 80 69 81 70 82 72 83 74 84 71 85 55 86
REMARK SMILES IDX 56 87 61 88 57 89 58 90 60 91 62 92 59 93
REMARK H PARENT 10 13 6 19 79 55 53 66
REMARK Flexibility Score: inf
ROOT
ATOM      1  C   UNL A   1      29.819  32.600  23.019  1.00  0.00     0.188 C 
ENDROOT
BRANCH   1   2
ATOM      2  C   UNL A   1      28.408  32.520  22.389  1.00  0.00     0.188 C 
BRANCH   2   3
ATOM      3  O   UNL A   1      27.370  32.011  23.206  1.00  0.00    -0.376 OA
BRANCH   3   4
ATOM      4  C   UNL A   1      27.276  30.674  23.658  1.00  0.00     0.202 C 
BRANCH   4   5
ATOM      5  C   UNL A   1      27.925  29.464  22.980  1.00  0.00     0.261 C 
BRANCH   5   6
ATOM      6  O   UNL A   1      29.210  29.093  23.444  1.00  0.00    -0.463 OA
BRANCH   6   7
ATOM      7  C   UNL A   1      30.251  29.315  22.607  1.00  0.00     0.314 C 
ATOM      8  O   UNL A   1      30.168  29.551  21.412  1.00  0.00    -0.252 OA
BRANCH   7   9
ATOM      9  C   UNL A   1      31.527  29.191  23.403  1.00  0.00     0.154 C 
ATOM     10  N   UNL A   1      32.261  27.931  25.331  1.00  0.00    -0.326 N 
ATOM     11  C   UNL A   1      33.493  27.502  24.639  1.00  0.00     0.262 C 
ATOM     12  C   UNL A   1      31.212  28.055  24.332  1.00  0.00     0.278 C 
ATOM     13  H   UNL A   1      32.420  28.834  25.778  1.00  0.00     0.348 HD
ATOM     14  C   UNL A   1      33.933  28.535  23.583  1.00  0.00     0.062 C 
ATOM     15  C   UNL A   1      32.805  28.926  22.621  1.00  0.00     0.027 C 
BRANCH  10  16
ATOM     16  C   UNL A   1      31.883  27.040  26.458  1.00  0.00     0.363 C 
BRANCH  16  17
ATOM     17  C   UNL A   1      31.105  25.760  26.078  1.00  0.00     0.279 C 
ATOM     18  N   UNL A   1      31.648  24.671  25.441  1.00  0.00    -0.321 N 
ATOM     19  H   UNL A   1      30.995  23.959  25.246  1.00  0.00     0.170 HD
ATOM     20  O   UNL A   1      29.927  25.643  26.446  1.00  0.00    -0.268 OA
BRANCH  18  21
ATOM     21  C   UNL A   1      32.958  24.373  25.010  1.00  0.00     0.044 A 
ATOM     22  C   UNL A   1      36.711  22.826  23.526  1.00  0.00     0.047 C 
ATOM     23  C   UNL A   1      35.421  23.422  24.003  1.00  0.00    -0.015 A 
ATOM     24  C   UNL A   1      34.352  23.650  23.136  1.00  0.00     0.008 A 
ATOM     25  C   UNL A   1      35.255  23.729  25.355  1.00  0.00     0.128 A 
ATOM     26  C   UNL A   1      33.136  24.140  23.634  1.00  0.00     0.026 A 
ATOM     27  C   UNL A   1      34.042  24.199  25.860  1.00  0.00     0.065 A 
ATOM     28  F   UNL A   1      36.277  23.551  26.204  1.00  0.00    -0.207 F 
ENDBRANCH  18  21
ENDBRANCH  16  17
ENDBRANCH  10  16
ENDBRANCH   7   9
ENDBRANCH   6   7
ENDBRANCH   5   6
ENDBRANCH   4   5
ENDBRANCH   3   4
ENDBRANCH   2   3
ENDBRANCH   1   2
BRANCH   1  29
ATOM     29  O   UNL A   1      29.881  32.957  24.383  1.00  0.00    -0.377 OA
BRANCH  29  30
ATOM     30  C   UNL A   1      30.092  31.932  25.345  1.00  0.00     0.188 C 
BRANCH  30  31
ATOM     31  C   UNL A   1      31.391  31.811  26.202  1.00  0.00     0.188 C 
BRANCH  31  32
ATOM     32  O   UNL A   1      31.839  32.979  26.867  1.00  0.00    -0.376 OA
BRANCH  32  33
ATOM     33  C   UNL A   1      32.807  33.101  27.886  1.00  0.00     0.202 C 
BRANCH  33  34
ATOM     34  C   UNL A   1      34.056  32.210  27.902  1.00  0.00     0.261 C 
BRANCH  34  35
ATOM     35  O   UNL A   1      34.634  32.078  29.184  1.00  0.00    -0.460 OA
BRANCH  35  36
ATOM     36  C   UNL A   1      35.933  31.773  29.091  1.00  0.00     0.338 C 
ATOM     37  O   UNL A   1      36.878  32.540  29.266  1.00  0.00    -0.246 OA
BRANCH  36  38
ATOM     38  C   UNL A   1      36.106  30.363  28.749  1.00  0.00     0.060 A 
ATOM     39  C   UNL A   1      36.285  29.568  29.889  1.00  0.00     0.016 A 
ATOM     40  C   UNL A   1      36.820  30.199  27.565  1.00  0.00     0.016 A 
ATOM     41  C   UNL A   1      37.519  29.002  30.041  1.00  0.00     0.010 A 
ATOM     42  C   UNL A   1      38.056  29.663  27.721  1.00  0.00     0.010 A 
ATOM     43  C   UNL A   1      38.409  29.183  28.988  1.00  0.00    -0.014 A 
BRANCH  43  44
ATOM     44  C   UNL A   1      39.783  28.818  29.102  1.00  0.00     0.031 A 
ATOM     45  C   UNL A   1      40.075  27.463  28.662  1.00  0.00     0.074 A 
ATOM     46  C   UNL A   1      40.655  29.743  29.545  1.00  0.00     0.049 A 
ATOM     47  N   UNL A   1      40.916  26.695  29.242  1.00  0.00    -0.248 NA
ATOM     48  C   UNL A   1      39.299  26.794  27.613  1.00  0.00     0.031 C 
ATOM     49  C   UNL A   1      42.100  29.724  29.439  1.00  0.00     0.029 A 
ATOM     50  N   UNL A   1      40.374  30.858  30.338  1.00  0.00    -0.354 N 
ATOM     51  C   UNL A   1      41.104  25.646  28.377  1.00  0.00     0.074 A 
ATOM     52  C   UNL A   1      39.942  25.627  27.525  1.00  0.00     0.031 C 
ATOM     53  C   UNL A   1      42.609  30.607  30.315  1.00  0.00     0.029 A 
ATOM     54  C   UNL A   1      41.511  31.122  31.117  1.00  0.00     0.049 A 
ATOM     55  H   UNL A   1      39.530  31.367  30.349  1.00  0.00     0.167 HD
ATOM     56  C   UNL A   1      42.347  25.103  28.300  1.00  0.00     0.037 A 
ATOM     57  C   UNL A   1      41.451  31.038  32.477  1.00  0.00     0.037 A 
ATOM     58  C   UNL A   1      43.255  25.840  29.178  1.00  0.00     0.049 A 
ATOM     59  C   UNL A   1      42.254  29.892  33.033  1.00  0.00     0.074 A 
ATOM     60  C   UNL A   1      44.132  26.886  28.935  1.00  0.00     0.029 A 
ATOM     61  N   UNL A   1      43.043  25.827  30.548  1.00  0.00    -0.354 N 
ATOM     62  N   UNL A   1      42.604  28.837  32.351  1.00  0.00    -0.248 NA
ATOM     63  C   UNL A   1      42.761  29.870  34.396  1.00  0.00     0.031 C 
ATOM     64  C   UNL A   1      44.502  27.452  30.181  1.00  0.00     0.029 A 
ATOM     65  C   UNL A   1      43.845  26.754  31.180  1.00  0.00     0.049 A 
ATOM     66  H   UNL A   1      42.407  25.234  31.009  1.00  0.00     0.167 HD
ATOM     67  C   UNL A   1      43.379  28.010  33.132  1.00  0.00     0.074 A 
ATOM     68  C   UNL A   1      43.453  28.719  34.397  1.00  0.00     0.031 C 
ATOM     69  C   UNL A   1      43.876  26.831  32.637  1.00  0.00     0.037 A 
BRANCH  56  70
ATOM     70  C   UNL A   1      42.817  24.184  27.207  1.00  0.00     0.057 A 
ATOM     71  C   UNL A   1      43.020  24.677  25.904  1.00  0.00     0.134 A 
ATOM     72  C   UNL A   1      43.104  22.817  27.365  1.00  0.00     0.134 A 
ATOM     73  F   UNL A   1      42.860  25.972  25.602  1.00  0.00    -0.206 F 
ATOM     74  C   UNL A   1      43.406  23.868  24.831  1.00  0.00     0.040 A 
ATOM     75  C   UNL A   1      43.456  21.985  26.292  1.00  0.00     0.040 A 
ATOM     76  F   UNL A   1      43.111  22.232  28.570  1.00  0.00    -0.206 F 
ATOM     77  C   UNL A   1      43.607  22.511  25.018  1.00  0.00     0.006 A 
ENDBRANCH  56  70
BRANCH  57  78
ATOM     78  C   UNL A   1      40.186  31.566  33.044  1.00  0.00     0.057 A 
ATOM     79  C   UNL A   1      39.219  30.625  33.442  1.00  0.00     0.134 A 
ATOM     80  C   UNL A   1      40.116  32.844  33.607  1.00  0.00     0.134 A 
ATOM     81  F   UNL A   1      39.228  29.389  32.918  1.00  0.00    -0.206 F 
ATOM     82  C   UNL A   1      38.315  30.890  34.468  1.00  0.00     0.040 A 
ATOM     83  C   UNL A   1      39.210  33.121  34.632  1.00  0.00     0.040 A 
ATOM     84  F   UNL A   1      41.006  33.790  33.274  1.00  0.00    -0.206 F 
ATOM     85  C   UNL A   1      38.333  32.133  35.086  1.00  0.00     0.006 A 
ENDBRANCH  57  78
BRANCH  69  86
ATOM     86  C   UNL A   1      44.491  25.646  33.387  1.00  0.00     0.057 A 
ATOM     87  C   UNL A   1      45.804  25.180  33.255  1.00  0.00     0.134 A 
ATOM     88  C   UNL A   1      43.749  24.949  34.384  1.00  0.00     0.134 A 
ATOM     89  F   UNL A   1      46.673  25.712  32.397  1.00  0.00    -0.206 F 
ATOM     90  C   UNL A   1      46.328  24.130  34.027  1.00  0.00     0.040 A 
ATOM     91  C   UNL A   1      44.277  23.939  35.195  1.00  0.00     0.040 A 
ATOM     92  F   UNL A   1      42.463  25.206  34.651  1.00  0.00    -0.206 F 
ATOM     93  C   UNL A   1      45.574  23.518  35.014  1.00  0.00     0.006 A 
ENDBRANCH  69  86
ENDBRANCH  43  44
ENDBRANCH  36  38
ENDBRANCH  35  36
ENDBRANCH  34  35
ENDBRANCH  33  34
ENDBRANCH  32  33
ENDBRANCH  31  32
ENDBRANCH  30  31
ENDBRANCH  29  30
ENDBRANCH   1  29
TORSDOF 23
ENDMDL
