MODEL 1
REMARK VINA RESULT:     -11.4      0.000      0.000
REMARK SMILES O=C(OCCOCCOCCOCCOC(=O)[C@H](c1c[nH]c2cc(F)ccc12)[NH+]1CCN(c2ccccc2)CC1)c1ccc(-c2c3nc(c(-c4c(F)cccc4F)c4ccc([nH]4)c(-c4c(F)cccc4F)c4nc(c(-c5c(F)cccc5F)c5ccc2[nH]5)C=C4)C=C3)cc1
REMARK SMILES IDX 9 1 8 2 7 3 6 4 5 5 4 6 3 7 2 8 1 9 41 10 42 11 94 12 43 13
REMARK SMILES IDX 93 14 44 15 45 16 46 17 87 18 47 19 92 20 86 21 88 22 48 23
REMARK SMILES IDX 91 24 85 25 84 26 49 28 75 29 58 30 74 31 59 32 62 33 73 34
REMARK SMILES IDX 89 35 60 36 61 37 72 39 90 40 63 41 50 42 51 43 56 44 52 45
REMARK SMILES IDX 53 46 55 47 57 48 54 49 76 50 77 51 82 52 78 53 79 54 81 55
REMARK SMILES IDX 83 56 80 57 64 58 65 59 70 60 66 61 67 62 69 63 71 64 68 65
REMARK SMILES IDX 10 66 11 67 12 68 13 69 14 70 15 71 16 72 17 73 18 74 29 75
REMARK SMILES IDX 30 76 40 77 31 79 39 80 32 81 33 82 34 83 38 84 35 85 37 86
REMARK SMILES IDX 36 87 19 88 20 89 28 90 21 91 22 92 27 93 23 95 26 96 24 97
REMARK SMILES IDX 25 98
REMARK H PARENT 88 27 62 38 29 78 21 94
REMARK Flexibility Score: inf
ROOT
ATOM      1  O   UNL A   1      34.658  32.969  28.087  1.00  0.00    -0.377 OA
ENDROOT
BRANCH   1   2
ATOM      2  C   UNL A   1      33.724  33.996  27.799  1.00  0.00     0.188 C 
BRANCH   2   3
ATOM      3  C   UNL A   1      33.716  35.172  28.793  1.00  0.00     0.188 C 
BRANCH   3   4
ATOM      4  O   UNL A   1      33.051  34.832  30.008  1.00  0.00    -0.376 OA
BRANCH   4   5
ATOM      5  C   UNL A   1      33.438  35.245  31.304  1.00  0.00     0.202 C 
BRANCH   5   6
ATOM      6  C   UNL A   1      34.779  34.808  31.863  1.00  0.00     0.261 C 
BRANCH   6   7
ATOM      7  O   UNL A   1      35.396  33.636  31.280  1.00  0.00    -0.460 OA
BRANCH   7   8
ATOM      8  C   UNL A   1      35.906  32.519  31.833  1.00  0.00     0.338 C 
ATOM      9  O   UNL A   1      35.458  32.129  32.927  1.00  0.00    -0.246 OA
BRANCH   8  10
ATOM     10  C   UNL A   1      37.056  31.774  31.268  1.00  0.00     0.060 A 
ATOM     11  C   UNL A   1      37.657  30.693  31.903  1.00  0.00     0.016 A 
ATOM     12  C   UNL A   1      37.453  32.044  29.959  1.00  0.00     0.016 A 
ATOM     13  C   UNL A   1      38.748  30.032  31.395  1.00  0.00     0.010 A 
ATOM     14  C   UNL A   1      38.482  31.302  29.371  1.00  0.00     0.010 A 
ATOM     15  C   UNL A   1      39.164  30.325  30.115  1.00  0.00    -0.014 A 
BRANCH  15  16
ATOM     16  C   UNL A   1      40.429  29.729  29.670  1.00  0.00     0.031 A 
ATOM     17  C   UNL A   1      41.635  30.604  29.745  1.00  0.00     0.074 A 
ATOM     18  C   UNL A   1      40.512  28.423  29.360  1.00  0.00     0.049 A 
ATOM     19  N   UNL A   1      42.793  30.462  29.173  1.00  0.00    -0.248 NA
ATOM     20  C   UNL A   1      41.507  31.825  30.566  1.00  0.00     0.031 C 
ATOM     21  C   UNL A   1      39.424  27.443  29.470  1.00  0.00     0.029 A 
ATOM     22  N   UNL A   1      41.572  27.687  28.911  1.00  0.00    -0.354 N 
ATOM     23  C   UNL A   1      43.492  31.624  29.473  1.00  0.00     0.074 A 
ATOM     24  C   UNL A   1      42.648  32.443  30.308  1.00  0.00     0.031 C 
ATOM     25  C   UNL A   1      39.882  26.233  29.115  1.00  0.00     0.029 A 
ATOM     26  C   UNL A   1      41.243  26.382  28.624  1.00  0.00     0.049 A 
ATOM     27  H   UNL A   1      42.480  28.052  28.804  1.00  0.00     0.167 HD
ATOM     28  C   UNL A   1      44.722  31.964  29.037  1.00  0.00     0.037 A 
ATOM     29  C   UNL A   1      41.944  25.455  27.947  1.00  0.00     0.037 A 
ATOM     30  C   UNL A   1      45.525  31.072  28.250  1.00  0.00     0.049 A 
ATOM     31  C   UNL A   1      43.280  25.879  27.401  1.00  0.00     0.074 A 
ATOM     32  C   UNL A   1      46.771  31.281  27.696  1.00  0.00     0.029 A 
ATOM     33  N   UNL A   1      45.144  29.775  27.923  1.00  0.00    -0.354 N 
ATOM     34  N   UNL A   1      43.907  27.024  27.553  1.00  0.00    -0.248 NA
ATOM     35  C   UNL A   1      43.987  24.912  26.557  1.00  0.00     0.031 C 
ATOM     36  C   UNL A   1      47.123  30.121  26.996  1.00  0.00     0.029 A 
ATOM     37  C   UNL A   1      46.120  29.174  27.156  1.00  0.00     0.049 A 
ATOM     38  H   UNL A   1      44.301  29.347  28.200  1.00  0.00     0.167 HD
ATOM     39  C   UNL A   1      45.084  26.916  26.830  1.00  0.00     0.074 A 
ATOM     40  C   UNL A   1      45.093  25.581  26.260  1.00  0.00     0.031 C 
ATOM     41  C   UNL A   1      46.068  27.830  26.636  1.00  0.00     0.037 A 
BRANCH  28  42
ATOM     42  C   UNL A   1      45.181  33.364  29.310  1.00  0.00     0.057 A 
ATOM     43  C   UNL A   1      45.897  33.721  30.458  1.00  0.00     0.134 A 
ATOM     44  C   UNL A   1      44.841  34.390  28.417  1.00  0.00     0.134 A 
ATOM     45  F   UNL A   1      46.215  32.795  31.376  1.00  0.00    -0.206 F 
ATOM     46  C   UNL A   1      46.237  35.050  30.723  1.00  0.00     0.040 A 
ATOM     47  C   UNL A   1      45.197  35.718  28.657  1.00  0.00     0.040 A 
ATOM     48  F   UNL A   1      44.138  34.121  27.306  1.00  0.00    -0.206 F 
ATOM     49  C   UNL A   1      45.891  36.052  29.818  1.00  0.00     0.006 A 
ENDBRANCH  28  42
BRANCH  29  50
ATOM     50  C   UNL A   1      41.354  24.122  27.648  1.00  0.00     0.057 A 
ATOM     51  C   UNL A   1      40.344  23.970  26.692  1.00  0.00     0.134 A 
ATOM     52  C   UNL A   1      41.773  22.965  28.321  1.00  0.00     0.134 A 
ATOM     53  F   UNL A   1      39.878  25.036  26.025  1.00  0.00    -0.206 F 
ATOM     54  C   UNL A   1      39.767  22.724  26.426  1.00  0.00     0.040 A 
ATOM     55  C   UNL A   1      41.230  21.710  28.043  1.00  0.00     0.040 A 
ATOM     56  F   UNL A   1      42.735  23.033  29.254  1.00  0.00    -0.206 F 
ATOM     57  C   UNL A   1      40.215  21.588  27.099  1.00  0.00     0.006 A 
ENDBRANCH  29  50
BRANCH  41  58
ATOM     58  C   UNL A   1      47.232  27.391  25.807  1.00  0.00     0.057 A 
ATOM     59  C   UNL A   1      48.335  26.748  26.378  1.00  0.00     0.134 A 
ATOM     60  C   UNL A   1      47.206  27.548  24.418  1.00  0.00     0.134 A 
ATOM     61  F   UNL A   1      48.417  26.584  27.706  1.00  0.00    -0.206 F 
ATOM     62  C   UNL A   1      49.386  26.283  25.588  1.00  0.00     0.040 A 
ATOM     63  C   UNL A   1      48.236  27.063  23.616  1.00  0.00     0.040 A 
ATOM     64  F   UNL A   1      46.166  28.149  23.819  1.00  0.00    -0.206 F 
ATOM     65  C   UNL A   1      49.331  26.431  24.203  1.00  0.00     0.006 A 
ENDBRANCH  41  58
ENDBRANCH  15  16
ENDBRANCH   8  10
ENDBRANCH   7   8
ENDBRANCH   6   7
ENDBRANCH   5   6
ENDBRANCH   4   5
ENDBRANCH   3   4
ENDBRANCH   2   3
ENDBRANCH   1   2
BRANCH   1  66
ATOM     66  C   UNL A   1      34.141  31.651  28.224  1.00  0.00     0.188 C 
BRANCH  66  67
ATOM     67  C   UNL A   1      35.109  30.616  27.648  1.00  0.00     0.188 C 
BRANCH  67  68
ATOM     68  O   UNL A   1      34.513  29.692  26.741  1.00  0.00    -0.376 OA
BRANCH  68  69
ATOM     69  C   UNL A   1      33.173  29.988  26.327  1.00  0.00     0.202 C 
BRANCH  69  70
ATOM     70  C   UNL A   1      32.656  29.275  25.054  1.00  0.00     0.261 C 
BRANCH  70  71
ATOM     71  O   UNL A   1      33.526  28.222  24.543  1.00  0.00    -0.459 OA
BRANCH  71  72
ATOM     72  C   UNL A   1      33.142  27.597  23.392  1.00  0.00     0.370 C 
ATOM     73  O   UNL A   1      33.715  27.793  22.316  1.00  0.00    -0.245 OA
BRANCH  72  74
ATOM     74  C   UNL A   1      31.994  26.530  23.505  1.00  0.00     0.328 C 
BRANCH  74  75
ATOM     75  N   UNL A   1      32.383  25.597  24.623  1.00  0.00    -0.316 N 
ATOM     76  C   UNL A   1      31.526  24.465  25.007  1.00  0.00     0.284 C 
ATOM     77  C   UNL A   1      33.765  25.077  24.473  1.00  0.00     0.284 C 
ATOM     78  H   UNL A   1      32.264  26.258  25.390  1.00  0.00     0.349 HD
ATOM     79  C   UNL A   1      31.520  23.283  24.025  1.00  0.00     0.178 C 
ATOM     80  C   UNL A   1      33.924  23.810  23.580  1.00  0.00     0.178 C 
ATOM     81  N   UNL A   1      32.891  22.811  23.870  1.00  0.00    -0.360 N 
BRANCH  81  82
ATOM     82  C   UNL A   1      33.105  21.452  23.868  1.00  0.00     0.037 A 
ATOM     83  C   UNL A   1      32.258  20.586  23.160  1.00  0.00     0.026 A 
ATOM     84  C   UNL A   1      34.086  20.886  24.687  1.00  0.00     0.026 A 
ATOM     85  C   UNL A   1      32.360  19.199  23.294  1.00  0.00     0.002 A 
ATOM     86  C   UNL A   1      34.182  19.499  24.840  1.00  0.00     0.002 A 
ATOM     87  C   UNL A   1      33.315  18.656  24.148  1.00  0.00     0.000 A 
ENDBRANCH  81  82
ENDBRANCH  74  75
BRANCH  74  88
ATOM     88  C   UNL A   1      30.556  27.031  23.520  1.00  0.00     0.046 A 
ATOM     89  C   UNL A   1      29.485  26.355  24.036  1.00  0.00     0.094 A 
ATOM     90  C   UNL A   1      29.961  28.212  22.934  1.00  0.00     0.009 A 
ATOM     91  N   UNL A   1      28.311  26.959  23.748  1.00  0.00    -0.361 N 
ATOM     92  C   UNL A   1      28.567  28.121  23.087  1.00  0.00     0.049 A 
ATOM     93  C   UNL A   1      30.454  29.336  22.245  1.00  0.00     0.014 A 
ATOM     94  H   UNL A   1      27.418  26.614  23.977  1.00  0.00     0.166 HD
ATOM     95  C   UNL A   1      27.652  29.059  22.607  1.00  0.00     0.065 A 
ATOM     96  C   UNL A   1      29.551  30.294  21.754  1.00  0.00     0.040 A 
ATOM     97  C   UNL A   1      28.181  30.147  21.935  1.00  0.00     0.125 A 
ATOM     98  F   UNL A   1      27.343  31.070  21.445  1.00  0.00    -0.207 F 
ENDBRANCH  74  88
ENDBRANCH  72  74
ENDBRANCH  71  72
ENDBRANCH  70  71
ENDBRANCH  69  70
ENDBRANCH  68  69
ENDBRANCH  67  68
ENDBRANCH  66  67
ENDBRANCH   1  66
TORSDOF 23
ENDMDL
MODEL 2
REMARK VINA RESULT:     -11.4      4.705      9.823
REMARK SMILES O=C(OCCOCCOCCOCCOC(=O)[C@H](c1c[nH]c2cc(F)ccc12)[NH+]1CCN(c2ccccc2)CC1)c1ccc(-c2c3nc(c(-c4c(F)cccc4F)c4ccc([nH]4)c(-c4c(F)cccc4F)c4nc(c(-c5c(F)cccc5F)c5ccc2[nH]5)C=C4)C=C3)cc1
REMARK SMILES IDX 9 1 8 2 7 3 6 4 5 5 4 6 3 7 2 8 1 9 41 10 42 11 94 12 43 13
REMARK SMILES IDX 93 14 44 15 45 16 46 17 87 18 47 19 92 20 86 21 88 22 48 23
REMARK SMILES IDX 91 24 85 25 84 26 49 28 75 29 58 30 74 31 59 32 62 33 73 34
REMARK SMILES IDX 89 35 60 36 61 37 72 39 90 40 63 41 50 42 51 43 56 44 52 45
REMARK SMILES IDX 53 46 55 47 57 48 54 49 76 50 77 51 82 52 78 53 79 54 81 55
REMARK SMILES IDX 83 56 80 57 64 58 65 59 70 60 66 61 67 62 69 63 71 64 68 65
REMARK SMILES IDX 10 66 11 67 12 68 13 69 14 70 15 71 16 72 17 73 18 74 29 75
REMARK SMILES IDX 30 76 40 77 31 79 39 80 32 81 33 82 34 83 38 84 35 85 37 86
REMARK SMILES IDX 36 87 19 88 20 89 28 90 21 91 22 92 27 93 23 95 26 96 24 97
REMARK SMILES IDX 25 98
REMARK H PARENT 88 27 62 38 29 78 21 94
REMARK Flexibility Score: inf
ROOT
ATOM      1  O   UNL A   1      38.458  21.148  25.496  1.00  0.00    -0.377 OA
ENDROOT
BRANCH   1   2
ATOM      2  C   UNL A   1      39.737  21.249  26.099  1.00  0.00     0.188 C 
BRANCH   2   3
ATOM      3  C   UNL A   1      39.996  22.555  26.872  1.00  0.00     0.188 C 
BRANCH   3   4
ATOM      4  O   UNL A   1      41.385  22.875  26.918  1.00  0.00    -0.376 OA
BRANCH   4   5
ATOM      5  C   UNL A   1      42.319  22.645  25.881  1.00  0.00     0.202 C 
BRANCH   5   6
ATOM      6  C   UNL A   1      43.207  23.780  25.405  1.00  0.00     0.261 C 
BRANCH   6   7
ATOM      7  O   UNL A   1      43.134  25.033  26.126  1.00  0.00    -0.460 OA
BRANCH   7   8
ATOM      8  C   UNL A   1      42.289  26.076  26.032  1.00  0.00     0.338 C 
ATOM      9  O   UNL A   1      41.934  26.466  24.904  1.00  0.00    -0.246 OA
BRANCH   8  10
ATOM     10  C   UNL A   1      41.832  26.869  27.198  1.00  0.00     0.060 A 
ATOM     11  C   UNL A   1      42.227  28.182  27.436  1.00  0.00     0.016 A 
ATOM     12  C   UNL A   1      40.822  26.353  28.008  1.00  0.00     0.016 A 
ATOM     13  C   UNL A   1      41.834  28.899  28.539  1.00  0.00     0.010 A 
ATOM     14  C   UNL A   1      40.314  27.112  29.067  1.00  0.00     0.010 A 
ATOM     15  C   UNL A   1      40.862  28.371  29.360  1.00  0.00    -0.014 A 
BRANCH  15  16
ATOM     16  C   UNL A   1      40.592  29.080  30.616  1.00  0.00     0.031 A 
ATOM     17  C   UNL A   1      39.413  29.994  30.621  1.00  0.00     0.074 A 
ATOM     18  C   UNL A   1      41.281  28.799  31.737  1.00  0.00     0.049 A 
ATOM     19  N   UNL A   1      39.106  30.940  31.457  1.00  0.00    -0.248 NA
ATOM     20  C   UNL A   1      38.455  29.831  29.509  1.00  0.00     0.031 C 
ATOM     21  C   UNL A   1      42.308  27.759  31.874  1.00  0.00     0.029 A 
ATOM     22  N   UNL A   1      41.203  29.349  32.985  1.00  0.00    -0.354 N 
ATOM     23  C   UNL A   1      37.985  31.555  30.916  1.00  0.00     0.074 A 
ATOM     24  C   UNL A   1      37.640  30.855  29.703  1.00  0.00     0.031 C 
ATOM     25  C   UNL A   1      42.749  27.737  33.142  1.00  0.00     0.029 A 
ATOM     26  C   UNL A   1      42.139  28.847  33.859  1.00  0.00     0.049 A 
ATOM     27  H   UNL A   1      40.543  30.036  33.235  1.00  0.00     0.167 HD
ATOM     28  C   UNL A   1      37.344  32.640  31.398  1.00  0.00     0.037 A 
ATOM     29  C   UNL A   1      42.516  29.310  35.064  1.00  0.00     0.037 A 
ATOM     30  C   UNL A   1      37.713  33.252  32.642  1.00  0.00     0.049 A 
ATOM     31  C   UNL A   1      41.845  30.566  35.549  1.00  0.00     0.074 A 
ATOM     32  C   UNL A   1      37.194  34.377  33.247  1.00  0.00     0.029 A 
ATOM     33  N   UNL A   1      38.706  32.757  33.482  1.00  0.00    -0.354 N 
ATOM     34  N   UNL A   1      40.873  31.251  34.988  1.00  0.00    -0.248 NA
ATOM     35  C   UNL A   1      42.344  31.143  36.800  1.00  0.00     0.031 C 
ATOM     36  C   UNL A   1      37.905  34.587  34.434  1.00  0.00     0.029 A 
ATOM     37  C   UNL A   1      38.831  33.564  34.593  1.00  0.00     0.049 A 
ATOM     38  H   UNL A   1      39.239  31.948  33.309  1.00  0.00     0.167 HD
ATOM     39  C   UNL A   1      40.638  32.335  35.818  1.00  0.00     0.074 A 
ATOM     40  C   UNL A   1      41.556  32.201  36.936  1.00  0.00     0.031 C 
ATOM     41  C   UNL A   1      39.760  33.359  35.678  1.00  0.00     0.037 A 
BRANCH  28  42
ATOM     42  C   UNL A   1      36.295  33.258  30.526  1.00  0.00     0.057 A 
ATOM     43  C   UNL A   1      36.599  34.010  29.385  1.00  0.00     0.134 A 
ATOM     44  C   UNL A   1      34.943  33.141  30.879  1.00  0.00     0.134 A 
ATOM     45  F   UNL A   1      37.875  34.200  29.016  1.00  0.00    -0.206 F 
ATOM     46  C   UNL A   1      35.601  34.644  28.641  1.00  0.00     0.040 A 
ATOM     47  C   UNL A   1      33.934  33.748  30.130  1.00  0.00     0.040 A 
ATOM     48  F   UNL A   1      34.583  32.452  31.972  1.00  0.00    -0.206 F 
ATOM     49  C   UNL A   1      34.263  34.509  29.010  1.00  0.00     0.006 A 
ENDBRANCH  28  42
BRANCH  29  50
ATOM     50  C   UNL A   1      43.639  28.676  35.806  1.00  0.00     0.057 A 
ATOM     51  C   UNL A   1      43.419  27.632  36.711  1.00  0.00     0.134 A 
ATOM     52  C   UNL A   1      44.964  29.108  35.642  1.00  0.00     0.134 A 
ATOM     53  F   UNL A   1      42.175  27.183  36.935  1.00  0.00    -0.206 F 
ATOM     54  C   UNL A   1      44.467  27.051  37.431  1.00  0.00     0.040 A 
ATOM     55  C   UNL A   1      46.025  28.515  36.329  1.00  0.00     0.040 A 
ATOM     56  F   UNL A   1      45.253  30.107  34.795  1.00  0.00    -0.206 F 
ATOM     57  C   UNL A   1      45.776  27.489  37.235  1.00  0.00     0.006 A 
ENDBRANCH  29  50
BRANCH  41  58
ATOM     58  C   UNL A   1      39.739  34.375  36.774  1.00  0.00     0.057 A 
ATOM     59  C   UNL A   1      39.033  34.156  37.961  1.00  0.00     0.134 A 
ATOM     60  C   UNL A   1      40.496  35.546  36.663  1.00  0.00     0.134 A 
ATOM     61  F   UNL A   1      38.279  33.057  38.114  1.00  0.00    -0.206 F 
ATOM     62  C   UNL A   1      39.073  35.081  39.004  1.00  0.00     0.040 A 
ATOM     63  C   UNL A   1      40.567  36.462  37.708  1.00  0.00     0.040 A 
ATOM     64  F   UNL A   1      41.200  35.799  35.549  1.00  0.00    -0.206 F 
ATOM     65  C   UNL A   1      39.851  36.231  38.882  1.00  0.00     0.006 A 
ENDBRANCH  41  58
ENDBRANCH  15  16
ENDBRANCH   8  10
ENDBRANCH   7   8
ENDBRANCH   6   7
ENDBRANCH   5   6
ENDBRANCH   4   5
ENDBRANCH   3   4
ENDBRANCH   2   3
ENDBRANCH   1   2
BRANCH   1  66
ATOM     66  C   UNL A   1      37.613  22.288  25.588  1.00  0.00     0.188 C 
BRANCH  66  67
ATOM     67  C   UNL A   1      36.151  21.878  25.772  1.00  0.00     0.188 C 
BRANCH  67  68
ATOM     68  O   UNL A   1      35.347  22.023  24.603  1.00  0.00    -0.376 OA
BRANCH  68  69
ATOM     69  C   UNL A   1      33.930  21.916  24.794  1.00  0.00     0.202 C 
BRANCH  69  70
ATOM     70  C   UNL A   1      33.044  21.967  23.525  1.00  0.00     0.261 C 
BRANCH  70  71
ATOM     71  O   UNL A   1      31.843  22.786  23.646  1.00  0.00    -0.459 OA
BRANCH  71  72
ATOM     72  C   UNL A   1      31.882  24.037  23.101  1.00  0.00     0.370 C 
ATOM     73  O   UNL A   1      32.454  24.270  22.033  1.00  0.00    -0.245 OA
BRANCH  72  74
ATOM     74  C   UNL A   1      31.076  25.164  23.842  1.00  0.00     0.328 C 
BRANCH  74  75
ATOM     75  N   UNL A   1      31.633  25.244  25.240  1.00  0.00    -0.316 N 
ATOM     76  C   UNL A   1      33.057  25.518  25.482  1.00  0.00     0.284 C 
ATOM     77  C   UNL A   1      30.850  26.155  26.112  1.00  0.00     0.284 C 
ATOM     78  H   UNL A   1      31.537  24.255  25.473  1.00  0.00     0.349 HD
ATOM     79  C   UNL A   1      33.498  26.968  25.227  1.00  0.00     0.178 C 
ATOM     80  C   UNL A   1      31.240  27.662  26.048  1.00  0.00     0.178 C 
ATOM     81  N   UNL A   1      32.695  27.846  26.070  1.00  0.00    -0.360 N 
BRANCH  81  82
ATOM     82  C   UNL A   1      33.336  28.874  26.722  1.00  0.00     0.037 A 
ATOM     83  C   UNL A   1      32.671  30.075  27.008  1.00  0.00     0.026 A 
ATOM     84  C   UNL A   1      34.706  28.804  26.985  1.00  0.00     0.026 A 
ATOM     85  C   UNL A   1      33.357  31.184  27.507  1.00  0.00     0.002 A 
ATOM     86  C   UNL A   1      35.403  29.916  27.467  1.00  0.00     0.002 A 
ATOM     87  C   UNL A   1      34.730  31.108  27.722  1.00  0.00     0.000 A 
ENDBRANCH  81  82
ENDBRANCH  74  75
BRANCH  74  88
ATOM     88  C   UNL A   1      30.882  26.491  23.122  1.00  0.00     0.046 A 
ATOM     89  C   UNL A   1      31.856  27.182  22.454  1.00  0.00     0.094 A 
ATOM     90  C   UNL A   1      29.736  27.371  23.053  1.00  0.00     0.009 A 
ATOM     91  N   UNL A   1      31.441  28.410  22.071  1.00  0.00    -0.361 N 
ATOM     92  C   UNL A   1      30.129  28.553  22.403  1.00  0.00     0.049 A 
ATOM     93  C   UNL A   1      28.407  27.310  23.515  1.00  0.00     0.014 A 
ATOM     94  H   UNL A   1      31.996  29.089  21.624  1.00  0.00     0.166 HD
ATOM     95  C   UNL A   1      29.301  29.656  22.190  1.00  0.00     0.065 A 
ATOM     96  C   UNL A   1      27.555  28.408  23.309  1.00  0.00     0.040 A 
ATOM     97  C   UNL A   1      28.004  29.552  22.661  1.00  0.00     0.125 A 
ATOM     98  F   UNL A   1      27.172  30.588  22.490  1.00  0.00    -0.207 F 
ENDBRANCH  74  88
ENDBRANCH  72  74
ENDBRANCH  71  72
ENDBRANCH  70  71
ENDBRANCH  69  70
ENDBRANCH  68  69
ENDBRANCH  67  68
ENDBRANCH  66  67
ENDBRANCH   1  66
TORSDOF 23
ENDMDL
MODEL 3
REMARK VINA RESULT:     -11.3      5.008     10.535
REMARK SMILES O=C(OCCOCCOCCOCCOC(=O)[C@H](c1c[nH]c2cc(F)ccc12)[NH+]1CCN(c2ccccc2)CC1)c1ccc(-c2c3nc(c(-c4c(F)cccc4F)c4ccc([nH]4)c(-c4c(F)cccc4F)c4nc(c(-c5c(F)cccc5F)c5ccc2[nH]5)C=C4)C=C3)cc1
REMARK SMILES IDX 9 1 8 2 7 3 6 4 5 5 4 6 3 7 2 8 1 9 41 10 42 11 94 12 43 13
REMARK SMILES IDX 93 14 44 15 45 16 46 17 87 18 47 19 92 20 86 21 88 22 48 23
REMARK SMILES IDX 91 24 85 25 84 26 49 28 75 29 58 30 74 31 59 32 62 33 73 34
REMARK SMILES IDX 89 35 60 36 61 37 72 39 90 40 63 41 50 42 51 43 56 44 52 45
REMARK SMILES IDX 53 46 55 47 57 48 54 49 76 50 77 51 82 52 78 53 79 54 81 55
REMARK SMILES IDX 83 56 80 57 64 58 65 59 70 60 66 61 67 62 69 63 71 64 68 65
REMARK SMILES IDX 10 66 11 67 12 68 13 69 14 70 15 71 16 72 17 73 18 74 29 75
REMARK SMILES IDX 30 76 40 77 31 79 39 80 32 81 33 82 34 83 38 84 35 85 37 86
REMARK SMILES IDX 36 87 19 88 20 89 28 90 21 91 22 92 27 93 23 95 26 96 24 97
REMARK SMILES IDX 25 98
REMARK H PARENT 88 27 62 38 29 78 21 94
REMARK Flexibility Score: inf
ROOT
ATOM      1  O   UNL A   1      41.531  19.568  25.581  1.00  0.00    -0.377 OA
ENDROOT
BRANCH   1   2
ATOM      2  C   UNL A   1      42.923  19.458  25.827  1.00  0.00     0.188 C 
BRANCH   2   3
ATOM      3  C   UNL A   1      43.793  20.547  25.172  1.00  0.00     0.188 C 
BRANCH   3   4
ATOM      4  O   UNL A   1      44.118  21.586  26.093  1.00  0.00    -0.376 OA
BRANCH   4   5
ATOM      5  C   UNL A   1      43.563  22.887  26.098  1.00  0.00     0.202 C 
BRANCH   5   6
ATOM      6  C   UNL A   1      44.481  24.095  26.123  1.00  0.00     0.261 C 
BRANCH   6   7
ATOM      7  O   UNL A   1      43.875  25.399  25.957  1.00  0.00    -0.460 OA
BRANCH   7   8
ATOM      8  C   UNL A   1      42.602  25.820  26.073  1.00  0.00     0.338 C 
ATOM      9  O   UNL A   1      41.806  25.597  25.143  1.00  0.00    -0.246 OA
BRANCH   8  10
ATOM     10  C   UNL A   1      42.110  26.639  27.207  1.00  0.00     0.060 A 
ATOM     11  C   UNL A   1      42.540  27.937  27.460  1.00  0.00     0.016 A 
ATOM     12  C   UNL A   1      41.036  26.167  27.960  1.00  0.00     0.016 A 
ATOM     13  C   UNL A   1      42.112  28.677  28.534  1.00  0.00     0.010 A 
ATOM     14  C   UNL A   1      40.497  26.953  28.984  1.00  0.00     0.010 A 
ATOM     15  C   UNL A   1      41.075  28.193  29.301  1.00  0.00    -0.014 A 
BRANCH  15  16
ATOM     16  C   UNL A   1      40.760  28.921  30.535  1.00  0.00     0.031 A 
ATOM     17  C   UNL A   1      39.563  29.810  30.493  1.00  0.00     0.074 A 
ATOM     18  C   UNL A   1      41.428  28.677  31.677  1.00  0.00     0.049 A 
ATOM     19  N   UNL A   1      39.216  30.765  31.302  1.00  0.00    -0.248 NA
ATOM     20  C   UNL A   1      38.635  29.604  29.363  1.00  0.00     0.031 C 
ATOM     21  C   UNL A   1      42.473  27.662  31.860  1.00  0.00     0.029 A 
ATOM     22  N   UNL A   1      41.308  29.251  32.912  1.00  0.00    -0.354 N 
ATOM     23  C   UNL A   1      38.096  31.346  30.722  1.00  0.00     0.074 A 
ATOM     24  C   UNL A   1      37.795  30.614  29.516  1.00  0.00     0.031 C 
ATOM     25  C   UNL A   1      42.884  27.676  33.138  1.00  0.00     0.029 A 
ATOM     26  C   UNL A   1      42.234  28.787  33.817  1.00  0.00     0.049 A 
ATOM     27  H   UNL A   1      40.629  29.929  33.131  1.00  0.00     0.167 HD
ATOM     28  C   UNL A   1      37.421  32.426  31.167  1.00  0.00     0.037 A 
ATOM     29  C   UNL A   1      42.573  29.282  35.021  1.00  0.00     0.037 A 
ATOM     30  C   UNL A   1      37.748  33.071  32.406  1.00  0.00     0.049 A 
ATOM     31  C   UNL A   1      41.864  30.533  35.464  1.00  0.00     0.074 A 
ATOM     32  C   UNL A   1      37.191  34.197  32.976  1.00  0.00     0.029 A 
ATOM     33  N   UNL A   1      38.730  32.614  33.280  1.00  0.00    -0.354 N 
ATOM     34  N   UNL A   1      40.891  31.185  34.866  1.00  0.00    -0.248 NA
ATOM     35  C   UNL A   1      42.321  31.145  36.714  1.00  0.00     0.031 C 
ATOM     36  C   UNL A   1      37.868  34.445  34.175  1.00  0.00     0.029 A 
ATOM     37  C   UNL A   1      38.812  33.446  34.376  1.00  0.00     0.049 A 
ATOM     38  H   UNL A   1      39.284  31.813  33.136  1.00  0.00     0.167 HD
ATOM     39  C   UNL A   1      40.614  32.280  35.668  1.00  0.00     0.074 A 
ATOM     40  C   UNL A   1      41.508  32.189  36.809  1.00  0.00     0.031 C 
ATOM     41  C   UNL A   1      39.719  33.282  35.486  1.00  0.00     0.037 A 
BRANCH  28  42
ATOM     42  C   UNL A   1      36.381  33.004  30.257  1.00  0.00     0.057 A 
ATOM     43  C   UNL A   1      36.695  33.787  29.141  1.00  0.00     0.134 A 
ATOM     44  C   UNL A   1      35.022  32.814  30.550  1.00  0.00     0.134 A 
ATOM     45  F   UNL A   1      37.975  34.046  28.831  1.00  0.00    -0.206 F 
ATOM     46  C   UNL A   1      35.698  34.381  28.362  1.00  0.00     0.040 A 
ATOM     47  C   UNL A   1      34.017  33.381  29.765  1.00  0.00     0.040 A 
ATOM     48  F   UNL A   1      34.651  32.091  31.617  1.00  0.00    -0.206 F 
ATOM     49  C   UNL A   1      34.355  34.174  28.671  1.00  0.00     0.006 A 
ENDBRANCH  28  42
BRANCH  29  50
ATOM     50  C   UNL A   1      43.690  28.687  35.803  1.00  0.00     0.057 A 
ATOM     51  C   UNL A   1      45.007  29.134  35.651  1.00  0.00     0.134 A 
ATOM     52  C   UNL A   1      43.473  27.642  36.714  1.00  0.00     0.134 A 
ATOM     53  F   UNL A   1      45.291  30.115  34.781  1.00  0.00    -0.206 F 
ATOM     54  C   UNL A   1      46.064  28.560  36.363  1.00  0.00     0.040 A 
ATOM     55  C   UNL A   1      44.514  27.081  37.457  1.00  0.00     0.040 A 
ATOM     56  F   UNL A   1      42.238  27.157  36.910  1.00  0.00    -0.206 F 
ATOM     57  C   UNL A   1      45.817  27.534  37.274  1.00  0.00     0.006 A 
ENDBRANCH  29  50
BRANCH  41  58
ATOM     58  C   UNL A   1      39.650  34.320  36.560  1.00  0.00     0.057 A 
ATOM     59  C   UNL A   1      38.904  34.119  37.726  1.00  0.00     0.134 A 
ATOM     60  C   UNL A   1      40.402  35.495  36.453  1.00  0.00     0.134 A 
ATOM     61  F   UNL A   1      38.154  33.017  37.873  1.00  0.00    -0.206 F 
ATOM     62  C   UNL A   1      38.899  35.064  38.751  1.00  0.00     0.040 A 
ATOM     63  C   UNL A   1      40.428  36.432  37.481  1.00  0.00     0.040 A 
ATOM     64  F   UNL A   1      41.144  35.732  35.360  1.00  0.00    -0.206 F 
ATOM     65  C   UNL A   1      39.672  36.218  38.634  1.00  0.00     0.006 A 
ENDBRANCH  41  58
ENDBRANCH  15  16
ENDBRANCH   8  10
ENDBRANCH   7   8
ENDBRANCH   6   7
ENDBRANCH   5   6
ENDBRANCH   4   5
ENDBRANCH   3   4
ENDBRANCH   2   3
ENDBRANCH   1   2
BRANCH   1  66
ATOM     66  C   UNL A   1      40.800  20.457  26.418  1.00  0.00     0.188 C 
BRANCH  66  67
ATOM     67  C   UNL A   1      39.374  20.654  25.899  1.00  0.00     0.188 C 
BRANCH  67  68
ATOM     68  O   UNL A   1      38.848  21.963  26.107  1.00  0.00    -0.376 OA
BRANCH  68  69
ATOM     69  C   UNL A   1      37.543  22.213  25.567  1.00  0.00     0.202 C 
BRANCH  69  70
ATOM     70  C   UNL A   1      37.325  23.570  24.854  1.00  0.00     0.261 C 
BRANCH  70  71
ATOM     71  O   UNL A   1      35.943  24.033  24.822  1.00  0.00    -0.459 OA
BRANCH  71  72
ATOM     72  C   UNL A   1      35.089  23.395  23.969  1.00  0.00     0.370 C 
ATOM     73  O   UNL A   1      35.457  22.965  22.872  1.00  0.00    -0.245 OA
BRANCH  72  74
ATOM     74  C   UNL A   1      33.626  23.138  24.481  1.00  0.00     0.328 C 
BRANCH  74  75
ATOM     75  N   UNL A   1      32.705  23.465  23.334  1.00  0.00    -0.316 N 
ATOM     76  C   UNL A   1      31.244  23.453  23.499  1.00  0.00     0.284 C 
ATOM     77  C   UNL A   1      33.065  24.739  22.662  1.00  0.00     0.284 C 
ATOM     78  H   UNL A   1      32.889  22.630  22.778  1.00  0.00     0.349 HD
ATOM     79  C   UNL A   1      30.664  24.631  24.299  1.00  0.00     0.178 C 
ATOM     80  C   UNL A   1      32.473  26.034  23.293  1.00  0.00     0.178 C 
ATOM     81  N   UNL A   1      31.057  25.869  23.638  1.00  0.00    -0.360 N 
BRANCH  81  82
ATOM     82  C   UNL A   1      30.108  26.857  23.506  1.00  0.00     0.037 A 
ATOM     83  C   UNL A   1      28.775  26.635  23.883  1.00  0.00     0.026 A 
ATOM     84  C   UNL A   1      30.416  28.056  22.858  1.00  0.00     0.026 A 
ATOM     85  C   UNL A   1      27.773  27.563  23.590  1.00  0.00     0.002 A 
ATOM     86  C   UNL A   1      29.415  28.981  22.545  1.00  0.00     0.002 A 
ATOM     87  C   UNL A   1      28.093  28.732  22.906  1.00  0.00     0.000 A 
ENDBRANCH  81  82
ENDBRANCH  74  75
BRANCH  74  88
ATOM     88  C   UNL A   1      33.348  21.832  25.212  1.00  0.00     0.046 A 
ATOM     89  C   UNL A   1      33.464  21.636  26.561  1.00  0.00     0.094 A 
ATOM     90  C   UNL A   1      33.024  20.515  24.705  1.00  0.00     0.009 A 
ATOM     91  N   UNL A   1      33.330  20.335  26.902  1.00  0.00    -0.361 N 
ATOM     92  C   UNL A   1      33.035  19.616  25.785  1.00  0.00     0.049 A 
ATOM     93  C   UNL A   1      32.765  19.977  23.430  1.00  0.00     0.014 A 
ATOM     94  H   UNL A   1      33.429  19.968  27.810  1.00  0.00     0.166 HD
ATOM     95  C   UNL A   1      32.809  18.244  25.677  1.00  0.00     0.065 A 
ATOM     96  C   UNL A   1      32.533  18.597  23.299  1.00  0.00     0.040 A 
ATOM     97  C   UNL A   1      32.559  17.758  24.406  1.00  0.00     0.125 A 
ATOM     98  F   UNL A   1      32.347  16.445  24.248  1.00  0.00    -0.207 F 
ENDBRANCH  74  88
ENDBRANCH  72  74
ENDBRANCH  71  72
ENDBRANCH  70  71
ENDBRANCH  69  70
ENDBRANCH  68  69
ENDBRANCH  67  68
ENDBRANCH  66  67
ENDBRANCH   1  66
TORSDOF 23
ENDMDL
