MODEL 1
REMARK VINA RESULT:      -9.9      0.000      0.000
REMARK SMILES C[C@H](C(=O)OCCOCCOCCOCCOC(=O)c1ccc(-c2c3nc(c(-c4c(F)cccc4F)c4ccc([nH]4)c(-c4c(F)cccc4F)c4nc(c(-c5c(F)cccc5F)c5ccc2[nH]5)C=C4)C=C3)cc1)[C@H](C)[NH+]1CCN(S(C)(=O)=O)CC1
REMARK SMILES IDX 10 1 9 2 8 3 7 4 6 5 5 6 3 7 4 8 2 9 1 10 74 11 75 12 76 13
REMARK SMILES IDX 77 14 85 15 78 17 84 18 79 19 80 20 81 21 82 22 83 23 11 24
REMARK SMILES IDX 12 25 13 26 14 27 15 28 16 29 17 30 18 31 19 32 20 33 21 34
REMARK SMILES IDX 73 35 22 36 72 37 23 38 24 39 25 40 66 41 26 42 71 43 65 44
REMARK SMILES IDX 67 45 27 46 70 47 64 48 63 49 28 51 54 52 37 53 53 54 38 55
REMARK SMILES IDX 41 56 52 57 68 58 39 59 40 60 51 62 69 63 42 64 29 65 30 66
REMARK SMILES IDX 35 67 31 68 32 69 34 70 36 71 33 72 55 73 56 74 61 75 57 76
REMARK SMILES IDX 58 77 60 78 62 79 59 80 43 81 44 82 49 83 45 84 46 85 48 86
REMARK SMILES IDX 50 87 47 88
REMARK H PARENT 76 16 67 50 41 61
REMARK Flexibility Score: inf
ROOT
ATOM      1  C   UNL A   1      40.781  21.459  27.582  1.00  0.00     0.188 C 
ENDROOT
BRANCH   1   2
ATOM      2  C   UNL A   1      40.170  21.999  26.275  1.00  0.00     0.188 C 
BRANCH   2   3
ATOM      3  O   UNL A   1      38.824  21.591  26.106  1.00  0.00    -0.376 OA
BRANCH   3   4
ATOM      4  C   UNL A   1      37.877  22.543  25.641  1.00  0.00     0.202 C 
BRANCH   4   5
ATOM      5  C   UNL A   1      36.499  22.163  25.044  1.00  0.00     0.261 C 
BRANCH   5   6
ATOM      6  O   UNL A   1      35.298  22.449  25.786  1.00  0.00    -0.463 OA
BRANCH   6   7
ATOM      7  C   UNL A   1      34.426  21.437  26.026  1.00  0.00     0.314 C 
ATOM      8  O   UNL A   1      34.003  21.197  27.141  1.00  0.00    -0.252 OA
BRANCH   7   9
ATOM      9  C   UNL A   1      34.102  20.696  24.719  1.00  0.00     0.154 C 
ATOM     10  C   UNL A   1      34.711  19.296  24.814  1.00  0.00     0.026 C 
BRANCH   9  11
ATOM     11  C   UNL A   1      32.658  20.759  24.075  1.00  0.00     0.195 C 
ATOM     12  C   UNL A   1      32.230  19.433  23.402  1.00  0.00     0.076 C 
BRANCH  11  13
ATOM     13  N   UNL A   1      32.087  21.909  23.354  1.00  0.00    -0.330 N 
ATOM     14  C   UNL A   1      31.476  22.972  24.145  1.00  0.00     0.279 C 
ATOM     15  C   UNL A   1      32.790  22.486  22.199  1.00  0.00     0.279 C 
ATOM     16  H   UNL A   1      31.343  21.344  22.945  1.00  0.00     0.348 HD
ATOM     17  C   UNL A   1      32.434  24.093  24.583  1.00  0.00     0.163 C 
ATOM     18  C   UNL A   1      33.831  23.553  22.545  1.00  0.00     0.163 C 
ATOM     19  N   UNL A   1      33.285  24.582  23.466  1.00  0.00    -0.191 NA
BRANCH  19  20
ATOM     20  S   UNL A   1      33.056  26.151  22.933  1.00  0.00     0.211 S 
ATOM     21  C   UNL A   1      33.803  27.075  24.255  1.00  0.00     0.176 C 
ATOM     22  O   UNL A   1      33.865  26.349  21.755  1.00  0.00    -0.212 OA
ATOM     23  O   UNL A   1      31.633  26.445  22.930  1.00  0.00    -0.212 OA
ENDBRANCH  19  20
ENDBRANCH  11  13
ENDBRANCH   9  11
ENDBRANCH   7   9
ENDBRANCH   6   7
ENDBRANCH   5   6
ENDBRANCH   4   5
ENDBRANCH   3   4
ENDBRANCH   2   3
ENDBRANCH   1   2
BRANCH   1  24
ATOM     24  O   UNL A   1      40.823  20.041  27.579  1.00  0.00    -0.377 OA
BRANCH  24  25
ATOM     25  C   UNL A   1      42.120  19.492  27.416  1.00  0.00     0.188 C 
BRANCH  25  26
ATOM     26  C   UNL A   1      42.447  18.716  26.118  1.00  0.00     0.188 C 
BRANCH  26  27
ATOM     27  O   UNL A   1      43.069  19.505  25.117  1.00  0.00    -0.376 OA
BRANCH  27  28
ATOM     28  C   UNL A   1      44.038  20.494  25.390  1.00  0.00     0.202 C 
BRANCH  28  29
ATOM     29  C   UNL A   1      43.789  21.985  25.113  1.00  0.00     0.261 C 
BRANCH  29  30
ATOM     30  O   UNL A   1      44.197  22.923  26.107  1.00  0.00    -0.460 OA
BRANCH  30  31
ATOM     31  C   UNL A   1      44.470  24.183  25.709  1.00  0.00     0.338 C 
ATOM     32  O   UNL A   1      45.060  24.523  24.697  1.00  0.00    -0.246 OA
BRANCH  31  33
ATOM     33  C   UNL A   1      43.715  25.089  26.605  1.00  0.00     0.060 A 
ATOM     34  C   UNL A   1      44.028  26.455  26.600  1.00  0.00     0.016 A 
ATOM     35  C   UNL A   1      42.637  24.614  27.359  1.00  0.00     0.016 A 
ATOM     36  C   UNL A   1      43.271  27.350  27.355  1.00  0.00     0.010 A 
ATOM     37  C   UNL A   1      41.909  25.502  28.155  1.00  0.00     0.010 A 
ATOM     38  C   UNL A   1      42.247  26.866  28.177  1.00  0.00    -0.014 A 
BRANCH  38  39
ATOM     39  C   UNL A   1      41.733  27.733  29.260  1.00  0.00     0.031 A 
ATOM     40  C   UNL A   1      42.456  27.681  30.578  1.00  0.00     0.074 A 
ATOM     41  C   UNL A   1      40.688  28.559  29.083  1.00  0.00     0.049 A 
ATOM     42  N   UNL A   1      42.191  28.296  31.700  1.00  0.00    -0.248 NA
ATOM     43  C   UNL A   1      43.645  26.812  30.633  1.00  0.00     0.031 C 
ATOM     44  C   UNL A   1      39.948  28.737  27.836  1.00  0.00     0.029 A 
ATOM     45  N   UNL A   1      40.070  29.403  29.970  1.00  0.00    -0.354 N 
ATOM     46  C   UNL A   1      43.172  27.882  32.592  1.00  0.00     0.074 A 
ATOM     47  C   UNL A   1      44.019  26.942  31.894  1.00  0.00     0.031 C 
ATOM     48  C   UNL A   1      38.960  29.627  28.043  1.00  0.00     0.029 A 
ATOM     49  C   UNL A   1      38.981  30.053  29.443  1.00  0.00     0.049 A 
ATOM     50  H   UNL A   1      40.376  29.531  30.897  1.00  0.00     0.167 HD
ATOM     51  C   UNL A   1      43.353  28.256  33.877  1.00  0.00     0.037 A 
ATOM     52  C   UNL A   1      38.094  30.875  30.037  1.00  0.00     0.037 A 
ATOM     53  C   UNL A   1      42.502  29.185  34.569  1.00  0.00     0.049 A 
ATOM     54  C   UNL A   1      38.264  31.207  31.499  1.00  0.00     0.074 A 
ATOM     55  C   UNL A   1      42.602  29.641  35.870  1.00  0.00     0.029 A 
ATOM     56  N   UNL A   1      41.384  29.790  34.014  1.00  0.00    -0.354 N 
ATOM     57  N   UNL A   1      39.205  30.829  32.333  1.00  0.00    -0.248 NA
ATOM     58  C   UNL A   1      37.248  32.081  32.103  1.00  0.00     0.031 C 
ATOM     59  C   UNL A   1      41.509  30.474  36.122  1.00  0.00     0.029 A 
ATOM     60  C   UNL A   1      40.767  30.592  34.958  1.00  0.00     0.049 A 
ATOM     61  H   UNL A   1      41.076  29.668  33.087  1.00  0.00     0.167 HD
ATOM     62  C   UNL A   1      38.915  31.448  33.544  1.00  0.00     0.074 A 
ATOM     63  C   UNL A   1      37.716  32.233  33.334  1.00  0.00     0.031 C 
ATOM     64  C   UNL A   1      39.579  31.376  34.724  1.00  0.00     0.037 A 
BRANCH  51  65
ATOM     65  C   UNL A   1      44.492  27.626  34.625  1.00  0.00     0.057 A 
ATOM     66  C   UNL A   1      44.405  26.338  35.167  1.00  0.00     0.134 A 
ATOM     67  C   UNL A   1      45.698  28.319  34.794  1.00  0.00     0.134 A 
ATOM     68  F   UNL A   1      43.269  25.630  35.062  1.00  0.00    -0.206 F 
ATOM     69  C   UNL A   1      45.469  25.769  35.870  1.00  0.00     0.040 A 
ATOM     70  C   UNL A   1      46.778  27.749  35.468  1.00  0.00     0.040 A 
ATOM     71  F   UNL A   1      45.846  29.559  34.304  1.00  0.00    -0.206 F 
ATOM     72  C   UNL A   1      46.663  26.472  36.014  1.00  0.00     0.006 A 
ENDBRANCH  51  65
BRANCH  52  73
ATOM     73  C   UNL A   1      36.952  31.432  29.266  1.00  0.00     0.057 A 
ATOM     74  C   UNL A   1      35.830  30.651  28.961  1.00  0.00     0.134 A 
ATOM     75  C   UNL A   1      36.971  32.745  28.781  1.00  0.00     0.134 A 
ATOM     76  F   UNL A   1      35.762  29.377  29.373  1.00  0.00    -0.206 F 
ATOM     77  C   UNL A   1      34.781  31.147  28.184  1.00  0.00     0.040 A 
ATOM     78  C   UNL A   1      35.916  33.264  28.027  1.00  0.00     0.040 A 
ATOM     79  F   UNL A   1      38.016  33.546  29.035  1.00  0.00    -0.206 F 
ATOM     80  C   UNL A   1      34.821  32.460  27.719  1.00  0.00     0.006 A 
ENDBRANCH  52  73
BRANCH  64  81
ATOM     81  C   UNL A   1      39.060  32.203  35.866  1.00  0.00     0.057 A 
ATOM     82  C   UNL A   1      38.212  31.672  36.846  1.00  0.00     0.134 A 
ATOM     83  C   UNL A   1      39.457  33.540  36.010  1.00  0.00     0.134 A 
ATOM     84  F   UNL A   1      37.787  30.403  36.762  1.00  0.00    -0.206 F 
ATOM     85  C   UNL A   1      37.757  32.447  37.914  1.00  0.00     0.040 A 
ATOM     86  C   UNL A   1      39.036  34.315  37.092  1.00  0.00     0.040 A 
ATOM     87  F   UNL A   1      40.280  34.108  35.116  1.00  0.00    -0.206 F 
ATOM     88  C   UNL A   1      38.177  33.771  38.043  1.00  0.00     0.006 A 
ENDBRANCH  64  81
ENDBRANCH  38  39
ENDBRANCH  31  33
ENDBRANCH  30  31
ENDBRANCH  29  30
ENDBRANCH  28  29
ENDBRANCH  27  28
ENDBRANCH  26  27
ENDBRANCH  25  26
ENDBRANCH  24  25
ENDBRANCH   1  24
TORSDOF 23
ENDMDL
MODEL 2
REMARK VINA RESULT:      -9.7      1.289      2.749
REMARK SMILES C[C@H](C(=O)OCCOCCOCCOCCOC(=O)c1ccc(-c2c3nc(c(-c4c(F)cccc4F)c4ccc([nH]4)c(-c4c(F)cccc4F)c4nc(c(-c5c(F)cccc5F)c5ccc2[nH]5)C=C4)C=C3)cc1)[C@H](C)[NH+]1CCN(S(C)(=O)=O)CC1
REMARK SMILES IDX 10 1 9 2 8 3 7 4 6 5 5 6 3 7 4 8 2 9 1 10 74 11 75 12 76 13
REMARK SMILES IDX 77 14 85 15 78 17 84 18 79 19 80 20 81 21 82 22 83 23 11 24
REMARK SMILES IDX 12 25 13 26 14 27 15 28 16 29 17 30 18 31 19 32 20 33 21 34
REMARK SMILES IDX 73 35 22 36 72 37 23 38 24 39 25 40 66 41 26 42 71 43 65 44
REMARK SMILES IDX 67 45 27 46 70 47 64 48 63 49 28 51 54 52 37 53 53 54 38 55
REMARK SMILES IDX 41 56 52 57 68 58 39 59 40 60 51 62 69 63 42 64 29 65 30 66
REMARK SMILES IDX 35 67 31 68 32 69 34 70 36 71 33 72 55 73 56 74 61 75 57 76
REMARK SMILES IDX 58 77 60 78 62 79 59 80 43 81 44 82 49 83 45 84 46 85 48 86
REMARK SMILES IDX 50 87 47 88
REMARK H PARENT 76 16 67 50 41 61
REMARK Flexibility Score: inf
ROOT
ATOM      1  C   UNL A   1      40.499  21.602  27.477  1.00  0.00     0.188 C 
ENDROOT
BRANCH   1   2
ATOM      2  C   UNL A   1      39.952  22.245  26.189  1.00  0.00     0.188 C 
BRANCH   2   3
ATOM      3  O   UNL A   1      38.536  22.210  26.134  1.00  0.00    -0.376 OA
BRANCH   3   4
ATOM      4  C   UNL A   1      37.839  23.388  25.752  1.00  0.00     0.202 C 
BRANCH   4   5
ATOM      5  C   UNL A   1      36.300  23.463  25.590  1.00  0.00     0.261 C 
BRANCH   5   6
ATOM      6  O   UNL A   1      35.707  23.211  24.302  1.00  0.00    -0.463 OA
BRANCH   6   7
ATOM      7  C   UNL A   1      34.743  24.056  23.855  1.00  0.00     0.314 C 
ATOM      8  O   UNL A   1      34.636  24.352  22.680  1.00  0.00    -0.252 OA
BRANCH   7   9
ATOM      9  C   UNL A   1      33.878  24.541  25.029  1.00  0.00     0.154 C 
ATOM     10  C   UNL A   1      34.329  25.958  25.385  1.00  0.00     0.026 C 
BRANCH   9  11
ATOM     11  C   UNL A   1      32.313  24.309  25.047  1.00  0.00     0.195 C 
ATOM     12  C   UNL A   1      31.558  25.298  25.968  1.00  0.00     0.076 C 
BRANCH  11  13
ATOM     13  N   UNL A   1      31.637  23.000  25.035  1.00  0.00    -0.330 N 
ATOM     14  C   UNL A   1      31.484  22.326  23.750  1.00  0.00     0.279 C 
ATOM     15  C   UNL A   1      31.911  22.013  26.089  1.00  0.00     0.279 C 
ATOM     16  H   UNL A   1      30.739  23.408  25.294  1.00  0.00     0.348 HD
ATOM     17  C   UNL A   1      32.649  21.402  23.355  1.00  0.00     0.163 C 
ATOM     18  C   UNL A   1      33.112  21.102  25.824  1.00  0.00     0.163 C 
ATOM     19  N   UNL A   1      33.064  20.503  24.465  1.00  0.00    -0.191 NA
BRANCH  19  20
ATOM     20  S   UNL A   1      32.818  18.859  24.279  1.00  0.00     0.211 S 
ATOM     21  C   UNL A   1      34.484  18.249  24.389  1.00  0.00     0.176 C 
ATOM     22  O   UNL A   1      32.103  18.377  25.435  1.00  0.00    -0.212 OA
ATOM     23  O   UNL A   1      32.337  18.605  22.932  1.00  0.00    -0.212 OA
ENDBRANCH  19  20
ENDBRANCH  11  13
ENDBRANCH   9  11
ENDBRANCH   7   9
ENDBRANCH   6   7
ENDBRANCH   5   6
ENDBRANCH   4   5
ENDBRANCH   3   4
ENDBRANCH   2   3
ENDBRANCH   1   2
BRANCH   1  24
ATOM     24  O   UNL A   1      40.486  20.187  27.387  1.00  0.00    -0.377 OA
BRANCH  24  25
ATOM     25  C   UNL A   1      41.771  19.592  27.306  1.00  0.00     0.188 C 
BRANCH  25  26
ATOM     26  C   UNL A   1      42.146  18.785  26.039  1.00  0.00     0.188 C 
BRANCH  26  27
ATOM     27  O   UNL A   1      42.774  19.559  25.031  1.00  0.00    -0.376 OA
BRANCH  27  28
ATOM     28  C   UNL A   1      43.770  20.524  25.291  1.00  0.00     0.202 C 
BRANCH  28  29
ATOM     29  C   UNL A   1      43.510  22.032  25.146  1.00  0.00     0.261 C 
BRANCH  29  30
ATOM     30  O   UNL A   1      44.202  22.914  26.028  1.00  0.00    -0.460 OA
BRANCH  30  31
ATOM     31  C   UNL A   1      44.414  24.180  25.612  1.00  0.00     0.338 C 
ATOM     32  O   UNL A   1      44.958  24.534  24.580  1.00  0.00    -0.246 OA
BRANCH  31  33
ATOM     33  C   UNL A   1      43.655  25.064  26.527  1.00  0.00     0.060 A 
ATOM     34  C   UNL A   1      43.786  26.452  26.384  1.00  0.00     0.016 A 
ATOM     35  C   UNL A   1      42.739  24.531  27.439  1.00  0.00     0.016 A 
ATOM     36  C   UNL A   1      43.011  27.312  27.160  1.00  0.00     0.010 A 
ATOM     37  C   UNL A   1      41.998  25.392  28.252  1.00  0.00     0.010 A 
ATOM     38  C   UNL A   1      42.157  26.783  28.134  1.00  0.00    -0.014 A 
BRANCH  38  39
ATOM     39  C   UNL A   1      41.661  27.674  29.207  1.00  0.00     0.031 A 
ATOM     40  C   UNL A   1      42.386  27.626  30.524  1.00  0.00     0.074 A 
ATOM     41  C   UNL A   1      40.632  28.516  29.020  1.00  0.00     0.049 A 
ATOM     42  N   UNL A   1      42.135  28.260  31.638  1.00  0.00    -0.248 NA
ATOM     43  C   UNL A   1      43.559  26.736  30.588  1.00  0.00     0.031 C 
ATOM     44  C   UNL A   1      39.892  28.692  27.773  1.00  0.00     0.029 A 
ATOM     45  N   UNL A   1      40.031  29.384  29.897  1.00  0.00    -0.354 N 
ATOM     46  C   UNL A   1      43.109  27.839  32.534  1.00  0.00     0.074 A 
ATOM     47  C   UNL A   1      43.938  26.876  31.846  1.00  0.00     0.031 C 
ATOM     48  C   UNL A   1      38.922  29.603  27.970  1.00  0.00     0.029 A 
ATOM     49  C   UNL A   1      38.954  30.046  29.363  1.00  0.00     0.049 A 
ATOM     50  H   UNL A   1      40.342  29.518  30.822  1.00  0.00     0.167 HD
ATOM     51  C   UNL A   1      43.300  28.228  33.814  1.00  0.00     0.037 A 
ATOM     52  C   UNL A   1      38.083  30.893  29.948  1.00  0.00     0.037 A 
ATOM     53  C   UNL A   1      42.468  29.181  34.495  1.00  0.00     0.049 A 
ATOM     54  C   UNL A   1      38.262  31.241  31.406  1.00  0.00     0.074 A 
ATOM     55  C   UNL A   1      42.579  29.652  35.789  1.00  0.00     0.029 A 
ATOM     56  N   UNL A   1      41.360  29.799  33.934  1.00  0.00    -0.354 N 
ATOM     57  N   UNL A   1      39.197  30.857  32.243  1.00  0.00    -0.248 NA
ATOM     58  C   UNL A   1      37.264  32.142  31.999  1.00  0.00     0.031 C 
ATOM     59  C   UNL A   1      41.502  30.509  36.032  1.00  0.00     0.029 A 
ATOM     60  C   UNL A   1      40.759  30.625  34.868  1.00  0.00     0.049 A 
ATOM     61  H   UNL A   1      41.048  29.670  33.008  1.00  0.00     0.167 HD
ATOM     62  C   UNL A   1      38.921  31.496  33.446  1.00  0.00     0.074 A 
ATOM     63  C   UNL A   1      37.737  32.300  33.228  1.00  0.00     0.031 C 
ATOM     64  C   UNL A   1      39.587  31.428  34.626  1.00  0.00     0.037 A 
BRANCH  51  65
ATOM     65  C   UNL A   1      44.428  27.587  34.568  1.00  0.00     0.057 A 
ATOM     66  C   UNL A   1      44.266  26.389  35.276  1.00  0.00     0.134 A 
ATOM     67  C   UNL A   1      45.700  28.174  34.574  1.00  0.00     0.134 A 
ATOM     68  F   UNL A   1      43.067  25.788  35.330  1.00  0.00    -0.206 F 
ATOM     69  C   UNL A   1      45.322  25.810  35.982  1.00  0.00     0.040 A 
ATOM     70  C   UNL A   1      46.771  27.589  35.251  1.00  0.00     0.040 A 
ATOM     71  F   UNL A   1      45.923  29.324  33.920  1.00  0.00    -0.206 F 
ATOM     72  C   UNL A   1      46.581  26.406  35.963  1.00  0.00     0.006 A 
ENDBRANCH  51  65
BRANCH  52  73
ATOM     73  C   UNL A   1      36.950  31.461  29.172  1.00  0.00     0.057 A 
ATOM     74  C   UNL A   1      36.965  32.788  28.727  1.00  0.00     0.134 A 
ATOM     75  C   UNL A   1      35.806  30.703  28.891  1.00  0.00     0.134 A 
ATOM     76  F   UNL A   1      38.019  33.575  28.988  1.00  0.00    -0.206 F 
ATOM     77  C   UNL A   1      35.879  33.348  28.053  1.00  0.00     0.040 A 
ATOM     78  C   UNL A   1      34.724  31.240  28.192  1.00  0.00     0.040 A 
ATOM     79  F   UNL A   1      35.725  29.425  29.290  1.00  0.00    -0.206 F 
ATOM     80  C   UNL A   1      34.754  32.571  27.779  1.00  0.00     0.006 A 
ENDBRANCH  52  73
BRANCH  64  81
ATOM     81  C   UNL A   1      39.084  32.280  35.757  1.00  0.00     0.057 A 
ATOM     82  C   UNL A   1      39.399  33.641  35.862  1.00  0.00     0.134 A 
ATOM     83  C   UNL A   1      38.231  31.737  36.727  1.00  0.00     0.134 A 
ATOM     84  F   UNL A   1      40.218  34.220  34.972  1.00  0.00    -0.206 F 
ATOM     85  C   UNL A   1      38.904  34.424  36.906  1.00  0.00     0.040 A 
ATOM     86  C   UNL A   1      37.703  32.518  37.756  1.00  0.00     0.040 A 
ATOM     87  F   UNL A   1      37.876  30.444  36.679  1.00  0.00    -0.206 F 
ATOM     88  C   UNL A   1      38.046  33.864  37.852  1.00  0.00     0.006 A 
ENDBRANCH  64  81
ENDBRANCH  38  39
ENDBRANCH  31  33
ENDBRANCH  30  31
ENDBRANCH  29  30
ENDBRANCH  28  29
ENDBRANCH  27  28
ENDBRANCH  26  27
ENDBRANCH  25  26
ENDBRANCH  24  25
ENDBRANCH   1  24
TORSDOF 23
ENDMDL
MODEL 3
REMARK VINA RESULT:      -9.3      4.589     10.182
REMARK SMILES C[C@H](C(=O)OCCOCCOCCOCCOC(=O)c1ccc(-c2c3nc(c(-c4c(F)cccc4F)c4ccc([nH]4)c(-c4c(F)cccc4F)c4nc(c(-c5c(F)cccc5F)c5ccc2[nH]5)C=C4)C=C3)cc1)[C@H](C)[NH+]1CCN(S(C)(=O)=O)CC1
REMARK SMILES IDX 10 1 9 2 8 3 7 4 6 5 5 6 3 7 4 8 2 9 1 10 74 11 75 12 76 13
REMARK SMILES IDX 77 14 85 15 78 17 84 18 79 19 80 20 81 21 82 22 83 23 11 24
REMARK SMILES IDX 12 25 13 26 14 27 15 28 16 29 17 30 18 31 19 32 20 33 21 34
REMARK SMILES IDX 73 35 22 36 72 37 23 38 24 39 25 40 66 41 26 42 71 43 65 44
REMARK SMILES IDX 67 45 27 46 70 47 64 48 63 49 28 51 54 52 37 53 53 54 38 55
REMARK SMILES IDX 41 56 52 57 68 58 39 59 40 60 51 62 69 63 42 64 29 65 30 66
REMARK SMILES IDX 35 67 31 68 32 69 34 70 36 71 33 72 55 73 56 74 61 75 57 76
REMARK SMILES IDX 58 77 60 78 62 79 59 80 43 81 44 82 49 83 45 84 46 85 48 86
REMARK SMILES IDX 50 87 47 88
REMARK H PARENT 76 16 67 50 41 61
REMARK Flexibility Score: inf
ROOT
ATOM      1  C   UNL A   1      35.081  30.968  27.694  1.00  0.00     0.188 C 
ENDROOT
BRANCH   1   2
ATOM      2  C   UNL A   1      34.165  29.807  27.262  1.00  0.00     0.188 C 
BRANCH   2   3
ATOM      3  O   UNL A   1      32.819  30.218  27.103  1.00  0.00    -0.376 OA
BRANCH   3   4
ATOM      4  C   UNL A   1      31.796  29.232  27.140  1.00  0.00     0.202 C 
BRANCH   4   5
ATOM      5  C   UNL A   1      31.968  27.793  26.592  1.00  0.00     0.261 C 
BRANCH   5   6
ATOM      6  O   UNL A   1      32.768  27.570  25.416  1.00  0.00    -0.463 OA
BRANCH   6   7
ATOM      7  C   UNL A   1      32.349  28.095  24.236  1.00  0.00     0.314 C 
ATOM      8  O   UNL A   1      32.766  29.158  23.817  1.00  0.00    -0.252 OA
BRANCH   7   9
ATOM      9  C   UNL A   1      31.316  27.166  23.580  1.00  0.00     0.154 C 
ATOM     10  C   UNL A   1      30.684  27.923  22.411  1.00  0.00     0.026 C 
BRANCH   9  11
ATOM     11  C   UNL A   1      31.644  25.644  23.296  1.00  0.00     0.195 C 
ATOM     12  C   UNL A   1      30.494  24.686  23.691  1.00  0.00     0.076 C 
BRANCH  11  13
ATOM     13  N   UNL A   1      32.948  24.992  23.501  1.00  0.00    -0.330 N 
ATOM     14  C   UNL A   1      33.354  24.702  24.873  1.00  0.00     0.279 C 
ATOM     15  C   UNL A   1      33.387  23.910  22.609  1.00  0.00     0.279 C 
ATOM     16  H   UNL A   1      33.463  25.813  23.180  1.00  0.00     0.348 HD
ATOM     17  C   UNL A   1      32.912  23.330  25.408  1.00  0.00     0.163 C 
ATOM     18  C   UNL A   1      32.918  22.510  23.015  1.00  0.00     0.163 C 
ATOM     19  N   UNL A   1      33.189  22.228  24.447  1.00  0.00    -0.191 NA
BRANCH  19  20
ATOM     20  S   UNL A   1      34.325  21.078  24.879  1.00  0.00     0.211 S 
ATOM     21  C   UNL A   1      34.261  21.182  26.653  1.00  0.00     0.176 C 
ATOM     22  O   UNL A   1      33.817  19.782  24.502  1.00  0.00    -0.212 OA
ATOM     23  O   UNL A   1      35.638  21.530  24.452  1.00  0.00    -0.212 OA
ENDBRANCH  19  20
ENDBRANCH  11  13
ENDBRANCH   9  11
ENDBRANCH   7   9
ENDBRANCH   6   7
ENDBRANCH   5   6
ENDBRANCH   4   5
ENDBRANCH   3   4
ENDBRANCH   2   3
ENDBRANCH   1   2
BRANCH   1  24
ATOM     24  O   UNL A   1      34.433  31.806  28.636  1.00  0.00    -0.377 OA
BRANCH  24  25
ATOM     25  C   UNL A   1      33.996  33.050  28.114  1.00  0.00     0.188 C 
BRANCH  25  26
ATOM     26  C   UNL A   1      34.293  34.344  28.910  1.00  0.00     0.188 C 
BRANCH  26  27
ATOM     27  O   UNL A   1      33.365  34.602  29.952  1.00  0.00    -0.376 OA
BRANCH  27  28
ATOM     28  C   UNL A   1      33.739  35.001  31.252  1.00  0.00     0.202 C 
BRANCH  28  29
ATOM     29  C   UNL A   1      34.409  34.039  32.245  1.00  0.00     0.261 C 
BRANCH  29  30
ATOM     30  O   UNL A   1      35.738  33.606  31.957  1.00  0.00    -0.460 OA
BRANCH  30  31
ATOM     31  C   UNL A   1      36.328  32.763  32.830  1.00  0.00     0.338 C 
ATOM     32  O   UNL A   1      35.991  32.543  33.982  1.00  0.00    -0.246 OA
BRANCH  31  33
ATOM     33  C   UNL A   1      37.321  31.976  32.063  1.00  0.00     0.060 A 
ATOM     34  C   UNL A   1      38.244  31.190  32.765  1.00  0.00     0.016 A 
ATOM     35  C   UNL A   1      37.269  31.928  30.666  1.00  0.00     0.016 A 
ATOM     36  C   UNL A   1      39.126  30.360  32.075  1.00  0.00     0.010 A 
ATOM     37  C   UNL A   1      38.186  31.135  29.972  1.00  0.00     0.010 A 
ATOM     38  C   UNL A   1      39.135  30.374  30.676  1.00  0.00    -0.014 A 
BRANCH  38  39
ATOM     39  C   UNL A   1      40.312  29.827  29.965  1.00  0.00     0.031 A 
ATOM     40  C   UNL A   1      41.467  30.763  29.735  1.00  0.00     0.074 A 
ATOM     41  C   UNL A   1      40.376  28.546  29.565  1.00  0.00     0.049 A 
ATOM     42  N   UNL A   1      42.592  30.559  29.103  1.00  0.00    -0.248 NA
ATOM     43  C   UNL A   1      41.328  32.117  30.297  1.00  0.00     0.031 C 
ATOM     44  C   UNL A   1      39.346  27.535  29.785  1.00  0.00     0.029 A 
ATOM     45  N   UNL A   1      41.363  27.883  28.882  1.00  0.00    -0.354 N 
ATOM     46  C   UNL A   1      43.287  31.759  29.185  1.00  0.00     0.074 A 
ATOM     47  C   UNL A   1      42.449  32.694  29.900  1.00  0.00     0.031 C 
ATOM     48  C   UNL A   1      39.750  26.377  29.230  1.00  0.00     0.029 A 
ATOM     49  C   UNL A   1      41.049  26.579  28.589  1.00  0.00     0.049 A 
ATOM     50  H   UNL A   1      42.217  28.303  28.624  1.00  0.00     0.167 HD
ATOM     51  C   UNL A   1      44.519  32.053  28.712  1.00  0.00     0.037 A 
ATOM     52  C   UNL A   1      41.728  25.668  27.864  1.00  0.00     0.037 A 
ATOM     53  C   UNL A   1      45.344  31.121  27.994  1.00  0.00     0.049 A 
ATOM     54  C   UNL A   1      43.061  26.049  27.267  1.00  0.00     0.074 A 
ATOM     55  C   UNL A   1      46.613  31.314  27.479  1.00  0.00     0.029 A 
ATOM     56  N   UNL A   1      44.974  29.822  27.681  1.00  0.00    -0.354 N 
ATOM     57  N   UNL A   1      43.724  27.177  27.365  1.00  0.00    -0.248 NA
ATOM     58  C   UNL A   1      43.741  25.026  26.459  1.00  0.00     0.031 C 
ATOM     59  C   UNL A   1      46.985  30.150  26.800  1.00  0.00     0.029 A 
ATOM     60  C   UNL A   1      45.978  29.209  26.951  1.00  0.00     0.049 A 
ATOM     61  H   UNL A   1      44.124  29.397  27.940  1.00  0.00     0.167 HD
ATOM     62  C   UNL A   1      44.910  26.988  26.665  1.00  0.00     0.074 A 
ATOM     63  C   UNL A   1      44.880  25.633  26.156  1.00  0.00     0.031 C 
ATOM     64  C   UNL A   1      45.934  27.854  26.463  1.00  0.00     0.037 A 
BRANCH  51  65
ATOM     65  C   UNL A   1      45.022  33.450  28.922  1.00  0.00     0.057 A 
ATOM     66  C   UNL A   1      44.785  34.475  27.997  1.00  0.00     0.134 A 
ATOM     67  C   UNL A   1      45.748  33.776  30.075  1.00  0.00     0.134 A 
ATOM     68  F   UNL A   1      44.117  34.224  26.859  1.00  0.00    -0.206 F 
ATOM     69  C   UNL A   1      45.269  35.769  28.201  1.00  0.00     0.040 A 
ATOM     70  C   UNL A   1      46.211  35.072  30.304  1.00  0.00     0.040 A 
ATOM     71  F   UNL A   1      46.014  32.841  30.999  1.00  0.00    -0.206 F 
ATOM     72  C   UNL A   1      45.977  36.072  29.362  1.00  0.00     0.006 A 
ENDBRANCH  51  65
BRANCH  52  73
ATOM     73  C   UNL A   1      41.162  24.312  27.640  1.00  0.00     0.057 A 
ATOM     74  C   UNL A   1      41.668  23.192  28.311  1.00  0.00     0.134 A 
ATOM     75  C   UNL A   1      40.129  24.097  26.720  1.00  0.00     0.134 A 
ATOM     76  F   UNL A   1      42.676  23.327  29.185  1.00  0.00    -0.206 F 
ATOM     77  C   UNL A   1      41.185  21.907  28.060  1.00  0.00     0.040 A 
ATOM     78  C   UNL A   1      39.615  22.821  26.480  1.00  0.00     0.040 A 
ATOM     79  F   UNL A   1      39.600  25.125  26.041  1.00  0.00    -0.206 F 
ATOM     80  C   UNL A   1      40.150  21.719  27.144  1.00  0.00     0.006 A 
ENDBRANCH  52  73
BRANCH  64  81
ATOM     81  C   UNL A   1      47.128  27.352  25.701  1.00  0.00     0.057 A 
ATOM     82  C   UNL A   1      47.285  27.577  24.328  1.00  0.00     0.134 A 
ATOM     83  C   UNL A   1      48.160  26.677  26.367  1.00  0.00     0.134 A 
ATOM     84  F   UNL A   1      46.330  28.209  23.629  1.00  0.00    -0.206 F 
ATOM     85  C   UNL A   1      48.412  27.126  23.639  1.00  0.00     0.040 A 
ATOM     86  C   UNL A   1      49.307  26.251  25.696  1.00  0.00     0.040 A 
ATOM     87  F   UNL A   1      48.082  26.441  27.686  1.00  0.00    -0.206 F 
ATOM     88  C   UNL A   1      49.431  26.468  24.326  1.00  0.00     0.006 A 
ENDBRANCH  64  81
ENDBRANCH  38  39
ENDBRANCH  31  33
ENDBRANCH  30  31
ENDBRANCH  29  30
ENDBRANCH  28  29
ENDBRANCH  27  28
ENDBRANCH  26  27
ENDBRANCH  25  26
ENDBRANCH  24  25
ENDBRANCH   1  24
TORSDOF 23
ENDMDL
