MODEL 1
REMARK VINA RESULT:     -10.2      0.000      0.000
REMARK SMILES O=C(NC[C@@H]1CCOC1)NC[C@@H]1CC[C@H](C(=O)OCCOCCOCCOCCOC(=O)c2ccc(-c3c4nc(c(-c5c(F)cccc5F)c5ccc([nH]5)c(-c5c(F)cccc5F)c5nc(c(-c6c(F)cccc6F)c6ccc3[nH]6)C=C5)C=C4)cc2)O1
REMARK SMILES IDX 23 1 22 2 21 3 20 4 19 5 18 6 16 7 17 8 15 9 12 10 13 11
REMARK SMILES IDX 87 12 14 13 11 14 10 15 1 16 2 17 3 18 4 21 5 22 6 23 9 24
REMARK SMILES IDX 7 25 8 26 24 27 25 28 26 29 27 30 28 31 29 32 30 33 31 34
REMARK SMILES IDX 32 35 33 36 34 37 86 38 35 39 85 40 36 41 37 42 38 43 79 44
REMARK SMILES IDX 39 45 84 46 78 47 80 48 40 49 83 50 77 51 76 52 41 54 67 55
REMARK SMILES IDX 50 56 66 57 51 58 54 59 65 60 81 61 52 62 53 63 64 65 82 66
REMARK SMILES IDX 55 67 42 68 43 69 48 70 44 71 45 72 47 73 49 74 46 75 68 76
REMARK SMILES IDX 69 77 74 78 70 79 71 80 73 81 75 82 72 83 56 84 57 85 62 86
REMARK SMILES IDX 58 87 59 88 61 89 63 90 60 91
REMARK H PARENT 3 19 10 20 80 53 54 64
REMARK Flexibility Score: inf
ROOT
ATOM      1  C   UNL A   1      33.650  35.034  29.300  1.00  0.00     0.188 C 
ENDROOT
BRANCH   1   2
ATOM      2  C   UNL A   1      33.287  34.073  28.162  1.00  0.00     0.188 C 
BRANCH   2   3
ATOM      3  O   UNL A   1      34.149  33.002  27.826  1.00  0.00    -0.376 OA
BRANCH   3   4
ATOM      4  C   UNL A   1      33.784  31.650  28.071  1.00  0.00     0.202 C 
BRANCH   4   5
ATOM      5  C   UNL A   1      33.317  30.679  26.972  1.00  0.00     0.261 C 
BRANCH   5   6
ATOM      6  O   UNL A   1      32.037  30.054  27.173  1.00  0.00    -0.461 OA
BRANCH   6   7
ATOM      7  C   UNL A   1      31.960  28.746  26.836  1.00  0.00     0.335 C 
ATOM      8  O   UNL A   1      31.673  27.854  27.631  1.00  0.00    -0.249 OA
BRANCH   7   9
ATOM      9  C   UNL A   1      32.247  28.443  25.357  1.00  0.00     0.228 C 
ATOM     10  C   UNL A   1      31.502  26.324  24.754  1.00  0.00     0.138 C 
ATOM     11  C   UNL A   1      33.003  26.223  24.954  1.00  0.00     0.037 C 
ATOM     12  O   UNL A   1      31.122  27.707  24.856  1.00  0.00    -0.361 OA
ATOM     13  C   UNL A   1      33.450  27.651  24.878  1.00  0.00     0.047 C 
BRANCH  10  14
ATOM     14  C   UNL A   1      30.721  25.486  25.769  1.00  0.00     0.149 C 
BRANCH  14  15
ATOM     15  N   UNL A   1      31.403  24.232  25.984  1.00  0.00    -0.336 N 
ATOM     16  O   UNL A   1      29.862  23.329  27.396  1.00  0.00    -0.249 OA
ATOM     17  C   UNL A   1      30.966  23.300  26.863  1.00  0.00     0.314 C 
ATOM     18  N   UNL A   1      31.840  22.314  27.176  1.00  0.00    -0.338 N 
ATOM     19  H   UNL A   1      31.462  21.577  27.710  1.00  0.00     0.165 HD
ATOM     20  H   UNL A   1      32.222  24.047  25.468  1.00  0.00     0.165 HD
BRANCH  18  21
ATOM     21  C   UNL A   1      33.248  22.171  26.845  1.00  0.00     0.123 C 
BRANCH  21  22
ATOM     22  C   UNL A   1      33.472  21.053  25.817  1.00  0.00     0.036 C 
ATOM     23  C   UNL A   1      34.410  21.502  24.712  1.00  0.00     0.036 C 
ATOM     24  C   UNL A   1      32.212  20.780  25.012  1.00  0.00     0.165 C 
ATOM     25  C   UNL A   1      33.499  22.313  23.815  1.00  0.00     0.160 C 
ATOM     26  O   UNL A   1      32.182  21.761  23.962  1.00  0.00    -0.381 OA
ENDBRANCH  21  22
ENDBRANCH  18  21
ENDBRANCH  14  15
ENDBRANCH  10  14
ENDBRANCH   7   9
ENDBRANCH   6   7
ENDBRANCH   5   6
ENDBRANCH   4   5
ENDBRANCH   3   4
ENDBRANCH   2   3
ENDBRANCH   1   2
BRANCH   1  27
ATOM     27  O   UNL A   1      32.557  35.578  30.011  1.00  0.00    -0.377 OA
BRANCH  27  28
ATOM     28  C   UNL A   1      32.803  36.319  31.201  1.00  0.00     0.188 C 
BRANCH  28  29
ATOM     29  C   UNL A   1      34.067  36.025  32.029  1.00  0.00     0.188 C 
BRANCH  29  30
ATOM     30  O   UNL A   1      33.856  35.165  33.137  1.00  0.00    -0.376 OA
BRANCH  30  31
ATOM     31  C   UNL A   1      34.944  34.877  34.005  1.00  0.00     0.202 C 
BRANCH  31  32
ATOM     32  C   UNL A   1      36.153  34.116  33.435  1.00  0.00     0.261 C 
BRANCH  32  33
ATOM     33  O   UNL A   1      36.049  32.681  33.395  1.00  0.00    -0.460 OA
BRANCH  33  34
ATOM     34  C   UNL A   1      35.504  32.114  32.299  1.00  0.00     0.338 C 
ATOM     35  O   UNL A   1      34.406  32.328  31.829  1.00  0.00    -0.246 OA
BRANCH  34  36
ATOM     36  C   UNL A   1      36.554  31.318  31.625  1.00  0.00     0.060 A 
ATOM     37  C   UNL A   1      37.613  30.826  32.397  1.00  0.00     0.016 A 
ATOM     38  C   UNL A   1      36.515  31.086  30.248  1.00  0.00     0.016 A 
ATOM     39  C   UNL A   1      38.665  30.145  31.786  1.00  0.00     0.010 A 
ATOM     40  C   UNL A   1      37.582  30.419  29.634  1.00  0.00     0.010 A 
ATOM     41  C   UNL A   1      38.680  29.983  30.395  1.00  0.00    -0.014 A 
BRANCH  41  42
ATOM     42  C   UNL A   1      39.931  29.524  29.740  1.00  0.00     0.031 A 
ATOM     43  C   UNL A   1      41.084  30.488  29.625  1.00  0.00     0.074 A 
ATOM     44  C   UNL A   1      40.072  28.254  29.323  1.00  0.00     0.049 A 
ATOM     45  N   UNL A   1      42.277  30.300  29.122  1.00  0.00    -0.248 NA
ATOM     46  C   UNL A   1      40.858  31.844  30.149  1.00  0.00     0.031 C 
ATOM     47  C   UNL A   1      39.049  27.214  29.416  1.00  0.00     0.029 A 
ATOM     48  N   UNL A   1      41.143  27.622  28.740  1.00  0.00    -0.354 N 
ATOM     49  C   UNL A   1      42.944  31.511  29.271  1.00  0.00     0.074 A 
ATOM     50  C   UNL A   1      42.011  32.436  29.874  1.00  0.00     0.031 C 
ATOM     51  C   UNL A   1      39.541  26.072  28.905  1.00  0.00     0.029 A 
ATOM     52  C   UNL A   1      40.903  26.308  28.424  1.00  0.00     0.049 A 
ATOM     53  H   UNL A   1      42.002  28.070  28.564  1.00  0.00     0.167 HD
ATOM     54  C   UNL A   1      44.223  31.820  28.948  1.00  0.00     0.037 A 
ATOM     55  C   UNL A   1      41.685  25.404  27.803  1.00  0.00     0.037 A 
ATOM     56  C   UNL A   1      45.151  30.900  28.342  1.00  0.00     0.049 A 
ATOM     57  C   UNL A   1      43.078  25.799  27.380  1.00  0.00     0.074 A 
ATOM     58  C   UNL A   1      46.470  31.118  27.986  1.00  0.00     0.029 A 
ATOM     59  N   UNL A   1      44.854  29.592  27.994  1.00  0.00    -0.354 N 
ATOM     60  N   UNL A   1      43.708  26.936  27.553  1.00  0.00    -0.248 NA
ATOM     61  C   UNL A   1      43.870  24.777  26.681  1.00  0.00     0.031 C 
ATOM     62  C   UNL A   1      46.954  29.960  27.369  1.00  0.00     0.029 A 
ATOM     63  C   UNL A   1      45.956  28.998  27.400  1.00  0.00     0.049 A 
ATOM     64  H   UNL A   1      43.986  29.150  28.146  1.00  0.00     0.167 HD
ATOM     65  C   UNL A   1      44.976  26.757  27.013  1.00  0.00     0.074 A 
ATOM     66  C   UNL A   1      45.033  25.393  26.529  1.00  0.00     0.031 C 
ATOM     67  C   UNL A   1      46.002  27.640  26.923  1.00  0.00     0.037 A 
BRANCH  54  68
ATOM     68  C   UNL A   1      44.687  33.223  29.219  1.00  0.00     0.057 A 
ATOM     69  C   UNL A   1      45.389  33.560  30.384  1.00  0.00     0.134 A 
ATOM     70  C   UNL A   1      44.464  34.241  28.283  1.00  0.00     0.134 A 
ATOM     71  F   UNL A   1      45.622  32.637  31.330  1.00  0.00    -0.206 F 
ATOM     72  C   UNL A   1      45.834  34.864  30.617  1.00  0.00     0.040 A 
ATOM     73  C   UNL A   1      44.930  35.540  28.490  1.00  0.00     0.040 A 
ATOM     74  F   UNL A   1      43.802  33.986  27.145  1.00  0.00    -0.206 F 
ATOM     75  C   UNL A   1      45.612  35.856  29.663  1.00  0.00     0.006 A 
ENDBRANCH  54  68
BRANCH  55  76
ATOM     76  C   UNL A   1      41.176  24.036  27.522  1.00  0.00     0.057 A 
ATOM     77  C   UNL A   1      40.168  23.811  26.576  1.00  0.00     0.134 A 
ATOM     78  C   UNL A   1      41.651  22.925  28.230  1.00  0.00     0.134 A 
ATOM     79  F   UNL A   1      39.650  24.837  25.885  1.00  0.00    -0.206 F 
ATOM     80  C   UNL A   1      39.635  22.538  26.362  1.00  0.00     0.040 A 
ATOM     81  C   UNL A   1      41.150  21.643  28.003  1.00  0.00     0.040 A 
ATOM     82  F   UNL A   1      42.612  23.071  29.153  1.00  0.00    -0.206 F 
ATOM     83  C   UNL A   1      40.130  21.448  27.074  1.00  0.00     0.006 A 
ENDBRANCH  55  76
BRANCH  67  84
ATOM     84  C   UNL A   1      47.285  27.145  26.316  1.00  0.00     0.057 A 
ATOM     85  C   UNL A   1      47.504  27.149  24.931  1.00  0.00     0.134 A 
ATOM     86  C   UNL A   1      48.322  26.669  27.128  1.00  0.00     0.134 A 
ATOM     87  F   UNL A   1      46.550  27.582  24.093  1.00  0.00    -0.206 F 
ATOM     88  C   UNL A   1      48.689  26.661  24.377  1.00  0.00     0.040 A 
ATOM     89  C   UNL A   1      49.526  26.211  26.588  1.00  0.00     0.040 A 
ATOM     90  F   UNL A   1      48.189  26.648  28.463  1.00  0.00    -0.206 F 
ATOM     91  C   UNL A   1      49.706  26.195  25.207  1.00  0.00     0.006 A 
ENDBRANCH  67  84
ENDBRANCH  41  42
ENDBRANCH  34  36
ENDBRANCH  33  34
ENDBRANCH  32  33
ENDBRANCH  31  32
ENDBRANCH  30  31
ENDBRANCH  29  30
ENDBRANCH  28  29
ENDBRANCH  27  28
ENDBRANCH   1  27
TORSDOF 24
ENDMDL
MODEL 2
REMARK VINA RESULT:      -9.8      4.719     10.462
REMARK SMILES O=C(NC[C@@H]1CCOC1)NC[C@@H]1CC[C@H](C(=O)OCCOCCOCCOCCOC(=O)c2ccc(-c3c4nc(c(-c5c(F)cccc5F)c5ccc([nH]5)c(-c5c(F)cccc5F)c5nc(c(-c6c(F)cccc6F)c6ccc3[nH]6)C=C5)C=C4)cc2)O1
REMARK SMILES IDX 23 1 22 2 21 3 20 4 19 5 18 6 16 7 17 8 15 9 12 10 13 11
REMARK SMILES IDX 87 12 14 13 11 14 10 15 1 16 2 17 3 18 4 21 5 22 6 23 9 24
REMARK SMILES IDX 7 25 8 26 24 27 25 28 26 29 27 30 28 31 29 32 30 33 31 34
REMARK SMILES IDX 32 35 33 36 34 37 86 38 35 39 85 40 36 41 37 42 38 43 79 44
REMARK SMILES IDX 39 45 84 46 78 47 80 48 40 49 83 50 77 51 76 52 41 54 67 55
REMARK SMILES IDX 50 56 66 57 51 58 54 59 65 60 81 61 52 62 53 63 64 65 82 66
REMARK SMILES IDX 55 67 42 68 43 69 48 70 44 71 45 72 47 73 49 74 46 75 68 76
REMARK SMILES IDX 69 77 74 78 70 79 71 80 73 81 75 82 72 83 56 84 57 85 62 86
REMARK SMILES IDX 58 87 59 88 61 89 63 90 60 91
REMARK H PARENT 3 19 10 20 80 53 54 64
REMARK Flexibility Score: inf
ROOT
ATOM      1  C   UNL A   1      40.140  22.129  26.788  1.00  0.00     0.188 C 
ENDROOT
BRANCH   1   2
ATOM      2  C   UNL A   1      38.805  21.940  26.060  1.00  0.00     0.188 C 
BRANCH   2   3
ATOM      3  O   UNL A   1      37.741  22.849  26.268  1.00  0.00    -0.376 OA
BRANCH   3   4
ATOM      4  C   UNL A   1      37.275  23.698  25.226  1.00  0.00     0.202 C 
BRANCH   4   5
ATOM      5  C   UNL A   1      36.310  23.241  24.118  1.00  0.00     0.261 C 
BRANCH   5   6
ATOM      6  O   UNL A   1      34.944  23.021  24.510  1.00  0.00    -0.461 OA
BRANCH   6   7
ATOM      7  C   UNL A   1      34.052  22.905  23.499  1.00  0.00     0.335 C 
ATOM      8  O   UNL A   1      34.283  23.257  22.345  1.00  0.00    -0.249 OA
BRANCH   7   9
ATOM      9  C   UNL A   1      32.708  22.274  23.894  1.00  0.00     0.228 C 
ATOM     10  C   UNL A   1      30.932  23.724  23.504  1.00  0.00     0.138 C 
ATOM     11  C   UNL A   1      31.222  23.774  24.993  1.00  0.00     0.037 C 
ATOM     12  O   UNL A   1      31.747  22.696  22.915  1.00  0.00    -0.361 OA
ATOM     13  C   UNL A   1      32.018  22.525  25.222  1.00  0.00     0.047 C 
BRANCH  10  14
ATOM     14  C   UNL A   1      31.195  25.066  22.814  1.00  0.00     0.149 C 
BRANCH  14  15
ATOM     15  N   UNL A   1      32.061  25.870  23.643  1.00  0.00    -0.336 N 
ATOM     16  O   UNL A   1      33.522  26.465  22.000  1.00  0.00    -0.249 OA
ATOM     17  C   UNL A   1      33.212  26.418  23.186  1.00  0.00     0.314 C 
ATOM     18  N   UNL A   1      34.062  26.898  24.125  1.00  0.00    -0.338 N 
ATOM     19  H   UNL A   1      34.827  27.407  23.771  1.00  0.00     0.165 HD
ATOM     20  H   UNL A   1      31.803  26.028  24.580  1.00  0.00     0.165 HD
BRANCH  18  21
ATOM     21  C   UNL A   1      34.020  26.780  25.573  1.00  0.00     0.123 C 
BRANCH  21  22
ATOM     22  C   UNL A   1      33.760  28.139  26.239  1.00  0.00     0.036 C 
ATOM     23  C   UNL A   1      32.621  28.051  27.238  1.00  0.00     0.036 C 
ATOM     24  C   UNL A   1      33.181  29.137  25.250  1.00  0.00     0.165 C 
ATOM     25  C   UNL A   1      31.397  28.114  26.349  1.00  0.00     0.160 C 
ATOM     26  O   UNL A   1      31.769  28.878  25.192  1.00  0.00    -0.381 OA
ENDBRANCH  21  22
ENDBRANCH  18  21
ENDBRANCH  14  15
ENDBRANCH  10  14
ENDBRANCH   7   9
ENDBRANCH   6   7
ENDBRANCH   5   6
ENDBRANCH   4   5
ENDBRANCH   3   4
ENDBRANCH   2   3
ENDBRANCH   1   2
BRANCH   1  27
ATOM     27  O   UNL A   1      40.714  20.953  27.324  1.00  0.00    -0.377 OA
BRANCH  27  28
ATOM     28  C   UNL A   1      42.102  20.709  27.131  1.00  0.00     0.188 C 
BRANCH  28  29
ATOM     29  C   UNL A   1      42.608  20.267  25.745  1.00  0.00     0.188 C 
BRANCH  29  30
ATOM     30  O   UNL A   1      44.016  20.118  25.654  1.00  0.00    -0.376 OA
BRANCH  30  31
ATOM     31  C   UNL A   1      44.773  21.108  24.972  1.00  0.00     0.202 C 
BRANCH  31  32
ATOM     32  C   UNL A   1      45.421  22.232  25.799  1.00  0.00     0.261 C 
BRANCH  32  33
ATOM     33  O   UNL A   1      44.525  23.172  26.420  1.00  0.00    -0.460 OA
BRANCH  33  34
ATOM     34  C   UNL A   1      44.287  24.338  25.783  1.00  0.00     0.338 C 
ATOM     35  O   UNL A   1      44.471  24.585  24.610  1.00  0.00    -0.246 OA
BRANCH  34  36
ATOM     36  C   UNL A   1      43.563  25.229  26.716  1.00  0.00     0.060 A 
ATOM     37  C   UNL A   1      43.950  26.574  26.786  1.00  0.00     0.016 A 
ATOM     38  C   UNL A   1      42.540  24.745  27.534  1.00  0.00     0.016 A 
ATOM     39  C   UNL A   1      43.351  27.425  27.713  1.00  0.00     0.010 A 
ATOM     40  C   UNL A   1      41.953  25.597  28.477  1.00  0.00     0.010 A 
ATOM     41  C   UNL A   1      42.386  26.929  28.598  1.00  0.00    -0.014 A 
BRANCH  41  42
ATOM     42  C   UNL A   1      41.979  27.763  29.756  1.00  0.00     0.031 A 
ATOM     43  C   UNL A   1      40.768  28.649  29.621  1.00  0.00     0.074 A 
ATOM     44  C   UNL A   1      42.625  27.683  30.933  1.00  0.00     0.049 A 
ATOM     45  N   UNL A   1      40.211  29.438  30.504  1.00  0.00    -0.248 NA
ATOM     46  C   UNL A   1      40.094  28.641  28.313  1.00  0.00     0.031 C 
ATOM     47  C   UNL A   1      43.783  26.834  31.206  1.00  0.00     0.029 A 
ATOM     48  N   UNL A   1      42.389  28.324  32.124  1.00  0.00    -0.354 N 
ATOM     49  C   UNL A   1      39.124  30.017  29.861  1.00  0.00     0.074 A 
ATOM     50  C   UNL A   1      39.122  29.520  28.503  1.00  0.00     0.031 C 
ATOM     51  C   UNL A   1      44.159  27.009  32.485  1.00  0.00     0.029 A 
ATOM     52  C   UNL A   1      43.287  28.002  33.111  1.00  0.00     0.049 A 
ATOM     53  H   UNL A   1      41.646  28.957  32.257  1.00  0.00     0.167 HD
ATOM     54  C   UNL A   1      38.201  30.874  30.360  1.00  0.00     0.037 A 
ATOM     55  C   UNL A   1      43.401  28.467  34.370  1.00  0.00     0.037 A 
ATOM     56  C   UNL A   1      38.205  31.373  31.711  1.00  0.00     0.049 A 
ATOM     57  C   UNL A   1      42.408  29.483  34.876  1.00  0.00     0.074 A 
ATOM     58  C   UNL A   1      37.308  32.238  32.313  1.00  0.00     0.029 A 
ATOM     59  N   UNL A   1      39.160  31.060  32.667  1.00  0.00    -0.354 N 
ATOM     60  N   UNL A   1      41.367  30.001  34.269  1.00  0.00    -0.248 NA
ATOM     61  C   UNL A   1      42.605  29.973  36.248  1.00  0.00     0.031 C 
ATOM     62  C   UNL A   1      37.752  32.494  33.614  1.00  0.00     0.029 A 
ATOM     63  C   UNL A   1      38.890  31.737  33.845  1.00  0.00     0.049 A 
ATOM     64  H   UNL A   1      39.918  30.446  32.528  1.00  0.00     0.167 HD
ATOM     65  C   UNL A   1      40.770  30.851  35.193  1.00  0.00     0.074 A 
ATOM     66  C   UNL A   1      41.552  30.761  36.408  1.00  0.00     0.031 C 
ATOM     67  C   UNL A   1      39.674  31.638  35.049  1.00  0.00     0.037 A 
BRANCH  54  68
ATOM     68  C   UNL A   1      37.121  31.350  29.431  1.00  0.00     0.057 A 
ATOM     69  C   UNL A   1      37.152  32.623  28.847  1.00  0.00     0.134 A 
ATOM     70  C   UNL A   1      36.058  30.506  29.082  1.00  0.00     0.134 A 
ATOM     71  F   UNL A   1      38.133  33.487  29.150  1.00  0.00    -0.206 F 
ATOM     72  C   UNL A   1      36.153  33.048  27.967  1.00  0.00     0.040 A 
ATOM     73  C   UNL A   1      35.070  30.908  28.181  1.00  0.00     0.040 A 
ATOM     74  F   UNL A   1      35.969  29.273  29.601  1.00  0.00    -0.206 F 
ATOM     75  C   UNL A   1      35.113  32.185  27.626  1.00  0.00     0.006 A 
ENDBRANCH  54  68
BRANCH  55  76
ATOM     76  C   UNL A   1      44.505  27.997  35.248  1.00  0.00     0.057 A 
ATOM     77  C   UNL A   1      45.750  28.639  35.265  1.00  0.00     0.134 A 
ATOM     78  C   UNL A   1      44.357  26.862  36.055  1.00  0.00     0.134 A 
ATOM     79  F   UNL A   1      45.965  29.714  34.493  1.00  0.00    -0.206 F 
ATOM     80  C   UNL A   1      46.812  28.156  36.031  1.00  0.00     0.040 A 
ATOM     81  C   UNL A   1      45.400  26.388  36.851  1.00  0.00     0.040 A 
ATOM     82  F   UNL A   1      43.193  26.198  36.082  1.00  0.00    -0.206 F 
ATOM     83  C   UNL A   1      46.637  27.029  36.832  1.00  0.00     0.006 A 
ENDBRANCH  55  76
BRANCH  67  84
ATOM     84  C   UNL A   1      39.234  32.431  36.249  1.00  0.00     0.057 A 
ATOM     85  C   UNL A   1      38.312  31.927  37.177  1.00  0.00     0.134 A 
ATOM     86  C   UNL A   1      39.750  33.711  36.487  1.00  0.00     0.134 A 
ATOM     87  F   UNL A   1      37.770  30.711  37.006  1.00  0.00    -0.206 F 
ATOM     88  C   UNL A   1      37.889  32.683  38.272  1.00  0.00     0.040 A 
ATOM     89  C   UNL A   1      39.361  34.463  37.597  1.00  0.00     0.040 A 
ATOM     90  F   UNL A   1      40.647  34.252  35.649  1.00  0.00    -0.206 F 
ATOM     91  C   UNL A   1      38.419  33.953  38.487  1.00  0.00     0.006 A 
ENDBRANCH  67  84
ENDBRANCH  41  42
ENDBRANCH  34  36
ENDBRANCH  33  34
ENDBRANCH  32  33
ENDBRANCH  31  32
ENDBRANCH  30  31
ENDBRANCH  29  30
ENDBRANCH  28  29
ENDBRANCH  27  28
ENDBRANCH   1  27
TORSDOF 24
ENDMDL
MODEL 3
REMARK VINA RESULT:      -9.7      2.095      3.624
REMARK SMILES O=C(NC[C@@H]1CCOC1)NC[C@@H]1CC[C@H](C(=O)OCCOCCOCCOCCOC(=O)c2ccc(-c3c4nc(c(-c5c(F)cccc5F)c5ccc([nH]5)c(-c5c(F)cccc5F)c5nc(c(-c6c(F)cccc6F)c6ccc3[nH]6)C=C5)C=C4)cc2)O1
REMARK SMILES IDX 23 1 22 2 21 3 20 4 19 5 18 6 16 7 17 8 15 9 12 10 13 11
REMARK SMILES IDX 87 12 14 13 11 14 10 15 1 16 2 17 3 18 4 21 5 22 6 23 9 24
REMARK SMILES IDX 7 25 8 26 24 27 25 28 26 29 27 30 28 31 29 32 30 33 31 34
REMARK SMILES IDX 32 35 33 36 34 37 86 38 35 39 85 40 36 41 37 42 38 43 79 44
REMARK SMILES IDX 39 45 84 46 78 47 80 48 40 49 83 50 77 51 76 52 41 54 67 55
REMARK SMILES IDX 50 56 66 57 51 58 54 59 65 60 81 61 52 62 53 63 64 65 82 66
REMARK SMILES IDX 55 67 42 68 43 69 48 70 44 71 45 72 47 73 49 74 46 75 68 76
REMARK SMILES IDX 69 77 74 78 70 79 71 80 73 81 75 82 72 83 56 84 57 85 62 86
REMARK SMILES IDX 58 87 59 88 61 89 63 90 60 91
REMARK H PARENT 3 19 10 20 80 53 54 64
REMARK Flexibility Score: inf
ROOT
ATOM      1  C   UNL A   1      33.566  35.294  29.030  1.00  0.00     0.188 C 
ENDROOT
BRANCH   1   2
ATOM      2  C   UNL A   1      33.148  34.167  28.080  1.00  0.00     0.188 C 
BRANCH   2   3
ATOM      3  O   UNL A   1      34.070  33.156  27.719  1.00  0.00    -0.376 OA
BRANCH   3   4
ATOM      4  C   UNL A   1      33.796  31.781  27.957  1.00  0.00     0.202 C 
BRANCH   4   5
ATOM      5  C   UNL A   1      33.252  30.820  26.884  1.00  0.00     0.261 C 
BRANCH   5   6
ATOM      6  O   UNL A   1      32.086  30.057  27.241  1.00  0.00    -0.461 OA
BRANCH   6   7
ATOM      7  C   UNL A   1      32.178  28.721  27.056  1.00  0.00     0.335 C 
ATOM      8  O   UNL A   1      31.402  27.909  27.556  1.00  0.00    -0.249 OA
BRANCH   7   9
ATOM      9  C   UNL A   1      33.333  28.273  26.147  1.00  0.00     0.228 C 
ATOM     10  C   UNL A   1      32.623  26.737  24.550  1.00  0.00     0.138 C 
ATOM     11  C   UNL A   1      33.320  25.946  25.642  1.00  0.00     0.037 C 
ATOM     12  O   UNL A   1      32.794  28.139  24.824  1.00  0.00    -0.361 OA
ATOM     13  C   UNL A   1      34.121  26.993  26.356  1.00  0.00     0.047 C 
BRANCH  10  14
ATOM     14  C   UNL A   1      31.134  26.398  24.445  1.00  0.00     0.149 C 
BRANCH  14  15
ATOM     15  N   UNL A   1      30.434  27.497  23.824  1.00  0.00    -0.336 N 
ATOM     16  O   UNL A   1      31.035  27.017  21.680  1.00  0.00    -0.249 OA
ATOM     17  C   UNL A   1      30.530  27.775  22.502  1.00  0.00     0.314 C 
ATOM     18  N   UNL A   1      30.064  28.984  22.107  1.00  0.00    -0.338 N 
ATOM     19  H   UNL A   1      30.021  29.114  21.131  1.00  0.00     0.165 HD
ATOM     20  H   UNL A   1      29.862  28.069  24.385  1.00  0.00     0.165 HD
BRANCH  18  21
ATOM     21  C   UNL A   1      29.616  30.118  22.898  1.00  0.00     0.123 C 
BRANCH  21  22
ATOM     22  C   UNL A   1      28.120  30.392  22.689  1.00  0.00     0.036 C 
ATOM     23  C   UNL A   1      27.843  30.881  21.279  1.00  0.00     0.036 C 
ATOM     24  C   UNL A   1      27.660  31.597  23.493  1.00  0.00     0.165 C 
ATOM     25  C   UNL A   1      28.226  32.344  21.357  1.00  0.00     0.160 C 
ATOM     26  O   UNL A   1      27.997  32.756  22.713  1.00  0.00    -0.381 OA
ENDBRANCH  21  22
ENDBRANCH  18  21
ENDBRANCH  14  15
ENDBRANCH  10  14
ENDBRANCH   7   9
ENDBRANCH   6   7
ENDBRANCH   5   6
ENDBRANCH   4   5
ENDBRANCH   3   4
ENDBRANCH   2   3
ENDBRANCH   1   2
BRANCH   1  27
ATOM     27  O   UNL A   1      32.547  35.786  29.878  1.00  0.00    -0.377 OA
BRANCH  27  28
ATOM     28  C   UNL A   1      32.855  36.077  31.236  1.00  0.00     0.188 C 
BRANCH  28  29
ATOM     29  C   UNL A   1      34.025  35.347  31.921  1.00  0.00     0.188 C 
BRANCH  29  30
ATOM     30  O   UNL A   1      33.700  34.064  32.431  1.00  0.00    -0.376 OA
BRANCH  30  31
ATOM     31  C   UNL A   1      34.534  33.483  33.423  1.00  0.00     0.202 C 
BRANCH  31  32
ATOM     32  C   UNL A   1      35.936  33.001  33.010  1.00  0.00     0.261 C 
BRANCH  32  33
ATOM     33  O   UNL A   1      36.029  31.664  32.488  1.00  0.00    -0.460 OA
BRANCH  33  34
ATOM     34  C   UNL A   1      35.813  31.482  31.168  1.00  0.00     0.338 C 
ATOM     35  O   UNL A   1      34.941  31.984  30.490  1.00  0.00    -0.246 OA
BRANCH  34  36
ATOM     36  C   UNL A   1      36.951  30.711  30.620  1.00  0.00     0.060 A 
ATOM     37  C   UNL A   1      37.721  29.944  31.503  1.00  0.00     0.016 A 
ATOM     38  C   UNL A   1      37.277  30.766  29.263  1.00  0.00     0.016 A 
ATOM     39  C   UNL A   1      38.851  29.272  31.041  1.00  0.00     0.010 A 
ATOM     40  C   UNL A   1      38.424  30.107  28.805  1.00  0.00     0.010 A 
ATOM     41  C   UNL A   1      39.238  29.392  29.700  1.00  0.00    -0.014 A 
BRANCH  41  42
ATOM     42  C   UNL A   1      40.586  28.920  29.298  1.00  0.00     0.031 A 
ATOM     43  C   UNL A   1      41.747  29.876  29.392  1.00  0.00     0.074 A 
ATOM     44  C   UNL A   1      40.795  27.644  28.927  1.00  0.00     0.049 A 
ATOM     45  N   UNL A   1      43.012  29.677  29.126  1.00  0.00    -0.248 NA
ATOM     46  C   UNL A   1      41.436  31.239  29.851  1.00  0.00     0.031 C 
ATOM     47  C   UNL A   1      39.765  26.611  28.837  1.00  0.00     0.029 A 
ATOM     48  N   UNL A   1      41.952  27.000  28.563  1.00  0.00    -0.354 N 
ATOM     49  C   UNL A   1      43.648  30.886  29.385  1.00  0.00     0.074 A 
ATOM     50  C   UNL A   1      42.624  31.822  29.793  1.00  0.00     0.031 C 
ATOM     51  C   UNL A   1      40.337  25.461  28.439  1.00  0.00     0.029 A 
ATOM     52  C   UNL A   1      41.766  25.684  28.221  1.00  0.00     0.049 A 
ATOM     53  H   UNL A   1      42.832  27.441  28.549  1.00  0.00     0.167 HD
ATOM     54  C   UNL A   1      44.966  31.185  29.307  1.00  0.00     0.037 A 
ATOM     55  C   UNL A   1      42.645  24.769  27.768  1.00  0.00     0.037 A 
ATOM     56  C   UNL A   1      45.986  30.254  28.896  1.00  0.00     0.049 A 
ATOM     57  C   UNL A   1      44.095  25.152  27.611  1.00  0.00     0.074 A 
ATOM     58  C   UNL A   1      47.350  30.461  28.793  1.00  0.00     0.029 A 
ATOM     59  N   UNL A   1      45.750  28.943  28.511  1.00  0.00    -0.354 N 
ATOM     60  N   UNL A   1      44.690  26.288  27.888  1.00  0.00    -0.248 NA
ATOM     61  C   UNL A   1      44.998  24.119  27.085  1.00  0.00     0.031 C 
ATOM     62  C   UNL A   1      47.933  29.293  28.290  1.00  0.00     0.029 A 
ATOM     63  C   UNL A   1      46.941  28.337  28.142  1.00  0.00     0.049 A 
ATOM     64  H   UNL A   1      44.867  28.507  28.501  1.00  0.00     0.167 HD
ATOM     65  C   UNL A   1      46.035  26.096  27.599  1.00  0.00     0.074 A 
ATOM     66  C   UNL A   1      46.173  24.727  27.148  1.00  0.00     0.031 C 
ATOM     67  C   UNL A   1      47.066  26.973  27.696  1.00  0.00     0.037 A 
BRANCH  54  68
ATOM     68  C   UNL A   1      45.381  32.588  29.646  1.00  0.00     0.057 A 
ATOM     69  C   UNL A   1      45.797  32.948  30.935  1.00  0.00     0.134 A 
ATOM     70  C   UNL A   1      45.404  33.583  28.661  1.00  0.00     0.134 A 
ATOM     71  F   UNL A   1      45.785  32.048  31.930  1.00  0.00    -0.206 F 
ATOM     72  C   UNL A   1      46.200  34.251  31.236  1.00  0.00     0.040 A 
ATOM     73  C   UNL A   1      45.833  34.881  28.941  1.00  0.00     0.040 A 
ATOM     74  F   UNL A   1      45.021  33.306  27.405  1.00  0.00    -0.206 F 
ATOM     75  C   UNL A   1      46.227  35.220  30.234  1.00  0.00     0.006 A 
ENDBRANCH  54  68
BRANCH  55  76
ATOM     76  C   UNL A   1      42.188  23.401  27.410  1.00  0.00     0.057 A 
ATOM     77  C   UNL A   1      41.925  23.042  26.082  1.00  0.00     0.134 A 
ATOM     78  C   UNL A   1      41.957  22.432  28.394  1.00  0.00     0.134 A 
ATOM     79  F   UNL A   1      42.098  23.933  25.095  1.00  0.00    -0.206 F 
ATOM     80  C   UNL A   1      41.424  21.782  25.749  1.00  0.00     0.040 A 
ATOM     81  C   UNL A   1      41.489  21.158  28.072  1.00  0.00     0.040 A 
ATOM     82  F   UNL A   1      42.186  22.711  29.686  1.00  0.00    -0.206 F 
ATOM     83  C   UNL A   1      41.210  20.833  26.747  1.00  0.00     0.006 A 
ENDBRANCH  55  76
BRANCH  67  84
ATOM     84  C   UNL A   1      48.438  26.465  27.347  1.00  0.00     0.057 A 
ATOM     85  C   UNL A   1      49.248  25.804  28.281  1.00  0.00     0.134 A 
ATOM     86  C   UNL A   1      48.950  26.627  26.053  1.00  0.00     0.134 A 
ATOM     87  F   UNL A   1      48.824  25.623  29.541  1.00  0.00    -0.206 F 
ATOM     88  C   UNL A   1      50.530  25.362  27.953  1.00  0.00     0.040 A 
ATOM     89  C   UNL A   1      50.218  26.158  25.703  1.00  0.00     0.040 A 
ATOM     90  F   UNL A   1      48.226  27.237  25.103  1.00  0.00    -0.206 F 
ATOM     91  C   UNL A   1      51.017  25.534  26.658  1.00  0.00     0.006 A 
ENDBRANCH  67  84
ENDBRANCH  41  42
ENDBRANCH  34  36
ENDBRANCH  33  34
ENDBRANCH  32  33
ENDBRANCH  31  32
ENDBRANCH  30  31
ENDBRANCH  29  30
ENDBRANCH  28  29
ENDBRANCH  27  28
ENDBRANCH   1  27
TORSDOF 24
ENDMDL
