MODEL 1
REMARK VINA RESULT:     -10.9      0.000      0.000
REMARK SMILES Cc1ccc([C@@]23C[C@@H]4C[C@@H](C[C@@](C(=O)N5CCC(C(=O)OCCOCCOCCOCCOC(=O)c6ccc(-c7c8nc(c(-c9c(F)cccc9F)c9ccc([nH]9)c(-c9c(F)cccc9F)c9nc(c(-c%10c(F)cccc%10F)c%10ccc7[nH]%10)C=C9)C=C8)cc6)CC5)(C4)C2)C3)cc1
REMARK SMILES IDX 27 1 26 2 25 3 24 4 23 5 22 6 21 7 19 8 20 9 18 10 13 11
REMARK SMILES IDX 14 12 15 13 16 14 91 15 17 16 90 17 12 18 6 19 7 20 93 21
REMARK SMILES IDX 94 22 8 23 10 24 9 25 92 26 11 27 5 28 1 29 2 30 3 31 96 32
REMARK SMILES IDX 4 33 95 34 28 35 29 36 30 37 31 38 32 39 33 40 34 41 35 42
REMARK SMILES IDX 36 43 37 44 89 45 38 46 88 47 39 48 40 49 41 50 82 51 42 52
REMARK SMILES IDX 87 53 81 54 83 55 43 56 86 57 80 58 79 59 44 61 70 62 53 63
REMARK SMILES IDX 69 64 54 65 57 66 68 67 84 68 55 69 56 70 67 72 85 73 58 74
REMARK SMILES IDX 45 75 46 76 51 77 47 78 48 79 50 80 52 81 49 82 71 83 72 84
REMARK SMILES IDX 77 85 73 86 74 87 76 88 78 89 75 90 59 91 60 92 65 93 61 94
REMARK SMILES IDX 62 95 64 96 66 97 63 98
REMARK H PARENT 83 60 57 71
REMARK Flexibility Score: inf
ROOT
ATOM      1  O   UNL A   1      42.903  21.230  26.565  1.00  0.00    -0.377 OA
ENDROOT
BRANCH   1   2
ATOM      2  C   UNL A   1      41.731  20.527  26.968  1.00  0.00     0.188 C 
BRANCH   2   3
ATOM      3  C   UNL A   1      41.267  19.305  26.151  1.00  0.00     0.188 C 
BRANCH   3   4
ATOM      4  O   UNL A   1      40.115  19.447  25.339  1.00  0.00    -0.376 OA
BRANCH   4   5
ATOM      5  C   UNL A   1      39.090  20.223  25.932  1.00  0.00     0.202 C 
BRANCH   5   6
ATOM      6  C   UNL A   1      37.861  20.524  25.096  1.00  0.00     0.261 C 
BRANCH   6   7
ATOM      7  O   UNL A   1      37.912  21.875  24.646  1.00  0.00    -0.463 OA
BRANCH   7   8
ATOM      8  C   UNL A   1      37.249  22.771  25.398  1.00  0.00     0.309 C 
ATOM      9  O   UNL A   1      37.714  23.434  26.298  1.00  0.00    -0.252 OA
BRANCH   8  10
ATOM     10  C   UNL A   1      35.883  22.989  24.816  1.00  0.00     0.103 C 
ATOM     11  C   UNL A   1      33.006  25.040  22.545  1.00  0.00     0.228 C 
ATOM     12  O   UNL A   1      33.137  24.928  21.324  1.00  0.00    -0.274 OA
ATOM     13  N   UNL A   1      33.718  24.222  23.428  1.00  0.00    -0.342 N 
ATOM     14  C   UNL A   1      34.289  22.966  22.928  1.00  0.00     0.120 C 
ATOM     15  C   UNL A   1      33.917  24.441  24.865  1.00  0.00     0.120 C 
ATOM     16  C   UNL A   1      35.766  22.837  23.302  1.00  0.00     0.037 C 
ATOM     17  C   UNL A   1      35.378  24.374  25.204  1.00  0.00     0.037 C 
BRANCH  11  18
ATOM     18  C   UNL A   1      31.951  26.008  23.127  1.00  0.00     0.051 C 
ATOM     19  C   UNL A   1      31.823  27.903  24.875  1.00  0.00    -0.003 C 
ATOM     20  C   UNL A   1      31.262  28.782  23.718  1.00  0.00     0.015 C 
ATOM     21  C   UNL A   1      32.667  26.800  24.234  1.00  0.00     0.028 C 
ATOM     22  C   UNL A   1      30.657  27.166  25.577  1.00  0.00     0.015 C 
ATOM     23  C   UNL A   1      30.405  27.956  22.736  1.00  0.00    -0.009 C 
ATOM     24  C   UNL A   1      29.866  26.310  24.558  1.00  0.00    -0.009 C 
ATOM     25  C   UNL A   1      29.272  27.257  23.500  1.00  0.00     0.007 C 
ATOM     26  C   UNL A   1      31.264  26.881  22.056  1.00  0.00     0.020 C 
ATOM     27  C   UNL A   1      30.792  25.276  23.863  1.00  0.00     0.020 C 
BRANCH  19  28
ATOM     28  C   UNL A   1      32.688  28.750  25.832  1.00  0.00    -0.042 A 
ATOM     29  C   UNL A   1      35.171  31.247  28.382  1.00  0.00     0.044 C 
ATOM     30  C   UNL A   1      34.301  30.399  27.505  1.00  0.00    -0.051 A 
ATOM     31  C   UNL A   1      34.826  29.239  26.946  1.00  0.00     0.004 A 
ATOM     32  C   UNL A   1      32.973  30.735  27.230  1.00  0.00     0.004 A 
ATOM     33  C   UNL A   1      34.030  28.427  26.137  1.00  0.00     0.004 A 
ATOM     34  C   UNL A   1      32.178  29.924  26.404  1.00  0.00     0.004 A 
ENDBRANCH  19  28
ENDBRANCH  11  18
ENDBRANCH   8  10
ENDBRANCH   7   8
ENDBRANCH   6   7
ENDBRANCH   5   6
ENDBRANCH   4   5
ENDBRANCH   3   4
ENDBRANCH   2   3
ENDBRANCH   1   2
BRANCH   1  35
ATOM     35  C   UNL A   1      43.803  20.569  25.669  1.00  0.00     0.188 C 
BRANCH  35  36
ATOM     36  C   UNL A   1      44.379  21.412  24.541  1.00  0.00     0.188 C 
BRANCH  36  37
ATOM     37  O   UNL A   1      43.495  22.514  24.326  1.00  0.00    -0.376 OA
BRANCH  37  38
ATOM     38  C   UNL A   1      44.035  23.797  24.627  1.00  0.00     0.202 C 
BRANCH  38  39
ATOM     39  C   UNL A   1      43.490  24.383  25.933  1.00  0.00     0.261 C 
BRANCH  39  40
ATOM     40  O   UNL A   1      42.073  24.610  25.778  1.00  0.00    -0.460 OA
BRANCH  40  41
ATOM     41  C   UNL A   1      41.658  25.883  26.012  1.00  0.00     0.338 C 
ATOM     42  O   UNL A   1      41.592  26.765  25.171  1.00  0.00    -0.246 OA
BRANCH  41  43
ATOM     43  C   UNL A   1      41.563  26.139  27.482  1.00  0.00     0.060 A 
ATOM     44  C   UNL A   1      40.305  26.207  28.102  1.00  0.00     0.016 A 
ATOM     45  C   UNL A   1      42.676  26.624  28.155  1.00  0.00     0.016 A 
ATOM     46  C   UNL A   1      40.142  26.920  29.303  1.00  0.00     0.010 A 
ATOM     47  C   UNL A   1      42.488  27.420  29.270  1.00  0.00     0.010 A 
ATOM     48  C   UNL A   1      41.220  27.621  29.840  1.00  0.00    -0.014 A 
BRANCH  48  49
ATOM     49  C   UNL A   1      41.126  28.704  30.850  1.00  0.00     0.031 A 
ATOM     50  C   UNL A   1      40.343  29.947  30.531  1.00  0.00     0.074 A 
ATOM     51  C   UNL A   1      41.414  28.389  32.141  1.00  0.00     0.049 A 
ATOM     52  N   UNL A   1      40.096  30.910  31.355  1.00  0.00    -0.248 NA
ATOM     53  C   UNL A   1      39.733  30.197  29.222  1.00  0.00     0.031 C 
ATOM     54  C   UNL A   1      40.829  28.950  33.363  1.00  0.00     0.029 A 
ATOM     55  N   UNL A   1      42.240  27.411  32.662  1.00  0.00    -0.354 N 
ATOM     56  C   UNL A   1      39.048  31.667  30.849  1.00  0.00     0.074 A 
ATOM     57  C   UNL A   1      38.951  31.254  29.473  1.00  0.00     0.031 C 
ATOM     58  C   UNL A   1      41.315  28.331  34.452  1.00  0.00     0.029 A 
ATOM     59  C   UNL A   1      42.500  27.648  34.020  1.00  0.00     0.049 A 
ATOM     60  H   UNL A   1      42.596  26.649  32.149  1.00  0.00     0.167 HD
ATOM     61  C   UNL A   1      38.288  32.432  31.701  1.00  0.00     0.037 A 
ATOM     62  C   UNL A   1      43.743  28.103  34.388  1.00  0.00     0.037 A 
ATOM     63  C   UNL A   1      38.889  32.514  33.064  1.00  0.00     0.049 A 
ATOM     64  C   UNL A   1      43.783  29.637  34.613  1.00  0.00     0.074 A 
ATOM     65  C   UNL A   1      38.432  32.424  34.371  1.00  0.00     0.029 A 
ATOM     66  N   UNL A   1      40.277  32.560  33.186  1.00  0.00    -0.354 N 
ATOM     67  N   UNL A   1      42.716  30.411  34.662  1.00  0.00    -0.248 NA
ATOM     68  C   UNL A   1      44.996  30.435  34.766  1.00  0.00     0.031 C 
ATOM     69  C   UNL A   1      39.566  32.360  35.250  1.00  0.00     0.029 A 
ATOM     70  C   UNL A   1      40.716  32.475  34.490  1.00  0.00     0.049 A 
ATOM     71  H   UNL A   1      40.885  32.645  32.415  1.00  0.00     0.167 HD
ATOM     72  C   UNL A   1      43.046  31.735  34.756  1.00  0.00     0.074 A 
ATOM     73  C   UNL A   1      44.502  31.690  34.821  1.00  0.00     0.031 C 
ATOM     74  C   UNL A   1      42.127  32.763  34.743  1.00  0.00     0.037 A 
BRANCH  61  75
ATOM     75  C   UNL A   1      36.871  32.957  31.388  1.00  0.00     0.057 A 
ATOM     76  C   UNL A   1      35.735  32.393  32.011  1.00  0.00     0.134 A 
ATOM     77  C   UNL A   1      36.539  33.919  30.405  1.00  0.00     0.134 A 
ATOM     78  F   UNL A   1      35.858  31.480  32.984  1.00  0.00    -0.206 F 
ATOM     79  C   UNL A   1      34.408  32.725  31.670  1.00  0.00     0.040 A 
ATOM     80  C   UNL A   1      35.218  34.307  30.099  1.00  0.00     0.040 A 
ATOM     81  F   UNL A   1      37.465  34.500  29.633  1.00  0.00    -0.206 F 
ATOM     82  C   UNL A   1      34.142  33.697  30.719  1.00  0.00     0.006 A 
ENDBRANCH  61  75
BRANCH  62  83
ATOM     83  C   UNL A   1      44.763  27.115  33.870  1.00  0.00     0.057 A 
ATOM     84  C   UNL A   1      44.736  25.875  34.560  1.00  0.00     0.134 A 
ATOM     85  C   UNL A   1      45.018  27.044  32.493  1.00  0.00     0.134 A 
ATOM     86  F   UNL A   1      44.567  25.854  35.892  1.00  0.00    -0.206 F 
ATOM     87  C   UNL A   1      44.601  24.658  33.879  1.00  0.00     0.040 A 
ATOM     88  C   UNL A   1      44.935  25.817  31.808  1.00  0.00     0.040 A 
ATOM     89  F   UNL A   1      45.108  28.164  31.762  1.00  0.00    -0.206 F 
ATOM     90  C   UNL A   1      44.634  24.637  32.490  1.00  0.00     0.006 A 
ENDBRANCH  62  83
BRANCH  74  91
ATOM     91  C   UNL A   1      42.488  34.236  34.834  1.00  0.00     0.057 A 
ATOM     92  C   UNL A   1      42.438  34.966  36.022  1.00  0.00     0.134 A 
ATOM     93  C   UNL A   1      42.853  34.995  33.693  1.00  0.00     0.134 A 
ATOM     94  F   UNL A   1      41.874  34.457  37.126  1.00  0.00    -0.206 F 
ATOM     95  C   UNL A   1      42.928  36.275  36.113  1.00  0.00     0.040 A 
ATOM     96  C   UNL A   1      43.300  36.314  33.760  1.00  0.00     0.040 A 
ATOM     97  F   UNL A   1      42.794  34.511  32.445  1.00  0.00    -0.206 F 
ATOM     98  C   UNL A   1      43.390  36.942  34.985  1.00  0.00     0.006 A 
ENDBRANCH  74  91
ENDBRANCH  48  49
ENDBRANCH  41  43
ENDBRANCH  40  41
ENDBRANCH  39  40
ENDBRANCH  38  39
ENDBRANCH  37  38
ENDBRANCH  36  37
ENDBRANCH  35  36
ENDBRANCH   1  35
TORSDOF 22
ENDMDL
MODEL 2
REMARK VINA RESULT:     -10.4      3.356      6.928
REMARK SMILES Cc1ccc([C@@]23C[C@@H]4C[C@@H](C[C@@](C(=O)N5CCC(C(=O)OCCOCCOCCOCCOC(=O)c6ccc(-c7c8nc(c(-c9c(F)cccc9F)c9ccc([nH]9)c(-c9c(F)cccc9F)c9nc(c(-c%10c(F)cccc%10F)c%10ccc7[nH]%10)C=C9)C=C8)cc6)CC5)(C4)C2)C3)cc1
REMARK SMILES IDX 27 1 26 2 25 3 24 4 23 5 22 6 21 7 19 8 20 9 18 10 13 11
REMARK SMILES IDX 14 12 15 13 16 14 91 15 17 16 90 17 12 18 6 19 7 20 93 21
REMARK SMILES IDX 94 22 8 23 10 24 9 25 92 26 11 27 5 28 1 29 2 30 3 31 96 32
REMARK SMILES IDX 4 33 95 34 28 35 29 36 30 37 31 38 32 39 33 40 34 41 35 42
REMARK SMILES IDX 36 43 37 44 89 45 38 46 88 47 39 48 40 49 41 50 82 51 42 52
REMARK SMILES IDX 87 53 81 54 83 55 43 56 86 57 80 58 79 59 44 61 70 62 53 63
REMARK SMILES IDX 69 64 54 65 57 66 68 67 84 68 55 69 56 70 67 72 85 73 58 74
REMARK SMILES IDX 45 75 46 76 51 77 47 78 48 79 50 80 52 81 49 82 71 83 72 84
REMARK SMILES IDX 77 85 73 86 74 87 76 88 78 89 75 90 59 91 60 92 65 93 61 94
REMARK SMILES IDX 62 95 64 96 66 97 63 98
REMARK H PARENT 83 60 57 71
REMARK Flexibility Score: inf
ROOT
ATOM      1  O   UNL A   1      38.743  28.494  28.195  1.00  0.00    -0.377 OA
ENDROOT
BRANCH   1   2
ATOM      2  C   UNL A   1      38.898  29.823  28.683  1.00  0.00     0.188 C 
BRANCH   2   3
ATOM      3  C   UNL A   1      37.644  30.667  28.984  1.00  0.00     0.188 C 
BRANCH   3   4
ATOM      4  O   UNL A   1      36.728  30.897  27.929  1.00  0.00    -0.376 OA
BRANCH   4   5
ATOM      5  C   UNL A   1      35.527  30.157  28.042  1.00  0.00     0.202 C 
BRANCH   5   6
ATOM      6  C   UNL A   1      34.262  30.776  27.480  1.00  0.00     0.261 C 
BRANCH   6   7
ATOM      7  O   UNL A   1      33.216  29.808  27.485  1.00  0.00    -0.463 OA
BRANCH   7   8
ATOM      8  C   UNL A   1      32.305  29.921  26.503  1.00  0.00     0.309 C 
ATOM      9  O   UNL A   1      32.050  30.924  25.876  1.00  0.00    -0.252 OA
BRANCH   8  10
ATOM     10  C   UNL A   1      31.794  28.557  26.145  1.00  0.00     0.103 C 
ATOM     11  C   UNL A   1      31.800  24.357  26.224  1.00  0.00     0.228 C 
ATOM     12  O   UNL A   1      31.395  23.860  27.278  1.00  0.00    -0.274 OA
ATOM     13  N   UNL A   1      31.621  25.717  25.949  1.00  0.00    -0.342 N 
ATOM     14  C   UNL A   1      30.600  26.463  26.692  1.00  0.00     0.120 C 
ATOM     15  C   UNL A   1      32.311  26.504  24.921  1.00  0.00     0.120 C 
ATOM     16  C   UNL A   1      31.172  27.752  27.283  1.00  0.00     0.037 C 
ATOM     17  C   UNL A   1      32.921  27.733  25.530  1.00  0.00     0.037 C 
BRANCH  11  18
ATOM     18  C   UNL A   1      32.405  23.456  25.123  1.00  0.00     0.051 C 
ATOM     19  C   UNL A   1      34.701  22.469  24.480  1.00  0.00    -0.003 C 
ATOM     20  C   UNL A   1      33.994  21.082  24.527  1.00  0.00     0.015 C 
ATOM     21  C   UNL A   1      33.916  23.405  25.400  1.00  0.00     0.028 C 
ATOM     22  C   UNL A   1      34.556  23.076  23.063  1.00  0.00     0.015 C 
ATOM     23  C   UNL A   1      32.524  21.173  24.068  1.00  0.00    -0.009 C 
ATOM     24  C   UNL A   1      33.061  23.196  22.677  1.00  0.00    -0.009 C 
ATOM     25  C   UNL A   1      32.458  21.781  22.661  1.00  0.00     0.007 C 
ATOM     26  C   UNL A   1      31.725  22.074  25.021  1.00  0.00     0.020 C 
ATOM     27  C   UNL A   1      32.291  24.074  23.700  1.00  0.00     0.020 C 
BRANCH  19  28
ATOM     28  C   UNL A   1      36.164  22.351  24.958  1.00  0.00    -0.042 A 
ATOM     29  C   UNL A   1      40.220  21.971  26.476  1.00  0.00     0.044 C 
ATOM     30  C   UNL A   1      38.822  22.084  25.950  1.00  0.00    -0.051 A 
ATOM     31  C   UNL A   1      38.197  23.326  25.942  1.00  0.00     0.004 A 
ATOM     32  C   UNL A   1      38.121  20.976  25.463  1.00  0.00     0.004 A 
ATOM     33  C   UNL A   1      36.900  23.456  25.444  1.00  0.00     0.004 A 
ATOM     34  C   UNL A   1      36.810  21.108  24.976  1.00  0.00     0.004 A 
ENDBRANCH  19  28
ENDBRANCH  11  18
ENDBRANCH   8  10
ENDBRANCH   7   8
ENDBRANCH   6   7
ENDBRANCH   5   6
ENDBRANCH   4   5
ENDBRANCH   3   4
ENDBRANCH   2   3
ENDBRANCH   1   2
BRANCH   1  35
ATOM     35  C   UNL A   1      39.743  27.532  28.544  1.00  0.00     0.188 C 
BRANCH  35  36
ATOM     36  C   UNL A   1      41.069  27.630  27.803  1.00  0.00     0.188 C 
BRANCH  36  37
ATOM     37  O   UNL A   1      41.410  26.319  27.348  1.00  0.00    -0.376 OA
BRANCH  37  38
ATOM     38  C   UNL A   1      41.763  26.223  25.972  1.00  0.00     0.202 C 
BRANCH  38  39
ATOM     39  C   UNL A   1      42.879  25.207  25.711  1.00  0.00     0.261 C 
BRANCH  39  40
ATOM     40  O   UNL A   1      44.060  25.629  26.427  1.00  0.00    -0.460 OA
BRANCH  40  41
ATOM     41  C   UNL A   1      45.020  24.679  26.578  1.00  0.00     0.338 C 
ATOM     42  O   UNL A   1      45.515  24.030  25.671  1.00  0.00    -0.246 OA
BRANCH  41  43
ATOM     43  C   UNL A   1      45.189  24.335  28.023  1.00  0.00     0.060 A 
ATOM     44  C   UNL A   1      44.203  23.585  28.685  1.00  0.00     0.016 A 
ATOM     45  C   UNL A   1      46.136  25.020  28.773  1.00  0.00     0.016 A 
ATOM     46  C   UNL A   1      44.061  23.674  30.082  1.00  0.00     0.010 A 
ATOM     47  C   UNL A   1      45.918  25.193  30.128  1.00  0.00     0.010 A 
ATOM     48  C   UNL A   1      44.857  24.565  30.801  1.00  0.00    -0.014 A 
BRANCH  48  49
ATOM     49  C   UNL A   1      44.579  25.052  32.175  1.00  0.00     0.031 A 
ATOM     50  C   UNL A   1      43.958  26.408  32.367  1.00  0.00     0.074 A 
ATOM     51  C   UNL A   1      44.536  24.131  33.174  1.00  0.00     0.049 A 
ATOM     52  N   UNL A   1      43.569  26.901  33.496  1.00  0.00    -0.248 NA
ATOM     53  C   UNL A   1      43.690  27.331  31.262  1.00  0.00     0.031 C 
ATOM     54  C   UNL A   1      43.706  24.143  34.382  1.00  0.00     0.029 A 
ATOM     55  N   UNL A   1      45.164  22.906  33.290  1.00  0.00    -0.354 N 
ATOM     56  C   UNL A   1      42.712  27.963  33.243  1.00  0.00     0.074 A 
ATOM     57  C   UNL A   1      42.924  28.260  31.849  1.00  0.00     0.031 C 
ATOM     58  C   UNL A   1      43.887  23.020  35.097  1.00  0.00     0.029 A 
ATOM     59  C   UNL A   1      45.105  22.438  34.613  1.00  0.00     0.049 A 
ATOM     60  H   UNL A   1      45.594  22.425  32.546  1.00  0.00     0.167 HD
ATOM     61  C   UNL A   1      41.810  28.353  34.204  1.00  0.00     0.037 A 
ATOM     62  C   UNL A   1      46.246  22.465  35.377  1.00  0.00     0.037 A 
ATOM     63  C   UNL A   1      42.073  27.694  35.516  1.00  0.00     0.049 A 
ATOM     64  C   UNL A   1      46.307  23.690  36.327  1.00  0.00     0.074 A 
ATOM     65  C   UNL A   1      41.314  27.079  36.502  1.00  0.00     0.029 A 
ATOM     66  N   UNL A   1      43.392  27.456  35.897  1.00  0.00    -0.354 N 
ATOM     67  N   UNL A   1      45.300  24.510  36.552  1.00  0.00    -0.248 NA
ATOM     68  C   UNL A   1      47.488  24.120  37.071  1.00  0.00     0.031 C 
ATOM     69  C   UNL A   1      42.202  26.434  37.429  1.00  0.00     0.029 A 
ATOM     70  C   UNL A   1      43.504  26.706  37.048  1.00  0.00     0.049 A 
ATOM     71  H   UNL A   1      44.170  27.793  35.394  1.00  0.00     0.167 HD
ATOM     72  C   UNL A   1      45.664  25.566  37.340  1.00  0.00     0.074 A 
ATOM     73  C   UNL A   1      47.059  25.266  37.642  1.00  0.00     0.031 C 
ATOM     74  C   UNL A   1      44.827  26.614  37.664  1.00  0.00     0.037 A 
BRANCH  61  75
ATOM     75  C   UNL A   1      40.536  29.181  33.933  1.00  0.00     0.057 A 
ATOM     76  C   UNL A   1      39.524  28.694  33.075  1.00  0.00     0.134 A 
ATOM     77  C   UNL A   1      40.294  30.502  34.377  1.00  0.00     0.134 A 
ATOM     78  F   UNL A   1      39.575  27.452  32.575  1.00  0.00    -0.206 F 
ATOM     79  C   UNL A   1      38.405  29.453  32.674  1.00  0.00     0.040 A 
ATOM     80  C   UNL A   1      39.147  31.248  34.035  1.00  0.00     0.040 A 
ATOM     81  F   UNL A   1      41.177  31.180  35.118  1.00  0.00    -0.206 F 
ATOM     82  C   UNL A   1      38.203  30.733  33.164  1.00  0.00     0.006 A 
ENDBRANCH  61  75
BRANCH  62  83
ATOM     83  C   UNL A   1      47.309  21.684  34.639  1.00  0.00     0.057 A 
ATOM     84  C   UNL A   1      48.450  22.464  34.319  1.00  0.00     0.134 A 
ATOM     85  C   UNL A   1      47.558  20.351  34.994  1.00  0.00     0.134 A 
ATOM     86  F   UNL A   1      48.298  23.732  33.902  1.00  0.00    -0.206 F 
ATOM     87  C   UNL A   1      49.742  22.062  34.684  1.00  0.00     0.040 A 
ATOM     88  C   UNL A   1      48.862  19.923  35.312  1.00  0.00     0.040 A 
ATOM     89  F   UNL A   1      46.543  19.521  35.269  1.00  0.00    -0.206 F 
ATOM     90  C   UNL A   1      49.940  20.807  35.246  1.00  0.00     0.006 A 
ENDBRANCH  62  83
BRANCH  74  91
ATOM     91  C   UNL A   1      45.229  27.796  38.528  1.00  0.00     0.057 A 
ATOM     92  C   UNL A   1      45.123  27.800  39.920  1.00  0.00     0.134 A 
ATOM     93  C   UNL A   1      45.695  29.014  37.971  1.00  0.00     0.134 A 
ATOM     94  F   UNL A   1      44.470  26.826  40.569  1.00  0.00    -0.206 F 
ATOM     95  C   UNL A   1      45.649  28.834  40.704  1.00  0.00     0.040 A 
ATOM     96  C   UNL A   1      46.178  30.073  38.738  1.00  0.00     0.040 A 
ATOM     97  F   UNL A   1      45.703  29.258  36.655  1.00  0.00    -0.206 F 
ATOM     98  C   UNL A   1      46.207  29.962  40.114  1.00  0.00     0.006 A 
ENDBRANCH  74  91
ENDBRANCH  48  49
ENDBRANCH  41  43
ENDBRANCH  40  41
ENDBRANCH  39  40
ENDBRANCH  38  39
ENDBRANCH  37  38
ENDBRANCH  36  37
ENDBRANCH  35  36
ENDBRANCH   1  35
TORSDOF 22
ENDMDL
MODEL 3
REMARK VINA RESULT:     -10.4      4.786     10.814
REMARK SMILES Cc1ccc([C@@]23C[C@@H]4C[C@@H](C[C@@](C(=O)N5CCC(C(=O)OCCOCCOCCOCCOC(=O)c6ccc(-c7c8nc(c(-c9c(F)cccc9F)c9ccc([nH]9)c(-c9c(F)cccc9F)c9nc(c(-c%10c(F)cccc%10F)c%10ccc7[nH]%10)C=C9)C=C8)cc6)CC5)(C4)C2)C3)cc1
REMARK SMILES IDX 27 1 26 2 25 3 24 4 23 5 22 6 21 7 19 8 20 9 18 10 13 11
REMARK SMILES IDX 14 12 15 13 16 14 91 15 17 16 90 17 12 18 6 19 7 20 93 21
REMARK SMILES IDX 94 22 8 23 10 24 9 25 92 26 11 27 5 28 1 29 2 30 3 31 96 32
REMARK SMILES IDX 4 33 95 34 28 35 29 36 30 37 31 38 32 39 33 40 34 41 35 42
REMARK SMILES IDX 36 43 37 44 89 45 38 46 88 47 39 48 40 49 41 50 82 51 42 52
REMARK SMILES IDX 87 53 81 54 83 55 43 56 86 57 80 58 79 59 44 61 70 62 53 63
REMARK SMILES IDX 69 64 54 65 57 66 68 67 84 68 55 69 56 70 67 72 85 73 58 74
REMARK SMILES IDX 45 75 46 76 51 77 47 78 48 79 50 80 52 81 49 82 71 83 72 84
REMARK SMILES IDX 77 85 73 86 74 87 76 88 78 89 75 90 59 91 60 92 65 93 61 94
REMARK SMILES IDX 62 95 64 96 66 97 63 98
REMARK H PARENT 83 60 57 71
REMARK Flexibility Score: inf
ROOT
ATOM      1  O   UNL A   1      34.058  33.513  28.547  1.00  0.00    -0.377 OA
ENDROOT
BRANCH   1   2
ATOM      2  C   UNL A   1      32.982  33.158  27.684  1.00  0.00     0.188 C 
BRANCH   2   3
ATOM      3  C   UNL A   1      32.813  31.686  27.257  1.00  0.00     0.188 C 
BRANCH   3   4
ATOM      4  O   UNL A   1      31.629  31.325  26.571  1.00  0.00    -0.376 OA
BRANCH   4   5
ATOM      5  C   UNL A   1      31.770  30.181  25.750  1.00  0.00     0.202 C 
BRANCH   5   6
ATOM      6  C   UNL A   1      30.883  30.078  24.525  1.00  0.00     0.261 C 
BRANCH   6   7
ATOM      7  O   UNL A   1      30.693  28.706  24.189  1.00  0.00    -0.463 OA
BRANCH   7   8
ATOM      8  C   UNL A   1      30.756  28.408  22.879  1.00  0.00     0.309 C 
ATOM      9  O   UNL A   1      30.166  28.975  21.987  1.00  0.00    -0.252 OA
BRANCH   8  10
ATOM     10  C   UNL A   1      31.840  27.396  22.655  1.00  0.00     0.103 C 
ATOM     11  C   UNL A   1      33.494  23.534  22.670  1.00  0.00     0.228 C 
ATOM     12  O   UNL A   1      33.086  22.795  21.771  1.00  0.00    -0.274 OA
ATOM     13  N   UNL A   1      33.237  24.909  22.649  1.00  0.00    -0.342 N 
ATOM     14  C   UNL A   1      32.863  25.542  21.380  1.00  0.00     0.120 C 
ATOM     15  C   UNL A   1      33.366  25.845  23.772  1.00  0.00     0.120 C 
ATOM     16  C   UNL A   1      31.600  26.392  21.531  1.00  0.00     0.037 C 
ATOM     17  C   UNL A   1      32.095  26.625  23.946  1.00  0.00     0.037 C 
BRANCH  11  18
ATOM     18  C   UNL A   1      34.410  22.972  23.781  1.00  0.00     0.051 C 
ATOM     19  C   UNL A   1      34.757  20.761  25.065  1.00  0.00    -0.003 C 
ATOM     20  C   UNL A   1      36.234  20.839  24.578  1.00  0.00     0.015 C 
ATOM     21  C   UNL A   1      33.911  21.545  24.061  1.00  0.00     0.028 C 
ATOM     22  C   UNL A   1      34.612  21.525  26.403  1.00  0.00     0.015 C 
ATOM     23  C   UNL A   1      36.730  22.297  24.486  1.00  0.00    -0.009 C 
ATOM     24  C   UNL A   1      35.071  22.994  26.239  1.00  0.00    -0.009 C 
ATOM     25  C   UNL A   1      36.557  22.989  25.845  1.00  0.00     0.007 C 
ATOM     26  C   UNL A   1      35.912  23.071  23.442  1.00  0.00     0.020 C 
ATOM     27  C   UNL A   1      34.247  23.714  25.138  1.00  0.00     0.020 C 
BRANCH  19  28
ATOM     28  C   UNL A   1      34.283  19.293  25.133  1.00  0.00    -0.042 A 
ATOM     29  C   UNL A   1      32.876  15.180  25.150  1.00  0.00     0.044 C 
ATOM     30  C   UNL A   1      33.376  16.592  25.135  1.00  0.00    -0.051 A 
ATOM     31  C   UNL A   1      32.588  17.597  25.684  1.00  0.00     0.004 A 
ATOM     32  C   UNL A   1      34.616  16.935  24.586  1.00  0.00     0.004 A 
ATOM     33  C   UNL A   1      33.040  18.918  25.692  1.00  0.00     0.004 A 
ATOM     34  C   UNL A   1      35.062  18.266  24.584  1.00  0.00     0.004 A 
ENDBRANCH  19  28
ENDBRANCH  11  18
ENDBRANCH   8  10
ENDBRANCH   7   8
ENDBRANCH   6   7
ENDBRANCH   5   6
ENDBRANCH   4   5
ENDBRANCH   3   4
ENDBRANCH   2   3
ENDBRANCH   1   2
BRANCH   1  35
ATOM     35  C   UNL A   1      35.345  32.947  28.279  1.00  0.00     0.188 C 
BRANCH  35  36
ATOM     36  C   UNL A   1      36.551  33.751  28.742  1.00  0.00     0.188 C 
BRANCH  36  37
ATOM     37  O   UNL A   1      37.128  33.067  29.856  1.00  0.00    -0.376 OA
BRANCH  37  38
ATOM     38  C   UNL A   1      36.907  31.660  29.890  1.00  0.00     0.202 C 
BRANCH  38  39
ATOM     39  C   UNL A   1      38.046  30.862  29.248  1.00  0.00     0.261 C 
BRANCH  39  40
ATOM     40  O   UNL A   1      38.661  30.041  30.264  1.00  0.00    -0.460 OA
BRANCH  40  41
ATOM     41  C   UNL A   1      39.981  30.279  30.486  1.00  0.00     0.338 C 
ATOM     42  O   UNL A   1      40.447  31.336  30.878  1.00  0.00    -0.246 OA
BRANCH  41  43
ATOM     43  C   UNL A   1      40.812  29.172  29.920  1.00  0.00     0.060 A 
ATOM     44  C   UNL A   1      41.307  28.165  30.765  1.00  0.00     0.016 A 
ATOM     45  C   UNL A   1      41.354  29.317  28.651  1.00  0.00     0.016 A 
ATOM     46  C   UNL A   1      42.455  27.437  30.406  1.00  0.00     0.010 A 
ATOM     47  C   UNL A   1      42.547  28.681  28.357  1.00  0.00     0.010 A 
ATOM     48  C   UNL A   1      43.144  27.767  29.240  1.00  0.00    -0.014 A 
BRANCH  48  49
ATOM     49  C   UNL A   1      44.541  27.377  28.925  1.00  0.00     0.031 A 
ATOM     50  C   UNL A   1      45.673  28.264  29.363  1.00  0.00     0.074 A 
ATOM     51  C   UNL A   1      44.775  26.077  28.601  1.00  0.00     0.049 A 
ATOM     52  N   UNL A   1      46.929  27.987  29.246  1.00  0.00    -0.248 NA
ATOM     53  C   UNL A   1      45.471  29.560  30.013  1.00  0.00     0.031 C 
ATOM     54  C   UNL A   1      45.971  25.275  28.877  1.00  0.00     0.029 A 
ATOM     55  N   UNL A   1      43.944  25.133  28.029  1.00  0.00    -0.354 N 
ATOM     56  C   UNL A   1      47.646  28.825  30.090  1.00  0.00     0.074 A 
ATOM     57  C   UNL A   1      46.704  29.857  30.442  1.00  0.00     0.031 C 
ATOM     58  C   UNL A   1      45.800  24.006  28.471  1.00  0.00     0.029 A 
ATOM     59  C   UNL A   1      44.682  24.029  27.572  1.00  0.00     0.049 A 
ATOM     60  H   UNL A   1      42.966  25.221  27.952  1.00  0.00     0.167 HD
ATOM     61  C   UNL A   1      48.898  28.452  30.516  1.00  0.00     0.037 A 
ATOM     62  C   UNL A   1      44.866  23.867  26.221  1.00  0.00     0.037 A 
ATOM     63  C   UNL A   1      49.407  27.261  29.777  1.00  0.00     0.049 A 
ATOM     64  C   UNL A   1      46.249  24.377  25.735  1.00  0.00     0.074 A 
ATOM     65  C   UNL A   1      50.056  26.078  30.101  1.00  0.00     0.029 A 
ATOM     66  N   UNL A   1      49.093  27.122  28.425  1.00  0.00    -0.354 N 
ATOM     67  N   UNL A   1      47.236  24.731  26.535  1.00  0.00    -0.248 NA
ATOM     68  C   UNL A   1      46.634  24.566  24.340  1.00  0.00     0.031 C 
ATOM     69  C   UNL A   1      50.067  25.228  28.944  1.00  0.00     0.029 A 
ATOM     70  C   UNL A   1      49.483  25.913  27.893  1.00  0.00     0.049 A 
ATOM     71  H   UNL A   1      48.639  27.822  27.901  1.00  0.00     0.167 HD
ATOM     72  C   UNL A   1      48.296  25.248  25.844  1.00  0.00     0.074 A 
ATOM     73  C   UNL A   1      47.861  25.116  24.458  1.00  0.00     0.031 C 
ATOM     74  C   UNL A   1      49.426  25.769  26.438  1.00  0.00     0.037 A 
BRANCH  61  75
ATOM     75  C   UNL A   1      49.614  29.025  31.757  1.00  0.00     0.057 A 
ATOM     76  C   UNL A   1      50.624  30.005  31.623  1.00  0.00     0.134 A 
ATOM     77  C   UNL A   1      49.454  28.578  33.089  1.00  0.00     0.134 A 
ATOM     78  F   UNL A   1      50.901  30.560  30.436  1.00  0.00    -0.206 F 
ATOM     79  C   UNL A   1      51.414  30.468  32.695  1.00  0.00     0.040 A 
ATOM     80  C   UNL A   1      50.192  29.080  34.181  1.00  0.00     0.040 A 
ATOM     81  F   UNL A   1      48.617  27.587  33.414  1.00  0.00    -0.206 F 
ATOM     82  C   UNL A   1      51.192  30.016  33.986  1.00  0.00     0.006 A 
ENDBRANCH  61  75
BRANCH  62  83
ATOM     83  C   UNL A   1      43.501  23.832  25.574  1.00  0.00     0.057 A 
ATOM     84  C   UNL A   1      42.723  22.715  25.977  1.00  0.00     0.134 A 
ATOM     85  C   UNL A   1      42.797  25.029  25.381  1.00  0.00     0.134 A 
ATOM     86  F   UNL A   1      43.305  21.513  26.118  1.00  0.00    -0.206 F 
ATOM     87  C   UNL A   1      41.434  22.867  26.502  1.00  0.00     0.040 A 
ATOM     88  C   UNL A   1      41.480  25.175  25.858  1.00  0.00     0.040 A 
ATOM     89  F   UNL A   1      43.434  26.129  24.956  1.00  0.00    -0.206 F 
ATOM     90  C   UNL A   1      40.833  24.120  26.503  1.00  0.00     0.006 A 
ENDBRANCH  62  83
BRANCH  74  91
ATOM     91  C   UNL A   1      50.602  26.357  25.678  1.00  0.00     0.057 A 
ATOM     92  C   UNL A   1      51.797  25.670  25.464  1.00  0.00     0.134 A 
ATOM     93  C   UNL A   1      50.586  27.681  25.170  1.00  0.00     0.134 A 
ATOM     94  F   UNL A   1      52.057  24.516  26.094  1.00  0.00    -0.206 F 
ATOM     95  C   UNL A   1      52.803  26.167  24.625  1.00  0.00     0.040 A 
ATOM     96  C   UNL A   1      51.599  28.208  24.371  1.00  0.00     0.040 A 
ATOM     97  F   UNL A   1      49.597  28.547  25.423  1.00  0.00    -0.206 F 
ATOM     98  C   UNL A   1      52.691  27.428  24.050  1.00  0.00     0.006 A 
ENDBRANCH  74  91
ENDBRANCH  48  49
ENDBRANCH  41  43
ENDBRANCH  40  41
ENDBRANCH  39  40
ENDBRANCH  38  39
ENDBRANCH  37  38
ENDBRANCH  36  37
ENDBRANCH  35  36
ENDBRANCH   1  35
TORSDOF 22
ENDMDL
