MODEL 1
REMARK VINA RESULT:     -10.5      0.000      0.000
REMARK SMILES O=C(OCCOCCOCCOCCOC(=O)[C@@H](Cc1ccc(O)cc1)Nc1c2ccccc2nc2ccccc12)c1ccc(-c2c3nc(c(-c4c(F)cccc4F)c4ccc([nH]4)c(-c4c(F)cccc4F)c4nc(c(-c5c(F)cccc5F)c5ccc2[nH]5)C=C4)C=C3)cc1
REMARK SMILES IDX 10 1 9 2 8 3 7 4 6 5 5 6 4 7 3 8 2 9 1 10 42 11 43 12 95 13
REMARK SMILES IDX 44 14 94 15 45 16 46 17 47 18 88 19 48 20 93 21 87 22 89 23
REMARK SMILES IDX 49 24 92 25 86 26 85 27 50 29 76 30 59 31 75 32 60 33 63 34
REMARK SMILES IDX 74 35 90 36 61 37 62 38 73 40 91 41 64 42 51 43 52 44 57 45
REMARK SMILES IDX 53 46 54 47 56 48 58 49 55 50 77 51 78 52 83 53 79 54 80 55
REMARK SMILES IDX 82 56 84 57 81 58 65 59 66 60 71 61 67 62 68 63 70 64 72 65
REMARK SMILES IDX 69 66 11 67 12 68 13 69 14 70 15 71 16 72 17 73 18 74 19 75
REMARK SMILES IDX 20 76 21 77 26 78 22 79 25 80 23 81 24 82 27 84 28 86 29 87
REMARK SMILES IDX 41 88 30 89 34 90 36 91 40 92 31 93 33 94 35 95 37 96 39 97
REMARK SMILES IDX 32 98 38 99
REMARK H PARENT 89 28 63 39 24 83 27 85
REMARK Flexibility Score: inf
ROOT
ATOM      1  C   UNL A   1      36.423  21.991  25.281  1.00  0.00     0.188 C 
ENDROOT
BRANCH   1   2
ATOM      2  O   UNL A   1      37.774  22.355  25.036  1.00  0.00    -0.377 OA
BRANCH   2   3
ATOM      3  C   UNL A   1      38.729  22.320  26.092  1.00  0.00     0.188 C 
BRANCH   3   4
ATOM      4  C   UNL A   1      39.803  21.240  26.074  1.00  0.00     0.188 C 
BRANCH   4   5
ATOM      5  O   UNL A   1      40.988  21.549  26.806  1.00  0.00    -0.376 OA
BRANCH   5   6
ATOM      6  C   UNL A   1      42.203  21.625  26.071  1.00  0.00     0.202 C 
BRANCH   6   7
ATOM      7  C   UNL A   1      42.618  23.034  25.639  1.00  0.00     0.261 C 
BRANCH   7   8
ATOM      8  O   UNL A   1      41.669  24.032  26.039  1.00  0.00    -0.460 OA
BRANCH   8   9
ATOM      9  C   UNL A   1      41.933  25.321  25.702  1.00  0.00     0.338 C 
ATOM     10  O   UNL A   1      42.702  25.622  24.800  1.00  0.00    -0.246 OA
BRANCH   9  11
ATOM     11  C   UNL A   1      41.507  26.323  26.721  1.00  0.00     0.060 A 
ATOM     12  C   UNL A   1      42.066  27.600  26.789  1.00  0.00     0.016 A 
ATOM     13  C   UNL A   1      40.519  25.957  27.647  1.00  0.00     0.016 A 
ATOM     14  C   UNL A   1      41.592  28.539  27.694  1.00  0.00     0.010 A 
ATOM     15  C   UNL A   1      40.110  26.865  28.628  1.00  0.00     0.010 A 
ATOM     16  C   UNL A   1      40.666  28.151  28.662  1.00  0.00    -0.014 A 
BRANCH  16  17
ATOM     17  C   UNL A   1      40.592  28.987  29.874  1.00  0.00     0.031 A 
ATOM     18  C   UNL A   1      39.512  30.033  29.900  1.00  0.00     0.074 A 
ATOM     19  C   UNL A   1      41.371  28.759  30.942  1.00  0.00     0.049 A 
ATOM     20  N   UNL A   1      39.169  30.855  30.853  1.00  0.00    -0.248 NA
ATOM     21  C   UNL A   1      38.669  30.129  28.692  1.00  0.00     0.031 C 
ATOM     22  C   UNL A   1      42.360  27.690  31.058  1.00  0.00     0.029 A 
ATOM     23  N   UNL A   1      41.440  29.418  32.140  1.00  0.00    -0.354 N 
ATOM     24  C   UNL A   1      38.060  31.536  30.371  1.00  0.00     0.074 A 
ATOM     25  C   UNL A   1      37.771  31.026  29.053  1.00  0.00     0.031 C 
ATOM     26  C   UNL A   1      42.961  27.784  32.258  1.00  0.00     0.029 A 
ATOM     27  C   UNL A   1      42.418  28.938  32.974  1.00  0.00     0.049 A 
ATOM     28  H   UNL A   1      40.845  30.166  32.380  1.00  0.00     0.167 HD
ATOM     29  C   UNL A   1      37.361  32.532  30.959  1.00  0.00     0.037 A 
ATOM     30  C   UNL A   1      42.839  29.412  34.163  1.00  0.00     0.037 A 
ATOM     31  C   UNL A   1      37.738  33.119  32.209  1.00  0.00     0.049 A 
ATOM     32  C   UNL A   1      42.152  30.626  34.735  1.00  0.00     0.074 A 
ATOM     33  C   UNL A   1      37.209  34.223  32.845  1.00  0.00     0.029 A 
ATOM     34  N   UNL A   1      38.786  32.655  32.994  1.00  0.00    -0.354 N 
ATOM     35  N   UNL A   1      41.124  31.292  34.261  1.00  0.00    -0.248 NA
ATOM     36  C   UNL A   1      42.687  31.166  35.992  1.00  0.00     0.031 C 
ATOM     37  C   UNL A   1      37.972  34.457  33.995  1.00  0.00     0.029 A 
ATOM     38  C   UNL A   1      38.940  33.469  34.098  1.00  0.00     0.049 A 
ATOM     39  H   UNL A   1      39.336  31.864  32.794  1.00  0.00     0.167 HD
ATOM     40  C   UNL A   1      40.879  32.318  35.165  1.00  0.00     0.074 A 
ATOM     41  C   UNL A   1      41.864  32.183  36.222  1.00  0.00     0.031 C 
ATOM     42  C   UNL A   1      39.931  33.287  35.128  1.00  0.00     0.037 A 
BRANCH  29  43
ATOM     43  C   UNL A   1      36.222  33.093  30.166  1.00  0.00     0.057 A 
ATOM     44  C   UNL A   1      36.430  33.997  29.115  1.00  0.00     0.134 A 
ATOM     45  C   UNL A   1      34.900  32.824  30.540  1.00  0.00     0.134 A 
ATOM     46  F   UNL A   1      37.675  34.330  28.740  1.00  0.00    -0.206 F 
ATOM     47  C   UNL A   1      35.361  34.638  28.485  1.00  0.00     0.040 A 
ATOM     48  C   UNL A   1      33.824  33.447  29.907  1.00  0.00     0.040 A 
ATOM     49  F   UNL A   1      34.638  31.987  31.555  1.00  0.00    -0.206 F 
ATOM     50  C   UNL A   1      34.054  34.365  28.884  1.00  0.00     0.006 A 
ENDBRANCH  29  43
BRANCH  30  51
ATOM     51  C   UNL A   1      43.991  28.777  34.850  1.00  0.00     0.057 A 
ATOM     52  C   UNL A   1      45.309  29.170  34.594  1.00  0.00     0.134 A 
ATOM     53  C   UNL A   1      43.798  27.757  35.792  1.00  0.00     0.134 A 
ATOM     54  F   UNL A   1      45.564  30.124  33.687  1.00  0.00    -0.206 F 
ATOM     55  C   UNL A   1      46.391  28.574  35.248  1.00  0.00     0.040 A 
ATOM     56  C   UNL A   1      44.868  27.166  36.468  1.00  0.00     0.040 A 
ATOM     57  F   UNL A   1      42.560  27.327  36.080  1.00  0.00    -0.206 F 
ATOM     58  C   UNL A   1      46.171  27.574  36.194  1.00  0.00     0.006 A 
ENDBRANCH  30  51
BRANCH  42  59
ATOM     59  C   UNL A   1      39.893  34.258  36.267  1.00  0.00     0.057 A 
ATOM     60  C   UNL A   1      40.500  35.514  36.179  1.00  0.00     0.134 A 
ATOM     61  C   UNL A   1      39.138  33.972  37.412  1.00  0.00     0.134 A 
ATOM     62  F   UNL A   1      41.237  35.840  35.106  1.00  0.00    -0.206 F 
ATOM     63  C   UNL A   1      40.359  36.459  37.195  1.00  0.00     0.040 A 
ATOM     64  C   UNL A   1      38.976  34.915  38.426  1.00  0.00     0.040 A 
ATOM     65  F   UNL A   1      38.524  32.788  37.544  1.00  0.00    -0.206 F 
ATOM     66  C   UNL A   1      39.585  36.164  38.318  1.00  0.00     0.006 A 
ENDBRANCH  42  59
ENDBRANCH  16  17
ENDBRANCH   9  11
ENDBRANCH   8   9
ENDBRANCH   7   8
ENDBRANCH   6   7
ENDBRANCH   5   6
ENDBRANCH   4   5
ENDBRANCH   3   4
ENDBRANCH   2   3
ENDBRANCH   1   2
BRANCH   1  67
ATOM     67  C   UNL A   1      35.974  20.549  25.009  1.00  0.00     0.188 C 
BRANCH  67  68
ATOM     68  O   UNL A   1      34.611  20.304  25.288  1.00  0.00    -0.376 OA
BRANCH  68  69
ATOM     69  C   UNL A   1      33.925  21.150  26.200  1.00  0.00     0.202 C 
BRANCH  69  70
ATOM     70  C   UNL A   1      32.526  21.687  25.882  1.00  0.00     0.261 C 
BRANCH  70  71
ATOM     71  O   UNL A   1      32.487  22.956  25.198  1.00  0.00    -0.462 OA
BRANCH  71  72
ATOM     72  C   UNL A   1      31.898  23.943  25.925  1.00  0.00     0.328 C 
ATOM     73  O   UNL A   1      30.745  23.839  26.347  1.00  0.00    -0.250 OA
BRANCH  72  74
ATOM     74  C   UNL A   1      32.768  25.174  26.280  1.00  0.00     0.194 C 
BRANCH  74  75
ATOM     75  C   UNL A   1      33.736  25.801  25.254  1.00  0.00     0.072 C 
BRANCH  75  76
ATOM     76  C   UNL A   1      33.417  25.818  23.780  1.00  0.00    -0.045 A 
ATOM     77  C   UNL A   1      33.179  24.595  23.131  1.00  0.00     0.007 A 
ATOM     78  C   UNL A   1      33.451  26.979  23.004  1.00  0.00     0.007 A 
ATOM     79  C   UNL A   1      32.863  24.538  21.775  1.00  0.00     0.046 A 
ATOM     80  C   UNL A   1      33.155  26.927  21.638  1.00  0.00     0.046 A 
ATOM     81  C   UNL A   1      32.837  25.714  21.041  1.00  0.00     0.115 A 
BRANCH  81  82
ATOM     82  O   UNL A   1      32.517  25.716  19.717  1.00  0.00    -0.508 OA
ATOM     83  H   UNL A   1      32.111  24.964  19.331  1.00  0.00     0.293 HD
ENDBRANCH  81  82
ENDBRANCH  75  76
ENDBRANCH  74  75
BRANCH  74  84
ATOM     84  N   UNL A   1      31.916  26.258  26.838  1.00  0.00    -0.371 N 
ATOM     85  H   UNL A   1      31.411  26.099  27.669  1.00  0.00     0.161 HD
BRANCH  84  86
ATOM     86  C   UNL A   1      31.819  27.511  26.197  1.00  0.00     0.054 A 
ATOM     87  C   UNL A   1      30.915  27.724  25.115  1.00  0.00     0.024 A 
ATOM     88  C   UNL A   1      32.665  28.581  26.621  1.00  0.00     0.024 A 
ATOM     89  C   UNL A   1      30.050  26.740  24.569  1.00  0.00     0.012 A 
ATOM     90  C   UNL A   1      30.858  29.023  24.575  1.00  0.00     0.073 A 
ATOM     91  C   UNL A   1      32.493  29.828  25.997  1.00  0.00     0.073 A 
ATOM     92  C   UNL A   1      33.683  28.468  27.608  1.00  0.00     0.012 A 
ATOM     93  C   UNL A   1      29.200  27.018  23.499  1.00  0.00     0.001 A 
ATOM     94  C   UNL A   1      29.982  29.286  23.528  1.00  0.00     0.029 A 
ATOM     95  N   UNL A   1      31.605  30.040  25.018  1.00  0.00    -0.248 NA
ATOM     96  C   UNL A   1      33.286  30.901  26.389  1.00  0.00     0.029 A 
ATOM     97  C   UNL A   1      34.495  29.545  27.958  1.00  0.00     0.001 A 
ATOM     98  C   UNL A   1      29.164  28.300  22.978  1.00  0.00     0.002 A 
ATOM     99  C   UNL A   1      34.285  30.773  27.356  1.00  0.00     0.002 A 
ENDBRANCH  84  86
ENDBRANCH  74  84
ENDBRANCH  72  74
ENDBRANCH  71  72
ENDBRANCH  70  71
ENDBRANCH  69  70
ENDBRANCH  68  69
ENDBRANCH  67  68
ENDBRANCH   1  67
TORSDOF 25
ENDMDL
MODEL 2
REMARK VINA RESULT:     -10.3      1.111      2.434
REMARK SMILES O=C(OCCOCCOCCOCCOC(=O)[C@@H](Cc1ccc(O)cc1)Nc1c2ccccc2nc2ccccc12)c1ccc(-c2c3nc(c(-c4c(F)cccc4F)c4ccc([nH]4)c(-c4c(F)cccc4F)c4nc(c(-c5c(F)cccc5F)c5ccc2[nH]5)C=C4)C=C3)cc1
REMARK SMILES IDX 10 1 9 2 8 3 7 4 6 5 5 6 4 7 3 8 2 9 1 10 42 11 43 12 95 13
REMARK SMILES IDX 44 14 94 15 45 16 46 17 47 18 88 19 48 20 93 21 87 22 89 23
REMARK SMILES IDX 49 24 92 25 86 26 85 27 50 29 76 30 59 31 75 32 60 33 63 34
REMARK SMILES IDX 74 35 90 36 61 37 62 38 73 40 91 41 64 42 51 43 52 44 57 45
REMARK SMILES IDX 53 46 54 47 56 48 58 49 55 50 77 51 78 52 83 53 79 54 80 55
REMARK SMILES IDX 82 56 84 57 81 58 65 59 66 60 71 61 67 62 68 63 70 64 72 65
REMARK SMILES IDX 69 66 11 67 12 68 13 69 14 70 15 71 16 72 17 73 18 74 19 75
REMARK SMILES IDX 20 76 21 77 26 78 22 79 25 80 23 81 24 82 27 84 28 86 29 87
REMARK SMILES IDX 41 88 30 89 34 90 36 91 40 92 31 93 33 94 35 95 37 96 39 97
REMARK SMILES IDX 32 98 38 99
REMARK H PARENT 89 28 63 39 24 83 27 85
REMARK Flexibility Score: inf
ROOT
ATOM      1  C   UNL A   1      36.158  22.126  24.222  1.00  0.00     0.188 C 
ENDROOT
BRANCH   1   2
ATOM      2  O   UNL A   1      37.407  21.467  24.375  1.00  0.00    -0.377 OA
BRANCH   2   3
ATOM      3  C   UNL A   1      38.235  21.749  25.499  1.00  0.00     0.188 C 
BRANCH   3   4
ATOM      4  C   UNL A   1      39.313  20.746  25.887  1.00  0.00     0.188 C 
BRANCH   4   5
ATOM      5  O   UNL A   1      40.309  21.239  26.781  1.00  0.00    -0.376 OA
BRANCH   5   6
ATOM      6  C   UNL A   1      41.666  21.102  26.380  1.00  0.00     0.202 C 
BRANCH   6   7
ATOM      7  C   UNL A   1      42.355  22.401  25.952  1.00  0.00     0.261 C 
BRANCH   7   8
ATOM      8  O   UNL A   1      41.555  23.560  26.222  1.00  0.00    -0.460 OA
BRANCH   8   9
ATOM      9  C   UNL A   1      42.098  24.775  25.951  1.00  0.00     0.338 C 
ATOM     10  O   UNL A   1      43.065  24.916  25.215  1.00  0.00    -0.246 OA
BRANCH   9  11
ATOM     11  C   UNL A   1      41.670  25.861  26.879  1.00  0.00     0.060 A 
ATOM     12  C   UNL A   1      42.310  27.101  26.922  1.00  0.00     0.016 A 
ATOM     13  C   UNL A   1      40.593  25.615  27.744  1.00  0.00     0.016 A 
ATOM     14  C   UNL A   1      41.837  28.120  27.736  1.00  0.00     0.010 A 
ATOM     15  C   UNL A   1      40.177  26.605  28.641  1.00  0.00     0.010 A 
ATOM     16  C   UNL A   1      40.818  27.851  28.648  1.00  0.00    -0.014 A 
BRANCH  16  17
ATOM     17  C   UNL A   1      40.713  28.760  29.804  1.00  0.00     0.031 A 
ATOM     18  C   UNL A   1      39.618  29.789  29.749  1.00  0.00     0.074 A 
ATOM     19  C   UNL A   1      41.479  28.611  30.896  1.00  0.00     0.049 A 
ATOM     20  N   UNL A   1      39.249  30.664  30.644  1.00  0.00    -0.248 NA
ATOM     21  C   UNL A   1      38.793  29.796  28.525  1.00  0.00     0.031 C 
ATOM     22  C   UNL A   1      42.481  27.566  31.093  1.00  0.00     0.029 A 
ATOM     23  N   UNL A   1      41.520  29.345  32.051  1.00  0.00    -0.354 N 
ATOM     24  C   UNL A   1      38.138  31.296  30.104  1.00  0.00     0.074 A 
ATOM     25  C   UNL A   1      37.877  30.701  28.816  1.00  0.00     0.031 C 
ATOM     26  C   UNL A   1      43.061  27.744  32.294  1.00  0.00     0.029 A 
ATOM     27  C   UNL A   1      42.492  28.932  32.928  1.00  0.00     0.049 A 
ATOM     28  H   UNL A   1      40.910  30.096  32.235  1.00  0.00     0.167 HD
ATOM     29  C   UNL A   1      37.416  32.316  30.618  1.00  0.00     0.037 A 
ATOM     30  C   UNL A   1      42.887  29.486  34.091  1.00  0.00     0.037 A 
ATOM     31  C   UNL A   1      37.765  32.985  31.835  1.00  0.00     0.049 A 
ATOM     32  C   UNL A   1      42.174  30.722  34.576  1.00  0.00     0.074 A 
ATOM     33  C   UNL A   1      37.211  34.119  32.392  1.00  0.00     0.029 A 
ATOM     34  N   UNL A   1      38.807  32.587  32.662  1.00  0.00    -0.354 N 
ATOM     35  N   UNL A   1      41.144  31.342  34.046  1.00  0.00    -0.248 NA
ATOM     36  C   UNL A   1      42.681  31.348  35.804  1.00  0.00     0.031 C 
ATOM     37  C   UNL A   1      37.952  34.436  33.537  1.00  0.00     0.029 A 
ATOM     38  C   UNL A   1      38.933  33.471  33.715  1.00  0.00     0.049 A 
ATOM     39  H   UNL A   1      39.372  31.794  32.520  1.00  0.00     0.167 HD
ATOM     40  C   UNL A   1      40.871  32.419  34.880  1.00  0.00     0.074 A 
ATOM     41  C   UNL A   1      41.841  32.364  35.957  1.00  0.00     0.031 C 
ATOM     42  C   UNL A   1      39.910  33.369  34.769  1.00  0.00     0.037 A 
BRANCH  29  43
ATOM     43  C   UNL A   1      36.282  32.809  29.775  1.00  0.00     0.057 A 
ATOM     44  C   UNL A   1      36.496  33.616  28.649  1.00  0.00     0.134 A 
ATOM     45  C   UNL A   1      34.957  32.580  30.167  1.00  0.00     0.134 A 
ATOM     46  F   UNL A   1      37.743  33.910  28.251  1.00  0.00    -0.206 F 
ATOM     47  C   UNL A   1      35.432  34.204  27.962  1.00  0.00     0.040 A 
ATOM     48  C   UNL A   1      33.885  33.148  29.478  1.00  0.00     0.040 A 
ATOM     49  F   UNL A   1      34.689  31.837  31.251  1.00  0.00    -0.206 F 
ATOM     50  C   UNL A   1      34.122  33.972  28.379  1.00  0.00     0.006 A 
ENDBRANCH  29  43
BRANCH  30  51
ATOM     51  C   UNL A   1      44.037  28.912  34.833  1.00  0.00     0.057 A 
ATOM     52  C   UNL A   1      43.860  27.961  35.844  1.00  0.00     0.134 A 
ATOM     53  C   UNL A   1      45.352  29.300  34.541  1.00  0.00     0.134 A 
ATOM     54  F   UNL A   1      42.627  27.564  36.189  1.00  0.00    -0.206 F 
ATOM     55  C   UNL A   1      44.947  27.418  36.537  1.00  0.00     0.040 A 
ATOM     56  C   UNL A   1      46.448  28.751  35.210  1.00  0.00     0.040 A 
ATOM     57  F   UNL A   1      45.592  30.212  33.588  1.00  0.00    -0.206 F 
ATOM     58  C   UNL A   1      46.246  27.807  36.214  1.00  0.00     0.006 A 
ENDBRANCH  30  51
BRANCH  42  59
ATOM     59  C   UNL A   1      39.840  34.408  35.844  1.00  0.00     0.057 A 
ATOM     60  C   UNL A   1      39.107  34.201  37.016  1.00  0.00     0.134 A 
ATOM     61  C   UNL A   1      40.613  35.573  35.751  1.00  0.00     0.134 A 
ATOM     62  F   UNL A   1      38.347  33.104  37.158  1.00  0.00    -0.206 F 
ATOM     63  C   UNL A   1      39.142  35.120  38.065  1.00  0.00     0.040 A 
ATOM     64  C   UNL A   1      40.671  36.490  36.799  1.00  0.00     0.040 A 
ATOM     65  F   UNL A   1      41.347  35.816  34.655  1.00  0.00    -0.206 F 
ATOM     66  C   UNL A   1      39.936  36.263  37.962  1.00  0.00     0.006 A 
ENDBRANCH  42  59
ENDBRANCH  16  17
ENDBRANCH   9  11
ENDBRANCH   8   9
ENDBRANCH   7   8
ENDBRANCH   6   7
ENDBRANCH   5   6
ENDBRANCH   4   5
ENDBRANCH   3   4
ENDBRANCH   2   3
ENDBRANCH   1   2
BRANCH   1  67
ATOM     67  C   UNL A   1      34.941  21.614  25.006  1.00  0.00     0.188 C 
BRANCH  67  68
ATOM     68  O   UNL A   1      34.155  22.635  25.585  1.00  0.00    -0.376 OA
BRANCH  68  69
ATOM     69  C   UNL A   1      34.748  23.893  25.872  1.00  0.00     0.202 C 
BRANCH  69  70
ATOM     70  C   UNL A   1      34.080  25.201  25.437  1.00  0.00     0.261 C 
BRANCH  70  71
ATOM     71  O   UNL A   1      34.520  25.735  24.172  1.00  0.00    -0.462 OA
BRANCH  71  72
ATOM     72  C   UNL A   1      33.687  25.432  23.141  1.00  0.00     0.328 C 
ATOM     73  O   UNL A   1      33.778  24.370  22.524  1.00  0.00    -0.250 OA
BRANCH  72  74
ATOM     74  C   UNL A   1      32.556  26.443  22.824  1.00  0.00     0.194 C 
BRANCH  74  75
ATOM     75  C   UNL A   1      31.174  26.345  23.503  1.00  0.00     0.072 C 
BRANCH  75  76
ATOM     76  C   UNL A   1      30.887  25.307  24.559  1.00  0.00    -0.045 A 
ATOM     77  C   UNL A   1      30.630  25.739  25.872  1.00  0.00     0.007 A 
ATOM     78  C   UNL A   1      30.970  23.933  24.324  1.00  0.00     0.007 A 
ATOM     79  C   UNL A   1      30.343  24.836  26.894  1.00  0.00     0.046 A 
ATOM     80  C   UNL A   1      30.703  23.021  25.350  1.00  0.00     0.046 A 
ATOM     81  C   UNL A   1      30.365  23.478  26.617  1.00  0.00     0.115 A 
BRANCH  81  82
ATOM     82  O   UNL A   1      30.074  22.555  27.575  1.00  0.00    -0.508 OA
ATOM     83  H   UNL A   1      30.761  22.181  28.090  1.00  0.00     0.293 HD
ENDBRANCH  81  82
ENDBRANCH  75  76
ENDBRANCH  74  75
BRANCH  74  84
ATOM     84  N   UNL A   1      33.056  27.835  22.984  1.00  0.00    -0.371 N 
ATOM     85  H   UNL A   1      33.879  28.112  22.518  1.00  0.00     0.161 HD
BRANCH  84  86
ATOM     86  C   UNL A   1      32.370  28.766  23.792  1.00  0.00     0.054 A 
ATOM     87  C   UNL A   1      31.172  29.396  23.347  1.00  0.00     0.024 A 
ATOM     88  C   UNL A   1      32.903  29.106  25.073  1.00  0.00     0.024 A 
ATOM     89  C   UNL A   1      30.557  29.180  22.085  1.00  0.00     0.012 A 
ATOM     90  C   UNL A   1      30.535  30.272  24.246  1.00  0.00     0.073 A 
ATOM     91  C   UNL A   1      32.156  29.990  25.871  1.00  0.00     0.073 A 
ATOM     92  C   UNL A   1      34.143  28.636  25.587  1.00  0.00     0.012 A 
ATOM     93  C   UNL A   1      29.389  29.844  21.711  1.00  0.00     0.001 A 
ATOM     94  C   UNL A   1      29.355  30.900  23.865  1.00  0.00     0.029 A 
ATOM     95  N   UNL A   1      31.002  30.538  25.471  1.00  0.00    -0.248 NA
ATOM     96  C   UNL A   1      32.631  30.337  27.131  1.00  0.00     0.029 A 
ATOM     97  C   UNL A   1      34.621  29.028  26.836  1.00  0.00     0.001 A 
ATOM     98  C   UNL A   1      28.783  30.707  22.608  1.00  0.00     0.002 A 
ATOM     99  C   UNL A   1      33.853  29.871  27.619  1.00  0.00     0.002 A 
ENDBRANCH  84  86
ENDBRANCH  74  84
ENDBRANCH  72  74
ENDBRANCH  71  72
ENDBRANCH  70  71
ENDBRANCH  69  70
ENDBRANCH  68  69
ENDBRANCH  67  68
ENDBRANCH   1  67
TORSDOF 25
ENDMDL
MODEL 3
REMARK VINA RESULT:     -10.3      1.322      6.186
REMARK SMILES O=C(OCCOCCOCCOCCOC(=O)[C@@H](Cc1ccc(O)cc1)Nc1c2ccccc2nc2ccccc12)c1ccc(-c2c3nc(c(-c4c(F)cccc4F)c4ccc([nH]4)c(-c4c(F)cccc4F)c4nc(c(-c5c(F)cccc5F)c5ccc2[nH]5)C=C4)C=C3)cc1
REMARK SMILES IDX 10 1 9 2 8 3 7 4 6 5 5 6 4 7 3 8 2 9 1 10 42 11 43 12 95 13
REMARK SMILES IDX 44 14 94 15 45 16 46 17 47 18 88 19 48 20 93 21 87 22 89 23
REMARK SMILES IDX 49 24 92 25 86 26 85 27 50 29 76 30 59 31 75 32 60 33 63 34
REMARK SMILES IDX 74 35 90 36 61 37 62 38 73 40 91 41 64 42 51 43 52 44 57 45
REMARK SMILES IDX 53 46 54 47 56 48 58 49 55 50 77 51 78 52 83 53 79 54 80 55
REMARK SMILES IDX 82 56 84 57 81 58 65 59 66 60 71 61 67 62 68 63 70 64 72 65
REMARK SMILES IDX 69 66 11 67 12 68 13 69 14 70 15 71 16 72 17 73 18 74 19 75
REMARK SMILES IDX 20 76 21 77 26 78 22 79 25 80 23 81 24 82 27 84 28 86 29 87
REMARK SMILES IDX 41 88 30 89 34 90 36 91 40 92 31 93 33 94 35 95 37 96 39 97
REMARK SMILES IDX 32 98 38 99
REMARK H PARENT 89 28 63 39 24 83 27 85
REMARK Flexibility Score: inf
ROOT
ATOM      1  C   UNL A   1      36.892  21.870  24.893  1.00  0.00     0.188 C 
ENDROOT
BRANCH   1   2
ATOM      2  O   UNL A   1      38.099  21.122  24.932  1.00  0.00    -0.377 OA
BRANCH   2   3
ATOM      3  C   UNL A   1      39.085  21.403  25.920  1.00  0.00     0.188 C 
BRANCH   3   4
ATOM      4  C   UNL A   1      40.208  20.398  26.141  1.00  0.00     0.188 C 
BRANCH   4   5
ATOM      5  O   UNL A   1      41.351  20.906  26.828  1.00  0.00    -0.376 OA
BRANCH   5   6
ATOM      6  C   UNL A   1      42.591  20.875  26.132  1.00  0.00     0.202 C 
BRANCH   6   7
ATOM      7  C   UNL A   1      43.080  22.228  25.610  1.00  0.00     0.261 C 
BRANCH   7   8
ATOM      8  O   UNL A   1      42.190  23.300  25.946  1.00  0.00    -0.460 OA
BRANCH   8   9
ATOM      9  C   UNL A   1      42.607  24.568  25.691  1.00  0.00     0.338 C 
ATOM     10  O   UNL A   1      43.596  24.812  25.014  1.00  0.00    -0.246 OA
BRANCH   9  11
ATOM     11  C   UNL A   1      41.999  25.604  26.573  1.00  0.00     0.060 A 
ATOM     12  C   UNL A   1      42.500  26.906  26.648  1.00  0.00     0.016 A 
ATOM     13  C   UNL A   1      40.895  25.249  27.361  1.00  0.00     0.016 A 
ATOM     14  C   UNL A   1      41.864  27.872  27.415  1.00  0.00     0.010 A 
ATOM     15  C   UNL A   1      40.312  26.191  28.215  1.00  0.00     0.010 A 
ATOM     16  C   UNL A   1      40.815  27.499  28.255  1.00  0.00    -0.014 A 
BRANCH  16  17
ATOM     17  C   UNL A   1      40.531  28.395  29.390  1.00  0.00     0.031 A 
ATOM     18  C   UNL A   1      41.399  28.228  30.606  1.00  0.00     0.074 A 
ATOM     19  C   UNL A   1      39.624  29.380  29.307  1.00  0.00     0.049 A 
ATOM     20  N   UNL A   1      41.425  28.916  31.715  1.00  0.00    -0.248 NA
ATOM     21  C   UNL A   1      42.415  27.159  30.540  1.00  0.00     0.031 C 
ATOM     22  C   UNL A   1      38.824  29.700  28.128  1.00  0.00     0.029 A 
ATOM     23  N   UNL A   1      39.235  30.300  30.243  1.00  0.00    -0.354 N 
ATOM     24  C   UNL A   1      42.472  28.385  32.454  1.00  0.00     0.074 A 
ATOM     25  C   UNL A   1      43.072  27.332  31.672  1.00  0.00     0.031 C 
ATOM     26  C   UNL A   1      38.012  30.732  28.422  1.00  0.00     0.029 A 
ATOM     27  C   UNL A   1      38.218  31.118  29.817  1.00  0.00     0.049 A 
ATOM     28  H   UNL A   1      39.644  30.369  31.137  1.00  0.00     0.167 HD
ATOM     29  C   UNL A   1      42.879  28.718  33.699  1.00  0.00     0.037 A 
ATOM     30  C   UNL A   1      37.520  32.045  30.503  1.00  0.00     0.037 A 
ATOM     31  C   UNL A   1      42.193  29.674  34.516  1.00  0.00     0.049 A 
ATOM     32  C   UNL A   1      37.881  32.295  31.945  1.00  0.00     0.074 A 
ATOM     33  C   UNL A   1      42.408  29.998  35.840  1.00  0.00     0.029 A 
ATOM     34  N   UNL A   1      41.115  30.431  34.076  1.00  0.00    -0.354 N 
ATOM     35  N   UNL A   1      38.851  31.765  32.656  1.00  0.00    -0.248 NA
ATOM     36  C   UNL A   1      37.049  33.251  32.686  1.00  0.00     0.031 C 
ATOM     37  C   UNL A   1      41.426  30.921  36.217  1.00  0.00     0.029 A 
ATOM     38  C   UNL A   1      40.633  31.205  35.113  1.00  0.00     0.049 A 
ATOM     39  H   UNL A   1      40.750  30.419  33.163  1.00  0.00     0.167 HD
ATOM     40  C   UNL A   1      38.756  32.333  33.920  1.00  0.00     0.074 A 
ATOM     41  C   UNL A   1      37.637  33.254  33.877  1.00  0.00     0.031 C 
ATOM     42  C   UNL A   1      39.520  32.115  35.019  1.00  0.00     0.037 A 
BRANCH  29  43
ATOM     43  C   UNL A   1      44.030  27.934  34.246  1.00  0.00     0.057 A 
ATOM     44  C   UNL A   1      43.842  26.718  34.918  1.00  0.00     0.134 A 
ATOM     45  C   UNL A   1      45.326  28.463  34.212  1.00  0.00     0.134 A 
ATOM     46  F   UNL A   1      42.616  26.183  35.025  1.00  0.00    -0.206 F 
ATOM     47  C   UNL A   1      44.898  26.072  35.564  1.00  0.00     0.040 A 
ATOM     48  C   UNL A   1      46.392  27.818  34.840  1.00  0.00     0.040 A 
ATOM     49  F   UNL A   1      45.566  29.635  33.607  1.00  0.00    -0.206 F 
ATOM     50  C   UNL A   1      46.177  26.625  35.528  1.00  0.00     0.006 A 
ENDBRANCH  29  43
BRANCH  30  51
ATOM     51  C   UNL A   1      36.387  32.751  29.853  1.00  0.00     0.057 A 
ATOM     52  C   UNL A   1      36.592  33.826  28.982  1.00  0.00     0.134 A 
ATOM     53  C   UNL A   1      35.062  32.358  30.086  1.00  0.00     0.134 A 
ATOM     54  F   UNL A   1      37.833  34.267  28.735  1.00  0.00    -0.206 F 
ATOM     55  C   UNL A   1      35.522  34.484  28.367  1.00  0.00     0.040 A 
ATOM     56  C   UNL A   1      33.985  32.992  29.463  1.00  0.00     0.040 A 
ATOM     57  F   UNL A   1      34.795  31.338  30.915  1.00  0.00    -0.206 F 
ATOM     58  C   UNL A   1      34.215  34.062  28.601  1.00  0.00     0.006 A 
ENDBRANCH  30  51
BRANCH  42  59
ATOM     59  C   UNL A   1      39.192  32.896  36.252  1.00  0.00     0.057 A 
ATOM     60  C   UNL A   1      38.387  32.364  37.264  1.00  0.00     0.134 A 
ATOM     61  C   UNL A   1      39.790  34.144  36.476  1.00  0.00     0.134 A 
ATOM     62  F   UNL A   1      37.788  31.175  37.102  1.00  0.00    -0.206 F 
ATOM     63  C   UNL A   1      38.184  33.048  38.463  1.00  0.00     0.040 A 
ATOM     64  C   UNL A   1      39.608  34.828  37.677  1.00  0.00     0.040 A 
ATOM     65  F   UNL A   1      40.582  34.695  35.546  1.00  0.00    -0.206 F 
ATOM     66  C   UNL A   1      38.805  34.279  38.675  1.00  0.00     0.006 A 
ENDBRANCH  42  59
ENDBRANCH  16  17
ENDBRANCH   9  11
ENDBRANCH   8   9
ENDBRANCH   7   8
ENDBRANCH   6   7
ENDBRANCH   5   6
ENDBRANCH   4   5
ENDBRANCH   3   4
ENDBRANCH   2   3
ENDBRANCH   1   2
BRANCH   1  67
ATOM     67  C   UNL A   1      35.698  21.411  25.742  1.00  0.00     0.188 C 
BRANCH  67  68
ATOM     68  O   UNL A   1      34.784  22.440  26.060  1.00  0.00    -0.376 OA
BRANCH  68  69
ATOM     69  C   UNL A   1      35.146  23.792  25.820  1.00  0.00     0.202 C 
BRANCH  69  70
ATOM     70  C   UNL A   1      34.091  24.844  25.465  1.00  0.00     0.261 C 
BRANCH  70  71
ATOM     71  O   UNL A   1      34.410  25.691  24.343  1.00  0.00    -0.462 OA
BRANCH  71  72
ATOM     72  C   UNL A   1      33.695  25.395  23.224  1.00  0.00     0.328 C 
ATOM     73  O   UNL A   1      33.884  24.357  22.590  1.00  0.00    -0.250 OA
BRANCH  72  74
ATOM     74  C   UNL A   1      32.568  26.380  22.824  1.00  0.00     0.194 C 
BRANCH  74  75
ATOM     75  C   UNL A   1      31.157  26.286  23.445  1.00  0.00     0.072 C 
BRANCH  75  76
ATOM     76  C   UNL A   1      30.859  25.341  24.582  1.00  0.00    -0.045 A 
ATOM     77  C   UNL A   1      30.963  23.959  24.350  1.00  0.00     0.007 A 
ATOM     78  C   UNL A   1      30.381  25.766  25.824  1.00  0.00     0.007 A 
ATOM     79  C   UNL A   1      30.717  23.029  25.359  1.00  0.00     0.046 A 
ATOM     80  C   UNL A   1      30.114  24.837  26.835  1.00  0.00     0.046 A 
ATOM     81  C   UNL A   1      30.309  23.481  26.605  1.00  0.00     0.115 A 
BRANCH  81  82
ATOM     82  O   UNL A   1      30.074  22.617  27.630  1.00  0.00    -0.508 OA
ATOM     83  H   UNL A   1      29.680  21.784  27.460  1.00  0.00     0.293 HD
ENDBRANCH  81  82
ENDBRANCH  75  76
ENDBRANCH  74  75
BRANCH  74  84
ATOM     84  N   UNL A   1      33.043  27.783  22.958  1.00  0.00    -0.371 N 
ATOM     85  H   UNL A   1      33.846  28.072  22.466  1.00  0.00     0.161 HD
BRANCH  84  86
ATOM     86  C   UNL A   1      32.362  28.707  23.778  1.00  0.00     0.054 A 
ATOM     87  C   UNL A   1      31.166  29.347  23.341  1.00  0.00     0.024 A 
ATOM     88  C   UNL A   1      32.896  29.028  25.063  1.00  0.00     0.024 A 
ATOM     89  C   UNL A   1      30.550  29.151  22.077  1.00  0.00     0.012 A 
ATOM     90  C   UNL A   1      30.534  30.215  24.252  1.00  0.00     0.073 A 
ATOM     91  C   UNL A   1      32.154  29.906  25.872  1.00  0.00     0.073 A 
ATOM     92  C   UNL A   1      34.135  28.547  25.570  1.00  0.00     0.012 A 
ATOM     93  C   UNL A   1      29.385  29.825  21.711  1.00  0.00     0.001 A 
ATOM     94  C   UNL A   1      29.357  30.853  23.879  1.00  0.00     0.029 A 
ATOM     95  N   UNL A   1      31.003  30.464  25.479  1.00  0.00    -0.248 NA
ATOM     96  C   UNL A   1      32.631  30.235  27.136  1.00  0.00     0.029 A 
ATOM     97  C   UNL A   1      34.615  28.921  26.823  1.00  0.00     0.001 A 
ATOM     98  C   UNL A   1      28.783  30.679  22.620  1.00  0.00     0.002 A 
ATOM     99  C   UNL A   1      33.851  29.758  27.618  1.00  0.00     0.002 A 
ENDBRANCH  84  86
ENDBRANCH  74  84
ENDBRANCH  72  74
ENDBRANCH  71  72
ENDBRANCH  70  71
ENDBRANCH  69  70
ENDBRANCH  68  69
ENDBRANCH  67  68
ENDBRANCH   1  67
TORSDOF 25
ENDMDL
