MODEL 1
REMARK VINA RESULT:     -10.4      0.000      0.000
REMARK SMILES O=C(OCCOCCOCCOCCOC(=O)[C@H]1CC[C@H](CN2C(=O)c3cccnc3C2=O)O1)c1ccc(-c2c3nc(c(-c4c(F)cccc4F)c4ccc([nH]4)c(-c4c(F)cccc4F)c4nc(c(-c5c(F)cccc5F)c5ccc2[nH]5)C=C4)C=C3)cc1
REMARK SMILES IDX 9 1 8 2 7 3 6 4 5 5 4 6 3 7 2 8 1 9 35 10 36 11 88 12 37 13
REMARK SMILES IDX 87 14 38 15 39 16 40 17 81 18 41 19 86 20 80 21 82 22 42 23
REMARK SMILES IDX 85 24 79 25 78 26 43 28 69 29 52 30 68 31 53 32 56 33 67 34
REMARK SMILES IDX 83 35 54 36 55 37 66 39 84 40 57 41 44 42 45 43 50 44 46 45
REMARK SMILES IDX 47 46 49 47 51 48 48 49 70 50 71 51 76 52 72 53 73 54 75 55
REMARK SMILES IDX 77 56 74 57 58 58 59 59 64 60 60 61 61 62 63 63 65 64 62 65
REMARK SMILES IDX 10 66 11 67 12 68 13 69 14 70 15 71 16 72 17 73 18 74 19 75
REMARK SMILES IDX 34 76 20 77 21 78 22 79 23 80 24 81 32 82 25 83 26 84 31 85
REMARK SMILES IDX 33 86 27 87 30 88 28 89 29 90
REMARK H PARENT 82 27 56 38
REMARK Flexibility Score: inf
ROOT
ATOM      1  O   UNL A   1      35.861  23.931  25.062  1.00  0.00    -0.377 OA
ENDROOT
BRANCH   1   2
ATOM      2  C   UNL A   1      37.031  23.228  24.682  1.00  0.00     0.188 C 
BRANCH   2   3
ATOM      3  C   UNL A   1      37.516  22.196  25.692  1.00  0.00     0.188 C 
BRANCH   3   4
ATOM      4  O   UNL A   1      36.993  20.916  25.364  1.00  0.00    -0.376 OA
BRANCH   4   5
ATOM      5  C   UNL A   1      37.817  19.937  24.746  1.00  0.00     0.202 C 
BRANCH   5   6
ATOM      6  C   UNL A   1      38.889  19.273  25.607  1.00  0.00     0.261 C 
BRANCH   6   7
ATOM      7  O   UNL A   1      40.151  19.968  25.726  1.00  0.00    -0.460 OA
BRANCH   7   8
ATOM      8  C   UNL A   1      40.921  20.276  26.797  1.00  0.00     0.338 C 
ATOM      9  O   UNL A   1      41.457  19.366  27.427  1.00  0.00    -0.246 OA
BRANCH   8  10
ATOM     10  C   UNL A   1      41.150  21.666  27.265  1.00  0.00     0.060 A 
ATOM     11  C   UNL A   1      40.492  22.767  26.750  1.00  0.00     0.016 A 
ATOM     12  C   UNL A   1      42.004  21.884  28.351  1.00  0.00     0.016 A 
ATOM     13  C   UNL A   1      40.815  24.053  27.084  1.00  0.00     0.010 A 
ATOM     14  C   UNL A   1      42.248  23.185  28.808  1.00  0.00     0.010 A 
ATOM     15  C   UNL A   1      41.693  24.275  28.124  1.00  0.00    -0.014 A 
BRANCH  15  16
ATOM     16  C   UNL A   1      42.122  25.667  28.294  1.00  0.00     0.031 A 
ATOM     17  C   UNL A   1      43.397  26.069  27.626  1.00  0.00     0.074 A 
ATOM     18  C   UNL A   1      41.258  26.568  28.802  1.00  0.00     0.049 A 
ATOM     19  N   UNL A   1      44.017  27.214  27.652  1.00  0.00    -0.248 NA
ATOM     20  C   UNL A   1      44.062  25.042  26.800  1.00  0.00     0.031 C 
ATOM     21  C   UNL A   1      39.901  26.269  29.282  1.00  0.00     0.029 A 
ATOM     22  N   UNL A   1      41.365  27.923  28.942  1.00  0.00    -0.354 N 
ATOM     23  C   UNL A   1      45.159  27.030  26.888  1.00  0.00     0.074 A 
ATOM     24  C   UNL A   1      45.163  25.667  26.420  1.00  0.00     0.031 C 
ATOM     25  C   UNL A   1      39.297  27.413  29.637  1.00  0.00     0.029 A 
ATOM     26  C   UNL A   1      40.256  28.500  29.511  1.00  0.00     0.049 A 
ATOM     27  H   UNL A   1      42.158  28.435  28.664  1.00  0.00     0.167 HD
ATOM     28  C   UNL A   1      46.120  27.938  26.610  1.00  0.00     0.037 A 
ATOM     29  C   UNL A   1      40.076  29.762  29.938  1.00  0.00     0.037 A 
ATOM     30  C   UNL A   1      46.064  29.288  27.094  1.00  0.00     0.049 A 
ATOM     31  C   UNL A   1      41.222  30.715  29.744  1.00  0.00     0.074 A 
ATOM     32  C   UNL A   1      47.010  30.287  26.993  1.00  0.00     0.029 A 
ATOM     33  N   UNL A   1      44.974  29.824  27.773  1.00  0.00    -0.354 N 
ATOM     34  N   UNL A   1      42.370  30.514  29.138  1.00  0.00    -0.248 NA
ATOM     35  C   UNL A   1      41.064  32.059  30.305  1.00  0.00     0.031 C 
ATOM     36  C   UNL A   1      46.509  31.416  27.651  1.00  0.00     0.029 A 
ATOM     37  C   UNL A   1      45.227  31.140  28.107  1.00  0.00     0.049 A 
ATOM     38  H   UNL A   1      44.145  29.337  27.982  1.00  0.00     0.167 HD
ATOM     39  C   UNL A   1      43.065  31.709  29.228  1.00  0.00     0.074 A 
ATOM     40  C   UNL A   1      42.191  32.638  29.921  1.00  0.00     0.031 C 
ATOM     41  C   UNL A   1      44.312  32.020  28.792  1.00  0.00     0.037 A 
BRANCH  28  42
ATOM     42  C   UNL A   1      47.309  27.455  25.839  1.00  0.00     0.057 A 
ATOM     43  C   UNL A   1      48.431  26.894  26.464  1.00  0.00     0.134 A 
ATOM     44  C   UNL A   1      47.357  27.615  24.448  1.00  0.00     0.134 A 
ATOM     45  F   UNL A   1      48.470  26.756  27.798  1.00  0.00    -0.206 F 
ATOM     46  C   UNL A   1      49.567  26.533  25.735  1.00  0.00     0.040 A 
ATOM     47  C   UNL A   1      48.475  27.233  23.707  1.00  0.00     0.040 A 
ATOM     48  F   UNL A   1      46.325  28.166  23.791  1.00  0.00    -0.206 F 
ATOM     49  C   UNL A   1      49.588  26.696  24.351  1.00  0.00     0.006 A 
ENDBRANCH  28  42
BRANCH  29  50
ATOM     50  C   UNL A   1      38.838  30.155  30.665  1.00  0.00     0.057 A 
ATOM     51  C   UNL A   1      38.692  29.946  32.040  1.00  0.00     0.134 A 
ATOM     52  C   UNL A   1      37.743  30.706  29.984  1.00  0.00     0.134 A 
ATOM     53  F   UNL A   1      39.693  29.408  32.753  1.00  0.00    -0.206 F 
ATOM     54  C   UNL A   1      37.496  30.238  32.704  1.00  0.00     0.040 A 
ATOM     55  C   UNL A   1      36.556  31.036  30.641  1.00  0.00     0.040 A 
ATOM     56  F   UNL A   1      37.809  30.938  28.665  1.00  0.00    -0.206 F 
ATOM     57  C   UNL A   1      36.424  30.786  32.003  1.00  0.00     0.006 A 
ENDBRANCH  29  50
BRANCH  41  58
ATOM     58  C   UNL A   1      44.764  33.428  29.019  1.00  0.00     0.057 A 
ATOM     59  C   UNL A   1      45.486  33.800  30.159  1.00  0.00     0.134 A 
ATOM     60  C   UNL A   1      44.493  34.417  28.065  1.00  0.00     0.134 A 
ATOM     61  F   UNL A   1      45.762  32.898  31.115  1.00  0.00    -0.206 F 
ATOM     62  C   UNL A   1      45.896  35.116  30.358  1.00  0.00     0.040 A 
ATOM     63  C   UNL A   1      44.931  35.728  28.236  1.00  0.00     0.040 A 
ATOM     64  F   UNL A   1      43.815  34.118  26.946  1.00  0.00    -0.206 F 
ATOM     65  C   UNL A   1      45.625  36.082  29.391  1.00  0.00     0.006 A 
ENDBRANCH  41  58
ENDBRANCH  15  16
ENDBRANCH   8  10
ENDBRANCH   7   8
ENDBRANCH   6   7
ENDBRANCH   5   6
ENDBRANCH   4   5
ENDBRANCH   3   4
ENDBRANCH   2   3
ENDBRANCH   1   2
BRANCH   1  66
ATOM     66  C   UNL A   1      34.632  23.251  24.851  1.00  0.00     0.188 C 
BRANCH  66  67
ATOM     67  C   UNL A   1      34.257  22.781  23.423  1.00  0.00     0.188 C 
BRANCH  67  68
ATOM     68  O   UNL A   1      32.902  22.442  23.247  1.00  0.00    -0.376 OA
BRANCH  68  69
ATOM     69  C   UNL A   1      32.381  21.353  23.994  1.00  0.00     0.202 C 
BRANCH  69  70
ATOM     70  C   UNL A   1      31.668  21.486  25.368  1.00  0.00     0.261 C 
BRANCH  70  71
ATOM     71  O   UNL A   1      30.633  22.484  25.515  1.00  0.00    -0.461 OA
BRANCH  71  72
ATOM     72  C   UNL A   1      30.913  23.660  26.123  1.00  0.00     0.335 C 
ATOM     73  O   UNL A   1      31.040  23.774  27.338  1.00  0.00    -0.249 OA
BRANCH  72  74
ATOM     74  C   UNL A   1      31.113  24.869  25.119  1.00  0.00     0.228 C 
ATOM     75  C   UNL A   1      30.149  25.985  25.500  1.00  0.00     0.047 C 
ATOM     76  O   UNL A   1      32.351  25.538  24.838  1.00  0.00    -0.361 OA
ATOM     77  C   UNL A   1      31.024  27.091  26.034  1.00  0.00     0.037 C 
ATOM     78  C   UNL A   1      32.339  26.912  25.305  1.00  0.00     0.139 C 
BRANCH  78  79
ATOM     79  C   UNL A   1      32.628  27.904  24.160  1.00  0.00     0.161 C 
BRANCH  79  80
ATOM     80  N   UNL A   1      31.484  28.739  23.810  1.00  0.00    -0.270 N 
ATOM     81  C   UNL A   1      30.592  28.407  22.831  1.00  0.00     0.263 C 
ATOM     82  C   UNL A   1      31.098  29.880  24.474  1.00  0.00     0.280 C 
ATOM     83  O   UNL A   1      30.586  27.430  22.098  1.00  0.00    -0.269 OA
ATOM     84  C   UNL A   1      29.549  29.417  22.837  1.00  0.00     0.071 A 
ATOM     85  C   UNL A   1      29.853  30.327  23.819  1.00  0.00     0.141 A 
ATOM     86  O   UNL A   1      31.628  30.392  25.443  1.00  0.00    -0.267 OA
ATOM     87  C   UNL A   1      28.385  29.538  22.108  1.00  0.00     0.018 A 
ATOM     88  N   UNL A   1      29.097  31.388  24.159  1.00  0.00    -0.250 NA
ATOM     89  C   UNL A   1      27.567  30.625  22.415  1.00  0.00     0.021 A 
ATOM     90  C   UNL A   1      27.958  31.513  23.427  1.00  0.00     0.112 A 
ENDBRANCH  79  80
ENDBRANCH  78  79
ENDBRANCH  72  74
ENDBRANCH  71  72
ENDBRANCH  70  71
ENDBRANCH  69  70
ENDBRANCH  68  69
ENDBRANCH  67  68
ENDBRANCH  66  67
ENDBRANCH   1  66
TORSDOF 22
ENDMDL
MODEL 2
REMARK VINA RESULT:     -10.0      1.335      6.148
REMARK SMILES O=C(OCCOCCOCCOCCOC(=O)[C@H]1CC[C@H](CN2C(=O)c3cccnc3C2=O)O1)c1ccc(-c2c3nc(c(-c4c(F)cccc4F)c4ccc([nH]4)c(-c4c(F)cccc4F)c4nc(c(-c5c(F)cccc5F)c5ccc2[nH]5)C=C4)C=C3)cc1
REMARK SMILES IDX 9 1 8 2 7 3 6 4 5 5 4 6 3 7 2 8 1 9 35 10 36 11 88 12 37 13
REMARK SMILES IDX 87 14 38 15 39 16 40 17 81 18 41 19 86 20 80 21 82 22 42 23
REMARK SMILES IDX 85 24 79 25 78 26 43 28 69 29 52 30 68 31 53 32 56 33 67 34
REMARK SMILES IDX 83 35 54 36 55 37 66 39 84 40 57 41 44 42 45 43 50 44 46 45
REMARK SMILES IDX 47 46 49 47 51 48 48 49 70 50 71 51 76 52 72 53 73 54 75 55
REMARK SMILES IDX 77 56 74 57 58 58 59 59 64 60 60 61 61 62 63 63 65 64 62 65
REMARK SMILES IDX 10 66 11 67 12 68 13 69 14 70 15 71 16 72 17 73 18 74 19 75
REMARK SMILES IDX 34 76 20 77 21 78 22 79 23 80 24 81 32 82 25 83 26 84 31 85
REMARK SMILES IDX 33 86 27 87 30 88 28 89 29 90
REMARK H PARENT 82 27 56 38
REMARK Flexibility Score: inf
ROOT
ATOM      1  O   UNL A   1      35.827  23.840  25.080  1.00  0.00    -0.377 OA
ENDROOT
BRANCH   1   2
ATOM      2  C   UNL A   1      37.043  23.272  24.624  1.00  0.00     0.188 C 
BRANCH   2   3
ATOM      3  C   UNL A   1      37.663  22.244  25.562  1.00  0.00     0.188 C 
BRANCH   3   4
ATOM      4  O   UNL A   1      37.157  20.951  25.264  1.00  0.00    -0.376 OA
BRANCH   4   5
ATOM      5  C   UNL A   1      38.005  19.955  24.708  1.00  0.00     0.202 C 
BRANCH   5   6
ATOM      6  C   UNL A   1      38.914  19.189  25.666  1.00  0.00     0.261 C 
BRANCH   6   7
ATOM      7  O   UNL A   1      40.297  19.605  25.724  1.00  0.00    -0.460 OA
BRANCH   7   8
ATOM      8  C   UNL A   1      41.117  19.892  26.764  1.00  0.00     0.338 C 
ATOM      9  O   UNL A   1      41.199  19.094  27.695  1.00  0.00    -0.246 OA
BRANCH   8  10
ATOM     10  C   UNL A   1      41.925  21.135  26.847  1.00  0.00     0.060 A 
ATOM     11  C   UNL A   1      42.565  21.558  27.996  1.00  0.00     0.016 A 
ATOM     12  C   UNL A   1      42.142  21.881  25.684  1.00  0.00     0.016 A 
ATOM     13  C   UNL A   1      43.182  22.774  28.101  1.00  0.00     0.010 A 
ATOM     14  C   UNL A   1      42.892  23.063  25.732  1.00  0.00     0.010 A 
ATOM     15  C   UNL A   1      43.358  23.537  26.966  1.00  0.00    -0.014 A 
BRANCH  15  16
ATOM     16  C   UNL A   1      43.861  24.895  27.197  1.00  0.00     0.031 A 
ATOM     17  C   UNL A   1      42.903  25.882  27.780  1.00  0.00     0.074 A 
ATOM     18  C   UNL A   1      45.186  25.130  27.127  1.00  0.00     0.049 A 
ATOM     19  N   UNL A   1      43.077  27.145  28.041  1.00  0.00    -0.248 NA
ATOM     20  C   UNL A   1      41.564  25.371  28.135  1.00  0.00     0.031 C 
ATOM     21  C   UNL A   1      46.210  24.139  26.763  1.00  0.00     0.029 A 
ATOM     22  N   UNL A   1      45.907  26.254  27.417  1.00  0.00    -0.354 N 
ATOM     23  C   UNL A   1      41.862  27.587  28.545  1.00  0.00     0.074 A 
ATOM     24  C   UNL A   1      40.952  26.468  28.544  1.00  0.00     0.031 C 
ATOM     25  C   UNL A   1      47.424  24.695  26.880  1.00  0.00     0.029 A 
ATOM     26  C   UNL A   1      47.258  26.100  27.219  1.00  0.00     0.049 A 
ATOM     27  H   UNL A   1      45.500  27.091  27.737  1.00  0.00     0.167 HD
ATOM     28  C   UNL A   1      41.548  28.830  28.968  1.00  0.00     0.037 A 
ATOM     29  C   UNL A   1      48.235  27.023  27.249  1.00  0.00     0.037 A 
ATOM     30  C   UNL A   1      42.495  29.908  28.956  1.00  0.00     0.049 A 
ATOM     31  C   UNL A   1      47.829  28.431  27.584  1.00  0.00     0.074 A 
ATOM     32  C   UNL A   1      42.297  31.241  29.245  1.00  0.00     0.029 A 
ATOM     33  N   UNL A   1      43.842  29.753  28.640  1.00  0.00    -0.354 N 
ATOM     34  N   UNL A   1      46.648  28.890  27.933  1.00  0.00    -0.248 NA
ATOM     35  C   UNL A   1      48.875  29.454  27.512  1.00  0.00     0.031 C 
ATOM     36  C   UNL A   1      43.516  31.903  29.059  1.00  0.00     0.029 A 
ATOM     37  C   UNL A   1      44.487  30.972  28.716  1.00  0.00     0.049 A 
ATOM     38  H   UNL A   1      44.270  28.901  28.398  1.00  0.00     0.167 HD
ATOM     39  C   UNL A   1      46.811  30.250  28.140  1.00  0.00     0.074 A 
ATOM     40  C   UNL A   1      48.216  30.533  27.906  1.00  0.00     0.031 C 
ATOM     41  C   UNL A   1      45.893  31.190  28.481  1.00  0.00     0.037 A 
BRANCH  28  42
ATOM     42  C   UNL A   1      40.127  29.070  29.376  1.00  0.00     0.057 A 
ATOM     43  C   UNL A   1      39.698  28.948  30.704  1.00  0.00     0.134 A 
ATOM     44  C   UNL A   1      39.158  29.363  28.408  1.00  0.00     0.134 A 
ATOM     45  F   UNL A   1      40.566  28.622  31.673  1.00  0.00    -0.206 F 
ATOM     46  C   UNL A   1      38.352  29.088  31.051  1.00  0.00     0.040 A 
ATOM     47  C   UNL A   1      37.815  29.532  28.747  1.00  0.00     0.040 A 
ATOM     48  F   UNL A   1      39.498  29.471  27.115  1.00  0.00    -0.206 F 
ATOM     49  C   UNL A   1      37.407  29.387  30.071  1.00  0.00     0.006 A 
ENDBRANCH  28  42
BRANCH  29  50
ATOM     50  C   UNL A   1      49.628  26.676  26.861  1.00  0.00     0.057 A 
ATOM     51  C   UNL A   1      50.046  26.680  25.526  1.00  0.00     0.134 A 
ATOM     52  C   UNL A   1      50.570  26.278  27.822  1.00  0.00     0.134 A 
ATOM     53  F   UNL A   1      49.194  27.034  24.552  1.00  0.00    -0.206 F 
ATOM     54  C   UNL A   1      51.331  26.271  25.158  1.00  0.00     0.040 A 
ATOM     55  C   UNL A   1      51.868  25.902  27.472  1.00  0.00     0.040 A 
ATOM     56  F   UNL A   1      50.244  26.251  29.123  1.00  0.00    -0.206 F 
ATOM     57  C   UNL A   1      52.247  25.882  26.133  1.00  0.00     0.006 A 
ENDBRANCH  29  50
BRANCH  41  58
ATOM     58  C   UNL A   1      46.405  32.584  28.660  1.00  0.00     0.057 A 
ATOM     59  C   UNL A   1      46.860  33.053  29.899  1.00  0.00     0.134 A 
ATOM     60  C   UNL A   1      46.469  33.457  27.567  1.00  0.00     0.134 A 
ATOM     61  F   UNL A   1      46.810  32.266  30.985  1.00  0.00    -0.206 F 
ATOM     62  C   UNL A   1      47.330  34.355  30.051  1.00  0.00     0.040 A 
ATOM     63  C   UNL A   1      46.972  34.749  27.699  1.00  0.00     0.040 A 
ATOM     64  F   UNL A   1      46.059  33.060  26.352  1.00  0.00    -0.206 F 
ATOM     65  C   UNL A   1      47.395  35.204  28.947  1.00  0.00     0.006 A 
ENDBRANCH  41  58
ENDBRANCH  15  16
ENDBRANCH   8  10
ENDBRANCH   7   8
ENDBRANCH   6   7
ENDBRANCH   5   6
ENDBRANCH   4   5
ENDBRANCH   3   4
ENDBRANCH   2   3
ENDBRANCH   1   2
BRANCH   1  66
ATOM     66  C   UNL A   1      34.650  23.096  24.798  1.00  0.00     0.188 C 
BRANCH  66  67
ATOM     67  C   UNL A   1      34.177  22.948  23.331  1.00  0.00     0.188 C 
BRANCH  67  68
ATOM     68  O   UNL A   1      32.896  22.384  23.175  1.00  0.00    -0.376 OA
BRANCH  68  69
ATOM     69  C   UNL A   1      32.523  21.319  24.038  1.00  0.00     0.202 C 
BRANCH  69  70
ATOM     70  C   UNL A   1      31.798  21.501  25.400  1.00  0.00     0.261 C 
BRANCH  70  71
ATOM     71  O   UNL A   1      30.698  22.434  25.480  1.00  0.00    -0.461 OA
BRANCH  71  72
ATOM     72  C   UNL A   1      30.871  23.628  26.094  1.00  0.00     0.335 C 
ATOM     73  O   UNL A   1      30.900  23.758  27.313  1.00  0.00    -0.249 OA
BRANCH  72  74
ATOM     74  C   UNL A   1      31.084  24.838  25.093  1.00  0.00     0.228 C 
ATOM     75  C   UNL A   1      30.117  25.955  25.464  1.00  0.00     0.047 C 
ATOM     76  O   UNL A   1      32.326  25.506  24.827  1.00  0.00    -0.361 OA
ATOM     77  C   UNL A   1      30.987  27.059  26.010  1.00  0.00     0.037 C 
ATOM     78  C   UNL A   1      32.310  26.880  25.296  1.00  0.00     0.139 C 
BRANCH  78  79
ATOM     79  C   UNL A   1      32.614  27.872  24.156  1.00  0.00     0.161 C 
BRANCH  79  80
ATOM     80  N   UNL A   1      31.479  28.720  23.804  1.00  0.00    -0.270 N 
ATOM     81  C   UNL A   1      30.594  28.405  22.813  1.00  0.00     0.263 C 
ATOM     82  C   UNL A   1      31.096  29.857  24.476  1.00  0.00     0.280 C 
ATOM     83  O   UNL A   1      30.588  27.436  22.070  1.00  0.00    -0.269 OA
ATOM     84  C   UNL A   1      29.559  29.423  22.820  1.00  0.00     0.071 A 
ATOM     85  C   UNL A   1      29.861  30.321  23.814  1.00  0.00     0.141 A 
ATOM     86  O   UNL A   1      31.620  30.354  25.456  1.00  0.00    -0.267 OA
ATOM     87  C   UNL A   1      28.403  29.561  22.082  1.00  0.00     0.018 A 
ATOM     88  N   UNL A   1      29.109  31.384  24.159  1.00  0.00    -0.250 NA
ATOM     89  C   UNL A   1      27.590  30.651  22.392  1.00  0.00     0.021 A 
ATOM     90  C   UNL A   1      27.979  31.525  23.418  1.00  0.00     0.112 A 
ENDBRANCH  79  80
ENDBRANCH  78  79
ENDBRANCH  72  74
ENDBRANCH  71  72
ENDBRANCH  70  71
ENDBRANCH  69  70
ENDBRANCH  68  69
ENDBRANCH  67  68
ENDBRANCH  66  67
ENDBRANCH   1  66
TORSDOF 22
ENDMDL
MODEL 3
REMARK VINA RESULT:      -9.5      8.342     14.683
REMARK SMILES O=C(OCCOCCOCCOCCOC(=O)[C@H]1CC[C@H](CN2C(=O)c3cccnc3C2=O)O1)c1ccc(-c2c3nc(c(-c4c(F)cccc4F)c4ccc([nH]4)c(-c4c(F)cccc4F)c4nc(c(-c5c(F)cccc5F)c5ccc2[nH]5)C=C4)C=C3)cc1
REMARK SMILES IDX 9 1 8 2 7 3 6 4 5 5 4 6 3 7 2 8 1 9 35 10 36 11 88 12 37 13
REMARK SMILES IDX 87 14 38 15 39 16 40 17 81 18 41 19 86 20 80 21 82 22 42 23
REMARK SMILES IDX 85 24 79 25 78 26 43 28 69 29 52 30 68 31 53 32 56 33 67 34
REMARK SMILES IDX 83 35 54 36 55 37 66 39 84 40 57 41 44 42 45 43 50 44 46 45
REMARK SMILES IDX 47 46 49 47 51 48 48 49 70 50 71 51 76 52 72 53 73 54 75 55
REMARK SMILES IDX 77 56 74 57 58 58 59 59 64 60 60 61 61 62 63 63 65 64 62 65
REMARK SMILES IDX 10 66 11 67 12 68 13 69 14 70 15 71 16 72 17 73 18 74 19 75
REMARK SMILES IDX 34 76 20 77 21 78 22 79 23 80 24 81 32 82 25 83 26 84 31 85
REMARK SMILES IDX 33 86 27 87 30 88 28 89 29 90
REMARK H PARENT 82 27 56 38
REMARK Flexibility Score: inf
ROOT
ATOM      1  O   UNL A   1      43.486  42.854  33.450  1.00  0.00    -0.377 OA
ENDROOT
BRANCH   1   2
ATOM      2  C   UNL A   1      42.662  41.759  33.090  1.00  0.00     0.188 C 
BRANCH   2   3
ATOM      3  C   UNL A   1      43.383  40.614  32.390  1.00  0.00     0.188 C 
BRANCH   3   4
ATOM      4  O   UNL A   1      43.208  40.719  30.985  1.00  0.00    -0.376 OA
BRANCH   4   5
ATOM      5  C   UNL A   1      43.513  39.621  30.136  1.00  0.00     0.202 C 
BRANCH   5   6
ATOM      6  C   UNL A   1      44.327  38.475  30.731  1.00  0.00     0.261 C 
BRANCH   6   7
ATOM      7  O   UNL A   1      45.361  37.909  29.895  1.00  0.00    -0.460 OA
BRANCH   7   8
ATOM      8  C   UNL A   1      45.322  37.319  28.676  1.00  0.00     0.338 C 
ATOM      9  O   UNL A   1      45.473  38.015  27.673  1.00  0.00    -0.246 OA
BRANCH   8  10
ATOM     10  C   UNL A   1      45.098  35.865  28.480  1.00  0.00     0.060 A 
ATOM     11  C   UNL A   1      44.551  35.321  27.333  1.00  0.00     0.016 A 
ATOM     12  C   UNL A   1      45.546  34.972  29.459  1.00  0.00     0.016 A 
ATOM     13  C   UNL A   1      44.214  34.000  27.221  1.00  0.00     0.010 A 
ATOM     14  C   UNL A   1      45.340  33.595  29.307  1.00  0.00     0.010 A 
ATOM     15  C   UNL A   1      44.613  33.121  28.207  1.00  0.00    -0.014 A 
BRANCH  15  16
ATOM     16  C   UNL A   1      44.056  31.769  28.100  1.00  0.00     0.031 A 
ATOM     17  C   UNL A   1      44.915  30.733  27.449  1.00  0.00     0.074 A 
ATOM     18  C   UNL A   1      42.947  31.453  28.795  1.00  0.00     0.049 A 
ATOM     19  N   UNL A   1      44.650  29.484  27.192  1.00  0.00    -0.248 NA
ATOM     20  C   UNL A   1      46.270  31.158  27.045  1.00  0.00     0.031 C 
ATOM     21  C   UNL A   1      42.171  32.382  29.630  1.00  0.00     0.029 A 
ATOM     22  N   UNL A   1      42.312  30.254  28.964  1.00  0.00    -0.354 N 
ATOM     23  C   UNL A   1      45.782  28.992  26.560  1.00  0.00     0.074 A 
ATOM     24  C   UNL A   1      46.733  30.070  26.455  1.00  0.00     0.031 C 
ATOM     25  C   UNL A   1      41.185  31.710  30.241  1.00  0.00     0.029 A 
ATOM     26  C   UNL A   1      41.195  30.337  29.759  1.00  0.00     0.049 A 
ATOM     27  H   UNL A   1      42.625  29.415  28.557  1.00  0.00     0.167 HD
ATOM     28  C   UNL A   1      45.992  27.738  26.106  1.00  0.00     0.037 A 
ATOM     29  C   UNL A   1      40.255  29.409  30.007  1.00  0.00     0.037 A 
ATOM     30  C   UNL A   1      45.014  26.696  26.243  1.00  0.00     0.049 A 
ATOM     31  C   UNL A   1      40.445  28.061  29.368  1.00  0.00     0.074 A 
ATOM     32  C   UNL A   1      45.034  25.413  25.739  1.00  0.00     0.029 A 
ATOM     33  N   UNL A   1      43.829  26.836  26.959  1.00  0.00    -0.354 N 
ATOM     34  N   UNL A   1      41.453  27.623  28.650  1.00  0.00    -0.248 NA
ATOM     35  C   UNL A   1      39.367  27.087  29.553  1.00  0.00     0.031 C 
ATOM     36  C   UNL A   1      43.839  24.789  26.112  1.00  0.00     0.029 A 
ATOM     37  C   UNL A   1      43.102  25.663  26.901  1.00  0.00     0.049 A 
ATOM     38  H   UNL A   1      43.550  27.650  27.436  1.00  0.00     0.167 HD
ATOM     39  C   UNL A   1      41.142  26.316  28.310  1.00  0.00     0.074 A 
ATOM     40  C   UNL A   1      39.862  26.027  28.931  1.00  0.00     0.031 C 
ATOM     41  C   UNL A   1      41.835  25.431  27.549  1.00  0.00     0.037 A 
BRANCH  28  42
ATOM     42  C   UNL A   1      47.270  27.488  25.366  1.00  0.00     0.057 A 
ATOM     43  C   UNL A   1      47.407  27.754  23.997  1.00  0.00     0.134 A 
ATOM     44  C   UNL A   1      48.362  26.908  26.024  1.00  0.00     0.134 A 
ATOM     45  F   UNL A   1      46.383  28.264  23.296  1.00  0.00    -0.206 F 
ATOM     46  C   UNL A   1      48.577  27.430  23.305  1.00  0.00     0.040 A 
ATOM     47  C   UNL A   1      49.545  26.606  25.349  1.00  0.00     0.040 A 
ATOM     48  F   UNL A   1      48.289  26.607  27.329  1.00  0.00    -0.206 F 
ATOM     49  C   UNL A   1      49.653  26.860  23.984  1.00  0.00     0.006 A 
ENDBRANCH  28  42
BRANCH  29  50
ATOM     50  C   UNL A   1      39.034  29.746  30.788  1.00  0.00     0.057 A 
ATOM     51  C   UNL A   1      38.900  29.399  32.136  1.00  0.00     0.134 A 
ATOM     52  C   UNL A   1      37.940  30.382  30.182  1.00  0.00     0.134 A 
ATOM     53  F   UNL A   1      39.900  28.774  32.776  1.00  0.00    -0.206 F 
ATOM     54  C   UNL A   1      37.718  29.641  32.843  1.00  0.00     0.040 A 
ATOM     55  C   UNL A   1      36.767  30.662  30.886  1.00  0.00     0.040 A 
ATOM     56  F   UNL A   1      37.994  30.747  28.893  1.00  0.00    -0.206 F 
ATOM     57  C   UNL A   1      36.648  30.276  32.217  1.00  0.00     0.006 A 
ENDBRANCH  29  50
BRANCH  41  58
ATOM     58  C   UNL A   1      41.232  24.070  27.399  1.00  0.00     0.057 A 
ATOM     59  C   UNL A   1      41.672  22.977  28.157  1.00  0.00     0.134 A 
ATOM     60  C   UNL A   1      40.176  23.862  26.502  1.00  0.00     0.134 A 
ATOM     61  F   UNL A   1      42.689  23.113  29.021  1.00  0.00    -0.206 F 
ATOM     62  C   UNL A   1      41.103  21.715  28.003  1.00  0.00     0.040 A 
ATOM     63  C   UNL A   1      39.576  22.613  26.368  1.00  0.00     0.040 A 
ATOM     64  F   UNL A   1      39.704  24.874  25.759  1.00  0.00    -0.206 F 
ATOM     65  C   UNL A   1      40.046  21.532  27.112  1.00  0.00     0.006 A 
ENDBRANCH  41  58
ENDBRANCH  15  16
ENDBRANCH   8  10
ENDBRANCH   7   8
ENDBRANCH   6   7
ENDBRANCH   5   6
ENDBRANCH   4   5
ENDBRANCH   3   4
ENDBRANCH   2   3
ENDBRANCH   1   2
BRANCH   1  66
ATOM     66  C   UNL A   1      43.472  43.961  32.559  1.00  0.00     0.188 C 
BRANCH  66  67
ATOM     67  C   UNL A   1      44.446  43.981  31.355  1.00  0.00     0.188 C 
BRANCH  67  68
ATOM     68  O   UNL A   1      43.955  44.632  30.206  1.00  0.00    -0.376 OA
BRANCH  68  69
ATOM     69  C   UNL A   1      44.874  44.942  29.169  1.00  0.00     0.202 C 
BRANCH  69  70
ATOM     70  C   UNL A   1      45.547  43.891  28.244  1.00  0.00     0.261 C 
BRANCH  70  71
ATOM     71  O   UNL A   1      44.939  43.606  26.964  1.00  0.00    -0.461 OA
BRANCH  71  72
ATOM     72  C   UNL A   1      45.296  44.324  25.874  1.00  0.00     0.335 C 
ATOM     73  O   UNL A   1      45.948  45.361  25.938  1.00  0.00    -0.249 OA
BRANCH  72  74
ATOM     74  C   UNL A   1      44.836  43.678  24.502  1.00  0.00     0.228 C 
ATOM     75  C   UNL A   1      44.304  44.781  23.596  1.00  0.00     0.047 C 
ATOM     76  O   UNL A   1      45.643  42.859  23.643  1.00  0.00    -0.361 OA
ATOM     77  C   UNL A   1      45.320  44.901  22.489  1.00  0.00     0.037 C 
ATOM     78  C   UNL A   1      45.915  43.513  22.376  1.00  0.00     0.139 C 
BRANCH  78  79
ATOM     79  C   UNL A   1      45.442  42.659  21.183  1.00  0.00     0.161 C 
BRANCH  79  80
ATOM     80  N   UNL A   1      44.279  43.212  20.496  1.00  0.00    -0.270 N 
ATOM     81  C   UNL A   1      44.378  44.075  19.442  1.00  0.00     0.263 C 
ATOM     82  C   UNL A   1      42.971  42.864  20.737  1.00  0.00     0.280 C 
ATOM     83  O   UNL A   1      45.381  44.533  18.917  1.00  0.00    -0.269 OA
ATOM     84  C   UNL A   1      43.031  44.329  18.965  1.00  0.00     0.071 A 
ATOM     85  C   UNL A   1      42.165  43.613  19.754  1.00  0.00     0.141 A 
ATOM     86  O   UNL A   1      42.553  42.058  21.549  1.00  0.00    -0.267 OA
ATOM     87  C   UNL A   1      42.558  45.066  17.900  1.00  0.00     0.018 A 
ATOM     88  N   UNL A   1      40.829  43.557  19.593  1.00  0.00    -0.250 NA
ATOM     89  C   UNL A   1      41.179  45.049  17.691  1.00  0.00     0.021 A 
ATOM     90  C   UNL A   1      40.366  44.298  18.551  1.00  0.00     0.112 A 
ENDBRANCH  79  80
ENDBRANCH  78  79
ENDBRANCH  72  74
ENDBRANCH  71  72
ENDBRANCH  70  71
ENDBRANCH  69  70
ENDBRANCH  68  69
ENDBRANCH  67  68
ENDBRANCH  66  67
ENDBRANCH   1  66
TORSDOF 22
ENDMDL
