MODEL 1
REMARK VINA RESULT:     -11.0      0.000      0.000
REMARK SMILES C[C@H](NC(=O)c1c(C(=O)OCCOCCOCCOCCOC(=O)c2ccc(-c3c4nc(c(-c5c(F)cccc5F)c5ccc([nH]5)c(-c5c(F)cccc5F)c5nc(c(-c6c(F)cccc6F)c6ccc3[nH]6)C=C5)C=C4)cc2)cnn1C)[C@]12C[C@H]3C[C@H](C[C@H](C3)C1)C2
REMARK SMILES IDX 15 1 14 2 13 3 12 4 11 5 10 6 8 7 9 8 7 9 6 10 81 11 79 12
REMARK SMILES IDX 80 13 82 14 4 15 3 16 5 18 2 19 1 20 83 21 84 22 91 23 92 24
REMARK SMILES IDX 85 25 89 26 87 27 86 28 90 29 88 30 16 31 17 32 18 33 19 34
REMARK SMILES IDX 20 35 21 36 22 37 23 38 24 39 25 40 26 41 78 42 27 43 77 44
REMARK SMILES IDX 28 45 29 46 30 47 71 48 31 49 76 50 70 51 72 52 32 53 75 54
REMARK SMILES IDX 69 55 68 56 33 58 59 59 42 60 58 61 43 62 46 63 57 64 73 65
REMARK SMILES IDX 44 66 45 67 56 69 74 70 47 71 34 72 35 73 40 74 36 75 37 76
REMARK SMILES IDX 39 77 41 78 38 79 60 80 61 81 66 82 62 83 63 84 65 85 67 86
REMARK SMILES IDX 64 87 48 88 49 89 54 90 50 91 51 92 53 93 55 94 52 95
REMARK H PARENT 3 17 72 57 46 68
REMARK Flexibility Score: inf
ROOT
ATOM      1  C   UNL A   1      42.580  20.330  26.566  1.00  0.00     0.188 C 
ENDROOT
BRANCH   1   2
ATOM      2  C   UNL A   1      41.143  19.969  26.971  1.00  0.00     0.188 C 
BRANCH   2   3
ATOM      3  O   UNL A   1      40.217  20.982  26.619  1.00  0.00    -0.376 OA
BRANCH   3   4
ATOM      4  C   UNL A   1      39.220  20.749  25.644  1.00  0.00     0.202 C 
BRANCH   4   5
ATOM      5  C   UNL A   1      38.164  21.828  25.342  1.00  0.00     0.261 C 
BRANCH   5   6
ATOM      6  O   UNL A   1      36.847  21.601  25.855  1.00  0.00    -0.460 OA
BRANCH   6   7
ATOM      7  C   UNL A   1      36.049  22.686  25.998  1.00  0.00     0.342 C 
ATOM      8  O   UNL A   1      36.472  23.801  26.282  1.00  0.00    -0.246 OA
BRANCH   7   9
ATOM      9  C   UNL A   1      34.665  22.463  25.596  1.00  0.00     0.111 A 
ATOM     10  C   UNL A   1      33.936  22.850  24.457  1.00  0.00     0.140 A 
ATOM     11  N   UNL A   1      32.847  22.007  24.521  1.00  0.00    -0.262 N 
ATOM     12  C   UNL A   1      33.724  21.779  26.401  1.00  0.00     0.151 A 
ATOM     13  N   UNL A   1      32.566  21.599  25.774  1.00  0.00    -0.180 NA
ATOM     14  C   UNL A   1      32.286  21.220  23.443  1.00  0.00     0.174 C 
BRANCH  10  15
ATOM     15  C   UNL A   1      34.370  23.637  23.330  1.00  0.00     0.270 C 
ATOM     16  N   UNL A   1      33.684  24.700  22.798  1.00  0.00    -0.348 N 
ATOM     17  H   UNL A   1      34.167  25.016  22.000  1.00  0.00     0.164 HD
ATOM     18  O   UNL A   1      35.431  23.378  22.757  1.00  0.00    -0.267 OA
BRANCH  16  19
ATOM     19  C   UNL A   1      32.479  25.548  22.986  1.00  0.00     0.085 C 
ATOM     20  C   UNL A   1      31.145  24.816  22.985  1.00  0.00     0.031 C 
BRANCH  19  21
ATOM     21  C   UNL A   1      32.559  26.694  24.059  1.00  0.00    -0.009 C 
ATOM     22  C   UNL A   1      32.825  26.045  25.464  1.00  0.00     0.012 C 
ATOM     23  C   UNL A   1      31.233  27.489  24.175  1.00  0.00     0.012 C 
ATOM     24  C   UNL A   1      33.699  27.706  23.786  1.00  0.00     0.012 C 
ATOM     25  C   UNL A   1      32.917  27.096  26.578  1.00  0.00    -0.010 C 
ATOM     26  C   UNL A   1      31.315  28.536  25.304  1.00  0.00    -0.010 C 
ATOM     27  C   UNL A   1      33.795  28.755  24.912  1.00  0.00    -0.010 C 
ATOM     28  C   UNL A   1      34.070  28.060  26.251  1.00  0.00     0.007 C 
ATOM     29  C   UNL A   1      31.584  27.855  26.648  1.00  0.00     0.007 C 
ATOM     30  C   UNL A   1      32.470  29.506  25.041  1.00  0.00     0.007 C 
ENDBRANCH  19  21
ENDBRANCH  16  19
ENDBRANCH  10  15
ENDBRANCH   7   9
ENDBRANCH   6   7
ENDBRANCH   5   6
ENDBRANCH   4   5
ENDBRANCH   3   4
ENDBRANCH   2   3
ENDBRANCH   1   2
BRANCH   1  31
ATOM     31  O   UNL A   1      42.967  19.969  25.251  1.00  0.00    -0.377 OA
BRANCH  31  32
ATOM     32  C   UNL A   1      44.066  19.089  25.124  1.00  0.00     0.188 C 
BRANCH  32  33
ATOM     33  C   UNL A   1      45.397  19.805  24.800  1.00  0.00     0.188 C 
BRANCH  33  34
ATOM     34  O   UNL A   1      45.484  21.227  24.779  1.00  0.00    -0.376 OA
BRANCH  34  35
ATOM     35  C   UNL A   1      45.660  21.953  25.987  1.00  0.00     0.202 C 
BRANCH  35  36
ATOM     36  C   UNL A   1      45.751  23.484  25.949  1.00  0.00     0.261 C 
BRANCH  36  37
ATOM     37  O   UNL A   1      45.074  24.109  24.849  1.00  0.00    -0.460 OA
BRANCH  37  38
ATOM     38  C   UNL A   1      43.750  23.868  24.754  1.00  0.00     0.338 C 
ATOM     39  O   UNL A   1      43.196  22.957  24.155  1.00  0.00    -0.246 OA
BRANCH  38  40
ATOM     40  C   UNL A   1      43.026  24.797  25.642  1.00  0.00     0.060 A 
ATOM     41  C   UNL A   1      43.500  26.110  25.755  1.00  0.00     0.016 A 
ATOM     42  C   UNL A   1      41.929  24.375  26.393  1.00  0.00     0.016 A 
ATOM     43  C   UNL A   1      42.892  27.000  26.636  1.00  0.00     0.010 A 
ATOM     44  C   UNL A   1      41.325  25.266  27.288  1.00  0.00     0.010 A 
ATOM     45  C   UNL A   1      41.832  26.570  27.443  1.00  0.00    -0.014 A 
BRANCH  45  46
ATOM     46  C   UNL A   1      41.425  27.410  28.596  1.00  0.00     0.031 A 
ATOM     47  C   UNL A   1      42.233  27.317  29.864  1.00  0.00     0.074 A 
ATOM     48  C   UNL A   1      40.414  28.293  28.505  1.00  0.00     0.049 A 
ATOM     49  N   UNL A   1      42.077  27.948  30.999  1.00  0.00    -0.248 NA
ATOM     50  C   UNL A   1      43.371  26.383  29.848  1.00  0.00     0.031 C 
ATOM     51  C   UNL A   1      39.588  28.518  27.321  1.00  0.00     0.029 A 
ATOM     52  N   UNL A   1      39.915  29.170  29.436  1.00  0.00    -0.354 N 
ATOM     53  C   UNL A   1      43.094  27.488  31.827  1.00  0.00     0.074 A 
ATOM     54  C   UNL A   1      43.832  26.493  31.083  1.00  0.00     0.031 C 
ATOM     55  C   UNL A   1      38.679  29.469  27.599  1.00  0.00     0.029 A 
ATOM     56  C   UNL A   1      38.839  29.897  28.988  1.00  0.00     0.049 A 
ATOM     57  H   UNL A   1      40.292  29.268  30.340  1.00  0.00     0.167 HD
ATOM     58  C   UNL A   1      43.397  27.871  33.089  1.00  0.00     0.037 A 
ATOM     59  C   UNL A   1      38.062  30.790  29.634  1.00  0.00     0.037 A 
ATOM     60  C   UNL A   1      42.667  28.865  33.829  1.00  0.00     0.049 A 
ATOM     61  C   UNL A   1      38.368  31.135  31.071  1.00  0.00     0.074 A 
ATOM     62  C   UNL A   1      42.902  29.326  35.113  1.00  0.00     0.029 A 
ATOM     63  N   UNL A   1      41.556  29.546  33.356  1.00  0.00    -0.354 N 
ATOM     64  N   UNL A   1      39.344  30.710  31.838  1.00  0.00    -0.248 NA
ATOM     65  C   UNL A   1      37.466  32.090  31.731  1.00  0.00     0.031 C 
ATOM     66  C   UNL A   1      41.899  30.243  35.437  1.00  0.00     0.029 A 
ATOM     67  C   UNL A   1      41.080  30.403  34.332  1.00  0.00     0.049 A 
ATOM     68  H   UNL A   1      41.166  29.436  32.459  1.00  0.00     0.167 HD
ATOM     69  C   UNL A   1      39.193  31.371  33.053  1.00  0.00     0.074 A 
ATOM     70  C   UNL A   1      38.042  32.236  32.916  1.00  0.00     0.031 C 
ATOM     71  C   UNL A   1      39.941  31.272  34.179  1.00  0.00     0.037 A 
BRANCH  58  72
ATOM     72  C   UNL A   1      44.557  27.194  33.758  1.00  0.00     0.057 A 
ATOM     73  C   UNL A   1      44.404  26.012  34.492  1.00  0.00     0.134 A 
ATOM     74  C   UNL A   1      45.851  27.713  33.631  1.00  0.00     0.134 A 
ATOM     75  F   UNL A   1      43.188  25.472  34.667  1.00  0.00    -0.206 F 
ATOM     76  C   UNL A   1      45.494  25.379  35.094  1.00  0.00     0.040 A 
ATOM     77  C   UNL A   1      46.953  27.074  34.201  1.00  0.00     0.040 A 
ATOM     78  F   UNL A   1      46.069  28.841  32.939  1.00  0.00    -0.206 F 
ATOM     79  C   UNL A   1      46.775  25.906  34.940  1.00  0.00     0.006 A 
ENDBRANCH  58  72
BRANCH  59  80
ATOM     80  C   UNL A   1      36.898  31.411  28.948  1.00  0.00     0.057 A 
ATOM     81  C   UNL A   1      36.917  32.752  28.545  1.00  0.00     0.134 A 
ATOM     82  C   UNL A   1      35.715  30.693  28.733  1.00  0.00     0.134 A 
ATOM     83  F   UNL A   1      38.010  33.502  28.747  1.00  0.00    -0.206 F 
ATOM     84  C   UNL A   1      35.794  33.365  27.984  1.00  0.00     0.040 A 
ATOM     85  C   UNL A   1      34.596  31.284  28.144  1.00  0.00     0.040 A 
ATOM     86  F   UNL A   1      35.628  29.405  29.097  1.00  0.00    -0.206 F 
ATOM     87  C   UNL A   1      34.630  32.627  27.779  1.00  0.00     0.006 A 
ENDBRANCH  59  80
BRANCH  71  88
ATOM     88  C   UNL A   1      39.572  32.154  35.340  1.00  0.00     0.057 A 
ATOM     89  C   UNL A   1      40.106  33.439  35.498  1.00  0.00     0.134 A 
ATOM     90  C   UNL A   1      38.629  31.727  36.284  1.00  0.00     0.134 A 
ATOM     91  F   UNL A   1      41.021  33.907  34.635  1.00  0.00    -0.206 F 
ATOM     92  C   UNL A   1      39.738  34.255  36.570  1.00  0.00     0.040 A 
ATOM     93  C   UNL A   1      38.229  32.546  37.341  1.00  0.00     0.040 A 
ATOM     94  F   UNL A   1      38.066  30.514  36.185  1.00  0.00    -0.206 F 
ATOM     95  C   UNL A   1      38.790  33.812  37.490  1.00  0.00     0.006 A 
ENDBRANCH  71  88
ENDBRANCH  45  46
ENDBRANCH  38  40
ENDBRANCH  37  38
ENDBRANCH  36  37
ENDBRANCH  35  36
ENDBRANCH  34  35
ENDBRANCH  33  34
ENDBRANCH  32  33
ENDBRANCH  31  32
ENDBRANCH   1  31
TORSDOF 23
ENDMDL
MODEL 2
REMARK VINA RESULT:     -11.0      4.718     10.406
REMARK SMILES C[C@H](NC(=O)c1c(C(=O)OCCOCCOCCOCCOC(=O)c2ccc(-c3c4nc(c(-c5c(F)cccc5F)c5ccc([nH]5)c(-c5c(F)cccc5F)c5nc(c(-c6c(F)cccc6F)c6ccc3[nH]6)C=C5)C=C4)cc2)cnn1C)[C@]12C[C@H]3C[C@H](C[C@H](C3)C1)C2
REMARK SMILES IDX 15 1 14 2 13 3 12 4 11 5 10 6 8 7 9 8 7 9 6 10 81 11 79 12
REMARK SMILES IDX 80 13 82 14 4 15 3 16 5 18 2 19 1 20 83 21 84 22 91 23 92 24
REMARK SMILES IDX 85 25 89 26 87 27 86 28 90 29 88 30 16 31 17 32 18 33 19 34
REMARK SMILES IDX 20 35 21 36 22 37 23 38 24 39 25 40 26 41 78 42 27 43 77 44
REMARK SMILES IDX 28 45 29 46 30 47 71 48 31 49 76 50 70 51 72 52 32 53 75 54
REMARK SMILES IDX 69 55 68 56 33 58 59 59 42 60 58 61 43 62 46 63 57 64 73 65
REMARK SMILES IDX 44 66 45 67 56 69 74 70 47 71 34 72 35 73 40 74 36 75 37 76
REMARK SMILES IDX 39 77 41 78 38 79 60 80 61 81 66 82 62 83 63 84 65 85 67 86
REMARK SMILES IDX 64 87 48 88 49 89 54 90 50 91 51 92 53 93 55 94 52 95
REMARK H PARENT 3 17 72 57 46 68
REMARK Flexibility Score: inf
ROOT
ATOM      1  C   UNL A   1      32.991  34.975  28.608  1.00  0.00     0.188 C 
ENDROOT
BRANCH   1   2
ATOM      2  C   UNL A   1      33.048  33.594  27.937  1.00  0.00     0.188 C 
BRANCH   2   3
ATOM      3  O   UNL A   1      31.857  33.294  27.229  1.00  0.00    -0.376 OA
BRANCH   3   4
ATOM      4  C   UNL A   1      31.581  31.976  26.796  1.00  0.00     0.202 C 
BRANCH   4   5
ATOM      5  C   UNL A   1      32.644  30.873  26.945  1.00  0.00     0.261 C 
BRANCH   5   6
ATOM      6  O   UNL A   1      32.224  29.533  26.671  1.00  0.00    -0.460 OA
BRANCH   6   7
ATOM      7  C   UNL A   1      33.180  28.658  26.280  1.00  0.00     0.342 C 
ATOM      8  O   UNL A   1      34.109  28.308  27.000  1.00  0.00    -0.246 OA
BRANCH   7   9
ATOM      9  C   UNL A   1      32.909  28.012  25.001  1.00  0.00     0.111 A 
ATOM     10  C   UNL A   1      32.119  26.902  24.649  1.00  0.00     0.140 A 
ATOM     11  N   UNL A   1      31.991  27.071  23.287  1.00  0.00    -0.262 N 
ATOM     12  C   UNL A   1      33.497  28.425  23.784  1.00  0.00     0.151 A 
ATOM     13  N   UNL A   1      33.008  27.763  22.740  1.00  0.00    -0.180 NA
ATOM     14  C   UNL A   1      30.774  26.982  22.506  1.00  0.00     0.174 C 
BRANCH  10  15
ATOM     15  C   UNL A   1      31.344  26.037  25.502  1.00  0.00     0.270 C 
ATOM     16  N   UNL A   1      31.322  24.666  25.427  1.00  0.00    -0.348 N 
ATOM     17  H   UNL A   1      30.665  24.328  26.078  1.00  0.00     0.164 HD
ATOM     18  O   UNL A   1      30.624  26.509  26.385  1.00  0.00    -0.267 OA
BRANCH  16  19
ATOM     19  C   UNL A   1      31.926  23.508  24.720  1.00  0.00     0.085 C 
ATOM     20  C   UNL A   1      31.542  23.348  23.257  1.00  0.00     0.031 C 
BRANCH  19  21
ATOM     21  C   UNL A   1      33.441  23.195  25.004  1.00  0.00    -0.009 C 
ATOM     22  C   UNL A   1      34.026  22.407  23.778  1.00  0.00     0.012 C 
ATOM     23  C   UNL A   1      33.635  22.296  26.252  1.00  0.00     0.012 C 
ATOM     24  C   UNL A   1      34.300  24.469  25.196  1.00  0.00     0.012 C 
ATOM     25  C   UNL A   1      35.508  22.057  23.971  1.00  0.00    -0.010 C 
ATOM     26  C   UNL A   1      35.120  21.929  26.441  1.00  0.00    -0.010 C 
ATOM     27  C   UNL A   1      35.789  24.115  25.380  1.00  0.00    -0.010 C 
ATOM     28  C   UNL A   1      36.302  23.362  24.147  1.00  0.00     0.007 C 
ATOM     29  C   UNL A   1      35.644  21.171  25.217  1.00  0.00     0.007 C 
ATOM     30  C   UNL A   1      35.963  23.198  26.590  1.00  0.00     0.007 C 
ENDBRANCH  19  21
ENDBRANCH  16  19
ENDBRANCH  10  15
ENDBRANCH   7   9
ENDBRANCH   6   7
ENDBRANCH   5   6
ENDBRANCH   4   5
ENDBRANCH   3   4
ENDBRANCH   2   3
ENDBRANCH   1   2
BRANCH   1  31
ATOM     31  O   UNL A   1      33.112  34.988  30.020  1.00  0.00    -0.377 OA
BRANCH  31  32
ATOM     32  C   UNL A   1      32.986  36.240  30.664  1.00  0.00     0.188 C 
BRANCH  32  33
ATOM     33  C   UNL A   1      33.013  36.148  32.206  1.00  0.00     0.188 C 
BRANCH  33  34
ATOM     34  O   UNL A   1      34.241  36.206  32.929  1.00  0.00    -0.376 OA
BRANCH  34  35
ATOM     35  C   UNL A   1      34.683  35.085  33.679  1.00  0.00     0.202 C 
BRANCH  35  36
ATOM     36  C   UNL A   1      34.328  33.668  33.212  1.00  0.00     0.261 C 
BRANCH  36  37
ATOM     37  O   UNL A   1      35.368  32.982  32.500  1.00  0.00    -0.460 OA
BRANCH  37  38
ATOM     38  C   UNL A   1      36.319  32.396  33.258  1.00  0.00     0.338 C 
ATOM     39  O   UNL A   1      36.404  32.390  34.477  1.00  0.00    -0.246 OA
BRANCH  38  40
ATOM     40  C   UNL A   1      37.197  31.589  32.390  1.00  0.00     0.060 A 
ATOM     41  C   UNL A   1      38.173  30.789  32.996  1.00  0.00     0.016 A 
ATOM     42  C   UNL A   1      37.099  31.654  31.000  1.00  0.00     0.016 A 
ATOM     43  C   UNL A   1      39.071  30.068  32.213  1.00  0.00     0.010 A 
ATOM     44  C   UNL A   1      38.008  30.938  30.213  1.00  0.00     0.010 A 
ATOM     45  C   UNL A   1      39.025  30.175  30.818  1.00  0.00    -0.014 A 
BRANCH  45  46
ATOM     46  C   UNL A   1      40.177  29.681  30.024  1.00  0.00     0.031 A 
ATOM     47  C   UNL A   1      41.331  30.619  29.788  1.00  0.00     0.074 A 
ATOM     48  C   UNL A   1      40.241  28.410  29.587  1.00  0.00     0.049 A 
ATOM     49  N   UNL A   1      42.446  30.419  29.132  1.00  0.00    -0.248 NA
ATOM     50  C   UNL A   1      41.212  31.965  30.372  1.00  0.00     0.031 C 
ATOM     51  C   UNL A   1      39.216  27.390  29.793  1.00  0.00     0.029 A 
ATOM     52  N   UNL A   1      41.222  27.764  28.877  1.00  0.00    -0.354 N 
ATOM     53  C   UNL A   1      43.154  31.611  29.225  1.00  0.00     0.074 A 
ATOM     54  C   UNL A   1      42.329  32.542  29.960  1.00  0.00     0.031 C 
ATOM     55  C   UNL A   1      39.621  26.244  29.216  1.00  0.00     0.029 A 
ATOM     56  C   UNL A   1      40.916  26.460  28.575  1.00  0.00     0.049 A 
ATOM     57  H   UNL A   1      42.065  28.196  28.609  1.00  0.00     0.167 HD
ATOM     58  C   UNL A   1      44.390  31.900  28.755  1.00  0.00     0.037 A 
ATOM     59  C   UNL A   1      41.598  25.553  27.846  1.00  0.00     0.037 A 
ATOM     60  C   UNL A   1      45.216  30.974  28.029  1.00  0.00     0.049 A 
ATOM     61  C   UNL A   1      42.935  25.929  27.258  1.00  0.00     0.074 A 
ATOM     62  C   UNL A   1      46.487  31.172  27.517  1.00  0.00     0.029 A 
ATOM     63  N   UNL A   1      44.852  29.676  27.704  1.00  0.00    -0.354 N 
ATOM     64  N   UNL A   1      43.606  27.051  27.369  1.00  0.00    -0.248 NA
ATOM     65  C   UNL A   1      43.615  24.908  26.445  1.00  0.00     0.031 C 
ATOM     66  C   UNL A   1      46.867  30.015  26.833  1.00  0.00     0.029 A 
ATOM     67  C   UNL A   1      45.862  29.072  26.976  1.00  0.00     0.049 A 
ATOM     68  H   UNL A   1      44.002  29.248  27.956  1.00  0.00     0.167 HD
ATOM     69  C   UNL A   1      44.796  26.857  26.674  1.00  0.00     0.074 A 
ATOM     70  C   UNL A   1      44.762  25.506  26.158  1.00  0.00     0.031 C 
ATOM     71  C   UNL A   1      45.824  27.720  26.481  1.00  0.00     0.037 A 
BRANCH  58  72
ATOM     72  C   UNL A   1      44.915  33.286  28.993  1.00  0.00     0.057 A 
ATOM     73  C   UNL A   1      45.712  33.596  30.101  1.00  0.00     0.134 A 
ATOM     74  C   UNL A   1      44.652  34.312  28.077  1.00  0.00     0.134 A 
ATOM     75  F   UNL A   1      45.987  32.663  31.025  1.00  0.00    -0.206 F 
ATOM     76  C   UNL A   1      46.213  34.885  30.302  1.00  0.00     0.040 A 
ATOM     77  C   UNL A   1      45.172  35.595  28.251  1.00  0.00     0.040 A 
ATOM     78  F   UNL A   1      43.898  34.081  26.992  1.00  0.00    -0.206 F 
ATOM     79  C   UNL A   1      45.951  35.886  29.369  1.00  0.00     0.006 A 
ENDBRANCH  58  72
BRANCH  59  80
ATOM     80  C   UNL A   1      41.027  24.201  27.600  1.00  0.00     0.057 A 
ATOM     81  C   UNL A   1      41.510  23.071  28.271  1.00  0.00     0.134 A 
ATOM     82  C   UNL A   1      40.024  24.001  26.643  1.00  0.00     0.134 A 
ATOM     83  F   UNL A   1      42.489  23.192  29.180  1.00  0.00    -0.206 F 
ATOM     84  C   UNL A   1      41.041  21.788  27.977  1.00  0.00     0.040 A 
ATOM     85  C   UNL A   1      39.524  22.728  26.362  1.00  0.00     0.040 A 
ATOM     86  F   UNL A   1      39.519  25.039  25.963  1.00  0.00    -0.206 F 
ATOM     87  C   UNL A   1      40.041  21.616  27.022  1.00  0.00     0.006 A 
ENDBRANCH  59  80
BRANCH  71  88
ATOM     88  C   UNL A   1      47.021  27.218  25.723  1.00  0.00     0.057 A 
ATOM     89  C   UNL A   1      47.207  27.486  24.361  1.00  0.00     0.134 A 
ATOM     90  C   UNL A   1      48.028  26.498  26.381  1.00  0.00     0.134 A 
ATOM     91  F   UNL A   1      46.278  28.163  23.668  1.00  0.00    -0.206 F 
ATOM     92  C   UNL A   1      48.335  27.032  23.675  1.00  0.00     0.040 A 
ATOM     93  C   UNL A   1      49.175  26.067  25.714  1.00  0.00     0.040 A 
ATOM     94  F   UNL A   1      47.922  26.218  27.689  1.00  0.00    -0.206 F 
ATOM     95  C   UNL A   1      49.327  26.327  24.354  1.00  0.00     0.006 A 
ENDBRANCH  71  88
ENDBRANCH  45  46
ENDBRANCH  38  40
ENDBRANCH  37  38
ENDBRANCH  36  37
ENDBRANCH  35  36
ENDBRANCH  34  35
ENDBRANCH  33  34
ENDBRANCH  32  33
ENDBRANCH  31  32
ENDBRANCH   1  31
TORSDOF 23
ENDMDL
MODEL 3
REMARK VINA RESULT:     -10.1      3.501      5.848
REMARK SMILES C[C@H](NC(=O)c1c(C(=O)OCCOCCOCCOCCOC(=O)c2ccc(-c3c4nc(c(-c5c(F)cccc5F)c5ccc([nH]5)c(-c5c(F)cccc5F)c5nc(c(-c6c(F)cccc6F)c6ccc3[nH]6)C=C5)C=C4)cc2)cnn1C)[C@]12C[C@H]3C[C@H](C[C@H](C3)C1)C2
REMARK SMILES IDX 15 1 14 2 13 3 12 4 11 5 10 6 8 7 9 8 7 9 6 10 81 11 79 12
REMARK SMILES IDX 80 13 82 14 4 15 3 16 5 18 2 19 1 20 83 21 84 22 91 23 92 24
REMARK SMILES IDX 85 25 89 26 87 27 86 28 90 29 88 30 16 31 17 32 18 33 19 34
REMARK SMILES IDX 20 35 21 36 22 37 23 38 24 39 25 40 26 41 78 42 27 43 77 44
REMARK SMILES IDX 28 45 29 46 30 47 71 48 31 49 76 50 70 51 72 52 32 53 75 54
REMARK SMILES IDX 69 55 68 56 33 58 59 59 42 60 58 61 43 62 46 63 57 64 73 65
REMARK SMILES IDX 44 66 45 67 56 69 74 70 47 71 34 72 35 73 40 74 36 75 37 76
REMARK SMILES IDX 39 77 41 78 38 79 60 80 61 81 66 82 62 83 63 84 65 85 67 86
REMARK SMILES IDX 64 87 48 88 49 89 54 90 50 91 51 92 53 93 55 94 52 95
REMARK H PARENT 3 17 72 57 46 68
REMARK Flexibility Score: inf
ROOT
ATOM      1  C   UNL A   1      32.511  20.039  23.822  1.00  0.00     0.188 C 
ENDROOT
BRANCH   1   2
ATOM      2  C   UNL A   1      32.114  21.488  24.142  1.00  0.00     0.188 C 
BRANCH   2   3
ATOM      3  O   UNL A   1      31.997  22.282  22.974  1.00  0.00    -0.376 OA
BRANCH   3   4
ATOM      4  C   UNL A   1      33.122  22.941  22.427  1.00  0.00     0.202 C 
BRANCH   4   5
ATOM      5  C   UNL A   1      33.239  24.473  22.512  1.00  0.00     0.261 C 
BRANCH   5   6
ATOM      6  O   UNL A   1      34.018  25.000  23.591  1.00  0.00    -0.460 OA
BRANCH   6   7
ATOM      7  C   UNL A   1      33.345  25.390  24.699  1.00  0.00     0.342 C 
ATOM      8  O   UNL A   1      32.722  24.615  25.416  1.00  0.00    -0.246 OA
BRANCH   7   9
ATOM      9  C   UNL A   1      33.583  26.777  25.082  1.00  0.00     0.111 A 
ATOM     10  C   UNL A   1      33.513  27.983  24.362  1.00  0.00     0.140 A 
ATOM     11  N   UNL A   1      33.466  28.914  25.378  1.00  0.00    -0.262 N 
ATOM     12  C   UNL A   1      34.007  27.163  26.375  1.00  0.00     0.151 A 
ATOM     13  N   UNL A   1      34.041  28.484  26.518  1.00  0.00    -0.180 NA
ATOM     14  C   UNL A   1      32.558  30.036  25.495  1.00  0.00     0.174 C 
BRANCH  10  15
ATOM     15  C   UNL A   1      33.199  28.189  22.970  1.00  0.00     0.270 C 
ATOM     16  N   UNL A   1      31.938  28.139  22.429  1.00  0.00    -0.348 N 
ATOM     17  H   UNL A   1      32.012  28.250  21.454  1.00  0.00     0.164 HD
ATOM     18  O   UNL A   1      34.093  28.428  22.156  1.00  0.00    -0.267 OA
BRANCH  16  19
ATOM     19  C   UNL A   1      30.504  27.978  22.778  1.00  0.00     0.085 C 
ATOM     20  C   UNL A   1      30.203  27.046  23.942  1.00  0.00     0.031 C 
BRANCH  19  21
ATOM     21  C   UNL A   1      29.606  29.269  22.767  1.00  0.00    -0.009 C 
ATOM     22  C   UNL A   1      29.959  30.113  21.491  1.00  0.00     0.012 C 
ATOM     23  C   UNL A   1      29.865  30.180  23.994  1.00  0.00     0.012 C 
ATOM     24  C   UNL A   1      28.090  28.956  22.718  1.00  0.00     0.012 C 
ATOM     25  C   UNL A   1      29.126  31.398  21.399  1.00  0.00    -0.010 C 
ATOM     26  C   UNL A   1      29.043  31.481  23.899  1.00  0.00    -0.010 C 
ATOM     27  C   UNL A   1      27.257  30.249  22.617  1.00  0.00    -0.010 C 
ATOM     28  C   UNL A   1      27.637  31.017  21.346  1.00  0.00     0.007 C 
ATOM     29  C   UNL A   1      29.417  32.260  22.636  1.00  0.00     0.007 C 
ATOM     30  C   UNL A   1      27.550  31.155  23.812  1.00  0.00     0.007 C 
ENDBRANCH  19  21
ENDBRANCH  16  19
ENDBRANCH  10  15
ENDBRANCH   7   9
ENDBRANCH   6   7
ENDBRANCH   5   6
ENDBRANCH   4   5
ENDBRANCH   3   4
ENDBRANCH   2   3
ENDBRANCH   1   2
BRANCH   1  31
ATOM     31  O   UNL A   1      33.217  19.347  24.838  1.00  0.00    -0.377 OA
BRANCH  31  32
ATOM     32  C   UNL A   1      34.601  19.144  24.636  1.00  0.00     0.188 C 
BRANCH  32  33
ATOM     33  C   UNL A   1      35.467  20.365  25.018  1.00  0.00     0.188 C 
BRANCH  33  34
ATOM     34  O   UNL A   1      36.891  20.293  25.010  1.00  0.00    -0.376 OA
BRANCH  34  35
ATOM     35  C   UNL A   1      37.667  21.440  25.323  1.00  0.00     0.202 C 
BRANCH  35  36
ATOM     36  C   UNL A   1      39.150  21.280  25.685  1.00  0.00     0.261 C 
BRANCH  36  37
ATOM     37  O   UNL A   1      39.571  19.934  25.952  1.00  0.00    -0.460 OA
BRANCH  37  38
ATOM     38  C   UNL A   1      40.901  19.741  26.066  1.00  0.00     0.338 C 
ATOM     39  O   UNL A   1      41.555  18.787  25.669  1.00  0.00    -0.246 OA
BRANCH  38  40
ATOM     40  C   UNL A   1      41.520  20.961  26.615  1.00  0.00     0.060 A 
ATOM     41  C   UNL A   1      41.359  21.229  27.980  1.00  0.00     0.016 A 
ATOM     42  C   UNL A   1      42.205  21.858  25.795  1.00  0.00     0.016 A 
ATOM     43  C   UNL A   1      41.864  22.406  28.527  1.00  0.00     0.010 A 
ATOM     44  C   UNL A   1      42.704  23.046  26.342  1.00  0.00     0.010 A 
ATOM     45  C   UNL A   1      42.497  23.344  27.702  1.00  0.00    -0.014 A 
BRANCH  45  46
ATOM     46  C   UNL A   1      42.723  24.715  28.222  1.00  0.00     0.031 A 
ATOM     47  C   UNL A   1      44.131  25.122  28.566  1.00  0.00     0.074 A 
ATOM     48  C   UNL A   1      41.721  25.608  28.317  1.00  0.00     0.049 A 
ATOM     49  N   UNL A   1      44.579  26.259  29.032  1.00  0.00    -0.248 NA
ATOM     50  C   UNL A   1      45.176  24.106  28.355  1.00  0.00     0.031 C 
ATOM     51  C   UNL A   1      40.325  25.358  27.968  1.00  0.00     0.029 A 
ATOM     52  N   UNL A   1      41.735  26.916  28.737  1.00  0.00    -0.354 N 
ATOM     53  C   UNL A   1      45.952  26.094  29.169  1.00  0.00     0.074 A 
ATOM     54  C   UNL A   1      46.259  24.736  28.782  1.00  0.00     0.031 C 
ATOM     55  C   UNL A   1      39.613  26.476  28.193  1.00  0.00     0.029 A 
ATOM     56  C   UNL A   1      40.496  27.509  28.731  1.00  0.00     0.049 A 
ATOM     57  H   UNL A   1      42.555  27.383  29.016  1.00  0.00     0.167 HD
ATOM     58  C   UNL A   1      46.878  26.996  29.567  1.00  0.00     0.037 A 
ATOM     59  C   UNL A   1      40.120  28.740  29.134  1.00  0.00     0.037 A 
ATOM     60  C   UNL A   1      46.577  28.350  29.948  1.00  0.00     0.049 A 
ATOM     61  C   UNL A   1      41.160  29.699  29.657  1.00  0.00     0.074 A 
ATOM     62  C   UNL A   1      47.449  29.344  30.359  1.00  0.00     0.029 A 
ATOM     63  N   UNL A   1      45.304  28.900  29.971  1.00  0.00    -0.354 N 
ATOM     64  N   UNL A   1      42.457  29.541  29.763  1.00  0.00    -0.248 NA
ATOM     65  C   UNL A   1      40.683  31.014  30.112  1.00  0.00     0.031 C 
ATOM     66  C   UNL A   1      46.698  30.475  30.687  1.00  0.00     0.029 A 
ATOM     67  C   UNL A   1      45.366  30.209  30.416  1.00  0.00     0.049 A 
ATOM     68  H   UNL A   1      44.481  28.429  29.710  1.00  0.00     0.167 HD
ATOM     69  C   UNL A   1      42.952  30.742  30.260  1.00  0.00     0.074 A 
ATOM     70  C   UNL A   1      41.817  31.625  30.420  1.00  0.00     0.031 C 
ATOM     71  C   UNL A   1      44.230  31.084  30.556  1.00  0.00     0.037 A 
BRANCH  58  72
ATOM     72  C   UNL A   1      48.307  26.541  29.632  1.00  0.00     0.057 A 
ATOM     73  C   UNL A   1      48.848  25.960  30.785  1.00  0.00     0.134 A 
ATOM     74  C   UNL A   1      49.138  26.649  28.511  1.00  0.00     0.134 A 
ATOM     75  F   UNL A   1      48.110  25.843  31.900  1.00  0.00    -0.206 F 
ATOM     76  C   UNL A   1      50.173  25.520  30.828  1.00  0.00     0.040 A 
ATOM     77  C   UNL A   1      50.455  26.185  28.531  1.00  0.00     0.040 A 
ATOM     78  F   UNL A   1      48.682  27.193  27.373  1.00  0.00    -0.206 F 
ATOM     79  C   UNL A   1      50.977  25.624  29.695  1.00  0.00     0.006 A 
ENDBRANCH  58  72
BRANCH  59  80
ATOM     80  C   UNL A   1      38.688  29.141  29.090  1.00  0.00     0.057 A 
ATOM     81  C   UNL A   1      38.117  29.688  27.933  1.00  0.00     0.134 A 
ATOM     82  C   UNL A   1      37.872  29.044  30.224  1.00  0.00     0.134 A 
ATOM     83  F   UNL A   1      38.853  29.833  26.822  1.00  0.00    -0.206 F 
ATOM     84  C   UNL A   1      36.799  30.151  27.914  1.00  0.00     0.040 A 
ATOM     85  C   UNL A   1      36.543  29.474  30.210  1.00  0.00     0.040 A 
ATOM     86  F   UNL A   1      38.355  28.533  31.365  1.00  0.00    -0.206 F 
ATOM     87  C   UNL A   1      36.008  30.040  29.056  1.00  0.00     0.006 A 
ENDBRANCH  59  80
BRANCH  71  88
ATOM     88  C   UNL A   1      44.482  32.487  31.036  1.00  0.00     0.057 A 
ATOM     89  C   UNL A   1      44.482  32.820  32.396  1.00  0.00     0.134 A 
ATOM     90  C   UNL A   1      44.779  33.507  30.123  1.00  0.00     0.134 A 
ATOM     91  F   UNL A   1      44.197  31.894  33.324  1.00  0.00    -0.206 F 
ATOM     92  C   UNL A   1      44.740  34.123  32.829  1.00  0.00     0.040 A 
ATOM     93  C   UNL A   1      45.070  34.805  30.544  1.00  0.00     0.040 A 
ATOM     94  F   UNL A   1      44.811  33.255  28.805  1.00  0.00    -0.206 F 
ATOM     95  C   UNL A   1      45.043  35.118  31.900  1.00  0.00     0.006 A 
ENDBRANCH  71  88
ENDBRANCH  45  46
ENDBRANCH  38  40
ENDBRANCH  37  38
ENDBRANCH  36  37
ENDBRANCH  35  36
ENDBRANCH  34  35
ENDBRANCH  33  34
ENDBRANCH  32  33
ENDBRANCH  31  32
ENDBRANCH   1  31
TORSDOF 23
ENDMDL
