MODEL 1
REMARK VINA RESULT:     -10.4      0.000      0.000
REMARK SMILES Cc1cc(Br)cc2c1O[C@H](C(F)(F)F)C(C(=O)OCCOCCOCCOCCOC(=O)c1ccc(-c3c4nc(c(-c5c(F)cccc5F)c5ccc([nH]5)c(-c5c(F)cccc5F)c5nc(c(-c6c(F)cccc6F)c6ccc3[nH]6)C=C5)C=C4)cc1)=C2
REMARK SMILES IDX 25 1 24 2 23 3 22 4 21 5 20 6 19 7 18 8 16 9 17 10 15 11
REMARK SMILES IDX 1 12 2 13 3 14 8 15 4 16 7 17 9 18 5 19 6 20 87 21 10 22
REMARK SMILES IDX 11 23 12 24 13 25 14 26 26 27 27 28 28 29 29 30 30 31 31 32
REMARK SMILES IDX 32 33 33 34 34 35 86 36 35 37 85 38 36 39 37 40 38 41 79 42
REMARK SMILES IDX 39 43 84 44 78 45 80 46 40 47 83 48 77 49 76 50 41 52 67 53
REMARK SMILES IDX 50 54 66 55 51 56 54 57 65 58 81 59 52 60 53 61 64 63 82 64
REMARK SMILES IDX 55 65 42 66 43 67 48 68 44 69 45 70 47 71 49 72 46 73 68 74
REMARK SMILES IDX 69 75 74 76 70 77 71 78 73 79 75 80 72 81 56 82 57 83 62 84
REMARK SMILES IDX 58 85 59 86 61 87 63 88 60 89
REMARK H PARENT 80 51 54 62
REMARK Flexibility Score: inf
ROOT
ATOM      1  C   UNL A   1      41.721  19.097  26.134  1.00  0.00     0.188 C 
ENDROOT
BRANCH   1   2
ATOM      2  O   UNL A   1      40.397  19.129  25.591  1.00  0.00    -0.377 OA
BRANCH   2   3
ATOM      3  C   UNL A   1      39.580  20.247  25.903  1.00  0.00     0.188 C 
BRANCH   3   4
ATOM      4  C   UNL A   1      38.233  20.242  25.155  1.00  0.00     0.188 C 
BRANCH   4   5
ATOM      5  O   UNL A   1      37.773  21.540  24.821  1.00  0.00    -0.376 OA
BRANCH   5   6
ATOM      6  C   UNL A   1      37.854  22.611  25.746  1.00  0.00     0.202 C 
BRANCH   6   7
ATOM      7  C   UNL A   1      36.988  23.884  25.676  1.00  0.00     0.261 C 
BRANCH   7   8
ATOM      8  O   UNL A   1      35.762  23.807  24.948  1.00  0.00    -0.460 OA
BRANCH   8   9
ATOM      9  C   UNL A   1      34.616  23.792  25.651  1.00  0.00     0.338 C 
ATOM     10  O   UNL A   1      34.375  23.124  26.639  1.00  0.00    -0.246 OA
BRANCH   9  11
ATOM     11  C   UNL A   1      33.749  24.867  25.114  1.00  0.00     0.087 C 
ATOM     12  C   UNL A   1      30.280  27.625  22.551  1.00  0.00     0.048 C 
ATOM     13  C   UNL A   1      31.175  27.856  23.737  1.00  0.00    -0.007 A 
ATOM     14  C   UNL A   1      31.087  29.059  24.453  1.00  0.00     0.023 A 
ATOM     15  C   UNL A   1      32.103  26.883  24.144  1.00  0.00     0.130 A 
ATOM     16  C   UNL A   1      31.911  29.281  25.555  1.00  0.00     0.019 A 
ATOM     17  C   UNL A   1      32.893  27.092  25.281  1.00  0.00     0.019 A 
ATOM     18  O   UNL A   1      32.177  25.749  23.386  1.00  0.00    -0.475 OA
ATOM     19  Br  UNL A   1      31.773  30.900  26.521  1.00  0.00    -0.051 Br
ATOM     20  C   UNL A   1      32.815  28.306  25.971  1.00  0.00     0.027 A 
ATOM     21  C   UNL A   1      33.740  26.025  25.784  1.00  0.00     0.027 C 
ATOM     22  C   UNL A   1      33.003  24.638  23.826  1.00  0.00     0.316 C 
BRANCH  22  23
ATOM     23  C   UNL A   1      32.121  23.385  23.882  1.00  0.00     0.430 C 
ATOM     24  F   UNL A   1      31.626  23.186  25.128  1.00  0.00    -0.167 F 
ATOM     25  F   UNL A   1      31.054  23.476  23.054  1.00  0.00    -0.167 F 
ATOM     26  F   UNL A   1      32.807  22.272  23.536  1.00  0.00    -0.167 F 
ENDBRANCH  22  23
ENDBRANCH   9  11
ENDBRANCH   8   9
ENDBRANCH   7   8
ENDBRANCH   6   7
ENDBRANCH   5   6
ENDBRANCH   4   5
ENDBRANCH   3   4
ENDBRANCH   2   3
ENDBRANCH   1   2
BRANCH   1  27
ATOM     27  C   UNL A   1      42.493  20.390  26.498  1.00  0.00     0.188 C 
BRANCH  27  28
ATOM     28  O   UNL A   1      42.971  21.122  25.377  1.00  0.00    -0.376 OA
BRANCH  28  29
ATOM     29  C   UNL A   1      44.213  21.793  25.491  1.00  0.00     0.202 C 
BRANCH  29  30
ATOM     30  C   UNL A   1      44.476  22.898  24.460  1.00  0.00     0.261 C 
BRANCH  30  31
ATOM     31  O   UNL A   1      43.840  24.157  24.722  1.00  0.00    -0.460 OA
BRANCH  31  32
ATOM     32  C   UNL A   1      44.621  25.167  25.162  1.00  0.00     0.338 C 
ATOM     33  O   UNL A   1      45.688  25.533  24.699  1.00  0.00    -0.246 OA
BRANCH  32  34
ATOM     34  C   UNL A   1      43.862  25.890  26.201  1.00  0.00     0.060 A 
ATOM     35  C   UNL A   1      44.104  27.258  26.396  1.00  0.00     0.016 A 
ATOM     36  C   UNL A   1      42.906  25.222  26.968  1.00  0.00     0.016 A 
ATOM     37  C   UNL A   1      43.410  27.952  27.385  1.00  0.00     0.010 A 
ATOM     38  C   UNL A   1      42.231  25.912  27.976  1.00  0.00     0.010 A 
ATOM     39  C   UNL A   1      42.506  27.271  28.210  1.00  0.00    -0.014 A 
BRANCH  39  40
ATOM     40  C   UNL A   1      42.016  27.913  29.453  1.00  0.00     0.031 A 
ATOM     41  C   UNL A   1      40.787  28.774  29.363  1.00  0.00     0.074 A 
ATOM     42  C   UNL A   1      42.627  27.724  30.634  1.00  0.00     0.049 A 
ATOM     43  N   UNL A   1      40.204  29.491  30.288  1.00  0.00    -0.248 NA
ATOM     44  C   UNL A   1      40.124  28.833  28.048  1.00  0.00     0.031 C 
ATOM     45  C   UNL A   1      43.788  26.866  30.859  1.00  0.00     0.029 A 
ATOM     46  N   UNL A   1      42.352  28.253  31.871  1.00  0.00    -0.354 N 
ATOM     47  C   UNL A   1      39.109  30.081  29.670  1.00  0.00     0.074 A 
ATOM     48  C   UNL A   1      39.127  29.671  28.284  1.00  0.00     0.031 C 
ATOM     49  C   UNL A   1      44.130  26.931  32.158  1.00  0.00     0.029 A 
ATOM     50  C   UNL A   1      43.236  27.863  32.845  1.00  0.00     0.049 A 
ATOM     51  H   UNL A   1      41.591  28.854  32.042  1.00  0.00     0.167 HD
ATOM     52  C   UNL A   1      38.166  30.884  30.212  1.00  0.00     0.037 A 
ATOM     53  C   UNL A   1      43.325  28.237  34.138  1.00  0.00     0.037 A 
ATOM     54  C   UNL A   1      38.155  31.299  31.590  1.00  0.00     0.049 A 
ATOM     55  C   UNL A   1      42.324  29.218  34.695  1.00  0.00     0.074 A 
ATOM     56  C   UNL A   1      37.246  32.118  32.234  1.00  0.00     0.029 A 
ATOM     57  N   UNL A   1      39.102  30.928  32.533  1.00  0.00    -0.354 N 
ATOM     58  N   UNL A   1      41.292  29.772  34.105  1.00  0.00    -0.248 NA
ATOM     59  C   UNL A   1      42.502  29.626  36.097  1.00  0.00     0.031 C 
ATOM     60  C   UNL A   1      37.673  32.287  33.553  1.00  0.00     0.029 A 
ATOM     61  C   UNL A   1      38.812  31.524  33.748  1.00  0.00     0.049 A 
ATOM     62  H   UNL A   1      39.866  30.331  32.363  1.00  0.00     0.167 HD
ATOM     63  C   UNL A   1      40.683  30.569  35.068  1.00  0.00     0.074 A 
ATOM     64  C   UNL A   1      41.453  30.416  36.284  1.00  0.00     0.031 C 
ATOM     65  C   UNL A   1      39.584  31.357  34.954  1.00  0.00     0.037 A 
BRANCH  52  66
ATOM     66  C   UNL A   1      37.075  31.384  29.312  1.00  0.00     0.057 A 
ATOM     67  C   UNL A   1      35.970  30.589  28.982  1.00  0.00     0.134 A 
ATOM     68  C   UNL A   1      37.105  32.692  28.811  1.00  0.00     0.134 A 
ATOM     69  F   UNL A   1      35.889  29.321  29.414  1.00  0.00    -0.206 F 
ATOM     70  C   UNL A   1      34.936  31.076  28.180  1.00  0.00     0.040 A 
ATOM     71  C   UNL A   1      36.065  33.197  28.030  1.00  0.00     0.040 A 
ATOM     72  F   UNL A   1      38.136  33.504  29.088  1.00  0.00    -0.206 F 
ATOM     73  C   UNL A   1      34.977  32.387  27.710  1.00  0.00     0.006 A 
ENDBRANCH  52  66
BRANCH  53  74
ATOM     74  C   UNL A   1      44.403  27.684  34.998  1.00  0.00     0.057 A 
ATOM     75  C   UNL A   1      45.653  28.309  35.084  1.00  0.00     0.134 A 
ATOM     76  C   UNL A   1      44.216  26.516  35.749  1.00  0.00     0.134 A 
ATOM     77  F   UNL A   1      45.904  29.415  34.368  1.00  0.00    -0.206 F 
ATOM     78  C   UNL A   1      46.677  27.793  35.879  1.00  0.00     0.040 A 
ATOM     79  C   UNL A   1      45.223  26.003  36.569  1.00  0.00     0.040 A 
ATOM     80  F   UNL A   1      43.045  25.865  35.707  1.00  0.00    -0.206 F 
ATOM     81  C   UNL A   1      46.460  26.640  36.631  1.00  0.00     0.006 A 
ENDBRANCH  53  74
BRANCH  65  82
ATOM     82  C   UNL A   1      39.124  32.096  36.177  1.00  0.00     0.057 A 
ATOM     83  C   UNL A   1      39.541  33.405  36.452  1.00  0.00     0.134 A 
ATOM     84  C   UNL A   1      38.188  31.520  37.049  1.00  0.00     0.134 A 
ATOM     85  F   UNL A   1      40.439  34.011  35.662  1.00  0.00    -0.206 F 
ATOM     86  C   UNL A   1      39.056  34.108  37.556  1.00  0.00     0.040 A 
ATOM     87  C   UNL A   1      37.674  32.224  38.139  1.00  0.00     0.040 A 
ATOM     88  F   UNL A   1      37.735  30.277  36.837  1.00  0.00    -0.206 F 
ATOM     89  C   UNL A   1      38.112  33.521  38.397  1.00  0.00     0.006 A 
ENDBRANCH  65  82
ENDBRANCH  39  40
ENDBRANCH  32  34
ENDBRANCH  31  32
ENDBRANCH  30  31
ENDBRANCH  29  30
ENDBRANCH  28  29
ENDBRANCH  27  28
ENDBRANCH   1  27
TORSDOF 21
ENDMDL
MODEL 2
REMARK VINA RESULT:     -10.4      3.246      8.666
REMARK SMILES Cc1cc(Br)cc2c1O[C@H](C(F)(F)F)C(C(=O)OCCOCCOCCOCCOC(=O)c1ccc(-c3c4nc(c(-c5c(F)cccc5F)c5ccc([nH]5)c(-c5c(F)cccc5F)c5nc(c(-c6c(F)cccc6F)c6ccc3[nH]6)C=C5)C=C4)cc1)=C2
REMARK SMILES IDX 25 1 24 2 23 3 22 4 21 5 20 6 19 7 18 8 16 9 17 10 15 11
REMARK SMILES IDX 1 12 2 13 3 14 8 15 4 16 7 17 9 18 5 19 6 20 87 21 10 22
REMARK SMILES IDX 11 23 12 24 13 25 14 26 26 27 27 28 28 29 29 30 30 31 31 32
REMARK SMILES IDX 32 33 33 34 34 35 86 36 35 37 85 38 36 39 37 40 38 41 79 42
REMARK SMILES IDX 39 43 84 44 78 45 80 46 40 47 83 48 77 49 76 50 41 52 67 53
REMARK SMILES IDX 50 54 66 55 51 56 54 57 65 58 81 59 52 60 53 61 64 63 82 64
REMARK SMILES IDX 55 65 42 66 43 67 48 68 44 69 45 70 47 71 49 72 46 73 68 74
REMARK SMILES IDX 69 75 74 76 70 77 71 78 73 79 75 80 72 81 56 82 57 83 62 84
REMARK SMILES IDX 58 85 59 86 61 87 63 88 60 89
REMARK H PARENT 80 51 54 62
REMARK Flexibility Score: inf
ROOT
ATOM      1  C   UNL A   1      34.010  29.328  27.078  1.00  0.00     0.188 C 
ENDROOT
BRANCH   1   2
ATOM      2  O   UNL A   1      33.845  28.456  25.956  1.00  0.00    -0.377 OA
BRANCH   2   3
ATOM      3  C   UNL A   1      32.629  27.730  25.855  1.00  0.00     0.188 C 
BRANCH   3   4
ATOM      4  C   UNL A   1      31.538  28.481  25.067  1.00  0.00     0.188 C 
BRANCH   4   5
ATOM      5  O   UNL A   1      30.590  27.619  24.462  1.00  0.00    -0.376 OA
BRANCH   5   6
ATOM      6  C   UNL A   1      30.309  27.691  23.074  1.00  0.00     0.202 C 
BRANCH   6   7
ATOM      7  C   UNL A   1      31.189  27.062  21.977  1.00  0.00     0.261 C 
BRANCH   7   8
ATOM      8  O   UNL A   1      32.491  26.613  22.354  1.00  0.00    -0.460 OA
BRANCH   8   9
ATOM      9  C   UNL A   1      32.856  25.372  21.987  1.00  0.00     0.338 C 
ATOM     10  O   UNL A   1      32.950  24.945  20.851  1.00  0.00    -0.246 OA
BRANCH   9  11
ATOM     11  C   UNL A   1      33.298  24.657  23.207  1.00  0.00     0.087 C 
ATOM     12  C   UNL A   1      33.565  22.031  27.593  1.00  0.00     0.048 C 
ATOM     13  C   UNL A   1      34.546  22.478  26.545  1.00  0.00    -0.007 A 
ATOM     14  C   UNL A   1      35.890  22.085  26.636  1.00  0.00     0.023 A 
ATOM     15  C   UNL A   1      34.140  23.286  25.470  1.00  0.00     0.130 A 
ATOM     16  C   UNL A   1      36.806  22.493  25.669  1.00  0.00     0.019 A 
ATOM     17  C   UNL A   1      35.055  23.650  24.476  1.00  0.00     0.019 A 
ATOM     18  O   UNL A   1      32.830  23.674  25.454  1.00  0.00    -0.475 OA
ATOM     19  Br  UNL A   1      38.611  21.945  25.794  1.00  0.00    -0.051 Br
ATOM     20  C   UNL A   1      36.397  23.275  24.591  1.00  0.00     0.027 A 
ATOM     21  C   UNL A   1      34.599  24.356  23.291  1.00  0.00     0.027 C 
ATOM     22  C   UNL A   1      32.301  24.384  24.303  1.00  0.00     0.316 C 
BRANCH  22  23
ATOM     23  C   UNL A   1      31.077  23.614  23.793  1.00  0.00     0.430 C 
ATOM     24  F   UNL A   1      31.404  22.786  22.771  1.00  0.00    -0.167 F 
ATOM     25  F   UNL A   1      30.527  22.838  24.757  1.00  0.00    -0.167 F 
ATOM     26  F   UNL A   1      30.111  24.448  23.345  1.00  0.00    -0.167 F 
ENDBRANCH  22  23
ENDBRANCH   9  11
ENDBRANCH   8   9
ENDBRANCH   7   8
ENDBRANCH   6   7
ENDBRANCH   5   6
ENDBRANCH   4   5
ENDBRANCH   3   4
ENDBRANCH   2   3
ENDBRANCH   1   2
BRANCH   1  27
ATOM     27  C   UNL A   1      33.561  30.811  27.041  1.00  0.00     0.188 C 
BRANCH  27  28
ATOM     28  O   UNL A   1      32.171  31.007  27.260  1.00  0.00    -0.376 OA
BRANCH  28  29
ATOM     29  C   UNL A   1      31.604  32.258  26.912  1.00  0.00     0.202 C 
BRANCH  29  30
ATOM     30  C   UNL A   1      32.516  33.479  27.082  1.00  0.00     0.261 C 
BRANCH  30  31
ATOM     31  O   UNL A   1      32.389  34.181  28.327  1.00  0.00    -0.460 OA
BRANCH  31  32
ATOM     32  C   UNL A   1      33.449  34.909  28.739  1.00  0.00     0.338 C 
ATOM     33  O   UNL A   1      33.481  36.106  28.971  1.00  0.00    -0.246 OA
BRANCH  32  34
ATOM     34  C   UNL A   1      34.538  33.963  29.053  1.00  0.00     0.060 A 
ATOM     35  C   UNL A   1      34.250  32.813  29.801  1.00  0.00     0.016 A 
ATOM     36  C   UNL A   1      35.835  34.205  28.595  1.00  0.00     0.016 A 
ATOM     37  C   UNL A   1      35.270  31.918  30.122  1.00  0.00     0.010 A 
ATOM     38  C   UNL A   1      36.860  33.322  28.939  1.00  0.00     0.010 A 
ATOM     39  C   UNL A   1      36.587  32.194  29.733  1.00  0.00    -0.014 A 
BRANCH  39  40
ATOM     40  C   UNL A   1      37.707  31.435  30.336  1.00  0.00     0.031 A 
ATOM     41  C   UNL A   1      38.060  31.721  31.769  1.00  0.00     0.074 A 
ATOM     42  C   UNL A   1      38.381  30.501  29.644  1.00  0.00     0.049 A 
ATOM     43  N   UNL A   1      39.033  31.240  32.498  1.00  0.00    -0.248 NA
ATOM     44  C   UNL A   1      37.194  32.681  32.477  1.00  0.00     0.031 C 
ATOM     45  C   UNL A   1      38.094  30.093  28.271  1.00  0.00     0.029 A 
ATOM     46  N   UNL A   1      39.456  29.729  30.010  1.00  0.00    -0.354 N 
ATOM     47  C   UNL A   1      38.895  31.835  33.746  1.00  0.00     0.074 A 
ATOM     48  C   UNL A   1      37.769  32.739  33.668  1.00  0.00     0.031 C 
ATOM     49  C   UNL A   1      38.977  29.146  27.907  1.00  0.00     0.029 A 
ATOM     50  C   UNL A   1      39.913  28.911  29.007  1.00  0.00     0.049 A 
ATOM     51  H   UNL A   1      39.860  29.759  30.907  1.00  0.00     0.167 HD
ATOM     52  C   UNL A   1      39.634  31.637  34.861  1.00  0.00     0.037 A 
ATOM     53  C   UNL A   1      40.978  28.085  28.977  1.00  0.00     0.037 A 
ATOM     54  C   UNL A   1      40.759  30.743  34.934  1.00  0.00     0.049 A 
ATOM     55  C   UNL A   1      41.852  27.960  30.200  1.00  0.00     0.074 A 
ATOM     56  C   UNL A   1      41.577  30.478  36.017  1.00  0.00     0.029 A 
ATOM     57  N   UNL A   1      41.225  29.974  33.879  1.00  0.00    -0.354 N 
ATOM     58  N   UNL A   1      41.716  28.525  31.376  1.00  0.00    -0.248 NA
ATOM     59  C   UNL A   1      43.027  27.083  30.091  1.00  0.00     0.031 C 
ATOM     60  C   UNL A   1      42.572  29.589  35.602  1.00  0.00     0.029 A 
ATOM     61  C   UNL A   1      42.337  29.253  34.279  1.00  0.00     0.049 A 
ATOM     62  H   UNL A   1      40.826  29.945  32.980  1.00  0.00     0.167 HD
ATOM     63  C   UNL A   1      42.768  28.053  32.152  1.00  0.00     0.074 A 
ATOM     64  C   UNL A   1      43.526  27.144  31.318  1.00  0.00     0.031 C 
ATOM     65  C   UNL A   1      43.078  28.345  33.440  1.00  0.00     0.037 A 
BRANCH  52  66
ATOM     66  C   UNL A   1      39.261  32.411  36.090  1.00  0.00     0.057 A 
ATOM     67  C   UNL A   1      39.812  33.670  36.363  1.00  0.00     0.134 A 
ATOM     68  C   UNL A   1      38.304  31.916  36.984  1.00  0.00     0.134 A 
ATOM     69  F   UNL A   1      40.749  34.194  35.557  1.00  0.00    -0.206 F 
ATOM     70  C   UNL A   1      39.429  34.405  37.486  1.00  0.00     0.040 A 
ATOM     71  C   UNL A   1      37.893  32.653  38.095  1.00  0.00     0.040 A 
ATOM     72  F   UNL A   1      37.739  30.716  36.781  1.00  0.00    -0.206 F 
ATOM     73  C   UNL A   1      38.458  33.902  38.350  1.00  0.00     0.006 A 
ENDBRANCH  52  66
BRANCH  53  74
ATOM     74  C   UNL A   1      41.282  27.311  27.746  1.00  0.00     0.057 A 
ATOM     75  C   UNL A   1      42.052  27.863  26.715  1.00  0.00     0.134 A 
ATOM     76  C   UNL A   1      40.808  26.006  27.564  1.00  0.00     0.134 A 
ATOM     77  F   UNL A   1      42.513  29.120  26.817  1.00  0.00    -0.206 F 
ATOM     78  C   UNL A   1      42.335  27.151  25.549  1.00  0.00     0.040 A 
ATOM     79  C   UNL A   1      41.105  25.272  26.415  1.00  0.00     0.040 A 
ATOM     80  F   UNL A   1      40.060  25.420  28.510  1.00  0.00    -0.206 F 
ATOM     81  C   UNL A   1      41.867  25.847  25.400  1.00  0.00     0.006 A 
ENDBRANCH  53  74
BRANCH  65  82
ATOM     82  C   UNL A   1      44.270  27.660  34.046  1.00  0.00     0.057 A 
ATOM     83  C   UNL A   1      44.175  26.396  34.639  1.00  0.00     0.134 A 
ATOM     84  C   UNL A   1      45.544  28.240  33.961  1.00  0.00     0.134 A 
ATOM     85  F   UNL A   1      42.985  25.788  34.758  1.00  0.00    -0.206 F 
ATOM     86  C   UNL A   1      45.301  25.739  35.140  1.00  0.00     0.040 A 
ATOM     87  C   UNL A   1      46.680  27.580  34.431  1.00  0.00     0.040 A 
ATOM     88  F   UNL A   1      45.709  29.443  33.391  1.00  0.00    -0.206 F 
ATOM     89  C   UNL A   1      46.559  26.327  35.027  1.00  0.00     0.006 A 
ENDBRANCH  65  82
ENDBRANCH  39  40
ENDBRANCH  32  34
ENDBRANCH  31  32
ENDBRANCH  30  31
ENDBRANCH  29  30
ENDBRANCH  28  29
ENDBRANCH  27  28
ENDBRANCH   1  27
TORSDOF 21
ENDMDL
MODEL 3
REMARK VINA RESULT:     -10.2      3.140      8.806
REMARK SMILES Cc1cc(Br)cc2c1O[C@H](C(F)(F)F)C(C(=O)OCCOCCOCCOCCOC(=O)c1ccc(-c3c4nc(c(-c5c(F)cccc5F)c5ccc([nH]5)c(-c5c(F)cccc5F)c5nc(c(-c6c(F)cccc6F)c6ccc3[nH]6)C=C5)C=C4)cc1)=C2
REMARK SMILES IDX 25 1 24 2 23 3 22 4 21 5 20 6 19 7 18 8 16 9 17 10 15 11
REMARK SMILES IDX 1 12 2 13 3 14 8 15 4 16 7 17 9 18 5 19 6 20 87 21 10 22
REMARK SMILES IDX 11 23 12 24 13 25 14 26 26 27 27 28 28 29 29 30 30 31 31 32
REMARK SMILES IDX 32 33 33 34 34 35 86 36 35 37 85 38 36 39 37 40 38 41 79 42
REMARK SMILES IDX 39 43 84 44 78 45 80 46 40 47 83 48 77 49 76 50 41 52 67 53
REMARK SMILES IDX 50 54 66 55 51 56 54 57 65 58 81 59 52 60 53 61 64 63 82 64
REMARK SMILES IDX 55 65 42 66 43 67 48 68 44 69 45 70 47 71 49 72 46 73 68 74
REMARK SMILES IDX 69 75 74 76 70 77 71 78 73 79 75 80 72 81 56 82 57 83 62 84
REMARK SMILES IDX 58 85 59 86 61 87 63 88 60 89
REMARK H PARENT 80 51 54 62
REMARK Flexibility Score: inf
ROOT
ATOM      1  C   UNL A   1      33.950  29.080  26.850  1.00  0.00     0.188 C 
ENDROOT
BRANCH   1   2
ATOM      2  O   UNL A   1      33.528  27.907  26.149  1.00  0.00    -0.377 OA
BRANCH   2   3
ATOM      3  C   UNL A   1      32.143  27.594  26.154  1.00  0.00     0.188 C 
BRANCH   3   4
ATOM      4  C   UNL A   1      31.467  27.816  24.787  1.00  0.00     0.188 C 
BRANCH   4   5
ATOM      5  O   UNL A   1      30.312  27.017  24.598  1.00  0.00    -0.376 OA
BRANCH   5   6
ATOM      6  C   UNL A   1      30.243  26.054  23.560  1.00  0.00     0.202 C 
BRANCH   6   7
ATOM      7  C   UNL A   1      30.736  24.600  23.692  1.00  0.00     0.261 C 
BRANCH   7   8
ATOM      8  O   UNL A   1      32.037  24.394  24.243  1.00  0.00    -0.460 OA
BRANCH   8   9
ATOM      9  C   UNL A   1      32.127  23.708  25.396  1.00  0.00     0.338 C 
ATOM     10  O   UNL A   1      31.454  23.871  26.397  1.00  0.00    -0.246 OA
BRANCH   9  11
ATOM     11  C   UNL A   1      33.076  22.592  25.178  1.00  0.00     0.087 C 
ATOM     12  C   UNL A   1      37.224  19.622  24.742  1.00  0.00     0.048 C 
ATOM     13  C   UNL A   1      35.737  19.399  24.750  1.00  0.00    -0.007 A 
ATOM     14  C   UNL A   1      35.229  18.093  24.704  1.00  0.00     0.023 A 
ATOM     15  C   UNL A   1      34.842  20.481  24.804  1.00  0.00     0.130 A 
ATOM     16  C   UNL A   1      33.852  17.876  24.713  1.00  0.00     0.019 A 
ATOM     17  C   UNL A   1      33.463  20.254  24.864  1.00  0.00     0.019 A 
ATOM     18  O   UNL A   1      35.392  21.732  24.805  1.00  0.00    -0.475 OA
ATOM     19  Br  UNL A   1      33.178  16.111  24.666  1.00  0.00    -0.051 Br
ATOM     20  C   UNL A   1      32.966  18.949  24.790  1.00  0.00     0.027 A 
ATOM     21  C   UNL A   1      32.551  21.366  25.072  1.00  0.00     0.027 C 
ATOM     22  C   UNL A   1      34.542  22.893  25.008  1.00  0.00     0.316 C 
BRANCH  22  23
ATOM     23  C   UNL A   1      35.109  23.694  26.186  1.00  0.00     0.430 C 
ATOM     24  F   UNL A   1      34.627  23.241  27.369  1.00  0.00    -0.167 F 
ATOM     25  F   UNL A   1      36.458  23.604  26.260  1.00  0.00    -0.167 F 
ATOM     26  F   UNL A   1      34.796  25.007  26.098  1.00  0.00    -0.167 F 
ENDBRANCH  22  23
ENDBRANCH   9  11
ENDBRANCH   8   9
ENDBRANCH   7   8
ENDBRANCH   6   7
ENDBRANCH   5   6
ENDBRANCH   4   5
ENDBRANCH   3   4
ENDBRANCH   2   3
ENDBRANCH   1   2
BRANCH   1  27
ATOM     27  C   UNL A   1      33.353  30.478  26.549  1.00  0.00     0.188 C 
BRANCH  27  28
ATOM     28  O   UNL A   1      32.041  30.676  27.057  1.00  0.00    -0.376 OA
BRANCH  28  29
ATOM     29  C   UNL A   1      31.413  31.926  26.832  1.00  0.00     0.202 C 
BRANCH  29  30
ATOM     30  C   UNL A   1      32.319  33.159  26.930  1.00  0.00     0.261 C 
BRANCH  30  31
ATOM     31  O   UNL A   1      32.220  33.910  28.148  1.00  0.00    -0.460 OA
BRANCH  31  32
ATOM     32  C   UNL A   1      33.274  34.681  28.489  1.00  0.00     0.338 C 
ATOM     33  O   UNL A   1      33.284  35.889  28.657  1.00  0.00    -0.246 OA
BRANCH  32  34
ATOM     34  C   UNL A   1      34.395  33.777  28.817  1.00  0.00     0.060 A 
ATOM     35  C   UNL A   1      34.127  32.568  29.472  1.00  0.00     0.016 A 
ATOM     36  C   UNL A   1      35.701  34.119  28.463  1.00  0.00     0.016 A 
ATOM     37  C   UNL A   1      35.175  31.710  29.805  1.00  0.00     0.010 A 
ATOM     38  C   UNL A   1      36.752  33.273  28.820  1.00  0.00     0.010 A 
ATOM     39  C   UNL A   1      36.496  32.083  29.523  1.00  0.00    -0.014 A 
BRANCH  39  40
ATOM     40  C   UNL A   1      37.618  31.348  30.153  1.00  0.00     0.031 A 
ATOM     41  C   UNL A   1      37.932  31.644  31.592  1.00  0.00     0.074 A 
ATOM     42  C   UNL A   1      38.326  30.427  29.478  1.00  0.00     0.049 A 
ATOM     43  N   UNL A   1      38.899  31.184  32.344  1.00  0.00    -0.248 NA
ATOM     44  C   UNL A   1      37.032  32.586  32.279  1.00  0.00     0.031 C 
ATOM     45  C   UNL A   1      38.079  30.011  28.099  1.00  0.00     0.029 A 
ATOM     46  N   UNL A   1      39.409  29.679  29.869  1.00  0.00    -0.354 N 
ATOM     47  C   UNL A   1      38.721  31.778  33.588  1.00  0.00     0.074 A 
ATOM     48  C   UNL A   1      37.578  32.658  33.482  1.00  0.00     0.031 C 
ATOM     49  C   UNL A   1      38.990  29.082  27.757  1.00  0.00     0.029 A 
ATOM     50  C   UNL A   1      39.905  28.869  28.878  1.00  0.00     0.049 A 
ATOM     51  H   UNL A   1      39.792  29.719  30.775  1.00  0.00     0.167 HD
ATOM     52  C   UNL A   1      39.439  31.597  34.719  1.00  0.00     0.037 A 
ATOM     53  C   UNL A   1      40.988  28.065  28.874  1.00  0.00     0.037 A 
ATOM     54  C   UNL A   1      40.580  30.727  34.819  1.00  0.00     0.049 A 
ATOM     55  C   UNL A   1      41.836  27.960  30.116  1.00  0.00     0.074 A 
ATOM     56  C   UNL A   1      41.380  30.481  35.920  1.00  0.00     0.029 A 
ATOM     57  N   UNL A   1      41.086  29.966  33.776  1.00  0.00    -0.354 N 
ATOM     58  N   UNL A   1      41.663  28.524  31.288  1.00  0.00    -0.248 NA
ATOM     59  C   UNL A   1      43.032  27.108  30.035  1.00  0.00     0.031 C 
ATOM     60  C   UNL A   1      42.402  29.612  35.530  1.00  0.00     0.029 A 
ATOM     61  C   UNL A   1      42.203  29.269  34.202  1.00  0.00     0.049 A 
ATOM     62  H   UNL A   1      40.707  29.928  32.868  1.00  0.00     0.167 HD
ATOM     63  C   UNL A   1      42.707  28.075  32.087  1.00  0.00     0.074 A 
ATOM     64  C   UNL A   1      43.502  27.181  31.273  1.00  0.00     0.031 C 
ATOM     65  C   UNL A   1      42.981  28.376  33.382  1.00  0.00     0.037 A 
BRANCH  52  66
ATOM     66  C   UNL A   1      39.023  32.366  35.938  1.00  0.00     0.057 A 
ATOM     67  C   UNL A   1      38.210  31.796  36.927  1.00  0.00     0.134 A 
ATOM     68  C   UNL A   1      39.482  33.671  36.150  1.00  0.00     0.134 A 
ATOM     69  F   UNL A   1      37.721  30.555  36.776  1.00  0.00    -0.206 F 
ATOM     70  C   UNL A   1      37.863  32.502  38.080  1.00  0.00     0.040 A 
ATOM     71  C   UNL A   1      39.164  34.377  37.311  1.00  0.00     0.040 A 
ATOM     72  F   UNL A   1      40.262  34.275  35.241  1.00  0.00    -0.206 F 
ATOM     73  C   UNL A   1      38.349  33.793  38.280  1.00  0.00     0.006 A 
ENDBRANCH  52  66
BRANCH  53  74
ATOM     74  C   UNL A   1      41.335  27.296  27.651  1.00  0.00     0.057 A 
ATOM     75  C   UNL A   1      42.201  27.823  26.686  1.00  0.00     0.134 A 
ATOM     76  C   UNL A   1      40.808  26.020  27.412  1.00  0.00     0.134 A 
ATOM     77  F   UNL A   1      42.718  29.051  26.843  1.00  0.00    -0.206 F 
ATOM     78  C   UNL A   1      42.527  27.115  25.528  1.00  0.00     0.040 A 
ATOM     79  C   UNL A   1      41.145  25.290  26.272  1.00  0.00     0.040 A 
ATOM     80  F   UNL A   1      39.968  25.460  28.294  1.00  0.00    -0.206 F 
ATOM     81  C   UNL A   1      42.003  25.840  25.323  1.00  0.00     0.006 A 
ENDBRANCH  53  74
BRANCH  65  82
ATOM     82  C   UNL A   1      44.174  27.717  34.015  1.00  0.00     0.057 A 
ATOM     83  C   UNL A   1      45.430  28.335  34.049  1.00  0.00     0.134 A 
ATOM     84  C   UNL A   1      44.042  26.484  34.670  1.00  0.00     0.134 A 
ATOM     85  F   UNL A   1      45.625  29.512  33.437  1.00  0.00    -0.206 F 
ATOM     86  C   UNL A   1      46.516  27.744  34.698  1.00  0.00     0.040 A 
ATOM     87  C   UNL A   1      45.113  25.898  35.347  1.00  0.00     0.040 A 
ATOM     88  F   UNL A   1      42.864  25.844  34.689  1.00  0.00    -0.206 F 
ATOM     89  C   UNL A   1      46.356  26.528  35.358  1.00  0.00     0.006 A 
ENDBRANCH  65  82
ENDBRANCH  39  40
ENDBRANCH  32  34
ENDBRANCH  31  32
ENDBRANCH  30  31
ENDBRANCH  29  30
ENDBRANCH  28  29
ENDBRANCH  27  28
ENDBRANCH   1  27
TORSDOF 21
ENDMDL
