MODEL 1
REMARK VINA RESULT:      -9.2      0.000      0.000
REMARK SMILES Nc1ccc2c(c1)C(=O)N(CCC(=O)OCCOCCOCCOCCOC(=O)c1ccc(-c3c4nc(c(-c5c(F)cccc5F)c5ccc([nH]5)c(-c5c(F)cccc5F)c5nc(c(-c6c(F)cccc6F)c6ccc3[nH]6)C=C5)C=C4)cc1)C2
REMARK SMILES IDX 20 1 19 2 18 3 17 4 16 5 15 6 13 7 14 8 12 9 11 10 10 11
REMARK SMILES IDX 2 12 3 13 7 14 4 15 6 16 5 17 8 18 84 19 9 20 1 21 21 24
REMARK SMILES IDX 22 25 23 26 24 27 25 28 26 29 27 30 28 31 29 32 30 33 31 34
REMARK SMILES IDX 83 35 32 36 82 37 33 38 34 39 35 40 76 41 36 42 81 43 75 44
REMARK SMILES IDX 77 45 37 46 80 47 74 48 73 49 38 51 64 52 47 53 63 54 48 55
REMARK SMILES IDX 51 56 62 57 78 58 49 59 50 60 61 62 79 63 52 64 39 65 40 66
REMARK SMILES IDX 45 67 41 68 42 69 44 70 46 71 43 72 65 73 66 74 71 75 67 76
REMARK SMILES IDX 68 77 70 78 72 79 69 80 53 81 54 82 59 83 55 84 56 85 58 86
REMARK SMILES IDX 60 87 57 88
REMARK H PARENT 1 22 1 23 77 50 51 61
REMARK Flexibility Score: inf
ROOT
ATOM      1  C   UNL A   1      36.253  23.793  25.264  1.00  0.00     0.188 C 
ENDROOT
BRANCH   1   2
ATOM      2  C   UNL A   1      37.016  22.504  25.613  1.00  0.00     0.188 C 
BRANCH   2   3
ATOM      3  O   UNL A   1      36.877  21.498  24.635  1.00  0.00    -0.376 OA
BRANCH   3   4
ATOM      4  C   UNL A   1      36.327  20.249  25.001  1.00  0.00     0.202 C 
BRANCH   4   5
ATOM      5  C   UNL A   1      34.822  19.947  24.869  1.00  0.00     0.261 C 
BRANCH   5   6
ATOM      6  O   UNL A   1      33.930  20.595  25.794  1.00  0.00    -0.463 OA
BRANCH   6   7
ATOM      7  C   UNL A   1      32.995  21.411  25.258  1.00  0.00     0.307 C 
ATOM      8  O   UNL A   1      32.038  21.851  25.892  1.00  0.00    -0.252 OA
BRANCH   7   9
ATOM      9  C   UNL A   1      33.217  21.806  23.813  1.00  0.00     0.144 C 
BRANCH   9  10
ATOM     10  C   UNL A   1      32.119  22.377  22.925  1.00  0.00     0.132 C 
BRANCH  10  11
ATOM     11  N   UNL A   1      31.820  23.789  23.048  1.00  0.00    -0.334 N 
ATOM     12  C   UNL A   1      31.054  28.315  22.536  1.00  0.00     0.032 A 
ATOM     13  C   UNL A   1      29.996  28.000  23.410  1.00  0.00     0.026 A 
ATOM     14  C   UNL A   1      31.860  27.291  22.036  1.00  0.00     0.039 A 
ATOM     15  C   UNL A   1      29.789  26.702  23.876  1.00  0.00     0.008 A 
ATOM     16  C   UNL A   1      31.645  26.013  22.516  1.00  0.00     0.047 A 
ATOM     17  C   UNL A   1      30.637  25.717  23.425  1.00  0.00    -0.016 A 
ATOM     18  C   UNL A   1      32.373  24.771  22.237  1.00  0.00     0.254 C 
ATOM     19  C   UNL A   1      30.657  24.273  23.768  1.00  0.00     0.156 C 
ATOM     20  O   UNL A   1      33.276  24.663  21.424  1.00  0.00    -0.269 OA
BRANCH  12  21
ATOM     21  N   UNL A   1      31.216  29.622  22.102  1.00  0.00    -0.399 N 
ATOM     22  H   UNL A   1      30.614  29.990  21.415  1.00  0.00     0.156 HD
ATOM     23  H   UNL A   1      31.932  30.182  22.481  1.00  0.00     0.156 HD
ENDBRANCH  12  21
ENDBRANCH  10  11
ENDBRANCH   9  10
ENDBRANCH   7   9
ENDBRANCH   6   7
ENDBRANCH   5   6
ENDBRANCH   4   5
ENDBRANCH   3   4
ENDBRANCH   2   3
ENDBRANCH   1   2
BRANCH   1  24
ATOM     24  O   UNL A   1      35.231  24.266  26.137  1.00  0.00    -0.377 OA
BRANCH  24  25
ATOM     25  C   UNL A   1      34.019  24.802  25.605  1.00  0.00     0.188 C 
BRANCH  25  26
ATOM     26  C   UNL A   1      33.888  26.311  25.314  1.00  0.00     0.188 C 
BRANCH  26  27
ATOM     27  O   UNL A   1      32.853  26.952  26.032  1.00  0.00    -0.376 OA
BRANCH  27  28
ATOM     28  C   UNL A   1      32.750  28.362  25.918  1.00  0.00     0.202 C 
BRANCH  28  29
ATOM     29  C   UNL A   1      33.178  29.235  27.110  1.00  0.00     0.261 C 
BRANCH  29  30
ATOM     30  O   UNL A   1      34.045  30.348  26.832  1.00  0.00    -0.460 OA
BRANCH  30  31
ATOM     31  C   UNL A   1      34.536  31.061  27.869  1.00  0.00     0.338 C 
ATOM     32  O   UNL A   1      33.993  31.974  28.460  1.00  0.00    -0.246 OA
BRANCH  31  33
ATOM     33  C   UNL A   1      35.798  30.406  28.289  1.00  0.00     0.060 A 
ATOM     34  C   UNL A   1      36.899  30.389  27.430  1.00  0.00     0.016 A 
ATOM     35  C   UNL A   1      35.876  29.790  29.545  1.00  0.00     0.016 A 
ATOM     36  C   UNL A   1      38.090  29.784  27.845  1.00  0.00     0.010 A 
ATOM     37  C   UNL A   1      37.069  29.183  29.956  1.00  0.00     0.010 A 
ATOM     38  C   UNL A   1      38.196  29.198  29.121  1.00  0.00    -0.014 A 
BRANCH  38  39
ATOM     39  C   UNL A   1      39.530  28.781  29.631  1.00  0.00     0.031 A 
ATOM     40  C   UNL A   1      40.218  29.472  30.773  1.00  0.00     0.074 A 
ATOM     41  C   UNL A   1      40.135  27.737  29.032  1.00  0.00     0.049 A 
ATOM     42  N   UNL A   1      41.284  29.104  31.439  1.00  0.00    -0.248 NA
ATOM     43  C   UNL A   1      39.634  30.737  31.232  1.00  0.00     0.031 C 
ATOM     44  C   UNL A   1      39.606  27.009  27.877  1.00  0.00     0.029 A 
ATOM     45  N   UNL A   1      41.319  27.103  29.312  1.00  0.00    -0.354 N 
ATOM     46  C   UNL A   1      41.455  30.047  32.444  1.00  0.00     0.074 A 
ATOM     47  C   UNL A   1      40.427  31.048  32.253  1.00  0.00     0.031 C 
ATOM     48  C   UNL A   1      40.449  26.013  27.562  1.00  0.00     0.029 A 
ATOM     49  C   UNL A   1      41.585  26.046  28.476  1.00  0.00     0.049 A 
ATOM     50  H   UNL A   1      41.919  27.379  30.041  1.00  0.00     0.167 HD
ATOM     51  C   UNL A   1      42.371  30.063  33.446  1.00  0.00     0.037 A 
ATOM     52  C   UNL A   1      42.630  25.199  28.451  1.00  0.00     0.037 A 
ATOM     53  C   UNL A   1      43.468  29.138  33.562  1.00  0.00     0.049 A 
ATOM     54  C   UNL A   1      43.713  25.337  29.487  1.00  0.00     0.074 A 
ATOM     55  C   UNL A   1      44.463  29.094  34.524  1.00  0.00     0.029 A 
ATOM     56  N   UNL A   1      43.743  28.125  32.658  1.00  0.00    -0.354 N 
ATOM     57  N   UNL A   1      43.783  26.148  30.514  1.00  0.00    -0.248 NA
ATOM     58  C   UNL A   1      44.860  24.427  29.360  1.00  0.00     0.031 C 
ATOM     59  C   UNL A   1      45.376  28.095  34.165  1.00  0.00     0.029 A 
ATOM     60  C   UNL A   1      44.917  27.477  33.014  1.00  0.00     0.049 A 
ATOM     61  H   UNL A   1      43.189  27.898  31.878  1.00  0.00     0.167 HD
ATOM     62  C   UNL A   1      44.962  25.823  31.174  1.00  0.00     0.074 A 
ATOM     63  C   UNL A   1      45.559  24.724  30.445  1.00  0.00     0.031 C 
ATOM     64  C   UNL A   1      45.503  26.383  32.284  1.00  0.00     0.037 A 
BRANCH  51  65
ATOM     65  C   UNL A   1      42.221  31.119  34.503  1.00  0.00     0.057 A 
ATOM     66  C   UNL A   1      42.897  32.341  34.423  1.00  0.00     0.134 A 
ATOM     67  C   UNL A   1      41.439  30.889  35.644  1.00  0.00     0.134 A 
ATOM     68  F   UNL A   1      43.694  32.611  33.379  1.00  0.00    -0.206 F 
ATOM     69  C   UNL A   1      42.784  33.303  35.429  1.00  0.00     0.040 A 
ATOM     70  C   UNL A   1      41.289  31.856  36.639  1.00  0.00     0.040 A 
ATOM     71  F   UNL A   1      40.815  29.715  35.811  1.00  0.00    -0.206 F 
ATOM     72  C   UNL A   1      41.967  33.069  36.534  1.00  0.00     0.006 A 
ENDBRANCH  51  65
BRANCH  52  73
ATOM     73  C   UNL A   1      42.717  24.137  27.416  1.00  0.00     0.057 A 
ATOM     74  C   UNL A   1      42.202  22.855  27.642  1.00  0.00     0.134 A 
ATOM     75  C   UNL A   1      43.251  24.402  26.149  1.00  0.00     0.134 A 
ATOM     76  F   UNL A   1      41.684  22.533  28.836  1.00  0.00    -0.206 F 
ATOM     77  C   UNL A   1      42.202  21.880  26.644  1.00  0.00     0.040 A 
ATOM     78  C   UNL A   1      43.227  23.448  25.131  1.00  0.00     0.040 A 
ATOM     79  F   UNL A   1      43.744  25.617  25.865  1.00  0.00    -0.206 F 
ATOM     80  C   UNL A   1      42.701  22.182  25.378  1.00  0.00     0.006 A 
ENDBRANCH  52  73
BRANCH  64  81
ATOM     81  C   UNL A   1      46.788  25.790  32.791  1.00  0.00     0.057 A 
ATOM     82  C   UNL A   1      46.773  24.797  33.780  1.00  0.00     0.134 A 
ATOM     83  C   UNL A   1      48.038  26.197  32.306  1.00  0.00     0.134 A 
ATOM     84  F   UNL A   1      45.612  24.367  34.297  1.00  0.00    -0.206 F 
ATOM     85  C   UNL A   1      47.952  24.226  34.261  1.00  0.00     0.040 A 
ATOM     86  C   UNL A   1      49.222  25.609  32.755  1.00  0.00     0.040 A 
ATOM     87  F   UNL A   1      48.124  27.133  31.349  1.00  0.00    -0.206 F 
ATOM     88  C   UNL A   1      49.181  24.625  33.740  1.00  0.00     0.006 A 
ENDBRANCH  64  81
ENDBRANCH  38  39
ENDBRANCH  31  33
ENDBRANCH  30  31
ENDBRANCH  29  30
ENDBRANCH  28  29
ENDBRANCH  27  28
ENDBRANCH  26  27
ENDBRANCH  25  26
ENDBRANCH  24  25
ENDBRANCH   1  24
TORSDOF 23
ENDMDL
MODEL 2
REMARK VINA RESULT:      -9.1      4.338      7.187
REMARK SMILES Nc1ccc2c(c1)C(=O)N(CCC(=O)OCCOCCOCCOCCOC(=O)c1ccc(-c3c4nc(c(-c5c(F)cccc5F)c5ccc([nH]5)c(-c5c(F)cccc5F)c5nc(c(-c6c(F)cccc6F)c6ccc3[nH]6)C=C5)C=C4)cc1)C2
REMARK SMILES IDX 20 1 19 2 18 3 17 4 16 5 15 6 13 7 14 8 12 9 11 10 10 11
REMARK SMILES IDX 2 12 3 13 7 14 4 15 6 16 5 17 8 18 84 19 9 20 1 21 21 24
REMARK SMILES IDX 22 25 23 26 24 27 25 28 26 29 27 30 28 31 29 32 30 33 31 34
REMARK SMILES IDX 83 35 32 36 82 37 33 38 34 39 35 40 76 41 36 42 81 43 75 44
REMARK SMILES IDX 77 45 37 46 80 47 74 48 73 49 38 51 64 52 47 53 63 54 48 55
REMARK SMILES IDX 51 56 62 57 78 58 49 59 50 60 61 62 79 63 52 64 39 65 40 66
REMARK SMILES IDX 45 67 41 68 42 69 44 70 46 71 43 72 65 73 66 74 71 75 67 76
REMARK SMILES IDX 68 77 70 78 72 79 69 80 53 81 54 82 59 83 55 84 56 85 58 86
REMARK SMILES IDX 60 87 57 88
REMARK H PARENT 1 22 1 23 77 50 51 61
REMARK Flexibility Score: inf
ROOT
ATOM      1  C   UNL A   1      33.015  36.001  29.165  1.00  0.00     0.188 C 
ENDROOT
BRANCH   1   2
ATOM      2  C   UNL A   1      34.172  35.543  28.262  1.00  0.00     0.188 C 
BRANCH   2   3
ATOM      3  O   UNL A   1      34.915  34.480  28.813  1.00  0.00    -0.376 OA
BRANCH   3   4
ATOM      4  C   UNL A   1      35.209  33.353  28.012  1.00  0.00     0.202 C 
BRANCH   4   5
ATOM      5  C   UNL A   1      34.710  31.940  28.373  1.00  0.00     0.261 C 
BRANCH   5   6
ATOM      6  O   UNL A   1      33.674  31.371  27.553  1.00  0.00    -0.463 OA
BRANCH   6   7
ATOM      7  C   UNL A   1      33.866  30.099  27.136  1.00  0.00     0.307 C 
ATOM      8  O   UNL A   1      34.473  29.257  27.794  1.00  0.00    -0.252 OA
BRANCH   7   9
ATOM      9  C   UNL A   1      33.237  29.741  25.806  1.00  0.00     0.144 C 
BRANCH   9  10
ATOM     10  C   UNL A   1      33.595  28.483  25.025  1.00  0.00     0.132 C 
BRANCH  10  11
ATOM     11  N   UNL A   1      33.093  27.218  25.521  1.00  0.00    -0.334 N 
ATOM     12  C   UNL A   1      30.844  23.292  26.450  1.00  0.00     0.032 A 
ATOM     13  C   UNL A   1      32.169  22.836  26.590  1.00  0.00     0.026 A 
ATOM     14  C   UNL A   1      30.608  24.596  26.010  1.00  0.00     0.039 A 
ATOM     15  C   UNL A   1      33.261  23.683  26.399  1.00  0.00     0.008 A 
ATOM     16  C   UNL A   1      31.702  25.421  25.835  1.00  0.00     0.047 A 
ATOM     17  C   UNL A   1      33.006  24.984  26.032  1.00  0.00    -0.016 A 
ATOM     18  C   UNL A   1      31.758  26.838  25.461  1.00  0.00     0.254 C 
ATOM     19  C   UNL A   1      33.965  26.090  25.785  1.00  0.00     0.156 C 
ATOM     20  O   UNL A   1      30.791  27.512  25.148  1.00  0.00    -0.269 OA
BRANCH  12  21
ATOM     21  N   UNL A   1      29.794  22.409  26.650  1.00  0.00    -0.399 N 
ATOM     22  H   UNL A   1      29.865  21.479  26.334  1.00  0.00     0.156 HD
ATOM     23  H   UNL A   1      28.976  22.711  27.109  1.00  0.00     0.156 HD
ENDBRANCH  12  21
ENDBRANCH  10  11
ENDBRANCH   9  10
ENDBRANCH   7   9
ENDBRANCH   6   7
ENDBRANCH   5   6
ENDBRANCH   4   5
ENDBRANCH   3   4
ENDBRANCH   2   3
ENDBRANCH   1   2
BRANCH   1  24
ATOM     24  O   UNL A   1      33.120  37.232  29.876  1.00  0.00    -0.377 OA
BRANCH  24  25
ATOM     25  C   UNL A   1      33.277  37.234  31.295  1.00  0.00     0.188 C 
BRANCH  25  26
ATOM     26  C   UNL A   1      32.752  36.059  32.147  1.00  0.00     0.188 C 
BRANCH  26  27
ATOM     27  O   UNL A   1      33.229  34.792  31.742  1.00  0.00    -0.376 OA
BRANCH  27  28
ATOM     28  C   UNL A   1      34.391  34.291  32.384  1.00  0.00     0.202 C 
BRANCH  28  29
ATOM     29  C   UNL A   1      34.406  32.826  32.849  1.00  0.00     0.261 C 
BRANCH  29  30
ATOM     30  O   UNL A   1      35.563  32.040  32.513  1.00  0.00    -0.460 OA
BRANCH  30  31
ATOM     31  C   UNL A   1      36.651  32.118  33.308  1.00  0.00     0.338 C 
ATOM     32  O   UNL A   1      36.675  32.218  34.519  1.00  0.00    -0.246 OA
BRANCH  31  33
ATOM     33  C   UNL A   1      37.835  31.870  32.451  1.00  0.00     0.060 A 
ATOM     34  C   UNL A   1      39.072  31.578  33.030  1.00  0.00     0.016 A 
ATOM     35  C   UNL A   1      37.711  31.948  31.057  1.00  0.00     0.016 A 
ATOM     36  C   UNL A   1      40.177  31.329  32.210  1.00  0.00     0.010 A 
ATOM     37  C   UNL A   1      38.821  31.701  30.239  1.00  0.00     0.010 A 
ATOM     38  C   UNL A   1      40.058  31.362  30.807  1.00  0.00    -0.014 A 
BRANCH  38  39
ATOM     39  C   UNL A   1      41.175  30.860  29.961  1.00  0.00     0.031 A 
ATOM     40  C   UNL A   1      42.339  31.718  29.557  1.00  0.00     0.074 A 
ATOM     41  C   UNL A   1      41.127  29.578  29.550  1.00  0.00     0.049 A 
ATOM     42  N   UNL A   1      43.465  31.367  28.987  1.00  0.00    -0.248 NA
ATOM     43  C   UNL A   1      42.229  33.156  29.827  1.00  0.00     0.031 C 
ATOM     44  C   UNL A   1      40.029  28.648  29.823  1.00  0.00     0.029 A 
ATOM     45  N   UNL A   1      42.020  28.834  28.822  1.00  0.00    -0.354 N 
ATOM     46  C   UNL A   1      44.231  32.523  28.902  1.00  0.00     0.074 A 
ATOM     47  C   UNL A   1      43.409  33.602  29.409  1.00  0.00     0.031 C 
ATOM     48  C   UNL A   1      40.325  27.452  29.292  1.00  0.00     0.029 A 
ATOM     49  C   UNL A   1      41.619  27.536  28.624  1.00  0.00     0.049 A 
ATOM     50  H   UNL A   1      42.867  29.196  28.476  1.00  0.00     0.167 HD
ATOM     51  C   UNL A   1      45.507  32.665  28.464  1.00  0.00     0.037 A 
ATOM     52  C   UNL A   1      42.227  26.527  27.975  1.00  0.00     0.037 A 
ATOM     53  C   UNL A   1      46.278  31.617  27.846  1.00  0.00     0.049 A 
ATOM     54  C   UNL A   1      43.582  26.757  27.363  1.00  0.00     0.074 A 
ATOM     55  C   UNL A   1      47.567  31.674  27.343  1.00  0.00     0.029 A 
ATOM     56  N   UNL A   1      45.811  30.336  27.600  1.00  0.00    -0.354 N 
ATOM     57  N   UNL A   1      44.349  27.819  27.416  1.00  0.00    -0.248 NA
ATOM     58  C   UNL A   1      44.160  25.637  26.607  1.00  0.00     0.031 C 
ATOM     59  C   UNL A   1      47.855  30.447  26.735  1.00  0.00     0.029 A 
ATOM     60  C   UNL A   1      46.770  29.606  26.914  1.00  0.00     0.049 A 
ATOM     61  H   UNL A   1      44.930  29.994  27.872  1.00  0.00     0.167 HD
ATOM     62  C   UNL A   1      45.512  27.482  26.733  1.00  0.00     0.074 A 
ATOM     63  C   UNL A   1      45.357  26.110  26.299  1.00  0.00     0.031 C 
ATOM     64  C   UNL A   1      46.608  28.240  26.486  1.00  0.00     0.037 A 
BRANCH  51  65
ATOM     65  C   UNL A   1      46.154  34.008  28.642  1.00  0.00     0.057 A 
ATOM     66  C   UNL A   1      46.125  34.978  27.634  1.00  0.00     0.134 A 
ATOM     67  C   UNL A   1      46.866  34.315  29.810  1.00  0.00     0.134 A 
ATOM     68  F   UNL A   1      45.496  34.736  26.475  1.00  0.00    -0.206 F 
ATOM     69  C   UNL A   1      46.763  36.211  27.791  1.00  0.00     0.040 A 
ATOM     70  C   UNL A   1      47.477  35.556  29.994  1.00  0.00     0.040 A 
ATOM     71  F   UNL A   1      46.984  33.406  30.788  1.00  0.00    -0.206 F 
ATOM     72  C   UNL A   1      47.428  36.509  28.979  1.00  0.00     0.006 A 
ENDBRANCH  51  65
BRANCH  52  73
ATOM     73  C   UNL A   1      41.573  25.198  27.862  1.00  0.00     0.057 A 
ATOM     74  C   UNL A   1      40.551  24.965  26.934  1.00  0.00     0.134 A 
ATOM     75  C   UNL A   1      42.007  24.109  28.628  1.00  0.00     0.134 A 
ATOM     76  F   UNL A   1      40.084  25.966  26.174  1.00  0.00    -0.206 F 
ATOM     77  C   UNL A   1      39.994  23.698  26.762  1.00  0.00     0.040 A 
ATOM     78  C   UNL A   1      41.483  22.829  28.442  1.00  0.00     0.040 A 
ATOM     79  F   UNL A   1      42.996  24.264  29.522  1.00  0.00    -0.206 F 
ATOM     80  C   UNL A   1      40.473  22.621  27.506  1.00  0.00     0.006 A 
ENDBRANCH  52  73
BRANCH  64  81
ATOM     81  C   UNL A   1      47.737  27.584  25.741  1.00  0.00     0.057 A 
ATOM     82  C   UNL A   1      48.795  26.981  26.435  1.00  0.00     0.134 A 
ATOM     83  C   UNL A   1      47.782  27.548  24.340  1.00  0.00     0.134 A 
ATOM     84  F   UNL A   1      48.822  26.988  27.776  1.00  0.00    -0.206 F 
ATOM     85  C   UNL A   1      49.850  26.361  25.765  1.00  0.00     0.040 A 
ATOM     86  C   UNL A   1      48.815  26.900  23.659  1.00  0.00     0.040 A 
ATOM     87  F   UNL A   1      46.795  28.094  23.614  1.00  0.00    -0.206 F 
ATOM     88  C   UNL A   1      49.855  26.309  24.373  1.00  0.00     0.006 A 
ENDBRANCH  64  81
ENDBRANCH  38  39
ENDBRANCH  31  33
ENDBRANCH  30  31
ENDBRANCH  29  30
ENDBRANCH  28  29
ENDBRANCH  27  28
ENDBRANCH  26  27
ENDBRANCH  25  26
ENDBRANCH  24  25
ENDBRANCH   1  24
TORSDOF 23
ENDMDL
MODEL 3
REMARK VINA RESULT:      -9.1      2.533      4.833
REMARK SMILES Nc1ccc2c(c1)C(=O)N(CCC(=O)OCCOCCOCCOCCOC(=O)c1ccc(-c3c4nc(c(-c5c(F)cccc5F)c5ccc([nH]5)c(-c5c(F)cccc5F)c5nc(c(-c6c(F)cccc6F)c6ccc3[nH]6)C=C5)C=C4)cc1)C2
REMARK SMILES IDX 20 1 19 2 18 3 17 4 16 5 15 6 13 7 14 8 12 9 11 10 10 11
REMARK SMILES IDX 2 12 3 13 7 14 4 15 6 16 5 17 8 18 84 19 9 20 1 21 21 24
REMARK SMILES IDX 22 25 23 26 24 27 25 28 26 29 27 30 28 31 29 32 30 33 31 34
REMARK SMILES IDX 83 35 32 36 82 37 33 38 34 39 35 40 76 41 36 42 81 43 75 44
REMARK SMILES IDX 77 45 37 46 80 47 74 48 73 49 38 51 64 52 47 53 63 54 48 55
REMARK SMILES IDX 51 56 62 57 78 58 49 59 50 60 61 62 79 63 52 64 39 65 40 66
REMARK SMILES IDX 45 67 41 68 42 69 44 70 46 71 43 72 65 73 66 74 71 75 67 76
REMARK SMILES IDX 68 77 70 78 72 79 69 80 53 81 54 82 59 83 55 84 56 85 58 86
REMARK SMILES IDX 60 87 57 88
REMARK H PARENT 1 22 1 23 77 50 51 61
REMARK Flexibility Score: inf
ROOT
ATOM      1  C   UNL A   1      33.226  27.196  26.236  1.00  0.00     0.188 C 
ENDROOT
BRANCH   1   2
ATOM      2  C   UNL A   1      33.212  27.363  24.707  1.00  0.00     0.188 C 
BRANCH   2   3
ATOM      3  O   UNL A   1      32.345  26.458  24.062  1.00  0.00    -0.376 OA
BRANCH   3   4
ATOM      4  C   UNL A   1      30.951  26.685  24.108  1.00  0.00     0.202 C 
BRANCH   4   5
ATOM      5  C   UNL A   1      30.019  25.861  25.019  1.00  0.00     0.261 C 
BRANCH   5   6
ATOM      6  O   UNL A   1      30.266  24.448  25.119  1.00  0.00    -0.463 OA
BRANCH   6   7
ATOM      7  C   UNL A   1      30.727  23.999  26.309  1.00  0.00     0.307 C 
ATOM      8  O   UNL A   1      29.995  23.722  27.256  1.00  0.00    -0.252 OA
BRANCH   7   9
ATOM      9  C   UNL A   1      32.226  23.805  26.401  1.00  0.00     0.144 C 
BRANCH   9  10
ATOM     10  C   UNL A   1      33.074  23.288  25.245  1.00  0.00     0.132 C 
BRANCH  10  11
ATOM     11  N   UNL A   1      34.438  22.895  25.534  1.00  0.00    -0.334 N 
ATOM     12  C   UNL A   1      38.686  21.091  25.716  1.00  0.00     0.032 A 
ATOM     13  C   UNL A   1      38.990  22.429  26.036  1.00  0.00     0.026 A 
ATOM     14  C   UNL A   1      37.379  20.749  25.361  1.00  0.00     0.039 A 
ATOM     15  C   UNL A   1      38.001  23.410  26.108  1.00  0.00     0.008 A 
ATOM     16  C   UNL A   1      36.413  21.733  25.448  1.00  0.00     0.047 A 
ATOM     17  C   UNL A   1      36.708  23.038  25.821  1.00  0.00    -0.016 A 
ATOM     18  C   UNL A   1      34.967  21.651  25.217  1.00  0.00     0.254 C 
ATOM     19  C   UNL A   1      35.474  23.862  25.839  1.00  0.00     0.156 C 
ATOM     20  O   UNL A   1      34.385  20.660  24.807  1.00  0.00    -0.269 OA
BRANCH  12  21
ATOM     21  N   UNL A   1      39.706  20.154  25.657  1.00  0.00    -0.399 N 
ATOM     22  H   UNL A   1      39.981  19.781  24.789  1.00  0.00     0.156 HD
ATOM     23  H   UNL A   1      40.156  19.863  26.484  1.00  0.00     0.156 HD
ENDBRANCH  12  21
ENDBRANCH  10  11
ENDBRANCH   9  10
ENDBRANCH   7   9
ENDBRANCH   6   7
ENDBRANCH   5   6
ENDBRANCH   4   5
ENDBRANCH   3   4
ENDBRANCH   2   3
ENDBRANCH   1   2
BRANCH   1  24
ATOM     24  O   UNL A   1      32.195  27.789  27.020  1.00  0.00    -0.377 OA
BRANCH  24  25
ATOM     25  C   UNL A   1      32.175  29.200  27.240  1.00  0.00     0.188 C 
BRANCH  25  26
ATOM     26  C   UNL A   1      33.486  29.977  27.480  1.00  0.00     0.188 C 
BRANCH  26  27
ATOM     27  O   UNL A   1      33.455  31.318  27.035  1.00  0.00    -0.376 OA
BRANCH  27  28
ATOM     28  C   UNL A   1      32.198  31.974  27.012  1.00  0.00     0.202 C 
BRANCH  28  29
ATOM     29  C   UNL A   1      32.157  33.502  27.176  1.00  0.00     0.261 C 
BRANCH  29  30
ATOM     30  O   UNL A   1      32.329  34.027  28.504  1.00  0.00    -0.460 OA
BRANCH  30  31
ATOM     31  C   UNL A   1      33.368  34.856  28.743  1.00  0.00     0.338 C 
ATOM     32  O   UNL A   1      33.353  36.071  28.764  1.00  0.00    -0.246 OA
BRANCH  31  33
ATOM     33  C   UNL A   1      34.511  34.011  29.164  1.00  0.00     0.060 A 
ATOM     34  C   UNL A   1      35.796  34.283  28.691  1.00  0.00     0.016 A 
ATOM     35  C   UNL A   1      34.293  32.928  30.026  1.00  0.00     0.016 A 
ATOM     36  C   UNL A   1      36.870  33.489  29.109  1.00  0.00     0.010 A 
ATOM     37  C   UNL A   1      35.369  32.134  30.441  1.00  0.00     0.010 A 
ATOM     38  C   UNL A   1      36.672  32.423  30.008  1.00  0.00    -0.014 A 
BRANCH  38  39
ATOM     39  C   UNL A   1      37.849  31.753  30.624  1.00  0.00     0.031 A 
ATOM     40  C   UNL A   1      38.310  32.042  32.024  1.00  0.00     0.074 A 
ATOM     41  C   UNL A   1      38.519  30.850  29.882  1.00  0.00     0.049 A 
ATOM     42  N   UNL A   1      39.195  31.404  32.750  1.00  0.00    -0.248 NA
ATOM     43  C   UNL A   1      37.700  33.192  32.700  1.00  0.00     0.031 C 
ATOM     44  C   UNL A   1      38.214  30.513  28.491  1.00  0.00     0.029 A 
ATOM     45  N   UNL A   1      39.588  30.048  30.193  1.00  0.00    -0.354 N 
ATOM     46  C   UNL A   1      39.192  32.023  33.993  1.00  0.00     0.074 A 
ATOM     47  C   UNL A   1      38.272  33.138  33.898  1.00  0.00     0.031 C 
ATOM     48  C   UNL A   1      39.059  29.557  28.075  1.00  0.00     0.029 A 
ATOM     49  C   UNL A   1      39.977  29.230  29.161  1.00  0.00     0.049 A 
ATOM     50  H   UNL A   1      40.032  30.058  31.071  1.00  0.00     0.167 HD
ATOM     51  C   UNL A   1      39.875  31.680  35.114  1.00  0.00     0.037 A 
ATOM     52  C   UNL A   1      40.964  28.319  29.098  1.00  0.00     0.037 A 
ATOM     53  C   UNL A   1      40.880  30.650  35.172  1.00  0.00     0.049 A 
ATOM     54  C   UNL A   1      41.810  28.066  30.317  1.00  0.00     0.074 A 
ATOM     55  C   UNL A   1      41.647  30.251  36.254  1.00  0.00     0.029 A 
ATOM     56  N   UNL A   1      41.295  29.892  34.090  1.00  0.00    -0.354 N 
ATOM     57  N   UNL A   1      41.698  28.563  31.524  1.00  0.00    -0.248 NA
ATOM     58  C   UNL A   1      42.916  27.111  30.161  1.00  0.00     0.031 C 
ATOM     59  C   UNL A   1      42.570  29.297  35.810  1.00  0.00     0.029 A 
ATOM     60  C   UNL A   1      42.336  29.058  34.466  1.00  0.00     0.049 A 
ATOM     61  H   UNL A   1      40.908  29.938  33.186  1.00  0.00     0.167 HD
ATOM     62  C   UNL A   1      42.695  27.956  32.279  1.00  0.00     0.074 A 
ATOM     63  C   UNL A   1      43.383  27.036  31.398  1.00  0.00     0.031 C 
ATOM     64  C   UNL A   1      43.014  28.144  33.583  1.00  0.00     0.037 A 
BRANCH  51  65
ATOM     65  C   UNL A   1      39.553  32.426  36.376  1.00  0.00     0.057 A 
ATOM     66  C   UNL A   1      40.321  33.514  36.804  1.00  0.00     0.134 A 
ATOM     67  C   UNL A   1      38.499  32.016  37.206  1.00  0.00     0.134 A 
ATOM     68  F   UNL A   1      41.368  33.935  36.079  1.00  0.00    -0.206 F 
ATOM     69  C   UNL A   1      40.040  34.179  38.000  1.00  0.00     0.040 A 
ATOM     70  C   UNL A   1      38.186  32.694  38.385  1.00  0.00     0.040 A 
ATOM     71  F   UNL A   1      37.764  30.942  36.885  1.00  0.00    -0.206 F 
ATOM     72  C   UNL A   1      38.960  33.780  38.787  1.00  0.00     0.006 A 
ENDBRANCH  51  65
BRANCH  52  73
ATOM     73  C   UNL A   1      41.220  27.567  27.842  1.00  0.00     0.057 A 
ATOM     74  C   UNL A   1      40.555  26.368  27.563  1.00  0.00     0.134 A 
ATOM     75  C   UNL A   1      42.082  28.070  26.860  1.00  0.00     0.134 A 
ATOM     76  F   UNL A   1      39.722  25.828  28.464  1.00  0.00    -0.206 F 
ATOM     77  C   UNL A   1      40.725  25.703  26.348  1.00  0.00     0.040 A 
ATOM     78  C   UNL A   1      42.236  27.434  25.627  1.00  0.00     0.040 A 
ATOM     79  F   UNL A   1      42.735  29.224  27.062  1.00  0.00    -0.206 F 
ATOM     80  C   UNL A   1      41.556  26.247  25.369  1.00  0.00     0.006 A 
ENDBRANCH  52  73
BRANCH  64  81
ATOM     81  C   UNL A   1      44.135  27.309  34.138  1.00  0.00     0.057 A 
ATOM     82  C   UNL A   1      43.896  26.006  34.593  1.00  0.00     0.134 A 
ATOM     83  C   UNL A   1      45.448  27.791  34.224  1.00  0.00     0.134 A 
ATOM     84  F   UNL A   1      42.661  25.484  34.549  1.00  0.00    -0.206 F 
ATOM     85  C   UNL A   1      44.921  25.210  35.105  1.00  0.00     0.040 A 
ATOM     86  C   UNL A   1      46.489  26.992  34.704  1.00  0.00     0.040 A 
ATOM     87  F   UNL A   1      45.750  29.026  33.794  1.00  0.00    -0.206 F 
ATOM     88  C   UNL A   1      46.225  25.700  35.151  1.00  0.00     0.006 A 
ENDBRANCH  64  81
ENDBRANCH  38  39
ENDBRANCH  31  33
ENDBRANCH  30  31
ENDBRANCH  29  30
ENDBRANCH  28  29
ENDBRANCH  27  28
ENDBRANCH  26  27
ENDBRANCH  25  26
ENDBRANCH  24  25
ENDBRANCH   1  24
TORSDOF 23
ENDMDL
