MODEL 1
REMARK VINA RESULT:     -10.2      0.000      0.000
REMARK SMILES O=C(Cn1nc(C(=O)OCCOCCOCCOCCOC(=O)c2ccc(-c3c4nc(c(-c5c(F)cccc5F)c5ccc([nH]5)c(-c5c(F)cccc5F)c5nc(c(-c6c(F)cccc6F)c6ccc3[nH]6)C=C5)C=C4)cc2)c2ccccc2c1=O)Nc1ccc2c(c1)C(=O)c1ccccc1C2=O
REMARK SMILES IDX 14 1 13 2 12 3 11 4 10 5 9 6 7 7 8 8 6 9 4 10 5 11 84 12
REMARK SMILES IDX 83 13 85 14 78 15 82 16 79 17 81 18 80 19 3 20 2 21 1 22
REMARK SMILES IDX 86 23 87 25 88 26 92 27 89 28 91 29 90 30 93 31 101 32 94 33
REMARK SMILES IDX 95 34 100 35 102 36 96 37 99 38 97 39 98 40 15 41 16 42
REMARK SMILES IDX 17 43 18 44 19 45 20 46 21 47 22 48 23 49 24 50 25 51 77 52
REMARK SMILES IDX 26 53 76 54 27 55 28 56 29 57 70 58 30 59 75 60 69 61 71 62
REMARK SMILES IDX 31 63 74 64 68 65 67 66 32 68 58 69 41 70 57 71 42 72 45 73
REMARK SMILES IDX 56 74 72 75 43 76 44 77 55 79 73 80 46 81 33 82 34 83 39 84
REMARK SMILES IDX 35 85 36 86 38 87 40 88 37 89 59 90 60 91 65 92 61 93 62 94
REMARK SMILES IDX 64 95 66 96 63 97 47 98 48 99 53 100 49 101 50 102 52 103
REMARK SMILES IDX 54 104 51 105
REMARK H PARENT 86 24 71 67 45 78
REMARK Flexibility Score: inf
ROOT
ATOM      1  C   UNL A   1      41.063  21.902  26.107  1.00  0.00     0.188 C 
ENDROOT
BRANCH   1   2
ATOM      2  C   UNL A   1      40.876  22.815  27.328  1.00  0.00     0.188 C 
BRANCH   2   3
ATOM      3  O   UNL A   1      40.993  24.209  27.049  1.00  0.00    -0.376 OA
BRANCH   3   4
ATOM      4  C   UNL A   1      40.592  25.083  28.102  1.00  0.00     0.202 C 
BRANCH   4   5
ATOM      5  C   UNL A   1      39.851  26.317  27.587  1.00  0.00     0.261 C 
BRANCH   5   6
ATOM      6  O   UNL A   1      39.300  27.093  28.657  1.00  0.00    -0.458 OA
BRANCH   6   7
ATOM      7  C   UNL A   1      39.589  28.407  28.683  1.00  0.00     0.359 C 
ATOM      8  O   UNL A   1      40.542  28.983  28.195  1.00  0.00    -0.244 OA
BRANCH   7   9
ATOM      9  C   UNL A   1      38.399  29.114  29.315  1.00  0.00     0.176 A 
ATOM     10  N   UNL A   1      36.449  30.306  28.990  1.00  0.00    -0.219 N 
ATOM     11  N   UNL A   1      37.447  29.492  28.510  1.00  0.00    -0.161 NA
ATOM     12  C   UNL A   1      36.406  30.779  30.303  1.00  0.00     0.275 A 
ATOM     13  C   UNL A   1      37.419  30.248  31.235  1.00  0.00     0.051 A 
ATOM     14  O   UNL A   1      35.549  31.554  30.713  1.00  0.00    -0.267 OA
ATOM     15  C   UNL A   1      38.428  29.420  30.754  1.00  0.00     0.022 A 
ATOM     16  C   UNL A   1      37.370  30.582  32.595  1.00  0.00     0.014 A 
ATOM     17  C   UNL A   1      39.413  28.942  31.631  1.00  0.00     0.011 A 
ATOM     18  C   UNL A   1      38.351  30.106  33.467  1.00  0.00     0.001 A 
ATOM     19  C   UNL A   1      39.375  29.294  32.984  1.00  0.00     0.001 A 
BRANCH  10  20
ATOM     20  C   UNL A   1      35.518  30.866  27.982  1.00  0.00     0.248 C 
BRANCH  20  21
ATOM     21  C   UNL A   1      34.562  29.832  27.360  1.00  0.00     0.246 C 
ATOM     22  O   UNL A   1      34.945  28.927  26.626  1.00  0.00    -0.273 OA
ATOM     23  N   UNL A   1      33.262  30.007  27.773  1.00  0.00    -0.324 N 
ATOM     24  H   UNL A   1      33.116  30.466  28.632  1.00  0.00     0.169 HD
BRANCH  23  25
ATOM     25  C   UNL A   1      32.132  29.582  27.068  1.00  0.00     0.042 A 
ATOM     26  C   UNL A   1      31.740  30.295  25.932  1.00  0.00     0.027 A 
ATOM     27  C   UNL A   1      31.841  28.225  27.199  1.00  0.00     0.039 A 
ATOM     28  C   UNL A   1      31.236  29.597  24.828  1.00  0.00     0.015 A 
ATOM     29  C   UNL A   1      31.389  27.532  26.089  1.00  0.00     0.036 A 
ATOM     30  C   UNL A   1      31.178  28.200  24.884  1.00  0.00     0.034 A 
ATOM     31  C   UNL A   1      31.549  26.069  26.101  1.00  0.00     0.194 C 
ATOM     32  C   UNL A   1      31.288  27.417  23.631  1.00  0.00     0.194 C 
ATOM     33  O   UNL A   1      31.286  25.389  27.080  1.00  0.00    -0.289 OA
ATOM     34  C   UNL A   1      32.246  25.524  24.928  1.00  0.00     0.034 A 
ATOM     35  C   UNL A   1      32.143  26.204  23.713  1.00  0.00     0.034 A 
ATOM     36  O   UNL A   1      30.845  27.824  22.569  1.00  0.00    -0.289 OA
ATOM     37  C   UNL A   1      33.153  24.477  25.097  1.00  0.00     0.013 A 
ATOM     38  C   UNL A   1      32.973  25.848  22.651  1.00  0.00     0.013 A 
ATOM     39  C   UNL A   1      34.003  24.145  24.046  1.00  0.00     0.001 A 
ATOM     40  C   UNL A   1      33.917  24.831  22.830  1.00  0.00     0.001 A 
ENDBRANCH  23  25
ENDBRANCH  20  21
ENDBRANCH  10  20
ENDBRANCH   7   9
ENDBRANCH   6   7
ENDBRANCH   5   6
ENDBRANCH   4   5
ENDBRANCH   3   4
ENDBRANCH   2   3
ENDBRANCH   1   2
BRANCH   1  41
ATOM     41  O   UNL A   1      42.359  21.792  25.550  1.00  0.00    -0.377 OA
BRANCH  41  42
ATOM     42  C   UNL A   1      43.164  20.659  25.843  1.00  0.00     0.188 C 
BRANCH  42  43
ATOM     43  C   UNL A   1      44.288  20.216  24.891  1.00  0.00     0.188 C 
BRANCH  43  44
ATOM     44  O   UNL A   1      45.579  20.696  25.253  1.00  0.00    -0.376 OA
BRANCH  44  45
ATOM     45  C   UNL A   1      45.962  21.930  24.654  1.00  0.00     0.202 C 
BRANCH  45  46
ATOM     46  C   UNL A   1      46.023  23.062  25.683  1.00  0.00     0.261 C 
BRANCH  46  47
ATOM     47  O   UNL A   1      45.312  24.241  25.282  1.00  0.00    -0.460 OA
BRANCH  47  48
ATOM     48  C   UNL A   1      46.047  25.367  25.147  1.00  0.00     0.338 C 
ATOM     49  O   UNL A   1      46.904  25.593  24.312  1.00  0.00    -0.246 OA
BRANCH  48  50
ATOM     50  C   UNL A   1      45.525  26.370  26.095  1.00  0.00     0.060 A 
ATOM     51  C   UNL A   1      44.154  26.629  26.183  1.00  0.00     0.016 A 
ATOM     52  C   UNL A   1      46.435  27.067  26.898  1.00  0.00     0.016 A 
ATOM     53  C   UNL A   1      43.687  27.559  27.110  1.00  0.00     0.010 A 
ATOM     54  C   UNL A   1      45.968  28.006  27.817  1.00  0.00     0.010 A 
ATOM     55  C   UNL A   1      44.590  28.235  27.946  1.00  0.00    -0.014 A 
BRANCH  55  56
ATOM     56  C   UNL A   1      44.071  29.024  29.083  1.00  0.00     0.031 A 
ATOM     57  C   UNL A   1      43.781  28.405  30.411  1.00  0.00     0.074 A 
ATOM     58  C   UNL A   1      43.878  30.341  28.884  1.00  0.00     0.049 A 
ATOM     59  N   UNL A   1      43.443  28.994  31.530  1.00  0.00    -0.248 NA
ATOM     60  C   UNL A   1      43.872  26.941  30.498  1.00  0.00     0.031 C 
ATOM     61  C   UNL A   1      44.106  31.040  27.618  1.00  0.00     0.029 A 
ATOM     62  N   UNL A   1      43.456  31.322  29.740  1.00  0.00    -0.354 N 
ATOM     63  C   UNL A   1      43.308  27.979  32.466  1.00  0.00     0.074 A 
ATOM     64  C   UNL A   1      43.557  26.732  31.771  1.00  0.00     0.031 C 
ATOM     65  C   UNL A   1      43.829  32.343  27.783  1.00  0.00     0.029 A 
ATOM     66  C   UNL A   1      43.409  32.565  29.162  1.00  0.00     0.049 A 
ATOM     67  H   UNL A   1      43.211  31.152  30.679  1.00  0.00     0.167 HD
ATOM     68  C   UNL A   1      43.021  28.089  33.786  1.00  0.00     0.037 A 
ATOM     69  C   UNL A   1      43.081  33.756  29.690  1.00  0.00     0.037 A 
ATOM     70  C   UNL A   1      42.762  29.334  34.463  1.00  0.00     0.049 A 
ATOM     71  C   UNL A   1      42.737  33.842  31.146  1.00  0.00     0.074 A 
ATOM     72  C   UNL A   1      42.528  29.554  35.811  1.00  0.00     0.029 A 
ATOM     73  N   UNL A   1      42.684  30.571  33.840  1.00  0.00    -0.354 N 
ATOM     74  N   UNL A   1      42.709  32.888  32.044  1.00  0.00    -0.248 NA
ATOM     75  C   UNL A   1      42.393  35.173  31.663  1.00  0.00     0.031 C 
ATOM     76  C   UNL A   1      42.270  30.918  35.996  1.00  0.00     0.029 A 
ATOM     77  C   UNL A   1      42.374  31.553  34.770  1.00  0.00     0.049 A 
ATOM     78  H   UNL A   1      42.827  30.729  32.879  1.00  0.00     0.167 HD
ATOM     79  C   UNL A   1      42.363  33.503  33.237  1.00  0.00     0.074 A 
ATOM     80  C   UNL A   1      42.202  34.915  32.949  1.00  0.00     0.031 C 
ATOM     81  C   UNL A   1      42.200  32.949  34.462  1.00  0.00     0.037 A 
BRANCH  68  82
ATOM     82  C   UNL A   1      42.986  26.826  34.592  1.00  0.00     0.057 A 
ATOM     83  C   UNL A   1      44.166  26.238  35.060  1.00  0.00     0.134 A 
ATOM     84  C   UNL A   1      41.781  26.162  34.854  1.00  0.00     0.134 A 
ATOM     85  F   UNL A   1      45.353  26.821  34.837  1.00  0.00    -0.206 F 
ATOM     86  C   UNL A   1      44.150  25.029  35.759  1.00  0.00     0.040 A 
ATOM     87  C   UNL A   1      41.750  24.961  35.565  1.00  0.00     0.040 A 
ATOM     88  F   UNL A   1      40.616  26.678  34.437  1.00  0.00    -0.206 F 
ATOM     89  C   UNL A   1      42.938  24.388  36.014  1.00  0.00     0.006 A 
ENDBRANCH  68  82
BRANCH  69  90
ATOM     90  C   UNL A   1      43.115  34.965  28.838  1.00  0.00     0.057 A 
ATOM     91  C   UNL A   1      44.323  35.596  28.520  1.00  0.00     0.134 A 
ATOM     92  C   UNL A   1      41.935  35.529  28.346  1.00  0.00     0.134 A 
ATOM     93  F   UNL A   1      45.484  35.101  28.973  1.00  0.00    -0.206 F 
ATOM     94  C   UNL A   1      44.355  36.754  27.745  1.00  0.00     0.040 A 
ATOM     95  C   UNL A   1      41.953  36.679  27.557  1.00  0.00     0.040 A 
ATOM     96  F   UNL A   1      40.751  34.959  28.612  1.00  0.00    -0.206 F 
ATOM     97  C   UNL A   1      43.167  37.297  27.259  1.00  0.00     0.006 A 
ENDBRANCH  69  90
BRANCH  81  98
ATOM     98  C   UNL A   1      41.830  33.882  35.574  1.00  0.00     0.057 A 
ATOM     99  C   UNL A   1      40.489  34.106  35.906  1.00  0.00     0.134 A 
ATOM    100  C   UNL A   1      42.806  34.553  36.319  1.00  0.00     0.134 A 
ATOM    101  F   UNL A   1      39.507  33.491  35.229  1.00  0.00    -0.206 F 
ATOM    102  C   UNL A   1      40.131  34.964  36.947  1.00  0.00     0.040 A 
ATOM    103  C   UNL A   1      42.462  35.400  37.374  1.00  0.00     0.040 A 
ATOM    104  F   UNL A   1      44.109  34.365  36.061  1.00  0.00    -0.206 F 
ATOM    105  C   UNL A   1      41.120  35.609  37.688  1.00  0.00     0.006 A 
ENDBRANCH  81  98
ENDBRANCH  55  56
ENDBRANCH  48  50
ENDBRANCH  47  48
ENDBRANCH  46  47
ENDBRANCH  45  46
ENDBRANCH  44  45
ENDBRANCH  43  44
ENDBRANCH  42  43
ENDBRANCH  41  42
ENDBRANCH   1  41
TORSDOF 23
ENDMDL
MODEL 2
REMARK VINA RESULT:     -10.0      4.126      9.805
REMARK SMILES O=C(Cn1nc(C(=O)OCCOCCOCCOCCOC(=O)c2ccc(-c3c4nc(c(-c5c(F)cccc5F)c5ccc([nH]5)c(-c5c(F)cccc5F)c5nc(c(-c6c(F)cccc6F)c6ccc3[nH]6)C=C5)C=C4)cc2)c2ccccc2c1=O)Nc1ccc2c(c1)C(=O)c1ccccc1C2=O
REMARK SMILES IDX 14 1 13 2 12 3 11 4 10 5 9 6 7 7 8 8 6 9 4 10 5 11 84 12
REMARK SMILES IDX 83 13 85 14 78 15 82 16 79 17 81 18 80 19 3 20 2 21 1 22
REMARK SMILES IDX 86 23 87 25 88 26 92 27 89 28 91 29 90 30 93 31 101 32 94 33
REMARK SMILES IDX 95 34 100 35 102 36 96 37 99 38 97 39 98 40 15 41 16 42
REMARK SMILES IDX 17 43 18 44 19 45 20 46 21 47 22 48 23 49 24 50 25 51 77 52
REMARK SMILES IDX 26 53 76 54 27 55 28 56 29 57 70 58 30 59 75 60 69 61 71 62
REMARK SMILES IDX 31 63 74 64 68 65 67 66 32 68 58 69 41 70 57 71 42 72 45 73
REMARK SMILES IDX 56 74 72 75 43 76 44 77 55 79 73 80 46 81 33 82 34 83 39 84
REMARK SMILES IDX 35 85 36 86 38 87 40 88 37 89 59 90 60 91 65 92 61 93 62 94
REMARK SMILES IDX 64 95 66 96 63 97 47 98 48 99 53 100 49 101 50 102 52 103
REMARK SMILES IDX 54 104 51 105
REMARK H PARENT 86 24 71 67 45 78
REMARK Flexibility Score: inf
ROOT
ATOM      1  C   UNL A   1      45.387  19.211  24.242  1.00  0.00     0.188 C 
ENDROOT
BRANCH   1   2
ATOM      2  C   UNL A   1      45.313  20.677  24.694  1.00  0.00     0.188 C 
BRANCH   2   3
ATOM      3  O   UNL A   1      44.511  21.514  23.863  1.00  0.00    -0.376 OA
BRANCH   3   4
ATOM      4  C   UNL A   1      44.807  22.907  23.925  1.00  0.00     0.202 C 
BRANCH   4   5
ATOM      5  C   UNL A   1      46.261  23.179  24.309  1.00  0.00     0.261 C 
BRANCH   5   6
ATOM      6  O   UNL A   1      46.364  24.129  25.376  1.00  0.00    -0.458 OA
BRANCH   6   7
ATOM      7  C   UNL A   1      46.741  25.381  25.059  1.00  0.00     0.359 C 
ATOM      8  O   UNL A   1      46.049  26.312  24.697  1.00  0.00    -0.244 OA
BRANCH   7   9
ATOM      9  C   UNL A   1      48.222  25.498  25.390  1.00  0.00     0.176 A 
ATOM     10  N   UNL A   1      49.886  25.250  26.971  1.00  0.00    -0.219 N 
ATOM     11  N   UNL A   1      48.608  24.998  26.529  1.00  0.00    -0.161 NA
ATOM     12  C   UNL A   1      50.800  26.040  26.274  1.00  0.00     0.275 A 
ATOM     13  C   UNL A   1      50.394  26.499  24.931  1.00  0.00     0.051 A 
ATOM     14  O   UNL A   1      51.918  26.313  26.697  1.00  0.00    -0.267 OA
ATOM     15  C   UNL A   1      49.105  26.243  24.479  1.00  0.00     0.022 A 
ATOM     16  C   UNL A   1      51.300  27.197  24.120  1.00  0.00     0.014 A 
ATOM     17  C   UNL A   1      48.704  26.709  23.217  1.00  0.00     0.011 A 
ATOM     18  C   UNL A   1      50.900  27.661  22.866  1.00  0.00     0.001 A 
ATOM     19  C   UNL A   1      49.602  27.424  22.419  1.00  0.00     0.001 A 
BRANCH  10  20
ATOM     20  C   UNL A   1      50.194  24.830  28.359  1.00  0.00     0.248 C 
BRANCH  20  21
ATOM     21  C   UNL A   1      49.379  25.565  29.438  1.00  0.00     0.246 C 
ATOM     22  O   UNL A   1      49.408  25.253  30.624  1.00  0.00    -0.273 OA
ATOM     23  N   UNL A   1      48.679  26.634  28.928  1.00  0.00    -0.324 N 
ATOM     24  H   UNL A   1      49.017  27.044  28.098  1.00  0.00     0.169 HD
BRANCH  23  25
ATOM     25  C   UNL A   1      47.527  27.184  29.497  1.00  0.00     0.042 A 
ATOM     26  C   UNL A   1      47.370  28.572  29.489  1.00  0.00     0.027 A 
ATOM     27  C   UNL A   1      46.421  26.337  29.505  1.00  0.00     0.039 A 
ATOM     28  C   UNL A   1      46.097  29.114  29.277  1.00  0.00     0.015 A 
ATOM     29  C   UNL A   1      45.171  26.873  29.247  1.00  0.00     0.036 A 
ATOM     30  C   UNL A   1      45.026  28.245  29.041  1.00  0.00     0.034 A 
ATOM     31  C   UNL A   1      44.124  25.946  28.788  1.00  0.00     0.194 C 
ATOM     32  C   UNL A   1      43.887  28.702  28.212  1.00  0.00     0.194 C 
ATOM     33  O   UNL A   1      43.947  24.853  29.301  1.00  0.00    -0.289 OA
ATOM     34  C   UNL A   1      43.463  26.346  27.539  1.00  0.00     0.034 A 
ATOM     35  C   UNL A   1      43.370  27.706  27.237  1.00  0.00     0.034 A 
ATOM     36  O   UNL A   1      43.506  29.862  28.213  1.00  0.00    -0.289 OA
ATOM     37  C   UNL A   1      43.137  25.371  26.595  1.00  0.00     0.013 A 
ATOM     38  C   UNL A   1      42.963  28.104  25.964  1.00  0.00     0.013 A 
ATOM     39  C   UNL A   1      42.762  25.770  25.315  1.00  0.00     0.001 A 
ATOM     40  C   UNL A   1      42.681  27.131  24.999  1.00  0.00     0.001 A 
ENDBRANCH  23  25
ENDBRANCH  20  21
ENDBRANCH  10  20
ENDBRANCH   7   9
ENDBRANCH   6   7
ENDBRANCH   5   6
ENDBRANCH   4   5
ENDBRANCH   3   4
ENDBRANCH   2   3
ENDBRANCH   1   2
BRANCH   1  41
ATOM     41  O   UNL A   1      44.380  18.325  24.692  1.00  0.00    -0.377 OA
BRANCH  41  42
ATOM     42  C   UNL A   1      43.699  18.583  25.911  1.00  0.00     0.188 C 
BRANCH  42  43
ATOM     43  C   UNL A   1      42.251  19.099  25.918  1.00  0.00     0.188 C 
BRANCH  43  44
ATOM     44  O   UNL A   1      42.000  20.117  26.883  1.00  0.00    -0.376 OA
BRANCH  44  45
ATOM     45  C   UNL A   1      40.754  20.795  26.746  1.00  0.00     0.202 C 
BRANCH  45  46
ATOM     46  C   UNL A   1      40.938  22.203  26.177  1.00  0.00     0.261 C 
BRANCH  46  47
ATOM     47  O   UNL A   1      40.512  23.243  27.069  1.00  0.00    -0.460 OA
BRANCH  47  48
ATOM     48  C   UNL A   1      39.438  23.965  26.678  1.00  0.00     0.338 C 
ATOM     49  O   UNL A   1      38.575  23.633  25.886  1.00  0.00    -0.246 OA
BRANCH  48  50
ATOM     50  C   UNL A   1      39.385  25.188  27.503  1.00  0.00     0.060 A 
ATOM     51  C   UNL A   1      38.911  25.147  28.817  1.00  0.00     0.016 A 
ATOM     52  C   UNL A   1      39.811  26.394  26.935  1.00  0.00     0.016 A 
ATOM     53  C   UNL A   1      38.901  26.312  29.582  1.00  0.00     0.010 A 
ATOM     54  C   UNL A   1      39.790  27.562  27.697  1.00  0.00     0.010 A 
ATOM     55  C   UNL A   1      39.363  27.519  29.033  1.00  0.00    -0.014 A 
BRANCH  55  56
ATOM     56  C   UNL A   1      39.581  28.680  29.921  1.00  0.00     0.031 A 
ATOM     57  C   UNL A   1      38.658  29.854  29.932  1.00  0.00     0.074 A 
ATOM     58  C   UNL A   1      40.645  28.638  30.743  1.00  0.00     0.049 A 
ATOM     59  N   UNL A   1      38.654  30.882  30.743  1.00  0.00    -0.248 NA
ATOM     60  C   UNL A   1      37.612  29.889  28.901  1.00  0.00     0.031 C 
ATOM     61  C   UNL A   1      41.624  27.549  30.793  1.00  0.00     0.029 A 
ATOM     62  N   UNL A   1      41.078  29.524  31.692  1.00  0.00    -0.354 N 
ATOM     63  C   UNL A   1      37.589  31.675  30.343  1.00  0.00     0.074 A 
ATOM     64  C   UNL A   1      36.997  31.032  29.187  1.00  0.00     0.031 C 
ATOM     65  C   UNL A   1      42.539  27.828  31.734  1.00  0.00     0.029 A 
ATOM     66  C   UNL A   1      42.209  29.109  32.348  1.00  0.00     0.049 A 
ATOM     67  H   UNL A   1      40.622  30.375  31.885  1.00  0.00     0.167 HD
ATOM     68  C   UNL A   1      37.142  32.824  30.906  1.00  0.00     0.037 A 
ATOM     69  C   UNL A   1      42.894  29.688  33.349  1.00  0.00     0.037 A 
ATOM     70  C   UNL A   1      37.746  33.463  32.047  1.00  0.00     0.049 A 
ATOM     71  C   UNL A   1      42.394  30.975  33.930  1.00  0.00     0.074 A 
ATOM     72  C   UNL A   1      37.327  34.592  32.730  1.00  0.00     0.029 A 
ATOM     73  N   UNL A   1      38.914  33.037  32.664  1.00  0.00    -0.354 N 
ATOM     74  N   UNL A   1      41.328  31.666  33.607  1.00  0.00    -0.248 NA
ATOM     75  C   UNL A   1      43.184  31.554  35.024  1.00  0.00     0.031 C 
ATOM     76  C   UNL A   1      38.262  34.871  33.736  1.00  0.00     0.029 A 
ATOM     77  C   UNL A   1      39.246  33.898  33.699  1.00  0.00     0.049 A 
ATOM     78  H   UNL A   1      39.430  32.240  32.405  1.00  0.00     0.167 HD
ATOM     79  C   UNL A   1      41.307  32.752  34.469  1.00  0.00     0.074 A 
ATOM     80  C   UNL A   1      42.462  32.621  35.335  1.00  0.00     0.031 C 
ATOM     81  C   UNL A   1      40.408  33.763  34.539  1.00  0.00     0.037 A 
BRANCH  68  82
ATOM     82  C   UNL A   1      35.927  33.461  30.302  1.00  0.00     0.057 A 
ATOM     83  C   UNL A   1      36.003  34.142  29.082  1.00  0.00     0.134 A 
ATOM     84  C   UNL A   1      34.692  33.448  30.963  1.00  0.00     0.134 A 
ATOM     85  F   UNL A   1      37.158  34.196  28.402  1.00  0.00    -0.206 F 
ATOM     86  C   UNL A   1      34.892  34.792  28.540  1.00  0.00     0.040 A 
ATOM     87  C   UNL A   1      33.570  34.082  30.424  1.00  0.00     0.040 A 
ATOM     88  F   UNL A   1      34.554  32.808  32.133  1.00  0.00    -0.206 F 
ATOM     89  C   UNL A   1      33.671  34.761  29.212  1.00  0.00     0.006 A 
ENDBRANCH  68  82
BRANCH  69  90
ATOM     90  C   UNL A   1      44.099  29.021  33.889  1.00  0.00     0.057 A 
ATOM     91  C   UNL A   1      44.016  28.143  34.977  1.00  0.00     0.134 A 
ATOM     92  C   UNL A   1      45.362  29.267  33.345  1.00  0.00     0.134 A 
ATOM     93  F   UNL A   1      42.830  27.878  35.543  1.00  0.00    -0.206 F 
ATOM     94  C   UNL A   1      45.153  27.538  35.510  1.00  0.00     0.040 A 
ATOM     95  C   UNL A   1      46.506  28.657  33.858  1.00  0.00     0.040 A 
ATOM     96  F   UNL A   1      45.496  30.091  32.295  1.00  0.00    -0.206 F 
ATOM     97  C   UNL A   1      46.403  27.793  34.947  1.00  0.00     0.006 A 
ENDBRANCH  69  90
BRANCH  81  98
ATOM     98  C   UNL A   1      40.649  34.799  35.594  1.00  0.00     0.057 A 
ATOM     99  C   UNL A   1      40.008  34.719  36.836  1.00  0.00     0.134 A 
ATOM    100  C   UNL A   1      41.521  35.872  35.378  1.00  0.00     0.134 A 
ATOM    101  F   UNL A   1      39.160  33.715  37.103  1.00  0.00    -0.206 F 
ATOM    102  C   UNL A   1      40.231  35.672  37.831  1.00  0.00     0.040 A 
ATOM    103  C   UNL A   1      41.767  36.820  36.372  1.00  0.00     0.040 A 
ATOM    104  F   UNL A   1      42.179  35.991  34.216  1.00  0.00    -0.206 F 
ATOM    105  C   UNL A   1      41.118  36.722  37.602  1.00  0.00     0.006 A 
ENDBRANCH  81  98
ENDBRANCH  55  56
ENDBRANCH  48  50
ENDBRANCH  47  48
ENDBRANCH  46  47
ENDBRANCH  45  46
ENDBRANCH  44  45
ENDBRANCH  43  44
ENDBRANCH  42  43
ENDBRANCH  41  42
ENDBRANCH   1  41
TORSDOF 23
ENDMDL
MODEL 3
REMARK VINA RESULT:     -10.0      2.861      9.875
REMARK SMILES O=C(Cn1nc(C(=O)OCCOCCOCCOCCOC(=O)c2ccc(-c3c4nc(c(-c5c(F)cccc5F)c5ccc([nH]5)c(-c5c(F)cccc5F)c5nc(c(-c6c(F)cccc6F)c6ccc3[nH]6)C=C5)C=C4)cc2)c2ccccc2c1=O)Nc1ccc2c(c1)C(=O)c1ccccc1C2=O
REMARK SMILES IDX 14 1 13 2 12 3 11 4 10 5 9 6 7 7 8 8 6 9 4 10 5 11 84 12
REMARK SMILES IDX 83 13 85 14 78 15 82 16 79 17 81 18 80 19 3 20 2 21 1 22
REMARK SMILES IDX 86 23 87 25 88 26 92 27 89 28 91 29 90 30 93 31 101 32 94 33
REMARK SMILES IDX 95 34 100 35 102 36 96 37 99 38 97 39 98 40 15 41 16 42
REMARK SMILES IDX 17 43 18 44 19 45 20 46 21 47 22 48 23 49 24 50 25 51 77 52
REMARK SMILES IDX 26 53 76 54 27 55 28 56 29 57 70 58 30 59 75 60 69 61 71 62
REMARK SMILES IDX 31 63 74 64 68 65 67 66 32 68 58 69 41 70 57 71 42 72 45 73
REMARK SMILES IDX 56 74 72 75 43 76 44 77 55 79 73 80 46 81 33 82 34 83 39 84
REMARK SMILES IDX 35 85 36 86 38 87 40 88 37 89 59 90 60 91 65 92 61 93 62 94
REMARK SMILES IDX 64 95 66 96 63 97 47 98 48 99 53 100 49 101 50 102 52 103
REMARK SMILES IDX 54 104 51 105
REMARK H PARENT 86 24 71 67 45 78
REMARK Flexibility Score: inf
ROOT
ATOM      1  C   UNL A   1      37.555  30.227  29.048  1.00  0.00     0.188 C 
ENDROOT
BRANCH   1   2
ATOM      2  C   UNL A   1      38.357  29.038  28.502  1.00  0.00     0.188 C 
BRANCH   2   3
ATOM      3  O   UNL A   1      39.770  29.233  28.486  1.00  0.00    -0.376 OA
BRANCH   3   4
ATOM      4  C   UNL A   1      40.404  29.037  27.224  1.00  0.00     0.202 C 
BRANCH   4   5
ATOM      5  C   UNL A   1      41.928  29.041  27.328  1.00  0.00     0.261 C 
BRANCH   5   6
ATOM      6  O   UNL A   1      42.496  27.797  26.904  1.00  0.00    -0.458 OA
BRANCH   6   7
ATOM      7  C   UNL A   1      42.202  27.372  25.662  1.00  0.00     0.359 C 
ATOM      8  O   UNL A   1      42.371  27.947  24.604  1.00  0.00    -0.244 OA
BRANCH   7   9
ATOM      9  C   UNL A   1      41.747  25.925  25.781  1.00  0.00     0.176 A 
ATOM     10  N   UNL A   1      40.105  24.453  26.466  1.00  0.00    -0.219 N 
ATOM     11  N   UNL A   1      40.513  25.727  26.148  1.00  0.00    -0.161 NA
ATOM     12  C   UNL A   1      40.953  23.344  26.440  1.00  0.00     0.275 A 
ATOM     13  C   UNL A   1      42.312  23.559  25.908  1.00  0.00     0.051 A 
ATOM     14  O   UNL A   1      40.604  22.220  26.781  1.00  0.00    -0.267 OA
ATOM     15  C   UNL A   1      42.727  24.845  25.582  1.00  0.00     0.022 A 
ATOM     16  C   UNL A   1      43.183  22.474  25.740  1.00  0.00     0.014 A 
ATOM     17  C   UNL A   1      44.031  25.058  25.108  1.00  0.00     0.011 A 
ATOM     18  C   UNL A   1      44.480  22.686  25.270  1.00  0.00     0.001 A 
ATOM     19  C   UNL A   1      44.905  23.976  24.961  1.00  0.00     0.001 A 
BRANCH  10  20
ATOM     20  C   UNL A   1      38.758  24.327  27.071  1.00  0.00     0.248 C 
BRANCH  20  21
ATOM     21  C   UNL A   1      37.687  23.762  26.120  1.00  0.00     0.246 C 
ATOM     22  O   UNL A   1      37.901  23.538  24.933  1.00  0.00    -0.273 OA
ATOM     23  N   UNL A   1      36.507  23.484  26.769  1.00  0.00    -0.324 N 
ATOM     24  H   UNL A   1      36.550  23.311  27.737  1.00  0.00     0.169 HD
BRANCH  23  25
ATOM     25  C   UNL A   1      35.250  23.427  26.158  1.00  0.00     0.042 A 
ATOM     26  C   UNL A   1      34.199  22.808  26.839  1.00  0.00     0.027 A 
ATOM     27  C   UNL A   1      35.007  24.439  25.231  1.00  0.00     0.039 A 
ATOM     28  C   UNL A   1      32.911  23.348  26.744  1.00  0.00     0.015 A 
ATOM     29  C   UNL A   1      33.743  25.001  25.177  1.00  0.00     0.036 A 
ATOM     30  C   UNL A   1      32.726  24.518  25.999  1.00  0.00     0.034 A 
ATOM     31  C   UNL A   1      33.629  26.339  24.575  1.00  0.00     0.194 C 
ATOM     32  C   UNL A   1      31.634  25.449  26.367  1.00  0.00     0.194 C 
ATOM     33  O   UNL A   1      34.202  26.642  23.540  1.00  0.00    -0.289 OA
ATOM     34  C   UNL A   1      32.956  27.332  25.422  1.00  0.00     0.034 A 
ATOM     35  C   UNL A   1      31.990  26.892  26.330  1.00  0.00     0.034 A 
ATOM     36  O   UNL A   1      30.573  25.059  26.825  1.00  0.00    -0.289 OA
ATOM     37  C   UNL A   1      33.437  28.642  25.454  1.00  0.00     0.013 A 
ATOM     38  C   UNL A   1      31.508  27.768  27.302  1.00  0.00     0.013 A 
ATOM     39  C   UNL A   1      32.977  29.505  26.445  1.00  0.00     0.001 A 
ATOM     40  C   UNL A   1      32.021  29.068  27.369  1.00  0.00     0.001 A 
ENDBRANCH  23  25
ENDBRANCH  20  21
ENDBRANCH  10  20
ENDBRANCH   7   9
ENDBRANCH   6   7
ENDBRANCH   5   6
ENDBRANCH   4   5
ENDBRANCH   3   4
ENDBRANCH   2   3
ENDBRANCH   1   2
BRANCH   1  41
ATOM     41  O   UNL A   1      38.225  31.463  29.213  1.00  0.00    -0.377 OA
BRANCH  41  42
ATOM     42  C   UNL A   1      37.483  32.642  29.488  1.00  0.00     0.188 C 
BRANCH  42  43
ATOM     43  C   UNL A   1      35.951  32.604  29.621  1.00  0.00     0.188 C 
BRANCH  43  44
ATOM     44  O   UNL A   1      35.486  31.979  30.814  1.00  0.00    -0.376 OA
BRANCH  44  45
ATOM     45  C   UNL A   1      34.622  32.773  31.622  1.00  0.00     0.202 C 
BRANCH  45  46
ATOM     46  C   UNL A   1      35.271  33.125  32.963  1.00  0.00     0.261 C 
BRANCH  46  47
ATOM     47  O   UNL A   1      35.946  32.021  33.581  1.00  0.00    -0.460 OA
BRANCH  47  48
ATOM     48  C   UNL A   1      36.974  32.331  34.402  1.00  0.00     0.338 C 
ATOM     49  O   UNL A   1      36.923  32.959  35.443  1.00  0.00    -0.246 OA
BRANCH  48  50
ATOM     50  C   UNL A   1      38.179  31.635  33.909  1.00  0.00     0.060 A 
ATOM     51  C   UNL A   1      38.090  30.683  32.888  1.00  0.00     0.016 A 
ATOM     52  C   UNL A   1      39.412  31.939  34.495  1.00  0.00     0.016 A 
ATOM     53  C   UNL A   1      39.248  30.064  32.422  1.00  0.00     0.010 A 
ATOM     54  C   UNL A   1      40.570  31.310  34.036  1.00  0.00     0.010 A 
ATOM     55  C   UNL A   1      40.495  30.392  32.978  1.00  0.00    -0.014 A 
BRANCH  55  56
ATOM     56  C   UNL A   1      41.728  29.921  32.313  1.00  0.00     0.031 A 
ATOM     57  C   UNL A   1      42.363  30.677  31.192  1.00  0.00     0.074 A 
ATOM     58  C   UNL A   1      42.278  28.780  32.768  1.00  0.00     0.049 A 
ATOM     59  N   UNL A   1      43.509  30.452  30.602  1.00  0.00    -0.248 NA
ATOM     60  C   UNL A   1      41.619  31.825  30.658  1.00  0.00     0.031 C 
ATOM     61  C   UNL A   1      41.724  27.951  33.841  1.00  0.00     0.029 A 
ATOM     62  N   UNL A   1      43.420  28.126  32.392  1.00  0.00    -0.354 N 
ATOM     63  C   UNL A   1      43.642  31.446  29.643  1.00  0.00     0.074 A 
ATOM     64  C   UNL A   1      42.437  32.249  29.702  1.00  0.00     0.031 C 
ATOM     65  C   UNL A   1      42.535  26.902  34.044  1.00  0.00     0.029 A 
ATOM     66  C   UNL A   1      43.660  26.988  33.119  1.00  0.00     0.049 A 
ATOM     67  H   UNL A   1      44.012  28.442  31.672  1.00  0.00     0.167 HD
ATOM     68  C   UNL A   1      44.686  31.671  28.809  1.00  0.00     0.037 A 
ATOM     69  C   UNL A   1      44.683  26.120  33.060  1.00  0.00     0.037 A 
ATOM     70  C   UNL A   1      45.873  30.856  28.749  1.00  0.00     0.049 A 
ATOM     71  C   UNL A   1      45.808  26.376  32.104  1.00  0.00     0.074 A 
ATOM     72  C   UNL A   1      47.013  31.042  27.984  1.00  0.00     0.029 A 
ATOM     73  N   UNL A   1      46.067  29.688  29.473  1.00  0.00    -0.354 N 
ATOM     74  N   UNL A   1      45.969  27.375  31.272  1.00  0.00    -0.248 NA
ATOM     75  C   UNL A   1      46.898  25.393  32.092  1.00  0.00     0.031 C 
ATOM     76  C   UNL A   1      47.879  29.966  28.216  1.00  0.00     0.029 A 
ATOM     77  C   UNL A   1      47.293  29.126  29.148  1.00  0.00     0.049 A 
ATOM     78  H   UNL A   1      45.428  29.313  30.120  1.00  0.00     0.167 HD
ATOM     79  C   UNL A   1      47.188  27.153  30.648  1.00  0.00     0.074 A 
ATOM     80  C   UNL A   1      47.727  25.929  31.207  1.00  0.00     0.031 C 
ATOM     81  C   UNL A   1      47.806  27.899  29.701  1.00  0.00     0.037 A 
BRANCH  68  82
ATOM     82  C   UNL A   1      44.597  32.856  27.897  1.00  0.00     0.057 A 
ATOM     83  C   UNL A   1      44.156  32.717  26.576  1.00  0.00     0.134 A 
ATOM     84  C   UNL A   1      45.006  34.129  28.314  1.00  0.00     0.134 A 
ATOM     85  F   UNL A   1      43.756  31.523  26.113  1.00  0.00    -0.206 F 
ATOM     86  C   UNL A   1      44.128  33.803  25.699  1.00  0.00     0.040 A 
ATOM     87  C   UNL A   1      44.968  35.227  27.451  1.00  0.00     0.040 A 
ATOM     88  F   UNL A   1      45.433  34.328  29.569  1.00  0.00    -0.206 F 
ATOM     89  C   UNL A   1      44.534  35.063  26.137  1.00  0.00     0.006 A 
ENDBRANCH  68  82
BRANCH  69  90
ATOM     90  C   UNL A   1      44.704  24.955  33.972  1.00  0.00     0.057 A 
ATOM     91  C   UNL A   1      44.241  23.701  33.559  1.00  0.00     0.134 A 
ATOM     92  C   UNL A   1      45.165  25.080  35.286  1.00  0.00     0.134 A 
ATOM     93  F   UNL A   1      43.780  23.527  32.312  1.00  0.00    -0.206 F 
ATOM     94  C   UNL A   1      44.230  22.608  34.426  1.00  0.00     0.040 A 
ATOM     95  C   UNL A   1      45.173  23.993  36.159  1.00  0.00     0.040 A 
ATOM     96  F   UNL A   1      45.630  26.256  35.730  1.00  0.00    -0.206 F 
ATOM     97  C   UNL A   1      44.700  22.754  35.730  1.00  0.00     0.006 A 
ENDBRANCH  69  90
BRANCH  81  98
ATOM     98  C   UNL A   1      49.135  27.403  29.221  1.00  0.00     0.057 A 
ATOM     99  C   UNL A   1      50.319  27.804  29.849  1.00  0.00     0.134 A 
ATOM    100  C   UNL A   1      49.238  26.521  28.139  1.00  0.00     0.134 A 
ATOM    101  F   UNL A   1      50.286  28.648  30.892  1.00  0.00    -0.206 F 
ATOM    102  C   UNL A   1      51.564  27.341  29.419  1.00  0.00     0.040 A 
ATOM    103  C   UNL A   1      50.475  26.036  27.711  1.00  0.00     0.040 A 
ATOM    104  F   UNL A   1      48.136  26.085  27.509  1.00  0.00    -0.206 F 
ATOM    105  C   UNL A   1      51.642  26.449  28.351  1.00  0.00     0.006 A 
ENDBRANCH  81  98
ENDBRANCH  55  56
ENDBRANCH  48  50
ENDBRANCH  47  48
ENDBRANCH  46  47
ENDBRANCH  45  46
ENDBRANCH  44  45
ENDBRANCH  43  44
ENDBRANCH  42  43
ENDBRANCH  41  42
ENDBRANCH   1  41
TORSDOF 23
ENDMDL
