MODEL 1
REMARK VINA RESULT:     -10.1      0.000      0.000
REMARK SMILES C[C@H](C(=O)OCCOCCOCCOCCOC(=O)c1ccc(-c2c3nc(c(-c4c(F)cccc4F)c4ccc([nH]4)c(-c4c(F)cccc4F)c4nc(c(-c5c(F)cccc5F)c5ccc2[nH]5)C=C4)C=C3)cc1)c1ccc(C[C@@H]2CCC[C@H]2O)cc1
REMARK SMILES IDX 10 1 9 2 8 3 7 4 6 5 5 6 3 7 4 8 2 9 1 10 74 11 75 12 86 13
REMARK SMILES IDX 76 14 85 15 77 16 78 17 79 18 80 19 83 20 81 21 82 22 84 23
REMARK SMILES IDX 11 25 12 26 13 27 14 28 15 29 16 30 17 31 18 32 19 33 20 34
REMARK SMILES IDX 21 35 73 36 22 37 72 38 23 39 24 40 25 41 66 42 26 43 71 44
REMARK SMILES IDX 65 45 67 46 27 47 70 48 64 49 63 50 28 52 54 53 37 54 53 55
REMARK SMILES IDX 38 56 41 57 52 58 68 59 39 60 40 61 51 63 69 64 42 65 29 66
REMARK SMILES IDX 30 67 35 68 31 69 32 70 34 71 36 72 33 73 55 74 56 75 61 76
REMARK SMILES IDX 57 77 58 78 60 79 62 80 59 81 43 82 44 83 49 84 45 85 46 86
REMARK SMILES IDX 48 87 50 88 47 89
REMARK H PARENT 84 24 67 51 41 62
REMARK Flexibility Score: inf
ROOT
ATOM      1  C   UNL A   1      33.926  35.573  28.982  1.00  0.00     0.188 C 
ENDROOT
BRANCH   1   2
ATOM      2  C   UNL A   1      33.889  34.374  28.032  1.00  0.00     0.188 C 
BRANCH   2   3
ATOM      3  O   UNL A   1      35.111  33.805  27.598  1.00  0.00    -0.376 OA
BRANCH   3   4
ATOM      4  C   UNL A   1      35.425  32.444  27.869  1.00  0.00     0.202 C 
BRANCH   4   5
ATOM      5  C   UNL A   1      34.412  31.490  28.525  1.00  0.00     0.261 C 
BRANCH   5   6
ATOM      6  O   UNL A   1      34.453  30.141  28.026  1.00  0.00    -0.463 OA
BRANCH   6   7
ATOM      7  C   UNL A   1      33.812  29.949  26.846  1.00  0.00     0.313 C 
ATOM      8  O   UNL A   1      34.396  29.623  25.814  1.00  0.00    -0.252 OA
BRANCH   7   9
ATOM      9  C   UNL A   1      32.285  30.108  26.899  1.00  0.00     0.126 C 
ATOM     10  C   UNL A   1      31.704  31.465  26.491  1.00  0.00     0.025 C 
BRANCH   9  11
ATOM     11  C   UNL A   1      31.610  29.025  26.067  1.00  0.00    -0.034 A 
ATOM     12  C   UNL A   1      31.570  27.707  26.541  1.00  0.00     0.005 A 
ATOM     13  C   UNL A   1      31.081  29.301  24.800  1.00  0.00     0.005 A 
ATOM     14  C   UNL A   1      31.047  26.687  25.774  1.00  0.00     0.004 A 
ATOM     15  C   UNL A   1      30.637  28.253  23.988  1.00  0.00     0.004 A 
ATOM     16  C   UNL A   1      30.688  26.932  24.452  1.00  0.00    -0.048 A 
BRANCH  16  17
ATOM     17  C   UNL A   1      30.514  25.756  23.532  1.00  0.00     0.041 C 
BRANCH  17  18
ATOM     18  C   UNL A   1      31.817  25.247  22.858  1.00  0.00     0.022 C 
ATOM     19  C   UNL A   1      32.896  24.676  23.799  1.00  0.00     0.007 C 
ATOM     20  C   UNL A   1      32.582  26.312  22.063  1.00  0.00     0.117 C 
ATOM     21  C   UNL A   1      33.970  25.754  23.976  1.00  0.00     0.003 C 
ATOM     22  C   UNL A   1      33.622  26.890  23.017  1.00  0.00     0.032 C 
BRANCH  20  23
ATOM     23  O   UNL A   1      33.260  25.686  20.970  1.00  0.00    -0.393 OA
ATOM     24  H   UNL A   1      34.126  25.367  21.268  1.00  0.00     0.210 HD
ENDBRANCH  20  23
ENDBRANCH  17  18
ENDBRANCH  16  17
ENDBRANCH   9  11
ENDBRANCH   7   9
ENDBRANCH   6   7
ENDBRANCH   5   6
ENDBRANCH   4   5
ENDBRANCH   3   4
ENDBRANCH   2   3
ENDBRANCH   1   2
BRANCH   1  25
ATOM     25  O   UNL A   1      32.678  36.007  29.497  1.00  0.00    -0.377 OA
BRANCH  25  26
ATOM     26  C   UNL A   1      32.629  36.797  30.685  1.00  0.00     0.188 C 
BRANCH  26  27
ATOM     27  C   UNL A   1      32.148  36.112  31.965  1.00  0.00     0.188 C 
BRANCH  27  28
ATOM     28  O   UNL A   1      32.607  34.778  32.209  1.00  0.00    -0.376 OA
BRANCH  28  29
ATOM     29  C   UNL A   1      33.990  34.563  32.482  1.00  0.00     0.202 C 
BRANCH  29  30
ATOM     30  C   UNL A   1      34.290  33.296  33.278  1.00  0.00     0.261 C 
BRANCH  30  31
ATOM     31  O   UNL A   1      35.190  32.426  32.580  1.00  0.00    -0.460 OA
BRANCH  31  32
ATOM     32  C   UNL A   1      36.330  32.134  33.249  1.00  0.00     0.338 C 
ATOM     33  O   UNL A   1      36.599  32.379  34.410  1.00  0.00    -0.246 OA
BRANCH  32  34
ATOM     34  C   UNL A   1      37.205  31.332  32.379  1.00  0.00     0.060 A 
ATOM     35  C   UNL A   1      37.987  30.329  32.966  1.00  0.00     0.016 A 
ATOM     36  C   UNL A   1      37.322  31.629  31.020  1.00  0.00     0.016 A 
ATOM     37  C   UNL A   1      38.935  29.655  32.203  1.00  0.00     0.010 A 
ATOM     38  C   UNL A   1      38.281  30.964  30.260  1.00  0.00     0.010 A 
ATOM     39  C   UNL A   1      39.119  30.011  30.863  1.00  0.00    -0.014 A 
BRANCH  39  40
ATOM     40  C   UNL A   1      40.321  29.541  30.144  1.00  0.00     0.031 A 
ATOM     41  C   UNL A   1      41.447  30.513  29.931  1.00  0.00     0.074 A 
ATOM     42  C   UNL A   1      40.404  28.277  29.700  1.00  0.00     0.049 A 
ATOM     43  N   UNL A   1      42.556  30.364  29.256  1.00  0.00    -0.248 NA
ATOM     44  C   UNL A   1      41.294  31.837  30.558  1.00  0.00     0.031 C 
ATOM     45  C   UNL A   1      39.388  27.245  29.896  1.00  0.00     0.029 A 
ATOM     46  N   UNL A   1      41.388  27.655  28.980  1.00  0.00    -0.354 N 
ATOM     47  C   UNL A   1      43.228  31.575  29.370  1.00  0.00     0.074 A 
ATOM     48  C   UNL A   1      42.388  32.460  30.146  1.00  0.00     0.031 C 
ATOM     49  C   UNL A   1      39.794  26.118  29.286  1.00  0.00     0.029 A 
ATOM     50  C   UNL A   1      41.076  26.366  28.631  1.00  0.00     0.049 A 
ATOM     51  H   UNL A   1      42.237  28.091  28.735  1.00  0.00     0.167 HD
ATOM     52  C   UNL A   1      44.441  31.912  28.875  1.00  0.00     0.037 A 
ATOM     53  C   UNL A   1      41.742  25.499  27.844  1.00  0.00     0.037 A 
ATOM     54  C   UNL A   1      45.262  31.023  28.098  1.00  0.00     0.049 A 
ATOM     55  C   UNL A   1      43.054  25.924  27.239  1.00  0.00     0.074 A 
ATOM     56  C   UNL A   1      46.513  31.255  27.554  1.00  0.00     0.029 A 
ATOM     57  N   UNL A   1      44.905  29.729  27.747  1.00  0.00    -0.354 N 
ATOM     58  N   UNL A   1      43.694  27.064  27.362  1.00  0.00    -0.248 NA
ATOM     59  C   UNL A   1      43.738  24.942  26.388  1.00  0.00     0.031 C 
ATOM     60  C   UNL A   1      46.887  30.121  26.825  1.00  0.00     0.029 A 
ATOM     61  C   UNL A   1      45.900  29.159  26.971  1.00  0.00     0.049 A 
ATOM     62  H   UNL A   1      44.069  29.281  28.011  1.00  0.00     0.167 HD
ATOM     63  C   UNL A   1      44.869  26.923  26.633  1.00  0.00     0.074 A 
ATOM     64  C   UNL A   1      44.857  25.584  26.082  1.00  0.00     0.031 C 
ATOM     65  C   UNL A   1      45.869  27.819  26.438  1.00  0.00     0.037 A 
BRANCH  52  66
ATOM     66  C   UNL A   1      44.931  33.308  29.135  1.00  0.00     0.057 A 
ATOM     67  C   UNL A   1      44.706  34.356  28.231  1.00  0.00     0.134 A 
ATOM     68  C   UNL A   1      45.622  33.614  30.314  1.00  0.00     0.134 A 
ATOM     69  F   UNL A   1      44.066  34.131  27.073  1.00  0.00    -0.206 F 
ATOM     70  C   UNL A   1      45.174  35.649  28.479  1.00  0.00     0.040 A 
ATOM     71  C   UNL A   1      46.070  34.908  30.586  1.00  0.00     0.040 A 
ATOM     72  F   UNL A   1      45.872  32.660  31.223  1.00  0.00    -0.206 F 
ATOM     73  C   UNL A   1      45.852  35.928  29.663  1.00  0.00     0.006 A 
ENDBRANCH  52  66
BRANCH  53  74
ATOM     74  C   UNL A   1      41.171  24.157  27.569  1.00  0.00     0.057 A 
ATOM     75  C   UNL A   1      40.147  23.980  26.633  1.00  0.00     0.134 A 
ATOM     76  C   UNL A   1      41.629  23.019  28.245  1.00  0.00     0.134 A 
ATOM     77  F   UNL A   1      39.653  25.035  25.967  1.00  0.00    -0.206 F 
ATOM     78  C   UNL A   1      39.584  22.726  26.392  1.00  0.00     0.040 A 
ATOM     79  C   UNL A   1      41.095  21.754  27.994  1.00  0.00     0.040 A 
ATOM     80  F   UNL A   1      42.613  23.117  29.152  1.00  0.00    -0.206 F 
ATOM     81  C   UNL A   1      40.062  21.607  27.071  1.00  0.00     0.006 A 
ENDBRANCH  53  74
BRANCH  65  82
ATOM     82  C   UNL A   1      47.051  27.363  25.632  1.00  0.00     0.057 A 
ATOM     83  C   UNL A   1      48.130  26.685  26.212  1.00  0.00     0.134 A 
ATOM     84  C   UNL A   1      47.086  27.569  24.247  1.00  0.00     0.134 A 
ATOM     85  F   UNL A   1      48.164  26.465  27.535  1.00  0.00    -0.206 F 
ATOM     86  C   UNL A   1      49.215  26.252  25.447  1.00  0.00     0.040 A 
ATOM     87  C   UNL A   1      48.150  27.113  23.467  1.00  0.00     0.040 A 
ATOM     88  F   UNL A   1      46.079  28.202  23.626  1.00  0.00    -0.206 F 
ATOM     89  C   UNL A   1      49.222  26.460  24.068  1.00  0.00     0.006 A 
ENDBRANCH  65  82
ENDBRANCH  39  40
ENDBRANCH  32  34
ENDBRANCH  31  32
ENDBRANCH  30  31
ENDBRANCH  29  30
ENDBRANCH  28  29
ENDBRANCH  27  28
ENDBRANCH  26  27
ENDBRANCH  25  26
ENDBRANCH   1  25
TORSDOF 24
ENDMDL
MODEL 2
REMARK VINA RESULT:     -10.1      0.973      6.079
REMARK SMILES C[C@H](C(=O)OCCOCCOCCOCCOC(=O)c1ccc(-c2c3nc(c(-c4c(F)cccc4F)c4ccc([nH]4)c(-c4c(F)cccc4F)c4nc(c(-c5c(F)cccc5F)c5ccc2[nH]5)C=C4)C=C3)cc1)c1ccc(C[C@@H]2CCC[C@H]2O)cc1
REMARK SMILES IDX 10 1 9 2 8 3 7 4 6 5 5 6 3 7 4 8 2 9 1 10 74 11 75 12 86 13
REMARK SMILES IDX 76 14 85 15 77 16 78 17 79 18 80 19 83 20 81 21 82 22 84 23
REMARK SMILES IDX 11 25 12 26 13 27 14 28 15 29 16 30 17 31 18 32 19 33 20 34
REMARK SMILES IDX 21 35 73 36 22 37 72 38 23 39 24 40 25 41 66 42 26 43 71 44
REMARK SMILES IDX 65 45 67 46 27 47 70 48 64 49 63 50 28 52 54 53 37 54 53 55
REMARK SMILES IDX 38 56 41 57 52 58 68 59 39 60 40 61 51 63 69 64 42 65 29 66
REMARK SMILES IDX 30 67 35 68 31 69 32 70 34 71 36 72 33 73 55 74 56 75 61 76
REMARK SMILES IDX 57 77 58 78 60 79 62 80 59 81 43 82 44 83 49 84 45 85 46 86
REMARK SMILES IDX 48 87 50 88 47 89
REMARK H PARENT 84 24 67 51 41 62
REMARK Flexibility Score: inf
ROOT
ATOM      1  C   UNL A   1      33.793  35.059  28.732  1.00  0.00     0.188 C 
ENDROOT
BRANCH   1   2
ATOM      2  C   UNL A   1      33.677  33.708  28.022  1.00  0.00     0.188 C 
BRANCH   2   3
ATOM      3  O   UNL A   1      34.732  32.772  28.153  1.00  0.00    -0.376 OA
BRANCH   3   4
ATOM      4  C   UNL A   1      34.584  31.431  27.700  1.00  0.00     0.202 C 
BRANCH   4   5
ATOM      5  C   UNL A   1      33.219  30.858  27.286  1.00  0.00     0.261 C 
BRANCH   5   6
ATOM      6  O   UNL A   1      33.160  29.420  27.256  1.00  0.00    -0.463 OA
BRANCH   6   7
ATOM      7  C   UNL A   1      32.988  28.881  26.023  1.00  0.00     0.313 C 
ATOM      8  O   UNL A   1      33.928  28.600  25.280  1.00  0.00    -0.252 OA
BRANCH   7   9
ATOM      9  C   UNL A   1      31.531  28.585  25.637  1.00  0.00     0.126 C 
ATOM     10  C   UNL A   1      30.975  29.288  24.394  1.00  0.00     0.025 C 
BRANCH   9  11
ATOM     11  C   UNL A   1      31.319  27.085  25.478  1.00  0.00    -0.034 A 
ATOM     12  C   UNL A   1      31.853  26.203  26.426  1.00  0.00     0.005 A 
ATOM     13  C   UNL A   1      30.654  26.555  24.365  1.00  0.00     0.005 A 
ATOM     14  C   UNL A   1      31.756  24.836  26.265  1.00  0.00     0.004 A 
ATOM     15  C   UNL A   1      30.637  25.173  24.157  1.00  0.00     0.004 A 
ATOM     16  C   UNL A   1      31.255  24.315  25.076  1.00  0.00    -0.048 A 
BRANCH  16  17
ATOM     17  C   UNL A   1      31.531  22.872  24.759  1.00  0.00     0.041 C 
BRANCH  17  18
ATOM     18  C   UNL A   1      32.783  22.618  23.875  1.00  0.00     0.022 C 
ATOM     19  C   UNL A   1      33.802  21.594  24.410  1.00  0.00     0.007 C 
ATOM     20  C   UNL A   1      33.645  23.860  23.619  1.00  0.00     0.117 C 
ATOM     21  C   UNL A   1      34.972  22.379  25.013  1.00  0.00     0.003 C 
ATOM     22  C   UNL A   1      34.733  23.851  24.689  1.00  0.00     0.032 C 
BRANCH  20  23
ATOM     23  O   UNL A   1      34.264  23.747  22.336  1.00  0.00    -0.393 OA
ATOM     24  H   UNL A   1      33.641  24.032  21.650  1.00  0.00     0.210 HD
ENDBRANCH  20  23
ENDBRANCH  17  18
ENDBRANCH  16  17
ENDBRANCH   9  11
ENDBRANCH   7   9
ENDBRANCH   6   7
ENDBRANCH   5   6
ENDBRANCH   4   5
ENDBRANCH   3   4
ENDBRANCH   2   3
ENDBRANCH   1   2
BRANCH   1  25
ATOM     25  O   UNL A   1      32.701  35.432  29.557  1.00  0.00    -0.377 OA
BRANCH  25  26
ATOM     26  C   UNL A   1      32.880  36.411  30.580  1.00  0.00     0.188 C 
BRANCH  26  27
ATOM     27  C   UNL A   1      32.594  35.982  32.020  1.00  0.00     0.188 C 
BRANCH  27  28
ATOM     28  O   UNL A   1      32.962  34.650  32.394  1.00  0.00    -0.376 OA
BRANCH  28  29
ATOM     29  C   UNL A   1      34.341  34.293  32.411  1.00  0.00     0.202 C 
BRANCH  29  30
ATOM     30  C   UNL A   1      34.685  33.128  33.335  1.00  0.00     0.261 C 
BRANCH  30  31
ATOM     31  O   UNL A   1      35.519  32.159  32.687  1.00  0.00    -0.460 OA
BRANCH  31  32
ATOM     32  C   UNL A   1      36.675  31.883  33.336  1.00  0.00     0.338 C 
ATOM     33  O   UNL A   1      36.942  32.082  34.506  1.00  0.00    -0.246 OA
BRANCH  32  34
ATOM     34  C   UNL A   1      37.576  31.162  32.423  1.00  0.00     0.060 A 
ATOM     35  C   UNL A   1      38.603  30.386  32.977  1.00  0.00     0.016 A 
ATOM     36  C   UNL A   1      37.468  31.325  31.040  1.00  0.00     0.016 A 
ATOM     37  C   UNL A   1      39.564  29.816  32.149  1.00  0.00     0.010 A 
ATOM     38  C   UNL A   1      38.438  30.766  30.212  1.00  0.00     0.010 A 
ATOM     39  C   UNL A   1      39.512  30.051  30.771  1.00  0.00    -0.014 A 
BRANCH  39  40
ATOM     40  C   UNL A   1      40.685  29.730  29.933  1.00  0.00     0.031 A 
ATOM     41  C   UNL A   1      40.776  28.356  29.333  1.00  0.00     0.074 A 
ATOM     42  C   UNL A   1      41.640  30.647  29.710  1.00  0.00     0.049 A 
ATOM     43  N   UNL A   1      41.743  27.814  28.642  1.00  0.00    -0.248 NA
ATOM     44  C   UNL A   1      39.619  27.471  29.550  1.00  0.00     0.031 C 
ATOM     45  C   UNL A   1      41.624  32.021  30.209  1.00  0.00     0.029 A 
ATOM     46  N   UNL A   1      42.816  30.550  29.017  1.00  0.00    -0.354 N 
ATOM     47  C   UNL A   1      41.317  26.524  28.350  1.00  0.00     0.074 A 
ATOM     48  C   UNL A   1      40.021  26.351  28.969  1.00  0.00     0.031 C 
ATOM     49  C   UNL A   1      42.755  32.635  29.822  1.00  0.00     0.029 A 
ATOM     50  C   UNL A   1      43.584  31.685  29.083  1.00  0.00     0.049 A 
ATOM     51  H   UNL A   1      43.086  29.744  28.520  1.00  0.00     0.167 HD
ATOM     52  C   UNL A   1      41.950  25.573  27.625  1.00  0.00     0.037 A 
ATOM     53  C   UNL A   1      44.829  31.913  28.624  1.00  0.00     0.037 A 
ATOM     54  C   UNL A   1      43.243  25.757  27.022  1.00  0.00     0.049 A 
ATOM     55  C   UNL A   1      45.546  30.813  27.887  1.00  0.00     0.074 A 
ATOM     56  C   UNL A   1      43.975  24.866  26.258  1.00  0.00     0.029 A 
ATOM     57  N   UNL A   1      44.001  26.915  27.127  1.00  0.00    -0.354 N 
ATOM     58  N   UNL A   1      45.134  29.600  27.598  1.00  0.00    -0.248 NA
ATOM     59  C   UNL A   1      46.902  31.113  27.408  1.00  0.00     0.031 C 
ATOM     60  C   UNL A   1      45.201  25.465  25.948  1.00  0.00     0.029 A 
ATOM     61  C   UNL A   1      45.205  26.752  26.463  1.00  0.00     0.049 A 
ATOM     62  H   UNL A   1      43.724  27.732  27.602  1.00  0.00     0.167 HD
ATOM     63  C   UNL A   1      46.163  29.007  26.878  1.00  0.00     0.074 A 
ATOM     64  C   UNL A   1      47.214  29.997  26.764  1.00  0.00     0.031 C 
ATOM     65  C   UNL A   1      46.234  27.757  26.356  1.00  0.00     0.037 A 
BRANCH  52  66
ATOM     66  C   UNL A   1      41.264  24.245  27.475  1.00  0.00     0.057 A 
ATOM     67  C   UNL A   1      40.177  24.062  26.610  1.00  0.00     0.134 A 
ATOM     68  C   UNL A   1      41.709  23.128  28.194  1.00  0.00     0.134 A 
ATOM     69  F   UNL A   1      39.688  25.093  25.904  1.00  0.00    -0.206 F 
ATOM     70  C   UNL A   1      39.542  22.824  26.485  1.00  0.00     0.040 A 
ATOM     71  C   UNL A   1      41.100  21.879  28.056  1.00  0.00     0.040 A 
ATOM     72  F   UNL A   1      42.745  23.231  29.040  1.00  0.00    -0.206 F 
ATOM     73  C   UNL A   1      40.008  21.727  27.205  1.00  0.00     0.006 A 
ENDBRANCH  52  66
BRANCH  53  74
ATOM     74  C   UNL A   1      45.480  33.224  28.863  1.00  0.00     0.057 A 
ATOM     75  C   UNL A   1      45.287  34.302  27.992  1.00  0.00     0.134 A 
ATOM     76  C   UNL A   1      46.321  33.430  29.965  1.00  0.00     0.134 A 
ATOM     77  F   UNL A   1      44.507  34.162  26.909  1.00  0.00    -0.206 F 
ATOM     78  C   UNL A   1      45.921  35.529  28.194  1.00  0.00     0.040 A 
ATOM     79  C   UNL A   1      46.939  34.660  30.194  1.00  0.00     0.040 A 
ATOM     80  F   UNL A   1      46.545  32.440  30.842  1.00  0.00    -0.206 F 
ATOM     81  C   UNL A   1      46.746  35.712  29.301  1.00  0.00     0.006 A 
ENDBRANCH  53  74
BRANCH  65  82
ATOM     82  C   UNL A   1      47.469  27.407  25.576  1.00  0.00     0.057 A 
ATOM     83  C   UNL A   1      48.575  26.788  26.172  1.00  0.00     0.134 A 
ATOM     84  C   UNL A   1      47.531  27.654  24.199  1.00  0.00     0.134 A 
ATOM     85  F   UNL A   1      48.584  26.533  27.489  1.00  0.00    -0.206 F 
ATOM     86  C   UNL A   1      49.710  26.453  25.431  1.00  0.00     0.040 A 
ATOM     87  C   UNL A   1      48.647  27.295  23.442  1.00  0.00     0.040 A 
ATOM     88  F   UNL A   1      46.501  28.233  23.563  1.00  0.00    -0.206 F 
ATOM     89  C   UNL A   1      49.744  26.700  24.059  1.00  0.00     0.006 A 
ENDBRANCH  65  82
ENDBRANCH  39  40
ENDBRANCH  32  34
ENDBRANCH  31  32
ENDBRANCH  30  31
ENDBRANCH  29  30
ENDBRANCH  28  29
ENDBRANCH  27  28
ENDBRANCH  26  27
ENDBRANCH  25  26
ENDBRANCH   1  25
TORSDOF 24
ENDMDL
MODEL 3
REMARK VINA RESULT:      -9.8      4.680     10.494
REMARK SMILES C[C@H](C(=O)OCCOCCOCCOCCOC(=O)c1ccc(-c2c3nc(c(-c4c(F)cccc4F)c4ccc([nH]4)c(-c4c(F)cccc4F)c4nc(c(-c5c(F)cccc5F)c5ccc2[nH]5)C=C4)C=C3)cc1)c1ccc(C[C@@H]2CCC[C@H]2O)cc1
REMARK SMILES IDX 10 1 9 2 8 3 7 4 6 5 5 6 3 7 4 8 2 9 1 10 74 11 75 12 86 13
REMARK SMILES IDX 76 14 85 15 77 16 78 17 79 18 80 19 83 20 81 21 82 22 84 23
REMARK SMILES IDX 11 25 12 26 13 27 14 28 15 29 16 30 17 31 18 32 19 33 20 34
REMARK SMILES IDX 21 35 73 36 22 37 72 38 23 39 24 40 25 41 66 42 26 43 71 44
REMARK SMILES IDX 65 45 67 46 27 47 70 48 64 49 63 50 28 52 54 53 37 54 53 55
REMARK SMILES IDX 38 56 41 57 52 58 68 59 39 60 40 61 51 63 69 64 42 65 29 66
REMARK SMILES IDX 30 67 35 68 31 69 32 70 34 71 36 72 33 73 55 74 56 75 61 76
REMARK SMILES IDX 57 77 58 78 60 79 62 80 59 81 43 82 44 83 49 84 45 85 46 86
REMARK SMILES IDX 48 87 50 88 47 89
REMARK H PARENT 84 24 67 51 41 62
REMARK Flexibility Score: inf
ROOT
ATOM      1  C   UNL A   1      39.004  21.578  25.926  1.00  0.00     0.188 C 
ENDROOT
BRANCH   1   2
ATOM      2  C   UNL A   1      37.874  21.264  24.943  1.00  0.00     0.188 C 
BRANCH   2   3
ATOM      3  O   UNL A   1      37.209  20.017  25.038  1.00  0.00    -0.376 OA
BRANCH   3   4
ATOM      4  C   UNL A   1      35.793  19.928  24.927  1.00  0.00     0.202 C 
BRANCH   4   5
ATOM      5  C   UNL A   1      34.913  21.174  24.727  1.00  0.00     0.261 C 
BRANCH   5   6
ATOM      6  O   UNL A   1      33.703  21.181  25.506  1.00  0.00    -0.463 OA
BRANCH   6   7
ATOM      7  C   UNL A   1      32.559  21.261  24.783  1.00  0.00     0.313 C 
ATOM      8  O   UNL A   1      31.453  20.989  25.250  1.00  0.00    -0.252 OA
BRANCH   7   9
ATOM      9  C   UNL A   1      32.728  21.776  23.346  1.00  0.00     0.126 C 
ATOM     10  C   UNL A   1      31.814  21.179  22.271  1.00  0.00     0.025 C 
BRANCH   9  11
ATOM     11  C   UNL A   1      32.592  23.293  23.307  1.00  0.00    -0.034 A 
ATOM     12  C   UNL A   1      31.439  23.901  23.820  1.00  0.00     0.005 A 
ATOM     13  C   UNL A   1      33.569  24.098  22.707  1.00  0.00     0.005 A 
ATOM     14  C   UNL A   1      31.245  25.263  23.719  1.00  0.00     0.004 A 
ATOM     15  C   UNL A   1      33.329  25.463  22.524  1.00  0.00     0.004 A 
ATOM     16  C   UNL A   1      32.129  26.033  22.968  1.00  0.00    -0.048 A 
BRANCH  16  17
ATOM     17  C   UNL A   1      31.689  27.405  22.538  1.00  0.00     0.041 C 
BRANCH  17  18
ATOM     18  C   UNL A   1      32.224  28.573  23.411  1.00  0.00     0.022 C 
ATOM     19  C   UNL A   1      33.573  28.336  24.118  1.00  0.00     0.007 C 
ATOM     20  C   UNL A   1      31.299  28.984  24.562  1.00  0.00     0.117 C 
ATOM     21  C   UNL A   1      33.272  28.006  25.584  1.00  0.00     0.003 C 
ATOM     22  C   UNL A   1      31.773  28.210  25.787  1.00  0.00     0.032 C 
BRANCH  20  23
ATOM     23  O   UNL A   1      31.456  30.383  24.815  1.00  0.00    -0.393 OA
ATOM     24  H   UNL A   1      31.377  30.549  25.767  1.00  0.00     0.210 HD
ENDBRANCH  20  23
ENDBRANCH  17  18
ENDBRANCH  16  17
ENDBRANCH   9  11
ENDBRANCH   7   9
ENDBRANCH   6   7
ENDBRANCH   5   6
ENDBRANCH   4   5
ENDBRANCH   3   4
ENDBRANCH   2   3
ENDBRANCH   1   2
BRANCH   1  25
ATOM     25  O   UNL A   1      39.978  20.564  26.110  1.00  0.00    -0.377 OA
BRANCH  25  26
ATOM     26  C   UNL A   1      41.278  20.900  26.596  1.00  0.00     0.188 C 
BRANCH  26  27
ATOM     27  C   UNL A   1      42.036  22.009  25.865  1.00  0.00     0.188 C 
BRANCH  27  28
ATOM     28  O   UNL A   1      43.115  21.615  25.011  1.00  0.00    -0.376 OA
BRANCH  28  29
ATOM     29  C   UNL A   1      44.323  21.138  25.599  1.00  0.00     0.202 C 
BRANCH  29  30
ATOM     30  C   UNL A   1      45.463  22.153  25.621  1.00  0.00     0.261 C 
BRANCH  30  31
ATOM     31  O   UNL A   1      45.142  23.301  26.417  1.00  0.00    -0.460 OA
BRANCH  31  32
ATOM     32  C   UNL A   1      44.949  24.442  25.714  1.00  0.00     0.338 C 
ATOM     33  O   UNL A   1      45.328  24.699  24.588  1.00  0.00    -0.246 OA
BRANCH  32  34
ATOM     34  C   UNL A   1      44.068  25.335  26.484  1.00  0.00     0.060 A 
ATOM     35  C   UNL A   1      44.315  26.713  26.437  1.00  0.00     0.016 A 
ATOM     36  C   UNL A   1      43.075  24.813  27.315  1.00  0.00     0.016 A 
ATOM     37  C   UNL A   1      43.604  27.573  27.269  1.00  0.00     0.010 A 
ATOM     38  C   UNL A   1      42.374  25.671  28.157  1.00  0.00     0.010 A 
ATOM     39  C   UNL A   1      42.672  27.045  28.168  1.00  0.00    -0.014 A 
BRANCH  39  40
ATOM     40  C   UNL A   1      42.156  27.892  29.262  1.00  0.00     0.031 A 
ATOM     41  C   UNL A   1      42.878  27.869  30.580  1.00  0.00     0.074 A 
ATOM     42  C   UNL A   1      41.075  28.666  29.080  1.00  0.00     0.049 A 
ATOM     43  N   UNL A   1      42.568  28.451  31.708  1.00  0.00    -0.248 NA
ATOM     44  C   UNL A   1      44.116  27.071  30.631  1.00  0.00     0.031 C 
ATOM     45  C   UNL A   1      40.330  28.795  27.829  1.00  0.00     0.029 A 
ATOM     46  N   UNL A   1      40.409  29.478  29.958  1.00  0.00    -0.354 N 
ATOM     47  C   UNL A   1      43.564  28.084  32.604  1.00  0.00     0.074 A 
ATOM     48  C   UNL A   1      44.468  27.201  31.901  1.00  0.00     0.031 C 
ATOM     49  C   UNL A   1      39.292  29.623  28.027  1.00  0.00     0.029 A 
ATOM     50  C   UNL A   1      39.282  30.049  29.425  1.00  0.00     0.049 A 
ATOM     51  H   UNL A   1      40.710  29.637  30.882  1.00  0.00     0.167 HD
ATOM     52  C   UNL A   1      43.711  28.458  33.896  1.00  0.00     0.037 A 
ATOM     53  C   UNL A   1      38.335  30.804  30.014  1.00  0.00     0.037 A 
ATOM     54  C   UNL A   1      42.799  29.331  34.583  1.00  0.00     0.049 A 
ATOM     55  C   UNL A   1      38.479  31.144  31.475  1.00  0.00     0.074 A 
ATOM     56  C   UNL A   1      42.854  29.785  35.890  1.00  0.00     0.029 A 
ATOM     57  N   UNL A   1      41.655  29.876  34.017  1.00  0.00    -0.354 N 
ATOM     58  N   UNL A   1      39.431  30.809  32.315  1.00  0.00    -0.248 NA
ATOM     59  C   UNL A   1      37.419  31.969  32.069  1.00  0.00     0.031 C 
ATOM     60  C   UNL A   1      41.714  30.559  36.130  1.00  0.00     0.029 A 
ATOM     61  C   UNL A   1      40.982  30.641  34.955  1.00  0.00     0.049 A 
ATOM     62  H   UNL A   1      41.365  29.740  33.086  1.00  0.00     0.167 HD
ATOM     63  C   UNL A   1      39.101  31.409  33.524  1.00  0.00     0.074 A 
ATOM     64  C   UNL A   1      37.868  32.137  33.304  1.00  0.00     0.031 C 
ATOM     65  C   UNL A   1      39.759  31.364  34.710  1.00  0.00     0.037 A 
BRANCH  52  66
ATOM     66  C   UNL A   1      44.883  27.897  34.651  1.00  0.00     0.057 A 
ATOM     67  C   UNL A   1      44.805  26.686  35.352  1.00  0.00     0.134 A 
ATOM     68  C   UNL A   1      46.112  28.567  34.660  1.00  0.00     0.134 A 
ATOM     69  F   UNL A   1      43.653  25.999  35.400  1.00  0.00    -0.206 F 
ATOM     70  C   UNL A   1      45.898  26.177  36.058  1.00  0.00     0.040 A 
ATOM     71  C   UNL A   1      47.220  28.055  35.338  1.00  0.00     0.040 A 
ATOM     72  F   UNL A   1      46.258  29.731  34.009  1.00  0.00    -0.206 F 
ATOM     73  C   UNL A   1      47.112  26.860  36.045  1.00  0.00     0.006 A 
ENDBRANCH  52  66
BRANCH  53  74
ATOM     74  C   UNL A   1      37.165  31.272  29.232  1.00  0.00     0.057 A 
ATOM     75  C   UNL A   1      37.108  32.570  28.713  1.00  0.00     0.134 A 
ATOM     76  C   UNL A   1      36.067  30.435  28.993  1.00  0.00     0.134 A 
ATOM     77  F   UNL A   1      38.120  33.425  28.924  1.00  0.00    -0.206 F 
ATOM     78  C   UNL A   1      35.997  33.027  28.003  1.00  0.00     0.040 A 
ATOM     79  C   UNL A   1      34.961  30.870  28.260  1.00  0.00     0.040 A 
ATOM     80  F   UNL A   1      36.058  29.177  29.457  1.00  0.00    -0.206 F 
ATOM     81  C   UNL A   1      34.921  32.173  27.770  1.00  0.00     0.006 A 
ENDBRANCH  53  74
BRANCH  65  82
ATOM     82  C   UNL A   1      39.182  32.159  35.846  1.00  0.00     0.057 A 
ATOM     83  C   UNL A   1      39.506  33.505  36.052  1.00  0.00     0.134 A 
ATOM     84  C   UNL A   1      38.252  31.577  36.718  1.00  0.00     0.134 A 
ATOM     85  F   UNL A   1      40.397  34.120  35.259  1.00  0.00    -0.206 F 
ATOM     86  C   UNL A   1      38.948  34.237  37.102  1.00  0.00     0.040 A 
ATOM     87  C   UNL A   1      37.664  32.308  37.752  1.00  0.00     0.040 A 
ATOM     88  F   UNL A   1      37.888  30.295  36.570  1.00  0.00    -0.206 F 
ATOM     89  C   UNL A   1      38.018  33.639  37.951  1.00  0.00     0.006 A 
ENDBRANCH  65  82
ENDBRANCH  39  40
ENDBRANCH  32  34
ENDBRANCH  31  32
ENDBRANCH  30  31
ENDBRANCH  29  30
ENDBRANCH  28  29
ENDBRANCH  27  28
ENDBRANCH  26  27
ENDBRANCH  25  26
ENDBRANCH   1  25
TORSDOF 24
ENDMDL
