MODEL 1
REMARK VINA RESULT:     -10.1      0.000      0.000
REMARK SMILES Cc1ccc(S(=O)(=O)n2cc(C(=O)C(=O)NCC(=O)OCCOCCOCCOCCOC(=O)c3ccc(-c4c5nc(c(-c6c(F)cccc6F)c6ccc([nH]6)c(-c6c(F)cccc6F)c6nc(c(-c7c(F)cccc7F)c7ccc4[nH]7)C=C6)C=C5)cc3)c3ccccc32)cc1
REMARK SMILES IDX 24 1 23 2 22 3 21 4 20 5 18 6 19 7 17 8 16 9 14 10 15 11
REMARK SMILES IDX 12 13 13 14 11 15 9 16 10 17 94 18 89 19 93 20 90 21 92 22
REMARK SMILES IDX 91 23 6 24 7 25 8 26 5 27 1 28 2 29 3 30 96 31 4 32 95 33
REMARK SMILES IDX 25 34 26 35 27 36 28 37 29 38 30 39 31 40 32 41 33 42 34 43
REMARK SMILES IDX 35 44 36 45 88 46 37 47 87 48 38 49 39 50 40 51 81 52 41 53
REMARK SMILES IDX 86 54 80 55 82 56 42 57 85 58 79 59 78 60 43 62 69 63 52 64
REMARK SMILES IDX 68 65 53 66 56 67 67 68 83 69 54 70 55 71 66 73 84 74 57 75
REMARK SMILES IDX 44 76 45 77 50 78 46 79 47 80 49 81 51 82 48 83 70 84 71 85
REMARK SMILES IDX 76 86 72 87 73 88 75 89 77 90 74 91 58 92 59 93 64 94 60 95
REMARK SMILES IDX 61 96 63 97 65 98 62 99
REMARK H PARENT 16 12 82 61 56 72
REMARK Flexibility Score: inf
ROOT
ATOM      1  C   UNL A   1      33.926  34.324  28.266  1.00  0.00     0.188 C 
ENDROOT
BRANCH   1   2
ATOM      2  O   UNL A   1      33.477  33.314  27.371  1.00  0.00    -0.376 OA
BRANCH   2   3
ATOM      3  C   UNL A   1      32.063  33.126  27.301  1.00  0.00     0.202 C 
BRANCH   3   4
ATOM      4  C   UNL A   1      31.594  31.882  26.551  1.00  0.00     0.261 C 
BRANCH   4   5
ATOM      5  O   UNL A   1      32.037  30.711  27.256  1.00  0.00    -0.462 OA
BRANCH   5   6
ATOM      6  C   UNL A   1      32.971  29.954  26.637  1.00  0.00     0.325 C 
ATOM      7  O   UNL A   1      34.177  30.008  26.848  1.00  0.00    -0.250 OA
BRANCH   6   8
ATOM      8  C   UNL A   1      32.342  28.972  25.645  1.00  0.00     0.239 C 
BRANCH   8   9
ATOM      9  N   UNL A   1      32.347  29.389  24.240  1.00  0.00    -0.338 N 
ATOM     10  C   UNL A   1      31.882  28.797  23.093  1.00  0.00     0.292 C 
ATOM     11  O   UNL A   1      31.976  29.384  22.018  1.00  0.00    -0.265 OA
ATOM     12  H   UNL A   1      32.765  30.268  24.090  1.00  0.00     0.164 HD
BRANCH  10  13
ATOM     13  C   UNL A   1      31.180  27.443  23.164  1.00  0.00     0.252 C 
ATOM     14  O   UNL A   1      30.046  27.372  22.692  1.00  0.00    -0.283 OA
BRANCH  13  15
ATOM     15  C   UNL A   1      31.846  26.260  23.727  1.00  0.00     0.054 A 
ATOM     16  N   UNL A   1      33.272  24.588  24.152  1.00  0.00    -0.240 N 
ATOM     17  C   UNL A   1      33.035  25.665  23.330  1.00  0.00     0.117 A 
ATOM     18  C   UNL A   1      32.256  24.431  25.070  1.00  0.00     0.065 A 
ATOM     19  C   UNL A   1      31.348  25.467  24.817  1.00  0.00     0.012 A 
ATOM     20  C   UNL A   1      32.021  23.473  26.073  1.00  0.00     0.028 A 
ATOM     21  C   UNL A   1      30.173  25.542  25.596  1.00  0.00     0.011 A 
ATOM     22  C   UNL A   1      30.834  23.561  26.806  1.00  0.00     0.002 A 
ATOM     23  C   UNL A   1      29.922  24.582  26.574  1.00  0.00     0.001 A 
BRANCH  16  24
ATOM     24  S   UNL A   1      34.582  23.512  23.946  1.00  0.00     0.268 S 
ATOM     25  O   UNL A   1      35.392  23.670  25.152  1.00  0.00    -0.201 OA
ATOM     26  O   UNL A   1      35.112  23.763  22.631  1.00  0.00    -0.201 OA
BRANCH  24  27
ATOM     27  C   UNL A   1      33.937  21.856  23.958  1.00  0.00     0.088 A 
ATOM     28  C   UNL A   1      32.369  17.865  24.342  1.00  0.00     0.044 C 
ATOM     29  C   UNL A   1      32.928  19.250  24.186  1.00  0.00    -0.051 A 
ATOM     30  C   UNL A   1      34.081  19.624  24.886  1.00  0.00     0.005 A 
ATOM     31  C   UNL A   1      32.307  20.183  23.348  1.00  0.00     0.005 A 
ATOM     32  C   UNL A   1      34.583  20.924  24.780  1.00  0.00     0.022 A 
ATOM     33  C   UNL A   1      32.814  21.479  23.220  1.00  0.00     0.022 A 
ENDBRANCH  24  27
ENDBRANCH  16  24
ENDBRANCH  13  15
ENDBRANCH  10  13
ENDBRANCH   8   9
ENDBRANCH   6   8
ENDBRANCH   5   6
ENDBRANCH   4   5
ENDBRANCH   3   4
ENDBRANCH   2   3
ENDBRANCH   1   2
BRANCH   1  34
ATOM     34  C   UNL A   1      34.481  33.900  29.634  1.00  0.00     0.188 C 
BRANCH  34  35
ATOM     35  O   UNL A   1      33.702  34.286  30.748  1.00  0.00    -0.377 OA
BRANCH  35  36
ATOM     36  C   UNL A   1      34.366  34.535  31.989  1.00  0.00     0.188 C 
BRANCH  36  37
ATOM     37  C   UNL A   1      34.679  33.378  32.935  1.00  0.00     0.188 C 
BRANCH  37  38
ATOM     38  O   UNL A   1      35.914  32.793  32.527  1.00  0.00    -0.376 OA
BRANCH  38  39
ATOM     39  C   UNL A   1      35.900  31.389  32.289  1.00  0.00     0.202 C 
BRANCH  39  40
ATOM     40  C   UNL A   1      36.424  31.007  30.903  1.00  0.00     0.261 C 
BRANCH  40  41
ATOM     41  O   UNL A   1      37.857  31.177  30.875  1.00  0.00    -0.460 OA
BRANCH  41  42
ATOM     42  C   UNL A   1      38.422  31.096  29.639  1.00  0.00     0.338 C 
ATOM     43  O   UNL A   1      38.008  31.662  28.639  1.00  0.00    -0.246 OA
BRANCH  42  44
ATOM     44  C   UNL A   1      39.430  29.992  29.600  1.00  0.00     0.060 A 
ATOM     45  C   UNL A   1      40.434  29.928  30.582  1.00  0.00     0.016 A 
ATOM     46  C   UNL A   1      39.604  29.305  28.409  1.00  0.00     0.016 A 
ATOM     47  C   UNL A   1      41.689  29.367  30.281  1.00  0.00     0.010 A 
ATOM     48  C   UNL A   1      40.879  28.894  28.078  1.00  0.00     0.010 A 
ATOM     49  C   UNL A   1      41.957  28.947  28.982  1.00  0.00    -0.014 A 
BRANCH  49  50
ATOM     50  C   UNL A   1      43.284  28.661  28.381  1.00  0.00     0.031 A 
ATOM     51  C   UNL A   1      44.068  29.824  27.836  1.00  0.00     0.074 A 
ATOM     52  C   UNL A   1      43.923  27.487  28.645  1.00  0.00     0.049 A 
ATOM     53  N   UNL A   1      45.322  29.810  27.543  1.00  0.00    -0.248 NA
ATOM     54  C   UNL A   1      43.483  31.146  27.604  1.00  0.00     0.031 C 
ATOM     55  C   UNL A   1      45.368  27.297  28.821  1.00  0.00     0.029 A 
ATOM     56  N   UNL A   1      43.435  26.208  28.885  1.00  0.00    -0.354 N 
ATOM     57  C   UNL A   1      45.764  31.101  27.319  1.00  0.00     0.074 A 
ATOM     58  C   UNL A   1      44.563  31.894  27.351  1.00  0.00     0.031 C 
ATOM     59  C   UNL A   1      45.670  26.013  29.046  1.00  0.00     0.029 A 
ATOM     60  C   UNL A   1      44.483  25.273  28.731  1.00  0.00     0.049 A 
ATOM     61  H   UNL A   1      42.506  25.987  29.124  1.00  0.00     0.167 HD
ATOM     62  C   UNL A   1      47.111  31.320  27.209  1.00  0.00     0.037 A 
ATOM     63  C   UNL A   1      44.453  24.360  27.715  1.00  0.00     0.037 A 
ATOM     64  C   UNL A   1      47.818  30.036  27.062  1.00  0.00     0.049 A 
ATOM     65  C   UNL A   1      45.480  24.684  26.631  1.00  0.00     0.074 A 
ATOM     66  C   UNL A   1      48.809  29.366  27.761  1.00  0.00     0.029 A 
ATOM     67  N   UNL A   1      47.353  29.133  26.105  1.00  0.00    -0.354 N 
ATOM     68  N   UNL A   1      45.973  25.886  26.430  1.00  0.00    -0.248 NA
ATOM     69  C   UNL A   1      46.143  23.682  25.798  1.00  0.00     0.031 C 
ATOM     70  C   UNL A   1      48.868  28.030  27.272  1.00  0.00     0.029 A 
ATOM     71  C   UNL A   1      47.974  27.913  26.219  1.00  0.00     0.049 A 
ATOM     72  H   UNL A   1      46.667  29.345  25.432  1.00  0.00     0.167 HD
ATOM     73  C   UNL A   1      47.007  25.827  25.530  1.00  0.00     0.074 A 
ATOM     74  C   UNL A   1      47.058  24.428  25.150  1.00  0.00     0.031 C 
ATOM     75  C   UNL A   1      47.782  26.903  25.190  1.00  0.00     0.037 A 
BRANCH  62  76
ATOM     76  C   UNL A   1      47.857  32.653  27.340  1.00  0.00     0.057 A 
ATOM     77  C   UNL A   1      47.559  33.733  26.474  1.00  0.00     0.134 A 
ATOM     78  C   UNL A   1      48.932  32.928  28.209  1.00  0.00     0.134 A 
ATOM     79  F   UNL A   1      46.535  33.686  25.613  1.00  0.00    -0.206 F 
ATOM     80  C   UNL A   1      48.291  34.934  26.436  1.00  0.00     0.040 A 
ATOM     81  C   UNL A   1      49.647  34.143  28.211  1.00  0.00     0.040 A 
ATOM     82  F   UNL A   1      49.381  32.041  29.098  1.00  0.00    -0.206 F 
ATOM     83  C   UNL A   1      49.342  35.145  27.308  1.00  0.00     0.006 A 
ENDBRANCH  62  76
BRANCH  63  84
ATOM     84  C   UNL A   1      43.095  23.722  27.663  1.00  0.00     0.057 A 
ATOM     85  C   UNL A   1      42.488  23.836  26.389  1.00  0.00     0.134 A 
ATOM     86  C   UNL A   1      42.880  22.519  28.351  1.00  0.00     0.134 A 
ATOM     87  F   UNL A   1      42.614  24.977  25.691  1.00  0.00    -0.206 F 
ATOM     88  C   UNL A   1      42.012  22.712  25.702  1.00  0.00     0.040 A 
ATOM     89  C   UNL A   1      42.358  21.398  27.682  1.00  0.00     0.040 A 
ATOM     90  F   UNL A   1      43.388  22.337  29.577  1.00  0.00    -0.206 F 
ATOM     91  C   UNL A   1      42.006  21.473  26.331  1.00  0.00     0.006 A 
ENDBRANCH  63  84
BRANCH  75  92
ATOM     92  C   UNL A   1      48.489  27.128  23.859  1.00  0.00     0.057 A 
ATOM     93  C   UNL A   1      47.938  27.823  22.775  1.00  0.00     0.134 A 
ATOM     94  C   UNL A   1      49.871  26.822  23.704  1.00  0.00     0.134 A 
ATOM     95  F   UNL A   1      46.677  28.270  22.784  1.00  0.00    -0.206 F 
ATOM     96  C   UNL A   1      48.678  28.156  21.630  1.00  0.00     0.040 A 
ATOM     97  C   UNL A   1      50.632  27.203  22.596  1.00  0.00     0.040 A 
ATOM     98  F   UNL A   1      50.577  26.174  24.641  1.00  0.00    -0.206 F 
ATOM     99  C   UNL A   1      50.032  27.866  21.545  1.00  0.00     0.006 A 
ENDBRANCH  75  92
ENDBRANCH  49  50
ENDBRANCH  42  44
ENDBRANCH  41  42
ENDBRANCH  40  41
ENDBRANCH  39  40
ENDBRANCH  38  39
ENDBRANCH  37  38
ENDBRANCH  36  37
ENDBRANCH  35  36
ENDBRANCH  34  35
ENDBRANCH   1  34
TORSDOF 25
ENDMDL
MODEL 2
REMARK VINA RESULT:      -9.9      4.859     10.684
REMARK SMILES Cc1ccc(S(=O)(=O)n2cc(C(=O)C(=O)NCC(=O)OCCOCCOCCOCCOC(=O)c3ccc(-c4c5nc(c(-c6c(F)cccc6F)c6ccc([nH]6)c(-c6c(F)cccc6F)c6nc(c(-c7c(F)cccc7F)c7ccc4[nH]7)C=C6)C=C5)cc3)c3ccccc32)cc1
REMARK SMILES IDX 24 1 23 2 22 3 21 4 20 5 18 6 19 7 17 8 16 9 14 10 15 11
REMARK SMILES IDX 12 13 13 14 11 15 9 16 10 17 94 18 89 19 93 20 90 21 92 22
REMARK SMILES IDX 91 23 6 24 7 25 8 26 5 27 1 28 2 29 3 30 96 31 4 32 95 33
REMARK SMILES IDX 25 34 26 35 27 36 28 37 29 38 30 39 31 40 32 41 33 42 34 43
REMARK SMILES IDX 35 44 36 45 88 46 37 47 87 48 38 49 39 50 40 51 81 52 41 53
REMARK SMILES IDX 86 54 80 55 82 56 42 57 85 58 79 59 78 60 43 62 69 63 52 64
REMARK SMILES IDX 68 65 53 66 56 67 67 68 83 69 54 70 55 71 66 73 84 74 57 75
REMARK SMILES IDX 44 76 45 77 50 78 46 79 47 80 49 81 51 82 48 83 70 84 71 85
REMARK SMILES IDX 76 86 72 87 73 88 75 89 77 90 74 91 58 92 59 93 64 94 60 95
REMARK SMILES IDX 61 96 63 97 65 98 62 99
REMARK H PARENT 16 12 82 61 56 72
REMARK Flexibility Score: inf
ROOT
ATOM      1  C   UNL A   1      41.287  19.981  26.085  1.00  0.00     0.188 C 
ENDROOT
BRANCH   1   2
ATOM      2  O   UNL A   1      41.445  21.366  26.369  1.00  0.00    -0.376 OA
BRANCH   2   3
ATOM      3  C   UNL A   1      41.139  21.767  27.705  1.00  0.00     0.202 C 
BRANCH   3   4
ATOM      4  C   UNL A   1      40.994  23.269  27.931  1.00  0.00     0.261 C 
BRANCH   4   5
ATOM      5  O   UNL A   1      39.609  23.633  27.812  1.00  0.00    -0.462 OA
BRANCH   5   6
ATOM      6  C   UNL A   1      39.223  24.151  26.624  1.00  0.00     0.325 C 
ATOM      7  O   UNL A   1      39.883  24.929  25.945  1.00  0.00    -0.250 OA
BRANCH   6   8
ATOM      8  C   UNL A   1      37.854  23.621  26.190  1.00  0.00     0.239 C 
BRANCH   8   9
ATOM      9  N   UNL A   1      37.623  23.552  24.744  1.00  0.00    -0.338 N 
ATOM     10  C   UNL A   1      36.526  23.210  23.993  1.00  0.00     0.292 C 
ATOM     11  O   UNL A   1      36.578  23.270  22.768  1.00  0.00    -0.265 OA
ATOM     12  H   UNL A   1      38.408  23.799  24.206  1.00  0.00     0.164 HD
BRANCH  10  13
ATOM     13  C   UNL A   1      35.217  22.830  24.684  1.00  0.00     0.252 C 
ATOM     14  O   UNL A   1      35.038  21.639  24.931  1.00  0.00    -0.283 OA
BRANCH  13  15
ATOM     15  C   UNL A   1      34.235  23.848  25.083  1.00  0.00     0.054 A 
ATOM     16  N   UNL A   1      33.202  25.774  25.564  1.00  0.00    -0.240 N 
ATOM     17  C   UNL A   1      34.392  25.225  25.147  1.00  0.00     0.117 A 
ATOM     18  C   UNL A   1      32.263  24.796  25.808  1.00  0.00     0.065 A 
ATOM     19  C   UNL A   1      32.892  23.579  25.518  1.00  0.00     0.012 A 
ATOM     20  C   UNL A   1      30.940  24.847  26.284  1.00  0.00     0.028 A 
ATOM     21  C   UNL A   1      32.170  22.382  25.709  1.00  0.00     0.011 A 
ATOM     22  C   UNL A   1      30.264  23.641  26.488  1.00  0.00     0.002 A 
ATOM     23  C   UNL A   1      30.868  22.423  26.203  1.00  0.00     0.001 A 
BRANCH  16  24
ATOM     24  S   UNL A   1      32.988  27.440  25.876  1.00  0.00     0.268 S 
ATOM     25  O   UNL A   1      34.297  28.041  25.632  1.00  0.00    -0.201 OA
ATOM     26  O   UNL A   1      32.330  27.533  27.154  1.00  0.00    -0.201 OA
BRANCH  24  27
ATOM     27  C   UNL A   1      31.874  28.086  24.651  1.00  0.00     0.088 A 
ATOM     28  C   UNL A   1      29.348  29.962  21.712  1.00  0.00     0.044 C 
ATOM     29  C   UNL A   1      30.210  29.293  22.745  1.00  0.00    -0.051 A 
ATOM     30  C   UNL A   1      30.387  29.883  24.001  1.00  0.00     0.005 A 
ATOM     31  C   UNL A   1      30.847  28.078  22.466  1.00  0.00     0.005 A 
ATOM     32  C   UNL A   1      31.221  29.288  24.951  1.00  0.00     0.022 A 
ATOM     33  C   UNL A   1      31.667  27.465  23.418  1.00  0.00     0.022 A 
ENDBRANCH  24  27
ENDBRANCH  16  24
ENDBRANCH  13  15
ENDBRANCH  10  13
ENDBRANCH   8   9
ENDBRANCH   6   8
ENDBRANCH   5   6
ENDBRANCH   4   5
ENDBRANCH   3   4
ENDBRANCH   2   3
ENDBRANCH   1   2
BRANCH   1  34
ATOM     34  C   UNL A   1      42.359  19.002  26.584  1.00  0.00     0.188 C 
BRANCH  34  35
ATOM     35  O   UNL A   1      43.640  19.163  26.008  1.00  0.00    -0.377 OA
BRANCH  35  36
ATOM     36  C   UNL A   1      43.946  20.404  25.369  1.00  0.00     0.188 C 
BRANCH  36  37
ATOM     37  C   UNL A   1      45.288  20.592  24.666  1.00  0.00     0.188 C 
BRANCH  37  38
ATOM     38  O   UNL A   1      46.131  21.365  25.517  1.00  0.00    -0.376 OA
BRANCH  38  39
ATOM     39  C   UNL A   1      45.519  22.468  26.180  1.00  0.00     0.202 C 
BRANCH  39  40
ATOM     40  C   UNL A   1      45.873  23.819  25.556  1.00  0.00     0.261 C 
BRANCH  40  41
ATOM     41  O   UNL A   1      46.436  24.676  26.572  1.00  0.00    -0.460 OA
BRANCH  41  42
ATOM     42  C   UNL A   1      45.759  25.838  26.786  1.00  0.00     0.338 C 
ATOM     43  O   UNL A   1      45.810  26.822  26.065  1.00  0.00    -0.246 OA
BRANCH  42  44
ATOM     44  C   UNL A   1      45.188  25.860  28.167  1.00  0.00     0.060 A 
ATOM     45  C   UNL A   1      43.881  25.394  28.390  1.00  0.00     0.016 A 
ATOM     46  C   UNL A   1      45.781  26.687  29.108  1.00  0.00     0.016 A 
ATOM     47  C   UNL A   1      43.101  25.931  29.432  1.00  0.00     0.010 A 
ATOM     48  C   UNL A   1      44.964  27.312  30.029  1.00  0.00     0.010 A 
ATOM     49  C   UNL A   1      43.605  26.983  30.190  1.00  0.00    -0.014 A 
BRANCH  49  50
ATOM     50  C   UNL A   1      42.846  27.902  31.075  1.00  0.00     0.031 A 
ATOM     51  C   UNL A   1      41.904  28.879  30.424  1.00  0.00     0.074 A 
ATOM     52  C   UNL A   1      42.714  27.631  32.404  1.00  0.00     0.049 A 
ATOM     53  N   UNL A   1      40.978  29.541  31.024  1.00  0.00    -0.248 NA
ATOM     54  C   UNL A   1      41.916  29.167  28.988  1.00  0.00     0.031 C 
ATOM     55  C   UNL A   1      41.532  27.883  33.237  1.00  0.00     0.029 A 
ATOM     56  N   UNL A   1      43.571  27.008  33.304  1.00  0.00    -0.354 N 
ATOM     57  C   UNL A   1      40.149  30.137  30.092  1.00  0.00     0.074 A 
ATOM     58  C   UNL A   1      40.798  29.884  28.832  1.00  0.00     0.031 C 
ATOM     59  C   UNL A   1      41.741  27.520  34.507  1.00  0.00     0.029 A 
ATOM     60  C   UNL A   1      43.153  27.299  34.622  1.00  0.00     0.049 A 
ATOM     61  H   UNL A   1      44.346  26.452  33.063  1.00  0.00     0.167 HD
ATOM     62  C   UNL A   1      38.980  30.703  30.525  1.00  0.00     0.037 A 
ATOM     63  C   UNL A   1      43.936  28.059  35.445  1.00  0.00     0.037 A 
ATOM     64  C   UNL A   1      38.990  30.814  31.994  1.00  0.00     0.049 A 
ATOM     65  C   UNL A   1      43.345  29.450  35.664  1.00  0.00     0.074 A 
ATOM     66  C   UNL A   1      38.194  30.345  33.027  1.00  0.00     0.029 A 
ATOM     67  N   UNL A   1      40.107  31.384  32.605  1.00  0.00    -0.354 N 
ATOM     68  N   UNL A   1      42.503  30.023  34.833  1.00  0.00    -0.248 NA
ATOM     69  C   UNL A   1      43.524  30.240  36.881  1.00  0.00     0.031 C 
ATOM     70  C   UNL A   1      38.890  30.561  34.252  1.00  0.00     0.029 A 
ATOM     71  C   UNL A   1      40.066  31.237  33.970  1.00  0.00     0.049 A 
ATOM     72  H   UNL A   1      40.834  31.836  32.118  1.00  0.00     0.167 HD
ATOM     73  C   UNL A   1      42.000  31.173  35.389  1.00  0.00     0.074 A 
ATOM     74  C   UNL A   1      42.688  31.273  36.662  1.00  0.00     0.031 C 
ATOM     75  C   UNL A   1      41.028  31.939  34.804  1.00  0.00     0.037 A 
BRANCH  62  76
ATOM     76  C   UNL A   1      37.751  31.072  29.686  1.00  0.00     0.057 A 
ATOM     77  C   UNL A   1      36.785  30.092  29.354  1.00  0.00     0.134 A 
ATOM     78  C   UNL A   1      37.490  32.322  29.091  1.00  0.00     0.134 A 
ATOM     79  F   UNL A   1      36.828  28.855  29.867  1.00  0.00    -0.206 F 
ATOM     80  C   UNL A   1      35.709  30.316  28.476  1.00  0.00     0.040 A 
ATOM     81  C   UNL A   1      36.392  32.572  28.242  1.00  0.00     0.040 A 
ATOM     82  F   UNL A   1      38.283  33.380  29.265  1.00  0.00    -0.206 F 
ATOM     83  C   UNL A   1      35.506  31.562  27.914  1.00  0.00     0.006 A 
ENDBRANCH  62  76
BRANCH  63  84
ATOM     84  C   UNL A   1      45.350  27.559  35.383  1.00  0.00     0.057 A 
ATOM     85  C   UNL A   1      46.261  28.552  34.949  1.00  0.00     0.134 A 
ATOM     86  C   UNL A   1      45.809  26.684  36.378  1.00  0.00     0.134 A 
ATOM     87  F   UNL A   1      45.906  29.397  33.966  1.00  0.00    -0.206 F 
ATOM     88  C   UNL A   1      47.399  28.879  35.697  1.00  0.00     0.040 A 
ATOM     89  C   UNL A   1      46.977  26.978  37.103  1.00  0.00     0.040 A 
ATOM     90  F   UNL A   1      45.027  25.692  36.824  1.00  0.00    -0.206 F 
ATOM     91  C   UNL A   1      47.723  28.126  36.819  1.00  0.00     0.006 A 
ENDBRANCH  63  84
BRANCH  75  92
ATOM     92  C   UNL A   1      40.836  33.442  34.969  1.00  0.00     0.057 A 
ATOM     93  C   UNL A   1      40.070  34.038  35.979  1.00  0.00     0.134 A 
ATOM     94  C   UNL A   1      41.613  34.365  34.214  1.00  0.00     0.134 A 
ATOM     95  F   UNL A   1      39.347  33.317  36.842  1.00  0.00    -0.206 F 
ATOM     96  C   UNL A   1      40.052  35.424  36.201  1.00  0.00     0.040 A 
ATOM     97  C   UNL A   1      41.650  35.739  34.467  1.00  0.00     0.040 A 
ATOM     98  F   UNL A   1      42.420  33.983  33.215  1.00  0.00    -0.206 F 
ATOM     99  C   UNL A   1      40.857  36.277  35.460  1.00  0.00     0.006 A 
ENDBRANCH  75  92
ENDBRANCH  49  50
ENDBRANCH  42  44
ENDBRANCH  41  42
ENDBRANCH  40  41
ENDBRANCH  39  40
ENDBRANCH  38  39
ENDBRANCH  37  38
ENDBRANCH  36  37
ENDBRANCH  35  36
ENDBRANCH  34  35
ENDBRANCH   1  34
TORSDOF 25
ENDMDL
MODEL 3
REMARK VINA RESULT:      -9.9      5.519     10.501
REMARK SMILES Cc1ccc(S(=O)(=O)n2cc(C(=O)C(=O)NCC(=O)OCCOCCOCCOCCOC(=O)c3ccc(-c4c5nc(c(-c6c(F)cccc6F)c6ccc([nH]6)c(-c6c(F)cccc6F)c6nc(c(-c7c(F)cccc7F)c7ccc4[nH]7)C=C6)C=C5)cc3)c3ccccc32)cc1
REMARK SMILES IDX 24 1 23 2 22 3 21 4 20 5 18 6 19 7 17 8 16 9 14 10 15 11
REMARK SMILES IDX 12 13 13 14 11 15 9 16 10 17 94 18 89 19 93 20 90 21 92 22
REMARK SMILES IDX 91 23 6 24 7 25 8 26 5 27 1 28 2 29 3 30 96 31 4 32 95 33
REMARK SMILES IDX 25 34 26 35 27 36 28 37 29 38 30 39 31 40 32 41 33 42 34 43
REMARK SMILES IDX 35 44 36 45 88 46 37 47 87 48 38 49 39 50 40 51 81 52 41 53
REMARK SMILES IDX 86 54 80 55 82 56 42 57 85 58 79 59 78 60 43 62 69 63 52 64
REMARK SMILES IDX 68 65 53 66 56 67 67 68 83 69 54 70 55 71 66 73 84 74 57 75
REMARK SMILES IDX 44 76 45 77 50 78 46 79 47 80 49 81 51 82 48 83 70 84 71 85
REMARK SMILES IDX 76 86 72 87 73 88 75 89 77 90 74 91 58 92 59 93 64 94 60 95
REMARK SMILES IDX 61 96 63 97 65 98 62 99
REMARK H PARENT 16 12 82 61 56 72
REMARK Flexibility Score: inf
ROOT
ATOM      1  C   UNL A   1      41.989  19.185  25.747  1.00  0.00     0.188 C 
ENDROOT
BRANCH   1   2
ATOM      2  O   UNL A   1      41.802  20.573  25.996  1.00  0.00    -0.376 OA
BRANCH   2   3
ATOM      3  C   UNL A   1      41.102  20.902  27.197  1.00  0.00     0.202 C 
BRANCH   3   4
ATOM      4  C   UNL A   1      40.792  22.382  27.402  1.00  0.00     0.261 C 
BRANCH   4   5
ATOM      5  O   UNL A   1      39.378  22.592  27.262  1.00  0.00    -0.462 OA
BRANCH   5   6
ATOM      6  C   UNL A   1      38.999  23.725  26.630  1.00  0.00     0.325 C 
ATOM      7  O   UNL A   1      39.678  24.741  26.532  1.00  0.00    -0.250 OA
BRANCH   6   8
ATOM      8  C   UNL A   1      37.608  23.589  26.003  1.00  0.00     0.239 C 
BRANCH   8   9
ATOM      9  N   UNL A   1      37.577  23.319  24.564  1.00  0.00    -0.338 N 
ATOM     10  C   UNL A   1      36.573  22.939  23.710  1.00  0.00     0.292 C 
ATOM     11  O   UNL A   1      36.802  22.810  22.511  1.00  0.00    -0.265 OA
ATOM     12  H   UNL A   1      38.449  23.431  24.122  1.00  0.00     0.164 HD
BRANCH  10  13
ATOM     13  C   UNL A   1      35.152  22.752  24.240  1.00  0.00     0.252 C 
ATOM     14  O   UNL A   1      34.913  21.714  24.853  1.00  0.00    -0.283 OA
BRANCH  13  15
ATOM     15  C   UNL A   1      34.125  23.790  24.069  1.00  0.00     0.054 A 
ATOM     16  N   UNL A   1      32.931  25.542  23.355  1.00  0.00    -0.240 N 
ATOM     17  C   UNL A   1      34.087  24.827  23.148  1.00  0.00     0.117 A 
ATOM     18  C   UNL A   1      32.209  25.027  24.410  1.00  0.00     0.065 A 
ATOM     19  C   UNL A   1      32.944  23.929  24.875  1.00  0.00     0.012 A 
ATOM     20  C   UNL A   1      31.009  25.425  25.026  1.00  0.00     0.028 A 
ATOM     21  C   UNL A   1      32.456  23.212  25.990  1.00  0.00     0.011 A 
ATOM     22  C   UNL A   1      30.570  24.710  26.143  1.00  0.00     0.002 A 
ATOM     23  C   UNL A   1      31.281  23.616  26.620  1.00  0.00     0.001 A 
BRANCH  16  24
ATOM     24  S   UNL A   1      32.536  26.969  22.502  1.00  0.00     0.268 S 
ATOM     25  O   UNL A   1      31.217  26.712  21.928  1.00  0.00    -0.201 OA
ATOM     26  O   UNL A   1      33.678  27.282  21.682  1.00  0.00    -0.201 OA
BRANCH  24  27
ATOM     27  C   UNL A   1      32.350  28.280  23.686  1.00  0.00     0.088 A 
ATOM     28  C   UNL A   1      31.595  31.305  26.655  1.00  0.00     0.044 C 
ATOM     29  C   UNL A   1      31.871  30.267  25.605  1.00  0.00    -0.051 A 
ATOM     30  C   UNL A   1      30.895  29.959  24.650  1.00  0.00     0.005 A 
ATOM     31  C   UNL A   1      33.098  29.595  25.568  1.00  0.00     0.005 A 
ATOM     32  C   UNL A   1      31.128  28.965  23.697  1.00  0.00     0.022 A 
ATOM     33  C   UNL A   1      33.347  28.614  24.605  1.00  0.00     0.022 A 
ENDBRANCH  24  27
ENDBRANCH  16  24
ENDBRANCH  13  15
ENDBRANCH  10  13
ENDBRANCH   8   9
ENDBRANCH   6   8
ENDBRANCH   5   6
ENDBRANCH   4   5
ENDBRANCH   3   4
ENDBRANCH   2   3
ENDBRANCH   1   2
BRANCH   1  34
ATOM     34  C   UNL A   1      43.160  18.467  26.434  1.00  0.00     0.188 C 
BRANCH  34  35
ATOM     35  O   UNL A   1      44.298  18.256  25.623  1.00  0.00    -0.377 OA
BRANCH  35  36
ATOM     36  C   UNL A   1      44.692  19.292  24.721  1.00  0.00     0.188 C 
BRANCH  36  37
ATOM     37  C   UNL A   1      46.161  19.458  24.342  1.00  0.00     0.188 C 
BRANCH  37  38
ATOM     38  O   UNL A   1      46.631  20.678  24.913  1.00  0.00    -0.376 OA
BRANCH  38  39
ATOM     39  C   UNL A   1      45.634  21.603  25.336  1.00  0.00     0.202 C 
BRANCH  39  40
ATOM     40  C   UNL A   1      45.758  22.972  24.666  1.00  0.00     0.261 C 
BRANCH  40  41
ATOM     41  O   UNL A   1      46.236  23.932  25.633  1.00  0.00    -0.460 OA
BRANCH  41  42
ATOM     42  C   UNL A   1      45.273  24.713  26.195  1.00  0.00     0.338 C 
ATOM     43  O   UNL A   1      44.837  25.745  25.710  1.00  0.00    -0.246 OA
BRANCH  42  44
ATOM     44  C   UNL A   1      45.039  24.309  27.615  1.00  0.00     0.060 A 
ATOM     45  C   UNL A   1      43.726  24.232  28.112  1.00  0.00     0.016 A 
ATOM     46  C   UNL A   1      46.094  24.408  28.507  1.00  0.00     0.016 A 
ATOM     47  C   UNL A   1      43.464  24.477  29.473  1.00  0.00     0.010 A 
ATOM     48  C   UNL A   1      45.815  24.791  29.804  1.00  0.00     0.010 A 
ATOM     49  C   UNL A   1      44.504  24.873  30.308  1.00  0.00    -0.014 A 
BRANCH  49  50
ATOM     50  C   UNL A   1      44.395  25.501  31.649  1.00  0.00     0.031 A 
ATOM     51  C   UNL A   1      43.944  26.935  31.713  1.00  0.00     0.074 A 
ATOM     52  C   UNL A   1      44.335  24.730  32.771  1.00  0.00     0.049 A 
ATOM     53  N   UNL A   1      43.530  27.544  32.769  1.00  0.00    -0.248 NA
ATOM     54  C   UNL A   1      43.893  27.812  30.542  1.00  0.00     0.031 C 
ATOM     55  C   UNL A   1      43.536  24.994  33.974  1.00  0.00     0.029 A 
ATOM     56  N   UNL A   1      44.913  23.503  33.075  1.00  0.00    -0.354 N 
ATOM     57  C   UNL A   1      42.959  28.753  32.419  1.00  0.00     0.074 A 
ATOM     58  C   UNL A   1      43.233  28.877  31.011  1.00  0.00     0.031 C 
ATOM     59  C   UNL A   1      43.722  24.050  34.903  1.00  0.00     0.029 A 
ATOM     60  C   UNL A   1      44.865  23.299  34.472  1.00  0.00     0.049 A 
ATOM     61  H   UNL A   1      45.294  22.874  32.421  1.00  0.00     0.167 HD
ATOM     62  C   UNL A   1      42.265  29.448  33.372  1.00  0.00     0.037 A 
ATOM     63  C   UNL A   1      46.017  23.258  35.206  1.00  0.00     0.037 A 
ATOM     64  C   UNL A   1      42.526  28.873  34.703  1.00  0.00     0.049 A 
ATOM     65  C   UNL A   1      46.186  24.509  36.067  1.00  0.00     0.074 A 
ATOM     66  C   UNL A   1      41.753  28.319  35.711  1.00  0.00     0.029 A 
ATOM     67  N   UNL A   1      43.851  28.651  35.076  1.00  0.00    -0.354 N 
ATOM     68  N   UNL A   1      45.607  25.659  35.802  1.00  0.00    -0.248 NA
ATOM     69  C   UNL A   1      46.879  24.537  37.353  1.00  0.00     0.031 C 
ATOM     70  C   UNL A   1      42.629  27.687  36.640  1.00  0.00     0.029 A 
ATOM     71  C   UNL A   1      43.933  27.931  36.244  1.00  0.00     0.049 A 
ATOM     72  H   UNL A   1      44.631  28.971  34.567  1.00  0.00     0.167 HD
ATOM     73  C   UNL A   1      45.785  26.528  36.849  1.00  0.00     0.074 A 
ATOM     74  C   UNL A   1      46.606  25.783  37.784  1.00  0.00     0.031 C 
ATOM     75  C   UNL A   1      45.217  27.773  36.909  1.00  0.00     0.037 A 
BRANCH  62  76
ATOM     76  C   UNL A   1      41.251  30.578  33.156  1.00  0.00     0.057 A 
ATOM     77  C   UNL A   1      41.689  31.909  32.954  1.00  0.00     0.134 A 
ATOM     78  C   UNL A   1      39.848  30.468  33.226  1.00  0.00     0.134 A 
ATOM     79  F   UNL A   1      42.985  32.212  32.805  1.00  0.00    -0.206 F 
ATOM     80  C   UNL A   1      40.826  33.019  32.889  1.00  0.00     0.040 A 
ATOM     81  C   UNL A   1      38.969  31.566  33.120  1.00  0.00     0.040 A 
ATOM     82  F   UNL A   1      39.229  29.304  33.423  1.00  0.00    -0.206 F 
ATOM     83  C   UNL A   1      39.457  32.851  32.972  1.00  0.00     0.006 A 
ENDBRANCH  62  76
BRANCH  63  84
ATOM     84  C   UNL A   1      47.007  22.360  34.523  1.00  0.00     0.057 A 
ATOM     85  C   UNL A   1      48.273  22.972  34.354  1.00  0.00     0.134 A 
ATOM     86  C   UNL A   1      47.011  20.992  34.830  1.00  0.00     0.134 A 
ATOM     87  F   UNL A   1      48.345  24.270  34.015  1.00  0.00    -0.206 F 
ATOM     88  C   UNL A   1      49.447  22.361  34.811  1.00  0.00     0.040 A 
ATOM     89  C   UNL A   1      48.196  20.357  35.244  1.00  0.00     0.040 A 
ATOM     90  F   UNL A   1      45.859  20.323  34.972  1.00  0.00    -0.206 F 
ATOM     91  C   UNL A   1      49.397  21.068  35.319  1.00  0.00     0.006 A 
ENDBRANCH  63  84
BRANCH  75  92
ATOM     92  C   UNL A   1      45.777  28.992  37.632  1.00  0.00     0.057 A 
ATOM     93  C   UNL A   1      46.313  30.117  36.993  1.00  0.00     0.134 A 
ATOM     94  C   UNL A   1      45.594  29.159  39.034  1.00  0.00     0.134 A 
ATOM     95  F   UNL A   1      46.471  30.173  35.666  1.00  0.00    -0.206 F 
ATOM     96  C   UNL A   1      46.663  31.288  37.682  1.00  0.00     0.040 A 
ATOM     97  C   UNL A   1      45.882  30.342  39.720  1.00  0.00     0.040 A 
ATOM     98  F   UNL A   1      45.081  28.199  39.815  1.00  0.00    -0.206 F 
ATOM     99  C   UNL A   1      46.430  31.413  39.044  1.00  0.00     0.006 A 
ENDBRANCH  75  92
ENDBRANCH  49  50
ENDBRANCH  42  44
ENDBRANCH  41  42
ENDBRANCH  40  41
ENDBRANCH  39  40
ENDBRANCH  38  39
ENDBRANCH  37  38
ENDBRANCH  36  37
ENDBRANCH  35  36
ENDBRANCH  34  35
ENDBRANCH   1  34
TORSDOF 25
ENDMDL
