MODEL 1
REMARK VINA RESULT:     -10.9      0.000      0.000
REMARK SMILES CC1=C(C)C[C@@H](C(=O)OCCOCCOCCOCCOC(=O)c2ccc(-c3c4nc(c(-c5c(F)cccc5F)c5ccc([nH]5)c(-c5c(F)cccc5F)c5nc(c(-c6c(F)cccc6F)c6ccc3[nH]6)C=C5)C=C4)cc2)[C@@H](C(=O)NCC[NH+]2CCOCC2)C1
REMARK SMILES IDX 14 1 13 2 12 3 11 4 10 5 9 6 7 7 8 8 6 9 1 10 2 11 3 12
REMARK SMILES IDX 90 13 4 14 5 15 78 16 79 17 80 18 81 19 82 21 83 22 84 23
REMARK SMILES IDX 85 24 89 25 86 27 88 28 87 29 15 30 16 31 17 32 18 33 19 34
REMARK SMILES IDX 20 35 21 36 22 37 23 38 24 39 25 40 77 41 26 42 76 43 27 44
REMARK SMILES IDX 28 45 29 46 70 47 30 48 75 49 69 50 71 51 31 52 74 53 68 54
REMARK SMILES IDX 67 55 32 57 58 58 41 59 57 60 42 61 45 62 56 63 72 64 43 65
REMARK SMILES IDX 44 66 55 68 73 69 46 70 33 71 34 72 39 73 35 74 36 75 38 76
REMARK SMILES IDX 40 77 37 78 59 79 60 80 65 81 61 82 62 83 64 84 66 85 63 86
REMARK SMILES IDX 47 87 48 88 53 89 49 90 50 91 52 92 54 93 51 94
REMARK H PARENT 81 20 84 26 71 56 45 67
REMARK Flexibility Score: inf
ROOT
ATOM      1  C   UNL A   1      40.839  20.860  26.562  1.00  0.00     0.188 C 
ENDROOT
BRANCH   1   2
ATOM      2  C   UNL A   1      39.466  20.535  25.961  1.00  0.00     0.188 C 
BRANCH   2   3
ATOM      3  O   UNL A   1      38.735  21.637  25.413  1.00  0.00    -0.376 OA
BRANCH   3   4
ATOM      4  C   UNL A   1      38.633  22.819  26.195  1.00  0.00     0.202 C 
BRANCH   4   5
ATOM      5  C   UNL A   1      37.389  23.683  25.976  1.00  0.00     0.261 C 
BRANCH   5   6
ATOM      6  O   UNL A   1      36.203  22.998  25.521  1.00  0.00    -0.463 OA
BRANCH   6   7
ATOM      7  C   UNL A   1      35.061  23.366  26.157  1.00  0.00     0.310 C 
ATOM      8  O   UNL A   1      34.770  23.014  27.298  1.00  0.00    -0.252 OA
BRANCH   7   9
ATOM      9  C   UNL A   1      34.032  24.064  25.275  1.00  0.00     0.116 C 
ATOM     10  C   UNL A   1      30.999  27.089  26.493  1.00  0.00     0.039 C 
ATOM     11  C   UNL A   1      32.063  26.201  25.899  1.00  0.00    -0.074 C 
ATOM     12  C   UNL A   1      33.382  26.485  25.900  1.00  0.00    -0.073 C 
ATOM     13  C   UNL A   1      31.557  24.911  25.300  1.00  0.00     0.045 C 
ATOM     14  C   UNL A   1      33.994  27.747  26.446  1.00  0.00     0.039 C 
ATOM     15  C   UNL A   1      34.376  25.559  25.247  1.00  0.00     0.046 C 
ATOM     16  C   UNL A   1      32.535  23.731  25.357  1.00  0.00     0.097 C 
BRANCH  16  17
ATOM     17  C   UNL A   1      32.163  22.655  26.354  1.00  0.00     0.224 C 
ATOM     18  O   UNL A   1      31.660  22.991  27.433  1.00  0.00    -0.275 OA
ATOM     19  N   UNL A   1      32.305  21.332  26.141  1.00  0.00    -0.350 N 
ATOM     20  H   UNL A   1      31.992  20.793  26.902  1.00  0.00     0.163 HD
BRANCH  19  21
ATOM     21  C   UNL A   1      32.811  20.514  25.054  1.00  0.00     0.177 C 
BRANCH  21  22
ATOM     22  C   UNL A   1      33.075  19.045  25.465  1.00  0.00     0.283 C 
BRANCH  22  23
ATOM     23  N   UNL A   1      32.386  17.924  24.808  1.00  0.00    -0.330 N 
ATOM     24  C   UNL A   1      32.434  16.629  25.490  1.00  0.00     0.291 C 
ATOM     25  C   UNL A   1      32.739  17.720  23.398  1.00  0.00     0.291 C 
ATOM     26  H   UNL A   1      31.426  18.262  24.869  1.00  0.00     0.348 HD
ATOM     27  C   UNL A   1      33.747  15.858  25.302  1.00  0.00     0.221 C 
ATOM     28  C   UNL A   1      34.100  17.067  23.206  1.00  0.00     0.221 C 
ATOM     29  O   UNL A   1      34.275  15.884  23.979  1.00  0.00    -0.370 OA
ENDBRANCH  22  23
ENDBRANCH  21  22
ENDBRANCH  19  21
ENDBRANCH  16  17
ENDBRANCH   7   9
ENDBRANCH   6   7
ENDBRANCH   5   6
ENDBRANCH   4   5
ENDBRANCH   3   4
ENDBRANCH   2   3
ENDBRANCH   1   2
BRANCH   1  30
ATOM     30  O   UNL A   1      41.991  20.590  25.754  1.00  0.00    -0.377 OA
BRANCH  30  31
ATOM     31  C   UNL A   1      42.717  19.402  26.066  1.00  0.00     0.188 C 
BRANCH  31  32
ATOM     32  C   UNL A   1      43.811  19.068  25.052  1.00  0.00     0.188 C 
BRANCH  32  33
ATOM     33  O   UNL A   1      44.215  20.268  24.414  1.00  0.00    -0.376 OA
BRANCH  33  34
ATOM     34  C   UNL A   1      45.461  20.825  24.792  1.00  0.00     0.202 C 
BRANCH  34  35
ATOM     35  C   UNL A   1      45.527  21.973  25.826  1.00  0.00     0.261 C 
BRANCH  35  36
ATOM     36  O   UNL A   1      44.377  22.824  25.953  1.00  0.00    -0.460 OA
BRANCH  36  37
ATOM     37  C   UNL A   1      44.478  24.080  25.447  1.00  0.00     0.338 C 
ATOM     38  O   UNL A   1      45.085  24.423  24.455  1.00  0.00    -0.246 OA
BRANCH  37  39
ATOM     39  C   UNL A   1      43.749  25.032  26.317  1.00  0.00     0.060 A 
ATOM     40  C   UNL A   1      44.163  26.362  26.438  1.00  0.00     0.016 A 
ATOM     41  C   UNL A   1      42.649  24.576  27.049  1.00  0.00     0.016 A 
ATOM     42  C   UNL A   1      43.493  27.231  27.316  1.00  0.00     0.010 A 
ATOM     43  C   UNL A   1      41.936  25.464  27.864  1.00  0.00     0.010 A 
ATOM     44  C   UNL A   1      42.383  26.787  28.052  1.00  0.00    -0.014 A 
BRANCH  44  45
ATOM     45  C   UNL A   1      41.817  27.602  29.171  1.00  0.00     0.031 A 
ATOM     46  C   UNL A   1      42.496  27.518  30.520  1.00  0.00     0.074 A 
ATOM     47  C   UNL A   1      40.748  28.414  29.032  1.00  0.00     0.049 A 
ATOM     48  N   UNL A   1      42.179  28.094  31.653  1.00  0.00    -0.248 NA
ATOM     49  C   UNL A   1      43.691  26.660  30.602  1.00  0.00     0.031 C 
ATOM     50  C   UNL A   1      39.998  28.638  27.800  1.00  0.00     0.029 A 
ATOM     51  N   UNL A   1      40.098  29.200  29.958  1.00  0.00    -0.354 N 
ATOM     52  C   UNL A   1      43.139  27.675  32.567  1.00  0.00     0.074 A 
ATOM     53  C   UNL A   1      43.990  26.727  31.888  1.00  0.00     0.031 C 
ATOM     54  C   UNL A   1      38.977  29.480  28.047  1.00  0.00     0.029 A 
ATOM     55  C   UNL A   1      39.000  29.863  29.457  1.00  0.00     0.049 A 
ATOM     56  H   UNL A   1      40.392  29.280  30.893  1.00  0.00     0.167 HD
ATOM     57  C   UNL A   1      43.338  28.075  33.844  1.00  0.00     0.037 A 
ATOM     58  C   UNL A   1      38.121  30.688  30.062  1.00  0.00     0.037 A 
ATOM     59  C   UNL A   1      42.521  29.031  34.539  1.00  0.00     0.049 A 
ATOM     60  C   UNL A   1      38.309  31.046  31.518  1.00  0.00     0.074 A 
ATOM     61  C   UNL A   1      42.659  29.503  35.832  1.00  0.00     0.029 A 
ATOM     62  N   UNL A   1      41.415  29.661  33.996  1.00  0.00    -0.354 N 
ATOM     63  N   UNL A   1      39.257  30.686  32.348  1.00  0.00    -0.248 NA
ATOM     64  C   UNL A   1      37.311  31.953  32.112  1.00  0.00     0.031 C 
ATOM     65  C   UNL A   1      41.610  30.392  36.085  1.00  0.00     0.029 A 
ATOM     66  C   UNL A   1      40.851  30.510  34.934  1.00  0.00     0.049 A 
ATOM     67  H   UNL A   1      41.079  29.526  33.080  1.00  0.00     0.167 HD
ATOM     68  C   UNL A   1      39.002  31.364  33.535  1.00  0.00     0.074 A 
ATOM     69  C   UNL A   1      37.816  32.163  33.318  1.00  0.00     0.031 C 
ATOM     70  C   UNL A   1      39.692  31.331  34.701  1.00  0.00     0.037 A 
BRANCH  57  71
ATOM     71  C   UNL A   1      44.519  27.492  34.565  1.00  0.00     0.057 A 
ATOM     72  C   UNL A   1      45.788  28.085  34.487  1.00  0.00     0.134 A 
ATOM     73  C   UNL A   1      44.385  26.348  35.359  1.00  0.00     0.134 A 
ATOM     74  F   UNL A   1      45.984  29.173  33.726  1.00  0.00    -0.206 F 
ATOM     75  C   UNL A   1      46.887  27.542  35.151  1.00  0.00     0.040 A 
ATOM     76  C   UNL A   1      45.472  25.814  36.052  1.00  0.00     0.040 A 
ATOM     77  F   UNL A   1      43.198  25.736  35.478  1.00  0.00    -0.206 F 
ATOM     78  C   UNL A   1      46.728  26.409  35.944  1.00  0.00     0.006 A 
ENDBRANCH  57  71
BRANCH  58  79
ATOM     79  C   UNL A   1      36.977  31.274  29.310  1.00  0.00     0.057 A 
ATOM     80  C   UNL A   1      35.861  30.498  28.970  1.00  0.00     0.134 A 
ATOM     81  C   UNL A   1      37.017  32.585  28.823  1.00  0.00     0.134 A 
ATOM     82  F   UNL A   1      35.774  29.224  29.381  1.00  0.00    -0.206 F 
ATOM     83  C   UNL A   1      34.850  30.988  28.139  1.00  0.00     0.040 A 
ATOM     84  C   UNL A   1      36.000  33.098  28.013  1.00  0.00     0.040 A 
ATOM     85  F   UNL A   1      38.056  33.383  29.110  1.00  0.00    -0.206 F 
ATOM     86  C   UNL A   1      34.921  32.292  27.656  1.00  0.00     0.006 A 
ENDBRANCH  58  79
BRANCH  70  87
ATOM     87  C   UNL A   1      39.234  32.231  35.813  1.00  0.00     0.057 A 
ATOM     88  C   UNL A   1      38.336  31.802  36.798  1.00  0.00     0.134 A 
ATOM     89  C   UNL A   1      39.733  33.537  35.920  1.00  0.00     0.134 A 
ATOM     90  F   UNL A   1      37.813  30.568  36.752  1.00  0.00    -0.206 F 
ATOM     91  C   UNL A   1      37.929  32.648  37.832  1.00  0.00     0.040 A 
ATOM     92  C   UNL A   1      39.357  34.380  36.966  1.00  0.00     0.040 A 
ATOM     93  F   UNL A   1      40.606  34.009  35.017  1.00  0.00    -0.206 F 
ATOM     94  C   UNL A   1      38.445  33.939  37.923  1.00  0.00     0.006 A 
ENDBRANCH  70  87
ENDBRANCH  44  45
ENDBRANCH  37  39
ENDBRANCH  36  37
ENDBRANCH  35  36
ENDBRANCH  34  35
ENDBRANCH  33  34
ENDBRANCH  32  33
ENDBRANCH  31  32
ENDBRANCH  30  31
ENDBRANCH   1  30
TORSDOF 24
ENDMDL
MODEL 2
REMARK VINA RESULT:     -10.6      4.577      9.796
REMARK SMILES CC1=C(C)C[C@@H](C(=O)OCCOCCOCCOCCOC(=O)c2ccc(-c3c4nc(c(-c5c(F)cccc5F)c5ccc([nH]5)c(-c5c(F)cccc5F)c5nc(c(-c6c(F)cccc6F)c6ccc3[nH]6)C=C5)C=C4)cc2)[C@@H](C(=O)NCC[NH+]2CCOCC2)C1
REMARK SMILES IDX 14 1 13 2 12 3 11 4 10 5 9 6 7 7 8 8 6 9 1 10 2 11 3 12
REMARK SMILES IDX 90 13 4 14 5 15 78 16 79 17 80 18 81 19 82 21 83 22 84 23
REMARK SMILES IDX 85 24 89 25 86 27 88 28 87 29 15 30 16 31 17 32 18 33 19 34
REMARK SMILES IDX 20 35 21 36 22 37 23 38 24 39 25 40 77 41 26 42 76 43 27 44
REMARK SMILES IDX 28 45 29 46 70 47 30 48 75 49 69 50 71 51 31 52 74 53 68 54
REMARK SMILES IDX 67 55 32 57 58 58 41 59 57 60 42 61 45 62 56 63 72 64 43 65
REMARK SMILES IDX 44 66 55 68 73 69 46 70 33 71 34 72 39 73 35 74 36 75 38 76
REMARK SMILES IDX 40 77 37 78 59 79 60 80 65 81 61 82 62 83 64 84 66 85 63 86
REMARK SMILES IDX 47 87 48 88 53 89 49 90 50 91 52 92 54 93 51 94
REMARK H PARENT 81 20 84 26 71 56 45 67
REMARK Flexibility Score: inf
ROOT
ATOM      1  C   UNL A   1      33.112  29.317  26.807  1.00  0.00     0.188 C 
ENDROOT
BRANCH   1   2
ATOM      2  C   UNL A   1      32.728  28.945  25.371  1.00  0.00     0.188 C 
BRANCH   2   3
ATOM      3  O   UNL A   1      31.573  28.114  25.216  1.00  0.00    -0.376 OA
BRANCH   3   4
ATOM      4  C   UNL A   1      31.196  27.742  23.898  1.00  0.00     0.202 C 
BRANCH   4   5
ATOM      5  C   UNL A   1      30.858  26.266  23.670  1.00  0.00     0.261 C 
BRANCH   5   6
ATOM      6  O   UNL A   1      31.345  25.335  24.659  1.00  0.00    -0.463 OA
BRANCH   6   7
ATOM      7  C   UNL A   1      32.357  24.537  24.232  1.00  0.00     0.310 C 
ATOM      8  O   UNL A   1      32.290  23.820  23.236  1.00  0.00    -0.252 OA
BRANCH   7   9
ATOM      9  C   UNL A   1      33.522  24.404  25.207  1.00  0.00     0.116 C 
ATOM     10  C   UNL A   1      36.447  21.060  25.520  1.00  0.00     0.039 C 
ATOM     11  C   UNL A   1      35.639  22.330  25.438  1.00  0.00    -0.074 C 
ATOM     12  C   UNL A   1      35.628  23.160  24.374  1.00  0.00    -0.073 C 
ATOM     13  C   UNL A   1      34.786  22.625  26.648  1.00  0.00     0.045 C 
ATOM     14  C   UNL A   1      36.452  22.979  23.128  1.00  0.00     0.039 C 
ATOM     15  C   UNL A   1      34.821  24.434  24.391  1.00  0.00     0.046 C 
ATOM     16  C   UNL A   1      33.494  23.402  26.371  1.00  0.00     0.097 C 
BRANCH  16  17
ATOM     17  C   UNL A   1      32.229  22.580  26.488  1.00  0.00     0.224 C 
ATOM     18  O   UNL A   1      31.346  22.953  27.270  1.00  0.00    -0.275 OA
ATOM     19  N   UNL A   1      31.967  21.472  25.767  1.00  0.00    -0.350 N 
ATOM     20  H   UNL A   1      31.085  21.088  25.975  1.00  0.00     0.163 HD
BRANCH  19  21
ATOM     21  C   UNL A   1      32.678  20.711  24.756  1.00  0.00     0.177 C 
BRANCH  21  22
ATOM     22  C   UNL A   1      32.512  19.180  24.914  1.00  0.00     0.283 C 
BRANCH  22  23
ATOM     23  N   UNL A   1      33.642  18.316  25.291  1.00  0.00    -0.330 N 
ATOM     24  C   UNL A   1      34.640  18.046  24.254  1.00  0.00     0.291 C 
ATOM     25  C   UNL A   1      33.269  17.044  25.920  1.00  0.00     0.291 C 
ATOM     26  H   UNL A   1      34.085  18.918  25.986  1.00  0.00     0.348 HD
ATOM     27  C   UNL A   1      34.230  16.970  23.240  1.00  0.00     0.221 C 
ATOM     28  C   UNL A   1      32.741  16.016  24.929  1.00  0.00     0.221 C 
ATOM     29  O   UNL A   1      33.592  15.827  23.802  1.00  0.00    -0.370 OA
ENDBRANCH  22  23
ENDBRANCH  21  22
ENDBRANCH  19  21
ENDBRANCH  16  17
ENDBRANCH   7   9
ENDBRANCH   6   7
ENDBRANCH   5   6
ENDBRANCH   4   5
ENDBRANCH   3   4
ENDBRANCH   2   3
ENDBRANCH   1   2
BRANCH   1  30
ATOM     30  O   UNL A   1      33.369  30.700  27.082  1.00  0.00    -0.377 OA
BRANCH  30  31
ATOM     31  C   UNL A   1      34.559  30.987  27.815  1.00  0.00     0.188 C 
BRANCH  31  32
ATOM     32  C   UNL A   1      34.809  32.482  28.015  1.00  0.00     0.188 C 
BRANCH  32  33
ATOM     33  O   UNL A   1      33.919  32.959  29.011  1.00  0.00    -0.376 OA
BRANCH  33  34
ATOM     34  C   UNL A   1      34.460  33.764  30.042  1.00  0.00     0.202 C 
BRANCH  34  35
ATOM     35  C   UNL A   1      34.483  33.259  31.504  1.00  0.00     0.261 C 
BRANCH  35  36
ATOM     36  O   UNL A   1      35.073  31.974  31.757  1.00  0.00    -0.460 OA
BRANCH  36  37
ATOM     37  C   UNL A   1      36.169  31.943  32.556  1.00  0.00     0.338 C 
ATOM     38  O   UNL A   1      36.270  32.391  33.679  1.00  0.00    -0.246 OA
BRANCH  37  39
ATOM     39  C   UNL A   1      37.294  31.295  31.842  1.00  0.00     0.060 A 
ATOM     40  C   UNL A   1      38.283  30.594  32.537  1.00  0.00     0.016 A 
ATOM     41  C   UNL A   1      37.374  31.419  30.452  1.00  0.00     0.016 A 
ATOM     42  C   UNL A   1      39.372  30.040  31.844  1.00  0.00     0.010 A 
ATOM     43  C   UNL A   1      38.420  30.799  29.756  1.00  0.00     0.010 A 
ATOM     44  C   UNL A   1      39.462  30.152  30.448  1.00  0.00    -0.014 A 
BRANCH  44  45
ATOM     45  C   UNL A   1      40.722  29.802  29.721  1.00  0.00     0.031 A 
ATOM     46  C   UNL A   1      40.866  28.390  29.196  1.00  0.00     0.074 A 
ATOM     47  C   UNL A   1      41.721  30.681  29.500  1.00  0.00     0.049 A 
ATOM     48  N   UNL A   1      41.871  27.830  28.570  1.00  0.00    -0.248 NA
ATOM     49  C   UNL A   1      39.724  27.487  29.418  1.00  0.00     0.031 C 
ATOM     50  C   UNL A   1      41.732  32.084  29.906  1.00  0.00     0.029 A 
ATOM     51  N   UNL A   1      42.939  30.511  28.879  1.00  0.00    -0.354 N 
ATOM     52  C   UNL A   1      41.471  26.522  28.317  1.00  0.00     0.074 A 
ATOM     53  C   UNL A   1      40.180  26.343  28.937  1.00  0.00     0.031 C 
ATOM     54  C   UNL A   1      42.905  32.641  29.550  1.00  0.00     0.029 A 
ATOM     55  C   UNL A   1      43.731  31.637  28.883  1.00  0.00     0.049 A 
ATOM     56  H   UNL A   1      43.217  29.661  28.470  1.00  0.00     0.167 HD
ATOM     57  C   UNL A   1      42.090  25.563  27.590  1.00  0.00     0.037 A 
ATOM     58  C   UNL A   1      44.975  31.837  28.399  1.00  0.00     0.037 A 
ATOM     59  C   UNL A   1      43.364  25.719  26.946  1.00  0.00     0.049 A 
ATOM     60  C   UNL A   1      45.686  30.720  27.674  1.00  0.00     0.074 A 
ATOM     61  C   UNL A   1      44.059  24.801  26.179  1.00  0.00     0.029 A 
ATOM     62  N   UNL A   1      44.132  26.869  26.992  1.00  0.00    -0.354 N 
ATOM     63  N   UNL A   1      45.267  29.510  27.394  1.00  0.00    -0.248 NA
ATOM     64  C   UNL A   1      47.040  31.011  27.172  1.00  0.00     0.031 C 
ATOM     65  C   UNL A   1      45.269  25.384  25.792  1.00  0.00     0.029 A 
ATOM     66  C   UNL A   1      45.303  26.680  26.276  1.00  0.00     0.049 A 
ATOM     67  H   UNL A   1      43.884  27.698  27.462  1.00  0.00     0.167 HD
ATOM     68  C   UNL A   1      46.276  28.922  26.639  1.00  0.00     0.074 A 
ATOM     69  C   UNL A   1      47.325  29.907  26.497  1.00  0.00     0.031 C 
ATOM     70  C   UNL A   1      46.327  27.676  26.107  1.00  0.00     0.037 A 
BRANCH  57  71
ATOM     71  C   UNL A   1      41.368  24.257  27.431  1.00  0.00     0.057 A 
ATOM     72  C   UNL A   1      40.289  24.122  26.544  1.00  0.00     0.134 A 
ATOM     73  C   UNL A   1      41.763  23.123  28.148  1.00  0.00     0.134 A 
ATOM     74  F   UNL A   1      39.850  25.178  25.842  1.00  0.00    -0.206 F 
ATOM     75  C   UNL A   1      39.613  22.911  26.398  1.00  0.00     0.040 A 
ATOM     76  C   UNL A   1      41.113  21.898  27.988  1.00  0.00     0.040 A 
ATOM     77  F   UNL A   1      42.788  23.184  29.010  1.00  0.00    -0.206 F 
ATOM     78  C   UNL A   1      40.031  21.793  27.114  1.00  0.00     0.006 A 
ENDBRANCH  57  71
BRANCH  58  79
ATOM     79  C   UNL A   1      45.651  33.156  28.547  1.00  0.00     0.057 A 
ATOM     80  C   UNL A   1      45.555  34.135  27.549  1.00  0.00     0.134 A 
ATOM     81  C   UNL A   1      46.492  33.429  29.632  1.00  0.00     0.134 A 
ATOM     82  F   UNL A   1      44.789  33.924  26.469  1.00  0.00    -0.206 F 
ATOM     83  C   UNL A   1      46.302  35.315  27.601  1.00  0.00     0.040 A 
ATOM     84  C   UNL A   1      47.224  34.617  29.712  1.00  0.00     0.040 A 
ATOM     85  F   UNL A   1      46.632  32.537  30.623  1.00  0.00    -0.206 F 
ATOM     86  C   UNL A   1      47.142  35.556  28.685  1.00  0.00     0.006 A 
ENDBRANCH  58  79
BRANCH  70  87
ATOM     87  C   UNL A   1      47.518  27.324  25.262  1.00  0.00     0.057 A 
ATOM     88  C   UNL A   1      47.576  27.617  23.893  1.00  0.00     0.134 A 
ATOM     89  C   UNL A   1      48.643  26.717  25.838  1.00  0.00     0.134 A 
ATOM     90  F   UNL A   1      46.532  28.189  23.276  1.00  0.00    -0.206 F 
ATOM     91  C   UNL A   1      48.695  27.294  23.124  1.00  0.00     0.040 A 
ATOM     92  C   UNL A   1      49.779  26.418  25.086  1.00  0.00     0.040 A 
ATOM     93  F   UNL A   1      48.661  26.420  27.147  1.00  0.00    -0.206 F 
ATOM     94  C   UNL A   1      49.805  26.699  23.722  1.00  0.00     0.006 A 
ENDBRANCH  70  87
ENDBRANCH  44  45
ENDBRANCH  37  39
ENDBRANCH  36  37
ENDBRANCH  35  36
ENDBRANCH  34  35
ENDBRANCH  33  34
ENDBRANCH  32  33
ENDBRANCH  31  32
ENDBRANCH  30  31
ENDBRANCH   1  30
TORSDOF 24
ENDMDL
MODEL 3
REMARK VINA RESULT:     -10.5      1.131      2.147
REMARK SMILES CC1=C(C)C[C@@H](C(=O)OCCOCCOCCOCCOC(=O)c2ccc(-c3c4nc(c(-c5c(F)cccc5F)c5ccc([nH]5)c(-c5c(F)cccc5F)c5nc(c(-c6c(F)cccc6F)c6ccc3[nH]6)C=C5)C=C4)cc2)[C@@H](C(=O)NCC[NH+]2CCOCC2)C1
REMARK SMILES IDX 14 1 13 2 12 3 11 4 10 5 9 6 7 7 8 8 6 9 1 10 2 11 3 12
REMARK SMILES IDX 90 13 4 14 5 15 78 16 79 17 80 18 81 19 82 21 83 22 84 23
REMARK SMILES IDX 85 24 89 25 86 27 88 28 87 29 15 30 16 31 17 32 18 33 19 34
REMARK SMILES IDX 20 35 21 36 22 37 23 38 24 39 25 40 77 41 26 42 76 43 27 44
REMARK SMILES IDX 28 45 29 46 70 47 30 48 75 49 69 50 71 51 31 52 74 53 68 54
REMARK SMILES IDX 67 55 32 57 58 58 41 59 57 60 42 61 45 62 56 63 72 64 43 65
REMARK SMILES IDX 44 66 55 68 73 69 46 70 33 71 34 72 39 73 35 74 36 75 38 76
REMARK SMILES IDX 40 77 37 78 59 79 60 80 65 81 61 82 62 83 64 84 66 85 63 86
REMARK SMILES IDX 47 87 48 88 53 89 49 90 50 91 52 92 54 93 51 94
REMARK H PARENT 81 20 84 26 71 56 45 67
REMARK Flexibility Score: inf
ROOT
ATOM      1  C   UNL A   1      40.769  21.254  27.242  1.00  0.00     0.188 C 
ENDROOT
BRANCH   1   2
ATOM      2  C   UNL A   1      39.687  21.619  26.220  1.00  0.00     0.188 C 
BRANCH   2   3
ATOM      3  O   UNL A   1      39.035  20.526  25.565  1.00  0.00    -0.376 OA
BRANCH   3   4
ATOM      4  C   UNL A   1      37.779  20.774  24.950  1.00  0.00     0.202 C 
BRANCH   4   5
ATOM      5  C   UNL A   1      37.372  22.240  24.784  1.00  0.00     0.261 C 
BRANCH   5   6
ATOM      6  O   UNL A   1      35.969  22.539  24.937  1.00  0.00    -0.463 OA
BRANCH   6   7
ATOM      7  C   UNL A   1      35.469  23.393  24.008  1.00  0.00     0.310 C 
ATOM      8  O   UNL A   1      35.918  23.503  22.869  1.00  0.00    -0.252 OA
BRANCH   7   9
ATOM      9  C   UNL A   1      34.446  24.391  24.539  1.00  0.00     0.116 C 
ATOM     10  C   UNL A   1      30.447  23.525  26.296  1.00  0.00     0.039 C 
ATOM     11  C   UNL A   1      31.825  23.968  25.874  1.00  0.00    -0.074 C 
ATOM     12  C   UNL A   1      32.964  23.633  26.515  1.00  0.00    -0.073 C 
ATOM     13  C   UNL A   1      31.868  24.821  24.629  1.00  0.00     0.045 C 
ATOM     14  C   UNL A   1      33.039  22.810  27.772  1.00  0.00     0.039 C 
ATOM     15  C   UNL A   1      34.300  24.154  26.047  1.00  0.00     0.046 C 
ATOM     16  C   UNL A   1      33.142  24.692  23.785  1.00  0.00     0.097 C 
BRANCH  16  17
ATOM     17  C   UNL A   1      32.958  23.946  22.482  1.00  0.00     0.224 C 
ATOM     18  O   UNL A   1      33.315  24.489  21.429  1.00  0.00    -0.275 OA
ATOM     19  N   UNL A   1      32.462  22.698  22.378  1.00  0.00    -0.350 N 
ATOM     20  H   UNL A   1      32.436  22.380  21.447  1.00  0.00     0.163 HD
BRANCH  19  21
ATOM     21  C   UNL A   1      31.956  21.711  23.314  1.00  0.00     0.177 C 
BRANCH  21  22
ATOM     22  C   UNL A   1      32.969  20.582  23.620  1.00  0.00     0.283 C 
BRANCH  22  23
ATOM     23  N   UNL A   1      32.545  19.308  24.223  1.00  0.00    -0.330 N 
ATOM     24  C   UNL A   1      33.496  18.659  25.129  1.00  0.00     0.291 C 
ATOM     25  C   UNL A   1      32.052  18.305  23.272  1.00  0.00     0.291 C 
ATOM     26  H   UNL A   1      31.768  19.644  24.791  1.00  0.00     0.348 HD
ATOM     27  C   UNL A   1      34.621  17.888  24.428  1.00  0.00     0.221 C 
ATOM     28  C   UNL A   1      33.162  17.626  22.482  1.00  0.00     0.221 C 
ATOM     29  O   UNL A   1      34.210  17.117  23.303  1.00  0.00    -0.370 OA
ENDBRANCH  22  23
ENDBRANCH  21  22
ENDBRANCH  19  21
ENDBRANCH  16  17
ENDBRANCH   7   9
ENDBRANCH   6   7
ENDBRANCH   5   6
ENDBRANCH   4   5
ENDBRANCH   3   4
ENDBRANCH   2   3
ENDBRANCH   1   2
BRANCH   1  30
ATOM     30  O   UNL A   1      42.038  20.824  26.731  1.00  0.00    -0.377 OA
BRANCH  30  31
ATOM     31  C   UNL A   1      42.241  19.414  26.651  1.00  0.00     0.188 C 
BRANCH  31  32
ATOM     32  C   UNL A   1      43.334  19.008  25.663  1.00  0.00     0.188 C 
BRANCH  32  33
ATOM     33  O   UNL A   1      43.769  20.166  24.971  1.00  0.00    -0.376 OA
BRANCH  33  34
ATOM     34  C   UNL A   1      45.151  20.471  25.008  1.00  0.00     0.202 C 
BRANCH  34  35
ATOM     35  C   UNL A   1      45.642  21.836  25.548  1.00  0.00     0.261 C 
BRANCH  35  36
ATOM     36  O   UNL A   1      44.651  22.760  26.023  1.00  0.00    -0.460 OA
BRANCH  36  37
ATOM     37  C   UNL A   1      44.576  23.962  25.397  1.00  0.00     0.338 C 
ATOM     38  O   UNL A   1      45.053  24.258  24.322  1.00  0.00    -0.246 OA
BRANCH  37  39
ATOM     39  C   UNL A   1      43.834  24.925  26.243  1.00  0.00     0.060 A 
ATOM     40  C   UNL A   1      44.249  26.255  26.359  1.00  0.00     0.016 A 
ATOM     41  C   UNL A   1      42.719  24.479  26.958  1.00  0.00     0.016 A 
ATOM     42  C   UNL A   1      43.566  27.134  27.216  1.00  0.00     0.010 A 
ATOM     43  C   UNL A   1      41.993  25.377  27.751  1.00  0.00     0.010 A 
ATOM     44  C   UNL A   1      42.441  26.700  27.935  1.00  0.00    -0.014 A 
BRANCH  44  45
ATOM     45  C   UNL A   1      41.857  27.528  29.035  1.00  0.00     0.031 A 
ATOM     46  C   UNL A   1      42.501  27.444  30.401  1.00  0.00     0.074 A 
ATOM     47  C   UNL A   1      40.800  28.350  28.866  1.00  0.00     0.049 A 
ATOM     48  N   UNL A   1      42.162  28.030  31.523  1.00  0.00    -0.248 NA
ATOM     49  C   UNL A   1      43.683  26.573  30.517  1.00  0.00     0.031 C 
ATOM     50  C   UNL A   1      40.083  28.575  27.614  1.00  0.00     0.029 A 
ATOM     51  N   UNL A   1      40.136  29.148  29.771  1.00  0.00    -0.354 N 
ATOM     52  C   UNL A   1      43.094  27.605  32.463  1.00  0.00     0.074 A 
ATOM     53  C   UNL A   1      43.952  26.644  31.810  1.00  0.00     0.031 C 
ATOM     54  C   UNL A   1      39.066  29.430  27.831  1.00  0.00     0.029 A 
ATOM     55  C   UNL A   1      39.058  29.820  29.240  1.00  0.00     0.049 A 
ATOM     56  H   UNL A   1      40.408  29.231  30.713  1.00  0.00     0.167 HD
ATOM     57  C   UNL A   1      43.266  28.010  33.743  1.00  0.00     0.037 A 
ATOM     58  C   UNL A   1      38.174  30.658  29.818  1.00  0.00     0.037 A 
ATOM     59  C   UNL A   1      42.442  28.978  34.411  1.00  0.00     0.049 A 
ATOM     60  C   UNL A   1      38.329  31.022  31.276  1.00  0.00     0.074 A 
ATOM     61  C   UNL A   1      42.553  29.457  35.705  1.00  0.00     0.029 A 
ATOM     62  N   UNL A   1      41.357  29.617  33.838  1.00  0.00    -0.354 N 
ATOM     63  N   UNL A   1      39.252  30.656  32.131  1.00  0.00    -0.248 NA
ATOM     64  C   UNL A   1      37.327  31.943  31.840  1.00  0.00     0.031 C 
ATOM     65  C   UNL A   1      41.509  30.358  35.928  1.00  0.00     0.029 A 
ATOM     66  C   UNL A   1      40.780  30.477  34.757  1.00  0.00     0.049 A 
ATOM     67  H   UNL A   1      41.043  29.481  32.914  1.00  0.00     0.167 HD
ATOM     68  C   UNL A   1      38.975  31.344  33.308  1.00  0.00     0.074 A 
ATOM     69  C   UNL A   1      37.804  32.154  33.058  1.00  0.00     0.031 C 
ATOM     70  C   UNL A   1      39.636  31.310  34.491  1.00  0.00     0.037 A 
BRANCH  57  71
ATOM     71  C   UNL A   1      44.422  27.418  34.495  1.00  0.00     0.057 A 
ATOM     72  C   UNL A   1      44.275  26.250  35.259  1.00  0.00     0.134 A 
ATOM     73  C   UNL A   1      45.692  28.002  34.441  1.00  0.00     0.134 A 
ATOM     74  F   UNL A   1      43.078  25.654  35.366  1.00  0.00    -0.206 F 
ATOM     75  C   UNL A   1      45.346  25.701  35.963  1.00  0.00     0.040 A 
ATOM     76  C   UNL A   1      46.778  27.444  35.117  1.00  0.00     0.040 A 
ATOM     77  F   UNL A   1      45.900  29.118  33.726  1.00  0.00    -0.206 F 
ATOM     78  C   UNL A   1      46.604  26.294  35.885  1.00  0.00     0.006 A 
ENDBRANCH  57  71
BRANCH  58  79
ATOM     79  C   UNL A   1      37.055  31.253  29.035  1.00  0.00     0.057 A 
ATOM     80  C   UNL A   1      37.095  32.590  28.616  1.00  0.00     0.134 A 
ATOM     81  C   UNL A   1      35.880  30.537  28.778  1.00  0.00     0.134 A 
ATOM     82  F   UNL A   1      38.181  33.339  28.856  1.00  0.00    -0.206 F 
ATOM     83  C   UNL A   1      35.996  33.205  28.013  1.00  0.00     0.040 A 
ATOM     84  C   UNL A   1      34.782  31.132  28.151  1.00  0.00     0.040 A 
ATOM     85  F   UNL A   1      35.773  29.254  29.152  1.00  0.00    -0.206 F 
ATOM     86  C   UNL A   1      34.833  32.474  27.781  1.00  0.00     0.006 A 
ENDBRANCH  58  79
BRANCH  70  87
ATOM     87  C   UNL A   1      39.160  32.221  35.586  1.00  0.00     0.057 A 
ATOM     88  C   UNL A   1      39.563  33.560  35.672  1.00  0.00     0.134 A 
ATOM     89  C   UNL A   1      38.250  31.760  36.548  1.00  0.00     0.134 A 
ATOM     90  F   UNL A   1      40.439  34.064  34.790  1.00  0.00    -0.206 F 
ATOM     91  C   UNL A   1      39.102  34.397  36.689  1.00  0.00     0.040 A 
ATOM     92  C   UNL A   1      37.758  32.596  37.551  1.00  0.00     0.040 A 
ATOM     93  F   UNL A   1      37.812  30.492  36.518  1.00  0.00    -0.206 F 
ATOM     94  C   UNL A   1      38.190  33.918  37.629  1.00  0.00     0.006 A 
ENDBRANCH  70  87
ENDBRANCH  44  45
ENDBRANCH  37  39
ENDBRANCH  36  37
ENDBRANCH  35  36
ENDBRANCH  34  35
ENDBRANCH  33  34
ENDBRANCH  32  33
ENDBRANCH  31  32
ENDBRANCH  30  31
ENDBRANCH   1  30
TORSDOF 24
ENDMDL
