MODEL 1
REMARK VINA RESULT:     -10.5      0.000      0.000
REMARK SMILES CC[C@H](c1ccccc1)[C@@H](C)OC(=O)c1ccccc1C(=O)OCCOCCOCCOCCOC(=O)c1ccc(-c2c3nc(c(-c4c(F)cccc4F)c4ccc([nH]4)c(-c4c(F)cccc4F)c4nc(c(-c5c(F)cccc5F)c5ccc2[nH]5)C=C4)C=C3)cc1
REMARK SMILES IDX 27 1 26 2 25 3 24 4 23 5 21 6 22 7 20 8 15 9 16 10 17 11
REMARK SMILES IDX 19 12 18 13 13 14 14 15 12 16 10 17 11 18 3 19 2 20 1 21
REMARK SMILES IDX 4 22 5 23 9 24 6 25 8 26 7 27 28 28 29 29 30 30 31 31 32 32
REMARK SMILES IDX 33 33 34 34 35 35 36 36 37 37 38 38 39 39 91 40 40 41 90 42
REMARK SMILES IDX 41 43 42 44 43 45 84 46 44 47 89 48 83 49 85 50 45 51 88 52
REMARK SMILES IDX 82 53 81 54 46 56 72 57 55 58 71 59 56 60 59 61 70 62 86 63
REMARK SMILES IDX 57 64 58 65 69 67 87 68 60 69 47 70 48 71 53 72 49 73 50 74
REMARK SMILES IDX 52 75 54 76 51 77 73 78 74 79 79 80 75 81 76 82 78 83 80 84
REMARK SMILES IDX 77 85 61 86 62 87 67 88 63 89 64 90 66 91 68 92 65 93
REMARK H PARENT 85 55 59 66
REMARK Flexibility Score: inf
ROOT
ATOM      1  C   UNL A   1      34.026  32.533  27.909  1.00  0.00     0.188 C 
ENDROOT
BRANCH   1   2
ATOM      2  O   UNL A   1      34.532  31.217  28.022  1.00  0.00    -0.376 OA
BRANCH   2   3
ATOM      3  C   UNL A   1      33.950  30.141  27.306  1.00  0.00     0.202 C 
BRANCH   3   4
ATOM      4  C   UNL A   1      32.439  29.870  27.256  1.00  0.00     0.261 C 
BRANCH   4   5
ATOM      5  O   UNL A   1      32.070  28.505  27.096  1.00  0.00    -0.460 OA
BRANCH   5   6
ATOM      6  C   UNL A   1      32.473  27.861  25.988  1.00  0.00     0.339 C 
ATOM      7  O   UNL A   1      33.549  27.312  25.811  1.00  0.00    -0.246 OA
BRANCH   6   8
ATOM      8  C   UNL A   1      31.316  27.709  25.081  1.00  0.00     0.074 A 
ATOM      9  C   UNL A   1      30.606  26.518  24.862  1.00  0.00     0.074 A 
ATOM     10  C   UNL A   1      29.527  26.534  23.951  1.00  0.00     0.016 A 
ATOM     11  C   UNL A   1      29.198  27.685  23.232  1.00  0.00     0.001 A 
ATOM     12  C   UNL A   1      30.984  28.861  24.338  1.00  0.00     0.016 A 
ATOM     13  C   UNL A   1      29.944  28.843  23.408  1.00  0.00     0.001 A 
BRANCH   9  14
ATOM     14  C   UNL A   1      30.917  25.188  25.445  1.00  0.00     0.339 C 
ATOM     15  O   UNL A   1      30.517  24.878  26.560  1.00  0.00    -0.246 OA
BRANCH  14  16
ATOM     16  O   UNL A   1      31.721  24.441  24.658  1.00  0.00    -0.458 OA
BRANCH  16  17
ATOM     17  C   UNL A   1      32.441  23.314  25.239  1.00  0.00     0.181 C 
ATOM     18  C   UNL A   1      33.473  23.798  26.268  1.00  0.00     0.053 C 
BRANCH  17  19
ATOM     19  C   UNL A   1      32.999  22.388  24.124  1.00  0.00     0.060 C 
BRANCH  19  20
ATOM     20  C   UNL A   1      32.154  21.082  23.990  1.00  0.00     0.009 C 
ATOM     21  C   UNL A   1      32.214  20.048  25.103  1.00  0.00     0.005 C 
ENDBRANCH  19  20
BRANCH  19  22
ATOM     22  C   UNL A   1      34.508  22.223  24.160  1.00  0.00    -0.041 A 
ATOM     23  C   UNL A   1      35.305  23.068  23.370  1.00  0.00     0.004 A 
ATOM     24  C   UNL A   1      35.146  21.274  24.970  1.00  0.00     0.004 A 
ATOM     25  C   UNL A   1      36.691  22.923  23.339  1.00  0.00     0.000 A 
ATOM     26  C   UNL A   1      36.529  21.105  24.911  1.00  0.00     0.000 A 
ATOM     27  C   UNL A   1      37.300  21.925  24.091  1.00  0.00     0.000 A 
ENDBRANCH  19  22
ENDBRANCH  17  19
ENDBRANCH  16  17
ENDBRANCH  14  16
ENDBRANCH   9  14
ENDBRANCH   6   8
ENDBRANCH   5   6
ENDBRANCH   4   5
ENDBRANCH   3   4
ENDBRANCH   2   3
ENDBRANCH   1   2
BRANCH   1  28
ATOM     28  C   UNL A   1      34.584  33.516  28.961  1.00  0.00     0.188 C 
BRANCH  28  29
ATOM     29  O   UNL A   1      34.263  34.884  28.773  1.00  0.00    -0.377 OA
BRANCH  29  30
ATOM     30  C   UNL A   1      33.083  35.422  29.367  1.00  0.00     0.188 C 
BRANCH  30  31
ATOM     31  C   UNL A   1      33.035  35.951  30.820  1.00  0.00     0.188 C 
BRANCH  31  32
ATOM     32  O   UNL A   1      32.984  34.952  31.826  1.00  0.00    -0.376 OA
BRANCH  32  33
ATOM     33  C   UNL A   1      33.958  34.996  32.855  1.00  0.00     0.202 C 
BRANCH  33  34
ATOM     34  C   UNL A   1      35.347  34.456  32.487  1.00  0.00     0.261 C 
BRANCH  34  35
ATOM     35  O   UNL A   1      35.458  33.025  32.438  1.00  0.00    -0.460 OA
BRANCH  35  36
ATOM     36  C   UNL A   1      36.388  32.467  33.243  1.00  0.00     0.338 C 
ATOM     37  O   UNL A   1      36.413  32.476  34.460  1.00  0.00    -0.246 OA
BRANCH  36  38
ATOM     38  C   UNL A   1      37.305  31.673  32.403  1.00  0.00     0.060 A 
ATOM     39  C   UNL A   1      38.418  31.078  33.006  1.00  0.00     0.016 A 
ATOM     40  C   UNL A   1      37.087  31.545  31.028  1.00  0.00     0.016 A 
ATOM     41  C   UNL A   1      39.351  30.401  32.224  1.00  0.00     0.010 A 
ATOM     42  C   UNL A   1      38.030  30.877  30.244  1.00  0.00     0.010 A 
ATOM     43  C   UNL A   1      39.189  30.343  30.833  1.00  0.00    -0.014 A 
BRANCH  43  44
ATOM     44  C   UNL A   1      40.333  29.895  30.000  1.00  0.00     0.031 A 
ATOM     45  C   UNL A   1      41.458  30.862  29.743  1.00  0.00     0.074 A 
ATOM     46  C   UNL A   1      40.407  28.633  29.545  1.00  0.00     0.049 A 
ATOM     47  N   UNL A   1      42.587  30.675  29.107  1.00  0.00    -0.248 NA
ATOM     48  C   UNL A   1      41.287  32.225  30.275  1.00  0.00     0.031 C 
ATOM     49  C   UNL A   1      39.391  27.599  29.740  1.00  0.00     0.029 A 
ATOM     50  N   UNL A   1      41.394  28.006  28.827  1.00  0.00    -0.354 N 
ATOM     51  C   UNL A   1      43.256  31.892  29.158  1.00  0.00     0.074 A 
ATOM     52  C   UNL A   1      42.394  32.821  29.857  1.00  0.00     0.031 C 
ATOM     53  C   UNL A   1      39.809  26.462  29.155  1.00  0.00     0.029 A 
ATOM     54  C   UNL A   1      41.112  26.694  28.534  1.00  0.00     0.049 A 
ATOM     55  H   UNL A   1      42.225  28.453  28.548  1.00  0.00     0.167 HD
ATOM     56  C   UNL A   1      44.482  32.207  28.678  1.00  0.00     0.037 A 
ATOM     57  C   UNL A   1      41.827  25.789  27.837  1.00  0.00     0.037 A 
ATOM     58  C   UNL A   1      45.340  31.282  27.984  1.00  0.00     0.049 A 
ATOM     59  C   UNL A   1      43.172  26.176  27.281  1.00  0.00     0.074 A 
ATOM     60  C   UNL A   1      46.614  31.496  27.486  1.00  0.00     0.029 A 
ATOM     61  N   UNL A   1      45.008  29.970  27.681  1.00  0.00    -0.354 N 
ATOM     62  N   UNL A   1      43.814  27.316  27.374  1.00  0.00    -0.248 NA
ATOM     63  C   UNL A   1      43.896  25.141  26.530  1.00  0.00     0.031 C 
ATOM     64  C   UNL A   1      47.028  30.332  26.829  1.00  0.00     0.029 A 
ATOM     65  C   UNL A   1      46.041  29.372  26.977  1.00  0.00     0.049 A 
ATOM     66  H   UNL A   1      44.163  29.530  27.929  1.00  0.00     0.167 HD
ATOM     67  C   UNL A   1      45.025  27.126  26.719  1.00  0.00     0.074 A 
ATOM     68  C   UNL A   1      45.037  25.755  26.256  1.00  0.00     0.031 C 
ATOM     69  C   UNL A   1      46.036  28.007  26.516  1.00  0.00     0.037 A 
BRANCH  56  70
ATOM     70  C   UNL A   1      44.959  33.620  28.860  1.00  0.00     0.057 A 
ATOM     71  C   UNL A   1      45.715  34.014  29.971  1.00  0.00     0.134 A 
ATOM     72  C   UNL A   1      44.689  34.590  27.886  1.00  0.00     0.134 A 
ATOM     73  F   UNL A   1      45.996  33.139  30.949  1.00  0.00    -0.206 F 
ATOM     74  C   UNL A   1      46.169  35.327  30.118  1.00  0.00     0.040 A 
ATOM     75  C   UNL A   1      45.161  35.898  28.007  1.00  0.00     0.040 A 
ATOM     76  F   UNL A   1      43.973  34.281  26.795  1.00  0.00    -0.206 F 
ATOM     77  C   UNL A   1      45.899  36.271  29.128  1.00  0.00     0.006 A 
ENDBRANCH  56  70
BRANCH  57  78
ATOM     78  C   UNL A   1      41.290  24.423  27.608  1.00  0.00     0.057 A 
ATOM     79  C   UNL A   1      40.257  24.188  26.693  1.00  0.00     0.134 A 
ATOM     80  C   UNL A   1      41.758  23.331  28.346  1.00  0.00     0.134 A 
ATOM     81  F   UNL A   1      39.738  25.202  25.984  1.00  0.00    -0.206 F 
ATOM     82  C   UNL A   1      39.694  22.920  26.534  1.00  0.00     0.040 A 
ATOM     83  C   UNL A   1      41.216  22.055  28.184  1.00  0.00     0.040 A 
ATOM     84  F   UNL A   1      42.738  23.491  29.247  1.00  0.00    -0.206 F 
ATOM     85  C   UNL A   1      40.179  21.847  27.278  1.00  0.00     0.006 A 
ENDBRANCH  57  78
BRANCH  69  86
ATOM     86  C   UNL A   1      47.251  27.497  25.790  1.00  0.00     0.057 A 
ATOM     87  C   UNL A   1      47.383  27.595  24.398  1.00  0.00     0.134 A 
ATOM     88  C   UNL A   1      48.302  26.896  26.495  1.00  0.00     0.134 A 
ATOM     89  F   UNL A   1      46.409  28.150  23.660  1.00  0.00    -0.206 F 
ATOM     90  C   UNL A   1      48.492  27.071  23.731  1.00  0.00     0.040 A 
ATOM     91  C   UNL A   1      49.431  26.401  25.843  1.00  0.00     0.040 A 
ATOM     92  F   UNL A   1      48.251  26.782  27.831  1.00  0.00    -0.206 F 
ATOM     93  C   UNL A   1      49.522  26.475  24.454  1.00  0.00     0.006 A 
ENDBRANCH  69  86
ENDBRANCH  43  44
ENDBRANCH  36  38
ENDBRANCH  35  36
ENDBRANCH  34  35
ENDBRANCH  33  34
ENDBRANCH  32  33
ENDBRANCH  31  32
ENDBRANCH  30  31
ENDBRANCH  29  30
ENDBRANCH  28  29
ENDBRANCH   1  28
TORSDOF 26
ENDMDL
MODEL 2
REMARK VINA RESULT:     -10.3      4.546     10.252
REMARK SMILES CC[C@H](c1ccccc1)[C@@H](C)OC(=O)c1ccccc1C(=O)OCCOCCOCCOCCOC(=O)c1ccc(-c2c3nc(c(-c4c(F)cccc4F)c4ccc([nH]4)c(-c4c(F)cccc4F)c4nc(c(-c5c(F)cccc5F)c5ccc2[nH]5)C=C4)C=C3)cc1
REMARK SMILES IDX 27 1 26 2 25 3 24 4 23 5 21 6 22 7 20 8 15 9 16 10 17 11
REMARK SMILES IDX 19 12 18 13 13 14 14 15 12 16 10 17 11 18 3 19 2 20 1 21
REMARK SMILES IDX 4 22 5 23 9 24 6 25 8 26 7 27 28 28 29 29 30 30 31 31 32 32
REMARK SMILES IDX 33 33 34 34 35 35 36 36 37 37 38 38 39 39 91 40 40 41 90 42
REMARK SMILES IDX 41 43 42 44 43 45 84 46 44 47 89 48 83 49 85 50 45 51 88 52
REMARK SMILES IDX 82 53 81 54 46 56 72 57 55 58 71 59 56 60 59 61 70 62 86 63
REMARK SMILES IDX 57 64 58 65 69 67 87 68 60 69 47 70 48 71 53 72 49 73 50 74
REMARK SMILES IDX 52 75 54 76 51 77 73 78 74 79 79 80 75 81 76 82 78 83 80 84
REMARK SMILES IDX 77 85 61 86 62 87 67 88 63 89 64 90 66 91 68 92 65 93
REMARK H PARENT 85 55 59 66
REMARK Flexibility Score: inf
ROOT
ATOM      1  C   UNL A   1      36.363  19.306  24.627  1.00  0.00     0.188 C 
ENDROOT
BRANCH   1   2
ATOM      2  O   UNL A   1      35.187  19.935  25.099  1.00  0.00    -0.376 OA
BRANCH   2   3
ATOM      3  C   UNL A   1      33.915  19.332  24.937  1.00  0.00     0.202 C 
BRANCH   3   4
ATOM      4  C   UNL A   1      32.814  19.899  24.030  1.00  0.00     0.261 C 
BRANCH   4   5
ATOM      5  O   UNL A   1      32.075  20.986  24.576  1.00  0.00    -0.460 OA
BRANCH   5   6
ATOM      6  C   UNL A   1      32.197  22.193  23.999  1.00  0.00     0.339 C 
ATOM      7  O   UNL A   1      31.366  22.764  23.311  1.00  0.00    -0.246 OA
BRANCH   6   8
ATOM      8  C   UNL A   1      33.416  22.847  24.522  1.00  0.00     0.074 A 
ATOM      9  C   UNL A   1      33.524  23.490  25.764  1.00  0.00     0.074 A 
ATOM     10  C   UNL A   1      34.760  24.079  26.114  1.00  0.00     0.016 A 
ATOM     11  C   UNL A   1      35.841  24.081  25.230  1.00  0.00     0.001 A 
ATOM     12  C   UNL A   1      34.511  22.868  23.632  1.00  0.00     0.016 A 
ATOM     13  C   UNL A   1      35.707  23.496  23.978  1.00  0.00     0.001 A 
BRANCH   9  14
ATOM     14  C   UNL A   1      32.432  23.689  26.751  1.00  0.00     0.339 C 
ATOM     15  O   UNL A   1      32.274  22.912  27.683  1.00  0.00    -0.246 OA
BRANCH  14  16
ATOM     16  O   UNL A   1      31.634  24.737  26.452  1.00  0.00    -0.458 OA
BRANCH  16  17
ATOM     17  C   UNL A   1      32.236  25.983  25.992  1.00  0.00     0.181 C 
ATOM     18  C   UNL A   1      31.754  27.167  26.842  1.00  0.00     0.053 C 
BRANCH  17  19
ATOM     19  C   UNL A   1      32.050  26.146  24.459  1.00  0.00     0.060 C 
BRANCH  19  20
ATOM     20  C   UNL A   1      33.352  26.671  23.778  1.00  0.00     0.009 C 
ATOM     21  C   UNL A   1      33.502  26.539  22.271  1.00  0.00     0.005 C 
ENDBRANCH  19  20
BRANCH  19  22
ATOM     22  C   UNL A   1      30.753  26.832  24.067  1.00  0.00    -0.041 A 
ATOM     23  C   UNL A   1      29.538  26.155  24.264  1.00  0.00     0.004 A 
ATOM     24  C   UNL A   1      30.713  28.127  23.536  1.00  0.00     0.004 A 
ATOM     25  C   UNL A   1      28.327  26.728  23.878  1.00  0.00     0.000 A 
ATOM     26  C   UNL A   1      29.505  28.687  23.117  1.00  0.00     0.000 A 
ATOM     27  C   UNL A   1      28.314  27.983  23.282  1.00  0.00     0.000 A 
ENDBRANCH  19  22
ENDBRANCH  17  19
ENDBRANCH  16  17
ENDBRANCH  14  16
ENDBRANCH   9  14
ENDBRANCH   6   8
ENDBRANCH   5   6
ENDBRANCH   4   5
ENDBRANCH   3   4
ENDBRANCH   2   3
ENDBRANCH   1   2
BRANCH   1  28
ATOM     28  C   UNL A   1      37.668  20.042  25.005  1.00  0.00     0.188 C 
BRANCH  28  29
ATOM     29  O   UNL A   1      38.845  19.253  25.039  1.00  0.00    -0.377 OA
BRANCH  29  30
ATOM     30  C   UNL A   1      39.883  19.571  25.962  1.00  0.00     0.188 C 
BRANCH  30  31
ATOM     31  C   UNL A   1      40.397  21.012  26.193  1.00  0.00     0.188 C 
BRANCH  31  32
ATOM     32  O   UNL A   1      41.223  21.184  27.333  1.00  0.00    -0.376 OA
BRANCH  32  33
ATOM     33  C   UNL A   1      42.603  21.427  27.122  1.00  0.00     0.202 C 
BRANCH  33  34
ATOM     34  C   UNL A   1      43.002  21.831  25.696  1.00  0.00     0.261 C 
BRANCH  34  35
ATOM     35  O   UNL A   1      42.534  23.119  25.267  1.00  0.00    -0.460 OA
BRANCH  35  36
ATOM     36  C   UNL A   1      43.398  24.148  25.402  1.00  0.00     0.338 C 
ATOM     37  O   UNL A   1      44.434  24.329  24.789  1.00  0.00    -0.246 OA
BRANCH  36  38
ATOM     38  C   UNL A   1      42.792  25.140  26.312  1.00  0.00     0.060 A 
ATOM     39  C   UNL A   1      43.447  26.362  26.501  1.00  0.00     0.016 A 
ATOM     40  C   UNL A   1      41.608  24.853  26.996  1.00  0.00     0.016 A 
ATOM     41  C   UNL A   1      42.949  27.279  27.422  1.00  0.00     0.010 A 
ATOM     42  C   UNL A   1      41.118  25.769  27.931  1.00  0.00     0.010 A 
ATOM     43  C   UNL A   1      41.812  26.965  28.181  1.00  0.00    -0.014 A 
BRANCH  43  44
ATOM     44  C   UNL A   1      41.485  27.807  29.357  1.00  0.00     0.031 A 
ATOM     45  C   UNL A   1      40.292  28.723  29.278  1.00  0.00     0.074 A 
ATOM     46  C   UNL A   1      42.188  27.708  30.499  1.00  0.00     0.049 A 
ATOM     47  N   UNL A   1      39.775  29.497  30.198  1.00  0.00    -0.248 NA
ATOM     48  C   UNL A   1      39.586  28.772  27.986  1.00  0.00     0.031 C 
ATOM     49  C   UNL A   1      43.353  26.849  30.706  1.00  0.00     0.029 A 
ATOM     50  N   UNL A   1      42.012  28.336  31.705  1.00  0.00    -0.354 N 
ATOM     51  C   UNL A   1      38.690  30.125  29.597  1.00  0.00     0.074 A 
ATOM     52  C   UNL A   1      38.643  29.670  28.225  1.00  0.00     0.031 C 
ATOM     53  C   UNL A   1      43.789  27.003  31.969  1.00  0.00     0.029 A 
ATOM     54  C   UNL A   1      42.943  27.981  32.651  1.00  0.00     0.049 A 
ATOM     55  H   UNL A   1      41.289  28.980  31.878  1.00  0.00     0.167 HD
ATOM     56  C   UNL A   1      37.806  30.995  30.141  1.00  0.00     0.037 A 
ATOM     57  C   UNL A   1      43.093  28.406  33.921  1.00  0.00     0.037 A 
ATOM     58  C   UNL A   1      37.852  31.446  31.508  1.00  0.00     0.049 A 
ATOM     59  C   UNL A   1      42.118  29.402  34.490  1.00  0.00     0.074 A 
ATOM     60  C   UNL A   1      36.982  32.302  32.162  1.00  0.00     0.029 A 
ATOM     61  N   UNL A   1      38.826  31.087  32.426  1.00  0.00    -0.354 N 
ATOM     62  N   UNL A   1      41.070  29.955  33.927  1.00  0.00    -0.248 NA
ATOM     63  C   UNL A   1      42.343  29.824  35.880  1.00  0.00     0.031 C 
ATOM     64  C   UNL A   1      37.466  32.507  33.459  1.00  0.00     0.029 A 
ATOM     65  C   UNL A   1      38.596  31.727  33.634  1.00  0.00     0.049 A 
ATOM     66  H   UNL A   1      39.572  30.469  32.246  1.00  0.00     0.167 HD
ATOM     67  C   UNL A   1      40.499  30.767  34.899  1.00  0.00     0.074 A 
ATOM     68  C   UNL A   1      41.301  30.613  36.094  1.00  0.00     0.031 C 
ATOM     69  C   UNL A   1      39.409  31.569  34.814  1.00  0.00     0.037 A 
BRANCH  56  70
ATOM     70  C   UNL A   1      36.727  31.539  29.249  1.00  0.00     0.057 A 
ATOM     71  C   UNL A   1      35.623  30.770  28.859  1.00  0.00     0.134 A 
ATOM     72  C   UNL A   1      36.776  32.867  28.806  1.00  0.00     0.134 A 
ATOM     73  F   UNL A   1      35.522  29.485  29.233  1.00  0.00    -0.206 F 
ATOM     74  C   UNL A   1      34.617  31.295  28.044  1.00  0.00     0.040 A 
ATOM     75  C   UNL A   1      35.763  33.412  28.016  1.00  0.00     0.040 A 
ATOM     76  F   UNL A   1      37.803  33.661  29.145  1.00  0.00    -0.206 F 
ATOM     77  C   UNL A   1      34.682  32.624  27.629  1.00  0.00     0.006 A 
ENDBRANCH  56  70
BRANCH  57  78
ATOM     78  C   UNL A   1      44.219  27.907  34.751  1.00  0.00     0.057 A 
ATOM     79  C   UNL A   1      45.469  28.537  34.743  1.00  0.00     0.134 A 
ATOM     80  C   UNL A   1      44.086  26.749  35.525  1.00  0.00     0.134 A 
ATOM     81  F   UNL A   1      45.671  29.628  33.990  1.00  0.00    -0.206 F 
ATOM     82  C   UNL A   1      46.553  28.023  35.459  1.00  0.00     0.040 A 
ATOM     83  C   UNL A   1      45.157  26.235  36.260  1.00  0.00     0.040 A 
ATOM     84  F   UNL A   1      42.918  26.092  35.567  1.00  0.00    -0.206 F 
ATOM     85  C   UNL A   1      46.395  26.870  36.226  1.00  0.00     0.006 A 
ENDBRANCH  57  78
BRANCH  69  86
ATOM     86  C   UNL A   1      39.007  32.313  36.058  1.00  0.00     0.057 A 
ATOM     87  C   UNL A   1      39.426  33.625  36.310  1.00  0.00     0.134 A 
ATOM     88  C   UNL A   1      38.191  31.702  37.020  1.00  0.00     0.134 A 
ATOM     89  F   UNL A   1      40.218  34.267  35.436  1.00  0.00    -0.206 F 
ATOM     90  C   UNL A   1      39.089  34.286  37.493  1.00  0.00     0.040 A 
ATOM     91  C   UNL A   1      37.818  32.364  38.190  1.00  0.00     0.040 A 
ATOM     92  F   UNL A   1      37.740  30.452  36.838  1.00  0.00    -0.206 F 
ATOM     93  C   UNL A   1      38.280  33.656  38.436  1.00  0.00     0.006 A 
ENDBRANCH  69  86
ENDBRANCH  43  44
ENDBRANCH  36  38
ENDBRANCH  35  36
ENDBRANCH  34  35
ENDBRANCH  33  34
ENDBRANCH  32  33
ENDBRANCH  31  32
ENDBRANCH  30  31
ENDBRANCH  29  30
ENDBRANCH  28  29
ENDBRANCH   1  28
TORSDOF 26
ENDMDL
MODEL 3
REMARK VINA RESULT:      -9.9      0.954      2.050
REMARK SMILES CC[C@H](c1ccccc1)[C@@H](C)OC(=O)c1ccccc1C(=O)OCCOCCOCCOCCOC(=O)c1ccc(-c2c3nc(c(-c4c(F)cccc4F)c4ccc([nH]4)c(-c4c(F)cccc4F)c4nc(c(-c5c(F)cccc5F)c5ccc2[nH]5)C=C4)C=C3)cc1
REMARK SMILES IDX 27 1 26 2 25 3 24 4 23 5 21 6 22 7 20 8 15 9 16 10 17 11
REMARK SMILES IDX 19 12 18 13 13 14 14 15 12 16 10 17 11 18 3 19 2 20 1 21
REMARK SMILES IDX 4 22 5 23 9 24 6 25 8 26 7 27 28 28 29 29 30 30 31 31 32 32
REMARK SMILES IDX 33 33 34 34 35 35 36 36 37 37 38 38 39 39 91 40 40 41 90 42
REMARK SMILES IDX 41 43 42 44 43 45 84 46 44 47 89 48 83 49 85 50 45 51 88 52
REMARK SMILES IDX 82 53 81 54 46 56 72 57 55 58 71 59 56 60 59 61 70 62 86 63
REMARK SMILES IDX 57 64 58 65 69 67 87 68 60 69 47 70 48 71 53 72 49 73 50 74
REMARK SMILES IDX 52 75 54 76 51 77 73 78 74 79 79 80 75 81 76 82 78 83 80 84
REMARK SMILES IDX 77 85 61 86 62 87 67 88 63 89 64 90 66 91 68 92 65 93
REMARK H PARENT 85 55 59 66
REMARK Flexibility Score: inf
ROOT
ATOM      1  C   UNL A   1      33.750  32.879  28.085  1.00  0.00     0.188 C 
ENDROOT
BRANCH   1   2
ATOM      2  O   UNL A   1      33.997  31.486  28.113  1.00  0.00    -0.376 OA
BRANCH   2   3
ATOM      3  C   UNL A   1      33.663  30.658  27.012  1.00  0.00     0.202 C 
BRANCH   3   4
ATOM      4  C   UNL A   1      32.221  30.313  26.613  1.00  0.00     0.261 C 
BRANCH   4   5
ATOM      5  O   UNL A   1      31.955  28.927  26.432  1.00  0.00    -0.460 OA
BRANCH   5   6
ATOM      6  C   UNL A   1      32.971  28.124  26.073  1.00  0.00     0.339 C 
ATOM      7  O   UNL A   1      33.674  27.456  26.815  1.00  0.00    -0.246 OA
BRANCH   6   8
ATOM      8  C   UNL A   1      32.965  27.981  24.602  1.00  0.00     0.074 A 
ATOM      9  C   UNL A   1      32.035  27.235  23.862  1.00  0.00     0.074 A 
ATOM     10  C   UNL A   1      32.174  27.187  22.457  1.00  0.00     0.016 A 
ATOM     11  C   UNL A   1      33.240  27.813  21.809  1.00  0.00     0.001 A 
ATOM     12  C   UNL A   1      34.046  28.597  23.938  1.00  0.00     0.016 A 
ATOM     13  C   UNL A   1      34.190  28.499  22.554  1.00  0.00     0.001 A 
BRANCH   9  14
ATOM     14  C   UNL A   1      30.931  26.407  24.413  1.00  0.00     0.339 C 
ATOM     15  O   UNL A   1      29.791  26.845  24.490  1.00  0.00    -0.246 OA
BRANCH  14  16
ATOM     16  O   UNL A   1      31.348  25.204  24.866  1.00  0.00    -0.458 OA
BRANCH  16  17
ATOM     17  C   UNL A   1      31.830  24.212  23.912  1.00  0.00     0.181 C 
ATOM     18  C   UNL A   1      30.668  23.366  23.372  1.00  0.00     0.053 C 
BRANCH  17  19
ATOM     19  C   UNL A   1      33.014  23.407  24.514  1.00  0.00     0.060 C 
BRANCH  19  20
ATOM     20  C   UNL A   1      34.389  23.973  24.039  1.00  0.00     0.009 C 
ATOM     21  C   UNL A   1      35.439  23.010  23.508  1.00  0.00     0.005 C 
ENDBRANCH  19  20
BRANCH  19  22
ATOM     22  C   UNL A   1      32.834  21.901  24.439  1.00  0.00    -0.041 A 
ATOM     23  C   UNL A   1      32.965  21.140  25.612  1.00  0.00     0.004 A 
ATOM     24  C   UNL A   1      32.519  21.235  23.247  1.00  0.00     0.004 A 
ATOM     25  C   UNL A   1      32.852  19.751  25.583  1.00  0.00     0.000 A 
ATOM     26  C   UNL A   1      32.441  19.843  23.211  1.00  0.00     0.000 A 
ATOM     27  C   UNL A   1      32.615  19.102  24.376  1.00  0.00     0.000 A 
ENDBRANCH  19  22
ENDBRANCH  17  19
ENDBRANCH  16  17
ENDBRANCH  14  16
ENDBRANCH   9  14
ENDBRANCH   6   8
ENDBRANCH   5   6
ENDBRANCH   4   5
ENDBRANCH   3   4
ENDBRANCH   2   3
ENDBRANCH   1   2
BRANCH   1  28
ATOM     28  C   UNL A   1      34.496  33.674  29.179  1.00  0.00     0.188 C 
BRANCH  28  29
ATOM     29  O   UNL A   1      34.353  35.084  29.137  1.00  0.00    -0.377 OA
BRANCH  29  30
ATOM     30  C   UNL A   1      33.191  35.694  29.693  1.00  0.00     0.188 C 
BRANCH  30  31
ATOM     31  C   UNL A   1      33.022  35.964  31.207  1.00  0.00     0.188 C 
BRANCH  31  32
ATOM     32  O   UNL A   1      32.911  34.806  32.019  1.00  0.00    -0.376 OA
BRANCH  32  33
ATOM     33  C   UNL A   1      33.816  34.664  33.100  1.00  0.00     0.202 C 
BRANCH  33  34
ATOM     34  C   UNL A   1      35.235  34.211  32.730  1.00  0.00     0.261 C 
BRANCH  34  35
ATOM     35  O   UNL A   1      35.446  32.791  32.720  1.00  0.00    -0.460 OA
BRANCH  35  36
ATOM     36  C   UNL A   1      36.500  32.335  33.430  1.00  0.00     0.338 C 
ATOM     37  O   UNL A   1      36.666  32.406  34.635  1.00  0.00    -0.246 OA
BRANCH  36  38
ATOM     38  C   UNL A   1      37.367  31.561  32.521  1.00  0.00     0.060 A 
ATOM     39  C   UNL A   1      38.356  30.742  33.076  1.00  0.00     0.016 A 
ATOM     40  C   UNL A   1      37.226  31.668  31.135  1.00  0.00     0.016 A 
ATOM     41  C   UNL A   1      39.248  30.072  32.242  1.00  0.00     0.010 A 
ATOM     42  C   UNL A   1      38.130  31.007  30.300  1.00  0.00     0.010 A 
ATOM     43  C   UNL A   1      39.173  30.243  30.853  1.00  0.00    -0.014 A 
BRANCH  43  44
ATOM     44  C   UNL A   1      40.306  29.778  30.015  1.00  0.00     0.031 A 
ATOM     45  C   UNL A   1      41.436  30.734  29.737  1.00  0.00     0.074 A 
ATOM     46  C   UNL A   1      40.367  28.510  29.573  1.00  0.00     0.049 A 
ATOM     47  N   UNL A   1      42.558  30.531  29.093  1.00  0.00    -0.248 NA
ATOM     48  C   UNL A   1      41.281  32.103  30.256  1.00  0.00     0.031 C 
ATOM     49  C   UNL A   1      39.344  27.486  29.788  1.00  0.00     0.029 A 
ATOM     50  N   UNL A   1      41.342  27.868  28.853  1.00  0.00    -0.354 N 
ATOM     51  C   UNL A   1      43.236  31.743  29.126  1.00  0.00     0.074 A 
ATOM     52  C   UNL A   1      42.388  32.686  29.822  1.00  0.00     0.031 C 
ATOM     53  C   UNL A   1      39.749  26.340  29.212  1.00  0.00     0.029 A 
ATOM     54  C   UNL A   1      41.048  26.555  28.577  1.00  0.00     0.049 A 
ATOM     55  H   UNL A   1      42.174  28.306  28.562  1.00  0.00     0.167 HD
ATOM     56  C   UNL A   1      44.460  32.044  28.631  1.00  0.00     0.037 A 
ATOM     57  C   UNL A   1      41.750  25.637  27.884  1.00  0.00     0.037 A 
ATOM     58  C   UNL A   1      45.306  31.104  27.939  1.00  0.00     0.049 A 
ATOM     59  C   UNL A   1      43.092  26.008  27.311  1.00  0.00     0.074 A 
ATOM     60  C   UNL A   1      46.577  31.303  27.428  1.00  0.00     0.029 A 
ATOM     61  N   UNL A   1      44.961  29.792  27.654  1.00  0.00    -0.354 N 
ATOM     62  N   UNL A   1      43.744  27.144  27.387  1.00  0.00    -0.248 NA
ATOM     63  C   UNL A   1      43.802  24.959  26.565  1.00  0.00     0.031 C 
ATOM     64  C   UNL A   1      46.976  30.129  26.780  1.00  0.00     0.029 A 
ATOM     65  C   UNL A   1      45.982  29.178  26.947  1.00  0.00     0.049 A 
ATOM     66  H   UNL A   1      44.114  29.361  27.914  1.00  0.00     0.167 HD
ATOM     67  C   UNL A   1      44.947  26.938  26.723  1.00  0.00     0.074 A 
ATOM     68  C   UNL A   1      44.945  25.561  26.274  1.00  0.00     0.031 C 
ATOM     69  C   UNL A   1      45.963  27.808  26.501  1.00  0.00     0.037 A 
BRANCH  56  70
ATOM     70  C   UNL A   1      44.950  33.454  28.793  1.00  0.00     0.057 A 
ATOM     71  C   UNL A   1      44.660  34.457  27.859  1.00  0.00     0.134 A 
ATOM     72  C   UNL A   1      45.689  33.822  29.925  1.00  0.00     0.134 A 
ATOM     73  F   UNL A   1      43.970  34.170  26.744  1.00  0.00    -0.206 F 
ATOM     74  C   UNL A   1      45.106  35.769  28.033  1.00  0.00     0.040 A 
ATOM     75  C   UNL A   1      46.115  35.136  30.125  1.00  0.00     0.040 A 
ATOM     76  F   UNL A   1      45.999  32.913  30.861  1.00  0.00    -0.206 F 
ATOM     77  C   UNL A   1      45.828  36.113  29.175  1.00  0.00     0.006 A 
ENDBRANCH  56  70
BRANCH  57  78
ATOM     78  C   UNL A   1      41.200  24.273  27.674  1.00  0.00     0.057 A 
ATOM     79  C   UNL A   1      41.695  23.169  28.378  1.00  0.00     0.134 A 
ATOM     80  C   UNL A   1      40.209  24.035  26.717  1.00  0.00     0.134 A 
ATOM     81  F   UNL A   1      42.675  23.327  29.280  1.00  0.00    -0.206 F 
ATOM     82  C   UNL A   1      41.238  21.874  28.125  1.00  0.00     0.040 A 
ATOM     83  C   UNL A   1      39.729  22.747  26.467  1.00  0.00     0.040 A 
ATOM     84  F   UNL A   1      39.700  25.048  26.001  1.00  0.00    -0.206 F 
ATOM     85  C   UNL A   1      40.246  21.662  27.169  1.00  0.00     0.006 A 
ENDBRANCH  57  78
BRANCH  69  86
ATOM     86  C   UNL A   1      47.168  27.281  25.770  1.00  0.00     0.057 A 
ATOM     87  C   UNL A   1      47.342  27.465  24.392  1.00  0.00     0.134 A 
ATOM     88  C   UNL A   1      48.165  26.576  26.456  1.00  0.00     0.134 A 
ATOM     89  F   UNL A   1      46.420  28.122  23.671  1.00  0.00    -0.206 F 
ATOM     90  C   UNL A   1      48.438  26.926  23.715  1.00  0.00     0.040 A 
ATOM     91  C   UNL A   1      49.283  26.063  25.797  1.00  0.00     0.040 A 
ATOM     92  F   UNL A   1      48.072  26.375  27.779  1.00  0.00    -0.206 F 
ATOM     93  C   UNL A   1      49.415  26.226  24.420  1.00  0.00     0.006 A 
ENDBRANCH  69  86
ENDBRANCH  43  44
ENDBRANCH  36  38
ENDBRANCH  35  36
ENDBRANCH  34  35
ENDBRANCH  33  34
ENDBRANCH  32  33
ENDBRANCH  31  32
ENDBRANCH  30  31
ENDBRANCH  29  30
ENDBRANCH  28  29
ENDBRANCH   1  28
TORSDOF 26
ENDMDL
