MODEL 1
REMARK VINA RESULT:     -10.7      0.000      0.000
REMARK SMILES Cc1c[nH]c(C[N@@H+](C)[C@@H](C(=O)OCCOCCOCCOCCOC(=O)c2ccc(-c3c4nc(c(-c5c(F)cccc5F)c5ccc([nH]5)c(-c5c(F)cccc5F)c5nc(c(-c6c(F)cccc6F)c6ccc3[nH]6)C=C5)C=C4)cc2)c2ccc(NC(=O)N3CCCC3)cc2)n1
REMARK SMILES IDX 17 1 16 2 15 3 14 4 13 5 12 6 10 7 11 8 9 9 7 10 8 11 6 13
REMARK SMILES IDX 5 14 1 15 2 16 3 17 95 18 4 19 81 21 82 22 94 23 83 24 93 25
REMARK SMILES IDX 84 26 85 27 86 28 87 30 88 31 89 32 92 33 90 34 91 35 18 36
REMARK SMILES IDX 19 37 20 38 21 39 22 40 23 41 24 42 25 43 26 44 27 45 28 46
REMARK SMILES IDX 80 47 29 48 79 49 30 50 31 51 32 52 73 53 33 54 78 55 72 56
REMARK SMILES IDX 74 57 34 58 77 59 71 60 70 61 35 63 61 64 44 65 60 66 45 67
REMARK SMILES IDX 48 68 59 69 75 70 46 71 47 72 58 74 76 75 49 76 36 77 37 78
REMARK SMILES IDX 42 79 38 80 39 81 41 82 43 83 40 84 62 85 63 86 68 87 64 88
REMARK SMILES IDX 65 89 67 90 69 91 66 92 50 93 51 94 56 95 52 96 53 97 55 98
REMARK SMILES IDX 57 99 54 100
REMARK H PARENT 7 12 4 20 85 29 74 62 48 73
REMARK Flexibility Score: inf
ROOT
ATOM      1  C   UNL A   1      35.204  31.826  27.963  1.00  0.00     0.188 C 
ENDROOT
BRANCH   1   2
ATOM      2  C   UNL A   1      34.296  30.630  27.699  1.00  0.00     0.188 C 
BRANCH   2   3
ATOM      3  O   UNL A   1      33.381  30.757  26.635  1.00  0.00    -0.376 OA
BRANCH   3   4
ATOM      4  C   UNL A   1      32.120  30.104  26.784  1.00  0.00     0.202 C 
BRANCH   4   5
ATOM      5  C   UNL A   1      32.006  28.800  27.605  1.00  0.00     0.261 C 
BRANCH   5   6
ATOM      6  O   UNL A   1      31.369  27.689  26.912  1.00  0.00    -0.459 OA
BRANCH   6   7
ATOM      7  C   UNL A   1      32.167  26.999  26.051  1.00  0.00     0.369 C 
ATOM      8  O   UNL A   1      33.352  26.781  26.312  1.00  0.00    -0.245 OA
BRANCH   7   9
ATOM      9  C   UNL A   1      31.505  26.396  24.766  1.00  0.00     0.326 C 
BRANCH   9  10
ATOM     10  N   UNL A   1      30.413  27.129  24.050  1.00  0.00    -0.316 N 
ATOM     11  C   UNL A   1      29.187  26.334  23.953  1.00  0.00     0.334 C 
ATOM     12  H   UNL A   1      30.418  27.900  24.719  1.00  0.00     0.349 HD
BRANCH  10  13
ATOM     13  C   UNL A   1      30.566  27.945  22.830  1.00  0.00     0.339 C 
BRANCH  13  14
ATOM     14  C   UNL A   1      29.818  29.241  22.612  1.00  0.00     0.161 A 
ATOM     15  C   UNL A   1      28.040  31.790  20.829  1.00  0.00     0.068 C 
ATOM     16  C   UNL A   1      28.797  30.980  21.810  1.00  0.00     0.056 A 
ATOM     17  C   UNL A   1      29.052  31.274  23.127  1.00  0.00     0.107 A 
ATOM     18  N   UNL A   1      29.336  29.747  21.486  1.00  0.00    -0.233 NA
ATOM     19  N   UNL A   1      29.727  30.191  23.605  1.00  0.00    -0.344 N 
ATOM     20  H   UNL A   1      30.092  30.103  24.515  1.00  0.00     0.167 HD
ENDBRANCH  13  14
ENDBRANCH  10  13
ENDBRANCH   9  10
BRANCH   9  21
ATOM     21  C   UNL A   1      31.395  24.873  24.800  1.00  0.00     0.021 A 
ATOM     22  C   UNL A   1      31.817  24.056  23.748  1.00  0.00     0.012 A 
ATOM     23  C   UNL A   1      30.800  24.238  25.900  1.00  0.00     0.012 A 
ATOM     24  C   UNL A   1      31.843  22.670  23.888  1.00  0.00     0.027 A 
ATOM     25  C   UNL A   1      30.874  22.848  26.056  1.00  0.00     0.027 A 
ATOM     26  C   UNL A   1      31.523  22.075  25.100  1.00  0.00     0.042 A 
BRANCH  26  27
ATOM     27  N   UNL A   1      31.830  20.736  25.407  1.00  0.00    -0.308 N 
ATOM     28  C   UNL A   1      33.025  20.079  25.432  1.00  0.00     0.321 C 
ATOM     29  H   UNL A   1      31.052  20.181  25.645  1.00  0.00     0.171 HD
ATOM     30  O   UNL A   1      33.029  18.856  25.287  1.00  0.00    -0.248 OA
ATOM     31  N   UNL A   1      34.185  20.781  25.596  1.00  0.00    -0.325 N 
ATOM     32  C   UNL A   1      34.461  21.803  26.588  1.00  0.00     0.121 C 
ATOM     33  C   UNL A   1      35.421  20.331  25.000  1.00  0.00     0.121 C 
ATOM     34  C   UNL A   1      35.632  22.556  25.980  1.00  0.00     0.023 C 
ATOM     35  C   UNL A   1      36.405  21.482  25.213  1.00  0.00     0.023 C 
ENDBRANCH  26  27
ENDBRANCH   9  21
ENDBRANCH   7   9
ENDBRANCH   6   7
ENDBRANCH   5   6
ENDBRANCH   4   5
ENDBRANCH   3   4
ENDBRANCH   2   3
ENDBRANCH   1   2
BRANCH   1  36
ATOM     36  O   UNL A   1      34.699  33.116  27.667  1.00  0.00    -0.377 OA
BRANCH  36  37
ATOM     37  C   UNL A   1      33.640  33.677  28.434  1.00  0.00     0.188 C 
BRANCH  37  38
ATOM     38  C   UNL A   1      33.866  35.054  29.053  1.00  0.00     0.188 C 
BRANCH  38  39
ATOM     39  O   UNL A   1      34.003  35.128  30.475  1.00  0.00    -0.376 OA
BRANCH  39  40
ATOM     40  C   UNL A   1      34.397  33.968  31.199  1.00  0.00     0.202 C 
BRANCH  40  41
ATOM     41  C   UNL A   1      35.345  34.195  32.375  1.00  0.00     0.261 C 
BRANCH  41  42
ATOM     42  O   UNL A   1      36.635  33.613  32.142  1.00  0.00    -0.460 OA
BRANCH  42  43
ATOM     43  C   UNL A   1      36.834  32.413  32.727  1.00  0.00     0.338 C 
ATOM     44  O   UNL A   1      36.253  31.954  33.701  1.00  0.00    -0.246 OA
BRANCH  43  45
ATOM     45  C   UNL A   1      37.777  31.631  31.915  1.00  0.00     0.060 A 
ATOM     46  C   UNL A   1      38.833  30.981  32.567  1.00  0.00     0.016 A 
ATOM     47  C   UNL A   1      37.668  31.605  30.523  1.00  0.00     0.016 A 
ATOM     48  C   UNL A   1      39.820  30.345  31.822  1.00  0.00     0.010 A 
ATOM     49  C   UNL A   1      38.665  30.979  29.777  1.00  0.00     0.010 A 
ATOM     50  C   UNL A   1      39.763  30.388  30.425  1.00  0.00    -0.014 A 
BRANCH  50  51
ATOM     51  C   UNL A   1      40.952  29.997  29.638  1.00  0.00     0.031 A 
ATOM     52  C   UNL A   1      41.019  28.596  29.099  1.00  0.00     0.074 A 
ATOM     53  C   UNL A   1      41.937  30.878  29.402  1.00  0.00     0.049 A 
ATOM     54  N   UNL A   1      41.991  27.998  28.461  1.00  0.00    -0.248 NA
ATOM     55  C   UNL A   1      39.831  27.752  29.317  1.00  0.00     0.031 C 
ATOM     56  C   UNL A   1      41.946  32.274  29.838  1.00  0.00     0.029 A 
ATOM     57  N   UNL A   1      43.131  30.719  28.749  1.00  0.00    -0.354 N 
ATOM     58  C   UNL A   1      41.536  26.708  28.213  1.00  0.00     0.074 A 
ATOM     59  C   UNL A   1      40.217  26.599  28.792  1.00  0.00     0.031 C 
ATOM     60  C   UNL A   1      43.103  32.841  29.454  1.00  0.00     0.029 A 
ATOM     61  C   UNL A   1      43.927  31.837  28.784  1.00  0.00     0.049 A 
ATOM     62  H   UNL A   1      43.392  29.884  28.297  1.00  0.00     0.167 HD
ATOM     63  C   UNL A   1      42.167  25.709  27.555  1.00  0.00     0.037 A 
ATOM     64  C   UNL A   1      45.190  32.011  28.352  1.00  0.00     0.037 A 
ATOM     65  C   UNL A   1      43.481  25.833  26.982  1.00  0.00     0.049 A 
ATOM     66  C   UNL A   1      45.898  30.857  27.690  1.00  0.00     0.074 A 
ATOM     67  C   UNL A   1      44.208  24.890  26.280  1.00  0.00     0.029 A 
ATOM     68  N   UNL A   1      44.266  26.975  27.055  1.00  0.00    -0.354 N 
ATOM     69  N   UNL A   1      45.458  29.647  27.440  1.00  0.00    -0.248 NA
ATOM     70  C   UNL A   1      47.279  31.094  27.249  1.00  0.00     0.031 C 
ATOM     71  C   UNL A   1      45.458  25.440  25.980  1.00  0.00     0.029 A 
ATOM     72  C   UNL A   1      45.483  26.749  26.435  1.00  0.00     0.049 A 
ATOM     73  H   UNL A   1      43.999  27.818  27.485  1.00  0.00     0.167 HD
ATOM     74  C   UNL A   1      46.491  28.993  26.780  1.00  0.00     0.074 A 
ATOM     75  C   UNL A   1      47.575  29.944  26.660  1.00  0.00     0.031 C 
ATOM     76  C   UNL A   1      46.542  27.720  26.314  1.00  0.00     0.037 A 
BRANCH  63  77
ATOM     77  C   UNL A   1      41.461  24.389  27.445  1.00  0.00     0.057 A 
ATOM     78  C   UNL A   1      41.805  23.292  28.245  1.00  0.00     0.134 A 
ATOM     79  C   UNL A   1      40.393  24.226  26.553  1.00  0.00     0.134 A 
ATOM     80  F   UNL A   1      42.829  23.373  29.108  1.00  0.00    -0.206 F 
ATOM     81  C   UNL A   1      41.123  22.076  28.150  1.00  0.00     0.040 A 
ATOM     82  C   UNL A   1      39.686  23.027  26.469  1.00  0.00     0.040 A 
ATOM     83  F   UNL A   1      40.013  25.237  25.756  1.00  0.00    -0.206 F 
ATOM     84  C   UNL A   1      40.053  21.945  27.266  1.00  0.00     0.006 A 
ENDBRANCH  63  77
BRANCH  64  85
ATOM     85  C   UNL A   1      45.877  33.314  28.547  1.00  0.00     0.057 A 
ATOM     86  C   UNL A   1      46.589  33.592  29.719  1.00  0.00     0.134 A 
ATOM     87  C   UNL A   1      45.806  34.326  27.581  1.00  0.00     0.134 A 
ATOM     88  F   UNL A   1      46.677  32.671  30.689  1.00  0.00    -0.206 F 
ATOM     89  C   UNL A   1      47.183  34.836  29.936  1.00  0.00     0.040 A 
ATOM     90  C   UNL A   1      46.420  35.564  27.773  1.00  0.00     0.040 A 
ATOM     91  F   UNL A   1      45.144  34.123  26.432  1.00  0.00    -0.206 F 
ATOM     92  C   UNL A   1      47.102  35.826  28.959  1.00  0.00     0.006 A 
ENDBRANCH  64  85
BRANCH  76  93
ATOM     93  C   UNL A   1      47.786  27.303  25.583  1.00  0.00     0.057 A 
ATOM     94  C   UNL A   1      48.875  26.717  26.240  1.00  0.00     0.134 A 
ATOM     95  C   UNL A   1      47.873  27.449  24.192  1.00  0.00     0.134 A 
ATOM     96  F   UNL A   1      48.860  26.557  27.572  1.00  0.00    -0.206 F 
ATOM     97  C   UNL A   1      50.016  26.318  25.544  1.00  0.00     0.040 A 
ATOM     98  C   UNL A   1      48.995  27.024  23.481  1.00  0.00     0.040 A 
ATOM     99  F   UNL A   1      46.859  27.991  23.499  1.00  0.00    -0.206 F 
ATOM    100  C   UNL A   1      50.074  26.464  24.159  1.00  0.00     0.006 A 
ENDBRANCH  76  93
ENDBRANCH  50  51
ENDBRANCH  43  45
ENDBRANCH  42  43
ENDBRANCH  41  42
ENDBRANCH  40  41
ENDBRANCH  39  40
ENDBRANCH  38  39
ENDBRANCH  37  38
ENDBRANCH  36  37
ENDBRANCH   1  36
TORSDOF 25
ENDMDL
MODEL 2
REMARK VINA RESULT:      -9.5      5.444     11.741
REMARK SMILES Cc1c[nH]c(C[N@@H+](C)[C@@H](C(=O)OCCOCCOCCOCCOC(=O)c2ccc(-c3c4nc(c(-c5c(F)cccc5F)c5ccc([nH]5)c(-c5c(F)cccc5F)c5nc(c(-c6c(F)cccc6F)c6ccc3[nH]6)C=C5)C=C4)cc2)c2ccc(NC(=O)N3CCCC3)cc2)n1
REMARK SMILES IDX 17 1 16 2 15 3 14 4 13 5 12 6 10 7 11 8 9 9 7 10 8 11 6 13
REMARK SMILES IDX 5 14 1 15 2 16 3 17 95 18 4 19 81 21 82 22 94 23 83 24 93 25
REMARK SMILES IDX 84 26 85 27 86 28 87 30 88 31 89 32 92 33 90 34 91 35 18 36
REMARK SMILES IDX 19 37 20 38 21 39 22 40 23 41 24 42 25 43 26 44 27 45 28 46
REMARK SMILES IDX 80 47 29 48 79 49 30 50 31 51 32 52 73 53 33 54 78 55 72 56
REMARK SMILES IDX 74 57 34 58 77 59 71 60 70 61 35 63 61 64 44 65 60 66 45 67
REMARK SMILES IDX 48 68 59 69 75 70 46 71 47 72 58 74 76 75 49 76 36 77 37 78
REMARK SMILES IDX 42 79 38 80 39 81 41 82 43 83 40 84 62 85 63 86 68 87 64 88
REMARK SMILES IDX 65 89 67 90 69 91 66 92 50 93 51 94 56 95 52 96 53 97 55 98
REMARK SMILES IDX 57 99 54 100
REMARK H PARENT 7 12 4 20 85 29 74 62 48 73
REMARK Flexibility Score: inf
ROOT
ATOM      1  C   UNL A   1      37.308  31.988  33.278  1.00  0.00     0.188 C 
ENDROOT
BRANCH   1   2
ATOM      2  C   UNL A   1      38.007  30.639  33.401  1.00  0.00     0.188 C 
BRANCH   2   3
ATOM      3  O   UNL A   1      39.386  30.670  33.691  1.00  0.00    -0.376 OA
BRANCH   3   4
ATOM      4  C   UNL A   1      39.795  30.135  34.950  1.00  0.00     0.202 C 
BRANCH   4   5
ATOM      5  C   UNL A   1      41.091  29.302  35.065  1.00  0.00     0.261 C 
BRANCH   5   6
ATOM      6  O   UNL A   1      41.072  28.032  34.352  1.00  0.00    -0.459 OA
BRANCH   6   7
ATOM      7  C   UNL A   1      42.286  27.564  33.953  1.00  0.00     0.369 C 
ATOM      8  O   UNL A   1      42.693  27.740  32.802  1.00  0.00    -0.245 OA
BRANCH   7   9
ATOM      9  C   UNL A   1      43.197  26.886  35.031  1.00  0.00     0.326 C 
BRANCH   9  10
ATOM     10  N   UNL A   1      44.208  27.686  35.793  1.00  0.00    -0.316 N 
ATOM     11  C   UNL A   1      45.530  27.645  35.165  1.00  0.00     0.334 C 
ATOM     12  H   UNL A   1      43.673  28.550  35.702  1.00  0.00     0.349 HD
BRANCH  10  13
ATOM     13  C   UNL A   1      44.363  27.721  37.261  1.00  0.00     0.339 C 
BRANCH  13  14
ATOM     14  C   UNL A   1      45.048  26.621  38.039  1.00  0.00     0.161 A 
ATOM     15  C   UNL A   1      45.449  23.441  39.640  1.00  0.00     0.068 C 
ATOM     16  C   UNL A   1      45.567  24.835  39.158  1.00  0.00     0.056 A 
ATOM     17  C   UNL A   1      46.626  25.695  39.319  1.00  0.00     0.107 A 
ATOM     18  N   UNL A   1      44.568  25.446  38.420  1.00  0.00    -0.233 NA
ATOM     19  N   UNL A   1      46.268  26.824  38.645  1.00  0.00    -0.344 N 
ATOM     20  H   UNL A   1      46.797  27.652  38.599  1.00  0.00     0.167 HD
ENDBRANCH  13  14
ENDBRANCH  10  13
ENDBRANCH   9  10
BRANCH   9  21
ATOM     21  C   UNL A   1      43.588  25.452  34.678  1.00  0.00     0.021 A 
ATOM     22  C   UNL A   1      44.320  25.122  33.534  1.00  0.00     0.012 A 
ATOM     23  C   UNL A   1      43.165  24.390  35.491  1.00  0.00     0.012 A 
ATOM     24  C   UNL A   1      44.787  23.824  33.337  1.00  0.00     0.027 A 
ATOM     25  C   UNL A   1      43.677  23.099  35.316  1.00  0.00     0.027 A 
ATOM     26  C   UNL A   1      44.602  22.850  34.308  1.00  0.00     0.042 A 
BRANCH  26  27
ATOM     27  N   UNL A   1      45.309  21.633  34.324  1.00  0.00    -0.308 N 
ATOM     28  C   UNL A   1      46.647  21.381  34.408  1.00  0.00     0.321 C 
ATOM     29  H   UNL A   1      44.743  20.829  34.265  1.00  0.00     0.171 HD
ATOM     30  O   UNL A   1      47.075  20.313  33.966  1.00  0.00    -0.248 OA
ATOM     31  N   UNL A   1      47.482  22.311  34.957  1.00  0.00    -0.325 N 
ATOM     32  C   UNL A   1      47.302  23.027  36.206  1.00  0.00     0.121 C 
ATOM     33  C   UNL A   1      48.850  22.443  34.511  1.00  0.00     0.121 C 
ATOM     34  C   UNL A   1      48.206  24.236  36.036  1.00  0.00     0.023 C 
ATOM     35  C   UNL A   1      49.365  23.714  35.185  1.00  0.00     0.023 C 
ENDBRANCH  26  27
ENDBRANCH   9  21
ENDBRANCH   7   9
ENDBRANCH   6   7
ENDBRANCH   5   6
ENDBRANCH   4   5
ENDBRANCH   3   4
ENDBRANCH   2   3
ENDBRANCH   1   2
BRANCH   1  36
ATOM     36  O   UNL A   1      36.086  32.165  33.971  1.00  0.00    -0.377 OA
BRANCH  36  37
ATOM     37  C   UNL A   1      35.413  33.418  33.952  1.00  0.00     0.188 C 
BRANCH  37  38
ATOM     38  C   UNL A   1      34.114  33.514  33.156  1.00  0.00     0.188 C 
BRANCH  38  39
ATOM     39  O   UNL A   1      34.073  32.877  31.876  1.00  0.00    -0.376 OA
BRANCH  39  40
ATOM     40  C   UNL A   1      34.874  33.387  30.817  1.00  0.00     0.202 C 
BRANCH  40  41
ATOM     41  C   UNL A   1      34.258  33.338  29.420  1.00  0.00     0.261 C 
BRANCH  41  42
ATOM     42  O   UNL A   1      35.110  32.663  28.484  1.00  0.00    -0.460 OA
BRANCH  42  43
ATOM     43  C   UNL A   1      34.804  31.366  28.267  1.00  0.00     0.338 C 
ATOM     44  O   UNL A   1      33.738  30.905  27.883  1.00  0.00    -0.246 OA
BRANCH  43  45
ATOM     45  C   UNL A   1      36.020  30.553  28.414  1.00  0.00     0.060 A 
ATOM     46  C   UNL A   1      36.257  29.931  29.646  1.00  0.00     0.016 A 
ATOM     47  C   UNL A   1      36.953  30.471  27.378  1.00  0.00     0.016 A 
ATOM     48  C   UNL A   1      37.458  29.267  29.867  1.00  0.00     0.010 A 
ATOM     49  C   UNL A   1      38.162  29.818  27.605  1.00  0.00     0.010 A 
ATOM     50  C   UNL A   1      38.433  29.254  28.863  1.00  0.00    -0.014 A 
BRANCH  50  51
ATOM     51  C   UNL A   1      39.811  28.833  29.195  1.00  0.00     0.031 A 
ATOM     52  C   UNL A   1      40.693  29.802  29.930  1.00  0.00     0.074 A 
ATOM     53  C   UNL A   1      40.254  27.612  28.856  1.00  0.00     0.049 A 
ATOM     54  N   UNL A   1      41.955  29.695  30.252  1.00  0.00    -0.248 NA
ATOM     55  C   UNL A   1      40.066  31.066  30.356  1.00  0.00     0.031 C 
ATOM     56  C   UNL A   1      39.464  26.581  28.186  1.00  0.00     0.029 A 
ATOM     57  N   UNL A   1      41.488  27.041  29.019  1.00  0.00    -0.354 N 
ATOM     58  C   UNL A   1      42.276  30.880  30.904  1.00  0.00     0.074 A 
ATOM     59  C   UNL A   1      41.087  31.702  30.908  1.00  0.00     0.031 C 
ATOM     60  C   UNL A   1      40.242  25.505  27.976  1.00  0.00     0.029 A 
ATOM     61  C   UNL A   1      41.590  25.790  28.463  1.00  0.00     0.049 A 
ATOM     62  H   UNL A   1      42.230  27.484  29.491  1.00  0.00     0.167 HD
ATOM     63  C   UNL A   1      43.458  31.242  31.452  1.00  0.00     0.037 A 
ATOM     64  C   UNL A   1      42.663  24.987  28.334  1.00  0.00     0.037 A 
ATOM     65  C   UNL A   1      44.633  30.412  31.441  1.00  0.00     0.049 A 
ATOM     66  C   UNL A   1      43.987  25.447  28.887  1.00  0.00     0.074 A 
ATOM     67  C   UNL A   1      45.878  30.673  31.982  1.00  0.00     0.029 A 
ATOM     68  N   UNL A   1      44.704  29.159  30.850  1.00  0.00    -0.354 N 
ATOM     69  N   UNL A   1      44.281  26.559  29.520  1.00  0.00    -0.248 NA
ATOM     70  C   UNL A   1      45.130  24.541  28.710  1.00  0.00     0.031 C 
ATOM     71  C   UNL A   1      46.721  29.603  31.665  1.00  0.00     0.029 A 
ATOM     72  C   UNL A   1      45.983  28.646  30.987  1.00  0.00     0.049 A 
ATOM     73  H   UNL A   1      43.958  28.703  30.398  1.00  0.00     0.167 HD
ATOM     74  C   UNL A   1      45.627  26.468  29.848  1.00  0.00     0.074 A 
ATOM     75  C   UNL A   1      46.090  25.188  29.354  1.00  0.00     0.031 C 
ATOM     76  C   UNL A   1      46.414  27.360  30.499  1.00  0.00     0.037 A 
BRANCH  63  77
ATOM     77  C   UNL A   1      43.549  32.602  32.082  1.00  0.00     0.057 A 
ATOM     78  C   UNL A   1      43.312  32.809  33.447  1.00  0.00     0.134 A 
ATOM     79  C   UNL A   1      43.920  33.716  31.316  1.00  0.00     0.134 A 
ATOM     80  F   UNL A   1      42.935  31.791  34.234  1.00  0.00    -0.206 F 
ATOM     81  C   UNL A   1      43.425  34.076  34.024  1.00  0.00     0.040 A 
ATOM     82  C   UNL A   1      44.065  34.981  31.886  1.00  0.00     0.040 A 
ATOM     83  F   UNL A   1      44.161  33.588  30.002  1.00  0.00    -0.206 F 
ATOM     84  C   UNL A   1      43.812  35.164  33.244  1.00  0.00     0.006 A 
ENDBRANCH  63  77
BRANCH  64  85
ATOM     85  C   UNL A   1      42.543  23.680  27.639  1.00  0.00     0.057 A 
ATOM     86  C   UNL A   1      42.648  23.584  26.247  1.00  0.00     0.134 A 
ATOM     87  C   UNL A   1      42.284  22.499  28.347  1.00  0.00     0.134 A 
ATOM     88  F   UNL A   1      42.876  24.682  25.511  1.00  0.00    -0.206 F 
ATOM     89  C   UNL A   1      42.473  22.370  25.581  1.00  0.00     0.040 A 
ATOM     90  C   UNL A   1      42.136  21.273  27.696  1.00  0.00     0.040 A 
ATOM     91  F   UNL A   1      42.177  22.519  29.684  1.00  0.00    -0.206 F 
ATOM     92  C   UNL A   1      42.219  21.208  26.307  1.00  0.00     0.006 A 
ENDBRANCH  64  85
BRANCH  76  93
ATOM     93  C   UNL A   1      47.838  26.960  30.765  1.00  0.00     0.057 A 
ATOM     94  C   UNL A   1      48.216  26.285  31.931  1.00  0.00     0.134 A 
ATOM     95  C   UNL A   1      48.835  27.215  29.813  1.00  0.00     0.134 A 
ATOM     96  F   UNL A   1      47.313  26.018  32.886  1.00  0.00    -0.206 F 
ATOM     97  C   UNL A   1      49.539  25.903  32.155  1.00  0.00     0.040 A 
ATOM     98  C   UNL A   1      50.154  26.810  30.011  1.00  0.00     0.040 A 
ATOM     99  F   UNL A   1      48.537  27.847  28.667  1.00  0.00    -0.206 F 
ATOM    100  C   UNL A   1      50.511  26.159  31.188  1.00  0.00     0.006 A 
ENDBRANCH  76  93
ENDBRANCH  50  51
ENDBRANCH  43  45
ENDBRANCH  42  43
ENDBRANCH  41  42
ENDBRANCH  40  41
ENDBRANCH  39  40
ENDBRANCH  38  39
ENDBRANCH  37  38
ENDBRANCH  36  37
ENDBRANCH   1  36
TORSDOF 25
ENDMDL
MODEL 3
REMARK VINA RESULT:      -9.1      3.765      6.396
REMARK SMILES Cc1c[nH]c(C[N@@H+](C)[C@@H](C(=O)OCCOCCOCCOCCOC(=O)c2ccc(-c3c4nc(c(-c5c(F)cccc5F)c5ccc([nH]5)c(-c5c(F)cccc5F)c5nc(c(-c6c(F)cccc6F)c6ccc3[nH]6)C=C5)C=C4)cc2)c2ccc(NC(=O)N3CCCC3)cc2)n1
REMARK SMILES IDX 17 1 16 2 15 3 14 4 13 5 12 6 10 7 11 8 9 9 7 10 8 11 6 13
REMARK SMILES IDX 5 14 1 15 2 16 3 17 95 18 4 19 81 21 82 22 94 23 83 24 93 25
REMARK SMILES IDX 84 26 85 27 86 28 87 30 88 31 89 32 92 33 90 34 91 35 18 36
REMARK SMILES IDX 19 37 20 38 21 39 22 40 23 41 24 42 25 43 26 44 27 45 28 46
REMARK SMILES IDX 80 47 29 48 79 49 30 50 31 51 32 52 73 53 33 54 78 55 72 56
REMARK SMILES IDX 74 57 34 58 77 59 71 60 70 61 35 63 61 64 44 65 60 66 45 67
REMARK SMILES IDX 48 68 59 69 75 70 46 71 47 72 58 74 76 75 49 76 36 77 37 78
REMARK SMILES IDX 42 79 38 80 39 81 41 82 43 83 40 84 62 85 63 86 68 87 64 88
REMARK SMILES IDX 65 89 67 90 69 91 66 92 50 93 51 94 56 95 52 96 53 97 55 98
REMARK SMILES IDX 57 99 54 100
REMARK H PARENT 7 12 4 20 85 29 74 62 48 73
REMARK Flexibility Score: inf
ROOT
ATOM      1  C   UNL A   1      36.206  32.006  28.166  1.00  0.00     0.188 C 
ENDROOT
BRANCH   1   2
ATOM      2  C   UNL A   1      36.265  30.492  28.338  1.00  0.00     0.188 C 
BRANCH   2   3
ATOM      3  O   UNL A   1      35.757  29.719  27.275  1.00  0.00    -0.376 OA
BRANCH   3   4
ATOM      4  C   UNL A   1      34.551  28.996  27.519  1.00  0.00     0.202 C 
BRANCH   4   5
ATOM      5  C   UNL A   1      33.185  29.584  27.098  1.00  0.00     0.261 C 
BRANCH   5   6
ATOM      6  O   UNL A   1      32.715  29.169  25.784  1.00  0.00    -0.459 OA
BRANCH   6   7
ATOM      7  C   UNL A   1      32.043  27.986  25.747  1.00  0.00     0.369 C 
ATOM      8  O   UNL A   1      31.068  27.780  26.474  1.00  0.00    -0.245 OA
BRANCH   7   9
ATOM      9  C   UNL A   1      32.479  26.931  24.674  1.00  0.00     0.326 C 
BRANCH   9  10
ATOM     10  N   UNL A   1      32.566  27.302  23.226  1.00  0.00    -0.316 N 
ATOM     11  C   UNL A   1      33.786  26.790  22.598  1.00  0.00     0.334 C 
ATOM     12  H   UNL A   1      31.689  26.830  22.997  1.00  0.00     0.349 HD
BRANCH  10  13
ATOM     13  C   UNL A   1      32.226  28.613  22.640  1.00  0.00     0.339 C 
BRANCH  13  14
ATOM     14  C   UNL A   1      30.802  29.102  22.498  1.00  0.00     0.161 A 
ATOM     15  C   UNL A   1      27.253  29.181  22.985  1.00  0.00     0.068 C 
ATOM     16  C   UNL A   1      28.648  29.367  22.527  1.00  0.00     0.056 A 
ATOM     17  C   UNL A   1      29.125  30.301  21.640  1.00  0.00     0.107 A 
ATOM     18  N   UNL A   1      29.689  28.587  22.999  1.00  0.00    -0.233 NA
ATOM     19  N   UNL A   1      30.472  30.096  21.603  1.00  0.00    -0.344 N 
ATOM     20  H   UNL A   1      31.107  30.580  21.028  1.00  0.00     0.167 HD
ENDBRANCH  13  14
ENDBRANCH  10  13
ENDBRANCH   9  10
BRANCH   9  21
ATOM     21  C   UNL A   1      32.002  25.515  24.988  1.00  0.00     0.021 A 
ATOM     22  C   UNL A   1      31.335  24.712  24.059  1.00  0.00     0.012 A 
ATOM     23  C   UNL A   1      32.179  24.985  26.275  1.00  0.00     0.012 A 
ATOM     24  C   UNL A   1      31.059  23.375  24.339  1.00  0.00     0.027 A 
ATOM     25  C   UNL A   1      31.947  23.629  26.535  1.00  0.00     0.027 A 
ATOM     26  C   UNL A   1      31.510  22.791  25.515  1.00  0.00     0.042 A 
BRANCH  26  27
ATOM     27  N   UNL A   1      31.552  21.399  25.718  1.00  0.00    -0.308 N 
ATOM     28  C   UNL A   1      32.568  20.505  25.551  1.00  0.00     0.321 C 
ATOM     29  H   UNL A   1      30.706  21.005  26.034  1.00  0.00     0.171 HD
ATOM     30  O   UNL A   1      32.286  19.322  25.353  1.00  0.00    -0.248 OA
ATOM     31  N   UNL A   1      33.864  20.932  25.588  1.00  0.00    -0.325 N 
ATOM     32  C   UNL A   1      34.477  21.798  26.578  1.00  0.00     0.121 C 
ATOM     33  C   UNL A   1      34.890  20.276  24.811  1.00  0.00     0.121 C 
ATOM     34  C   UNL A   1      35.701  22.329  25.852  1.00  0.00     0.023 C 
ATOM     35  C   UNL A   1      36.120  21.174  24.940  1.00  0.00     0.023 C 
ENDBRANCH  26  27
ENDBRANCH   9  21
ENDBRANCH   7   9
ENDBRANCH   6   7
ENDBRANCH   5   6
ENDBRANCH   4   5
ENDBRANCH   3   4
ENDBRANCH   2   3
ENDBRANCH   1   2
BRANCH   1  36
ATOM     36  O   UNL A   1      35.020  32.565  27.631  1.00  0.00    -0.377 OA
BRANCH  36  37
ATOM     37  C   UNL A   1      34.187  33.401  28.424  1.00  0.00     0.188 C 
BRANCH  37  38
ATOM     38  C   UNL A   1      34.759  33.931  29.737  1.00  0.00     0.188 C 
BRANCH  38  39
ATOM     39  O   UNL A   1      33.873  34.024  30.855  1.00  0.00    -0.376 OA
BRANCH  39  40
ATOM     40  C   UNL A   1      34.287  34.738  32.015  1.00  0.00     0.202 C 
BRANCH  40  41
ATOM     41  C   UNL A   1      34.759  33.892  33.196  1.00  0.00     0.261 C 
BRANCH  41  42
ATOM     42  O   UNL A   1      35.873  34.491  33.872  1.00  0.00    -0.460 OA
BRANCH  42  43
ATOM     43  C   UNL A   1      36.464  33.710  34.801  1.00  0.00     0.338 C 
ATOM     44  O   UNL A   1      36.146  33.578  35.975  1.00  0.00    -0.246 OA
BRANCH  43  45
ATOM     45  C   UNL A   1      37.495  32.887  34.153  1.00  0.00     0.060 A 
ATOM     46  C   UNL A   1      37.550  31.524  34.470  1.00  0.00     0.016 A 
ATOM     47  C   UNL A   1      38.442  33.466  33.307  1.00  0.00     0.016 A 
ATOM     48  C   UNL A   1      38.592  30.742  33.983  1.00  0.00     0.010 A 
ATOM     49  C   UNL A   1      39.493  32.685  32.831  1.00  0.00     0.010 A 
ATOM     50  C   UNL A   1      39.592  31.334  33.204  1.00  0.00    -0.014 A 
BRANCH  50  51
ATOM     51  C   UNL A   1      40.848  30.596  32.951  1.00  0.00     0.031 A 
ATOM     52  C   UNL A   1      41.969  30.739  33.941  1.00  0.00     0.074 A 
ATOM     53  C   UNL A   1      40.974  29.809  31.870  1.00  0.00     0.049 A 
ATOM     54  N   UNL A   1      43.185  30.263  33.892  1.00  0.00    -0.248 NA
ATOM     55  C   UNL A   1      41.679  31.531  35.150  1.00  0.00     0.031 C 
ATOM     56  C   UNL A   1      39.930  29.564  30.876  1.00  0.00     0.029 A 
ATOM     57  N   UNL A   1      42.046  29.084  31.423  1.00  0.00    -0.354 N 
ATOM     58  C   UNL A   1      43.808  30.709  35.052  1.00  0.00     0.074 A 
ATOM     59  C   UNL A   1      42.848  31.514  35.771  1.00  0.00     0.031 C 
ATOM     60  C   UNL A   1      40.422  28.757  29.920  1.00  0.00     0.029 A 
ATOM     61  C   UNL A   1      41.823  28.464  30.219  1.00  0.00     0.049 A 
ATOM     62  H   UNL A   1      42.894  29.012  31.918  1.00  0.00     0.167 HD
ATOM     63  C   UNL A   1      45.068  30.461  35.475  1.00  0.00     0.037 A 
ATOM     64  C   UNL A   1      42.669  27.769  29.435  1.00  0.00     0.037 A 
ATOM     65  C   UNL A   1      46.013  29.656  34.747  1.00  0.00     0.049 A 
ATOM     66  C   UNL A   1      44.090  27.572  29.895  1.00  0.00     0.074 A 
ATOM     67  C   UNL A   1      47.310  29.326  35.092  1.00  0.00     0.029 A 
ATOM     68  N   UNL A   1      45.758  29.061  33.520  1.00  0.00    -0.354 N 
ATOM     69  N   UNL A   1      44.669  27.978  31.001  1.00  0.00    -0.248 NA
ATOM     70  C   UNL A   1      44.978  26.819  28.999  1.00  0.00     0.031 C 
ATOM     71  C   UNL A   1      47.862  28.582  34.045  1.00  0.00     0.029 A 
ATOM     72  C   UNL A   1      46.886  28.390  33.080  1.00  0.00     0.049 A 
ATOM     73  H   UNL A   1      44.904  29.111  33.034  1.00  0.00     0.167 HD
ATOM     74  C   UNL A   1      45.971  27.498  30.950  1.00  0.00     0.074 A 
ATOM     75  C   UNL A   1      46.095  26.762  29.709  1.00  0.00     0.031 C 
ATOM     76  C   UNL A   1      46.978  27.650  31.846  1.00  0.00     0.037 A 
BRANCH  63  77
ATOM     77  C   UNL A   1      45.508  31.089  36.766  1.00  0.00     0.057 A 
ATOM     78  C   UNL A   1      46.101  32.358  36.812  1.00  0.00     0.134 A 
ATOM     79  C   UNL A   1      45.299  30.430  37.984  1.00  0.00     0.134 A 
ATOM     80  F   UNL A   1      46.347  33.036  35.682  1.00  0.00    -0.206 F 
ATOM     81  C   UNL A   1      46.483  32.941  38.023  1.00  0.00     0.040 A 
ATOM     82  C   UNL A   1      45.650  31.014  39.202  1.00  0.00     0.040 A 
ATOM     83  F   UNL A   1      44.737  29.212  38.011  1.00  0.00    -0.206 F 
ATOM     84  C   UNL A   1      46.249  32.271  39.223  1.00  0.00     0.006 A 
ENDBRANCH  63  77
BRANCH  64  85
ATOM     85  C   UNL A   1      42.210  27.227  28.131  1.00  0.00     0.057 A 
ATOM     86  C   UNL A   1      42.146  28.035  26.989  1.00  0.00     0.134 A 
ATOM     87  C   UNL A   1      41.789  25.897  28.001  1.00  0.00     0.134 A 
ATOM     88  F   UNL A   1      42.517  29.322  27.053  1.00  0.00    -0.206 F 
ATOM     89  C   UNL A   1      41.656  27.550  25.776  1.00  0.00     0.040 A 
ATOM     90  C   UNL A   1      41.325  25.391  26.787  1.00  0.00     0.040 A 
ATOM     91  F   UNL A   1      41.830  25.067  29.054  1.00  0.00    -0.206 F 
ATOM     92  C   UNL A   1      41.246  26.222  25.671  1.00  0.00     0.006 A 
ENDBRANCH  64  85
BRANCH  76  93
ATOM     93  C   UNL A   1      48.279  26.962  31.546  1.00  0.00     0.057 A 
ATOM     94  C   UNL A   1      49.267  27.552  30.747  1.00  0.00     0.134 A 
ATOM     95  C   UNL A   1      48.563  25.708  32.104  1.00  0.00     0.134 A 
ATOM     96  F   UNL A   1      49.054  28.746  30.174  1.00  0.00    -0.206 F 
ATOM     97  C   UNL A   1      50.477  26.907  30.492  1.00  0.00     0.040 A 
ATOM     98  C   UNL A   1      49.782  25.068  31.883  1.00  0.00     0.040 A 
ATOM     99  F   UNL A   1      47.665  25.093  32.890  1.00  0.00    -0.206 F 
ATOM    100  C   UNL A   1      50.741  25.665  31.068  1.00  0.00     0.006 A 
ENDBRANCH  76  93
ENDBRANCH  50  51
ENDBRANCH  43  45
ENDBRANCH  42  43
ENDBRANCH  41  42
ENDBRANCH  40  41
ENDBRANCH  39  40
ENDBRANCH  38  39
ENDBRANCH  37  38
ENDBRANCH  36  37
ENDBRANCH   1  36
TORSDOF 25
ENDMDL
