MODEL 1
REMARK VINA RESULT:     -10.8      0.000      0.000
REMARK SMILES Cc1cc(F)cc(N[C@H](C(=O)OCCOCCOCCOCCOC(=O)c2ccc(-c3c4nc(c(-c5c(F)cccc5F)c5ccc([nH]5)c(-c5c(F)cccc5F)c5nc(c(-c6c(F)cccc6F)c6ccc3[nH]6)C=C5)C=C4)cc2)c2cc(C)cc(C)c2)c1
REMARK SMILES IDX 18 1 17 2 16 3 15 4 14 5 13 6 12 7 10 8 11 9 9 10 8 11 7 13
REMARK SMILES IDX 1 14 2 15 3 16 89 17 4 18 5 19 6 20 81 21 82 22 88 23 83 24
REMARK SMILES IDX 86 25 84 26 85 27 87 28 19 29 20 30 21 31 22 32 23 33 24 34
REMARK SMILES IDX 25 35 26 36 27 37 28 38 80 39 29 40 79 41 30 42 31 43 32 44
REMARK SMILES IDX 73 45 33 46 78 47 72 48 74 49 34 50 77 51 71 52 70 53 35 55
REMARK SMILES IDX 61 56 44 57 60 58 45 59 48 60 59 61 75 62 46 63 47 64 58 66
REMARK SMILES IDX 76 67 49 68 36 69 37 70 42 71 38 72 39 73 41 74 43 75 40 76
REMARK SMILES IDX 62 77 63 78 68 79 64 80 65 81 67 82 69 83 66 84 50 85 51 86
REMARK SMILES IDX 56 87 52 88 53 89 55 90 57 91 54 92
REMARK H PARENT 8 12 74 54 48 65
REMARK Flexibility Score: inf
ROOT
ATOM      1  O   UNL A   1      39.646  22.030  26.916  1.00  0.00    -0.377 OA
ENDROOT
BRANCH   1   2
ATOM      2  C   UNL A   1      38.935  21.657  25.739  1.00  0.00     0.188 C 
BRANCH   2   3
ATOM      3  C   UNL A   1      37.465  22.070  25.456  1.00  0.00     0.188 C 
BRANCH   3   4
ATOM      4  O   UNL A   1      37.293  23.139  24.540  1.00  0.00    -0.376 OA
BRANCH   4   5
ATOM      5  C   UNL A   1      36.606  22.979  23.317  1.00  0.00     0.202 C 
BRANCH   5   6
ATOM      6  C   UNL A   1      35.074  23.091  23.373  1.00  0.00     0.261 C 
BRANCH   6   7
ATOM      7  O   UNL A   1      34.561  24.367  22.981  1.00  0.00    -0.461 OA
BRANCH   7   8
ATOM      8  C   UNL A   1      33.213  24.381  22.784  1.00  0.00     0.333 C 
ATOM      9  O   UNL A   1      32.664  23.706  21.919  1.00  0.00    -0.249 OA
BRANCH   8  10
ATOM     10  C   UNL A   1      32.483  25.223  23.853  1.00  0.00     0.221 C 
BRANCH  10  11
ATOM     11  N   UNL A   1      31.280  25.908  23.319  1.00  0.00    -0.369 N 
ATOM     12  H   UNL A   1      30.623  25.338  22.854  1.00  0.00     0.161 HD
BRANCH  11  13
ATOM     13  C   UNL A   1      30.973  27.258  23.397  1.00  0.00     0.038 A 
ATOM     14  C   UNL A   1      31.536  30.189  25.816  1.00  0.00     0.044 C 
ATOM     15  C   UNL A   1      31.072  29.380  24.643  1.00  0.00    -0.046 A 
ATOM     16  C   UNL A   1      30.252  29.992  23.695  1.00  0.00     0.042 A 
ATOM     17  C   UNL A   1      31.407  28.015  24.500  1.00  0.00     0.029 A 
ATOM     18  C   UNL A   1      29.819  29.259  22.614  1.00  0.00     0.125 A 
ATOM     19  F   UNL A   1      29.028  29.823  21.692  1.00  0.00    -0.207 F 
ATOM     20  C   UNL A   1      30.192  27.931  22.464  1.00  0.00     0.065 A 
ENDBRANCH  11  13
ENDBRANCH  10  11
BRANCH  10  21
ATOM     21  C   UNL A   1      32.220  24.458  25.144  1.00  0.00    -0.014 A 
ATOM     22  C   UNL A   1      33.283  24.136  25.998  1.00  0.00     0.010 A 
ATOM     23  C   UNL A   1      30.942  24.024  25.511  1.00  0.00     0.010 A 
ATOM     24  C   UNL A   1      33.162  23.224  27.032  1.00  0.00    -0.051 A 
ATOM     25  C   UNL A   1      30.768  23.242  26.665  1.00  0.00    -0.051 A 
ATOM     26  C   UNL A   1      34.428  22.651  27.590  1.00  0.00     0.044 C 
ATOM     27  C   UNL A   1      31.892  22.787  27.376  1.00  0.00     0.006 A 
ATOM     28  C   UNL A   1      29.400  22.840  27.129  1.00  0.00     0.044 C 
ENDBRANCH  10  21
ENDBRANCH   8  10
ENDBRANCH   7   8
ENDBRANCH   6   7
ENDBRANCH   5   6
ENDBRANCH   4   5
ENDBRANCH   3   4
ENDBRANCH   2   3
ENDBRANCH   1   2
BRANCH   1  29
ATOM     29  C   UNL A   1      40.681  21.180  27.384  1.00  0.00     0.188 C 
BRANCH  29  30
ATOM     30  C   UNL A   1      41.143  20.126  26.357  1.00  0.00     0.188 C 
BRANCH  30  31
ATOM     31  O   UNL A   1      42.500  19.756  26.533  1.00  0.00    -0.376 OA
BRANCH  31  32
ATOM     32  C   UNL A   1      43.438  20.101  25.532  1.00  0.00     0.202 C 
BRANCH  32  33
ATOM     33  C   UNL A   1      44.129  21.478  25.493  1.00  0.00     0.261 C 
BRANCH  33  34
ATOM     34  O   UNL A   1      43.306  22.653  25.487  1.00  0.00    -0.460 OA
BRANCH  34  35
ATOM     35  C   UNL A   1      43.882  23.845  25.231  1.00  0.00     0.338 C 
ATOM     36  O   UNL A   1      44.651  24.115  24.323  1.00  0.00    -0.246 OA
BRANCH  35  37
ATOM     37  C   UNL A   1      43.244  24.833  26.130  1.00  0.00     0.060 A 
ATOM     38  C   UNL A   1      43.662  26.173  26.095  1.00  0.00     0.016 A 
ATOM     39  C   UNL A   1      42.198  24.445  26.971  1.00  0.00     0.016 A 
ATOM     40  C   UNL A   1      43.051  27.121  26.917  1.00  0.00     0.010 A 
ATOM     41  C   UNL A   1      41.612  25.386  27.819  1.00  0.00     0.010 A 
ATOM     42  C   UNL A   1      42.057  26.720  27.818  1.00  0.00    -0.014 A 
BRANCH  42  43
ATOM     43  C   UNL A   1      41.639  27.631  28.909  1.00  0.00     0.031 A 
ATOM     44  C   UNL A   1      42.403  27.573  30.203  1.00  0.00     0.074 A 
ATOM     45  C   UNL A   1      40.615  28.490  28.763  1.00  0.00     0.049 A 
ATOM     46  N   UNL A   1      42.177  28.190  31.334  1.00  0.00    -0.248 NA
ATOM     47  C   UNL A   1      43.581  26.690  30.223  1.00  0.00     0.031 C 
ATOM     48  C   UNL A   1      39.834  28.678  27.544  1.00  0.00     0.029 A 
ATOM     49  N   UNL A   1      40.050  29.356  29.666  1.00  0.00    -0.354 N 
ATOM     50  C   UNL A   1      43.176  27.762  32.199  1.00  0.00     0.074 A 
ATOM     51  C   UNL A   1      43.990  26.812  31.475  1.00  0.00     0.031 C 
ATOM     52  C   UNL A   1      38.873  29.590  27.780  1.00  0.00     0.029 A 
ATOM     53  C   UNL A   1      38.949  30.016  29.177  1.00  0.00     0.049 A 
ATOM     54  H   UNL A   1      40.399  29.490  30.577  1.00  0.00     0.167 HD
ATOM     55  C   UNL A   1      43.395  28.131  33.483  1.00  0.00     0.037 A 
ATOM     56  C   UNL A   1      38.087  30.844  29.800  1.00  0.00     0.037 A 
ATOM     57  C   UNL A   1      42.576  29.070  34.201  1.00  0.00     0.049 A 
ATOM     58  C   UNL A   1      38.298  31.169  31.258  1.00  0.00     0.074 A 
ATOM     59  C   UNL A   1      42.723  29.523  35.499  1.00  0.00     0.029 A 
ATOM     60  N   UNL A   1      41.450  29.692  33.683  1.00  0.00    -0.354 N 
ATOM     61  N   UNL A   1      39.254  30.778  32.066  1.00  0.00    -0.248 NA
ATOM     62  C   UNL A   1      37.305  32.049  31.892  1.00  0.00     0.031 C 
ATOM     63  C   UNL A   1      41.649  30.371  35.788  1.00  0.00     0.029 A 
ATOM     64  C   UNL A   1      40.871  30.498  34.649  1.00  0.00     0.049 A 
ATOM     65  H   UNL A   1      41.112  29.577  32.765  1.00  0.00     0.167 HD
ATOM     66  C   UNL A   1      38.996  31.385  33.290  1.00  0.00     0.074 A 
ATOM     67  C   UNL A   1      37.801  32.184  33.114  1.00  0.00     0.031 C 
ATOM     68  C   UNL A   1      39.683  31.292  34.455  1.00  0.00     0.037 A 
BRANCH  55  69
ATOM     69  C   UNL A   1      44.546  27.486  34.199  1.00  0.00     0.057 A 
ATOM     70  C   UNL A   1      45.822  28.063  34.228  1.00  0.00     0.134 A 
ATOM     71  C   UNL A   1      44.366  26.281  34.890  1.00  0.00     0.134 A 
ATOM     72  F   UNL A   1      46.067  29.207  33.571  1.00  0.00    -0.206 F 
ATOM     73  C   UNL A   1      46.884  27.452  34.898  1.00  0.00     0.040 A 
ATOM     74  C   UNL A   1      45.413  25.677  35.589  1.00  0.00     0.040 A 
ATOM     75  F   UNL A   1      43.170  25.675  34.905  1.00  0.00    -0.206 F 
ATOM     76  C   UNL A   1      46.678  26.260  35.587  1.00  0.00     0.006 A 
ENDBRANCH  55  69
BRANCH  56  77
ATOM     77  C   UNL A   1      36.925  31.407  29.064  1.00  0.00     0.057 A 
ATOM     78  C   UNL A   1      36.924  32.732  28.612  1.00  0.00     0.134 A 
ATOM     79  C   UNL A   1      35.775  30.646  28.824  1.00  0.00     0.134 A 
ATOM     80  F   UNL A   1      37.986  33.522  28.835  1.00  0.00    -0.206 F 
ATOM     81  C   UNL A   1      35.816  33.286  27.969  1.00  0.00     0.040 A 
ATOM     82  C   UNL A   1      34.670  31.178  28.156  1.00  0.00     0.040 A 
ATOM     83  F   UNL A   1      35.708  29.370  29.232  1.00  0.00    -0.206 F 
ATOM     84  C   UNL A   1      34.686  32.506  27.734  1.00  0.00     0.006 A 
ENDBRANCH  56  77
BRANCH  68  85
ATOM     85  C   UNL A   1      39.187  32.100  35.621  1.00  0.00     0.057 A 
ATOM     86  C   UNL A   1      39.534  33.445  35.794  1.00  0.00     0.134 A 
ATOM     87  C   UNL A   1      38.311  31.534  36.558  1.00  0.00     0.134 A 
ATOM     88  F   UNL A   1      40.378  34.045  34.941  1.00  0.00    -0.206 F 
ATOM     89  C   UNL A   1      39.050  34.192  36.871  1.00  0.00     0.040 A 
ATOM     90  C   UNL A   1      37.794  32.279  37.619  1.00  0.00     0.040 A 
ATOM     91  F   UNL A   1      37.926  30.253  36.445  1.00  0.00    -0.206 F 
ATOM     92  C   UNL A   1      38.170  33.610  37.782  1.00  0.00     0.006 A 
ENDBRANCH  68  85
ENDBRANCH  42  43
ENDBRANCH  35  37
ENDBRANCH  34  35
ENDBRANCH  33  34
ENDBRANCH  32  33
ENDBRANCH  31  32
ENDBRANCH  30  31
ENDBRANCH  29  30
ENDBRANCH   1  29
TORSDOF 23
ENDMDL
MODEL 2
REMARK VINA RESULT:     -10.6      1.367      2.601
REMARK SMILES Cc1cc(F)cc(N[C@H](C(=O)OCCOCCOCCOCCOC(=O)c2ccc(-c3c4nc(c(-c5c(F)cccc5F)c5ccc([nH]5)c(-c5c(F)cccc5F)c5nc(c(-c6c(F)cccc6F)c6ccc3[nH]6)C=C5)C=C4)cc2)c2cc(C)cc(C)c2)c1
REMARK SMILES IDX 18 1 17 2 16 3 15 4 14 5 13 6 12 7 10 8 11 9 9 10 8 11 7 13
REMARK SMILES IDX 1 14 2 15 3 16 89 17 4 18 5 19 6 20 81 21 82 22 88 23 83 24
REMARK SMILES IDX 86 25 84 26 85 27 87 28 19 29 20 30 21 31 22 32 23 33 24 34
REMARK SMILES IDX 25 35 26 36 27 37 28 38 80 39 29 40 79 41 30 42 31 43 32 44
REMARK SMILES IDX 73 45 33 46 78 47 72 48 74 49 34 50 77 51 71 52 70 53 35 55
REMARK SMILES IDX 61 56 44 57 60 58 45 59 48 60 59 61 75 62 46 63 47 64 58 66
REMARK SMILES IDX 76 67 49 68 36 69 37 70 42 71 38 72 39 73 41 74 43 75 40 76
REMARK SMILES IDX 62 77 63 78 68 79 64 80 65 81 67 82 69 83 66 84 50 85 51 86
REMARK SMILES IDX 56 87 52 88 53 89 55 90 57 91 54 92
REMARK H PARENT 8 12 74 54 48 65
REMARK Flexibility Score: inf
ROOT
ATOM      1  O   UNL A   1      37.508  22.848  25.726  1.00  0.00    -0.377 OA
ENDROOT
BRANCH   1   2
ATOM      2  C   UNL A   1      37.126  21.767  24.879  1.00  0.00     0.188 C 
BRANCH   2   3
ATOM      3  C   UNL A   1      36.034  20.728  25.254  1.00  0.00     0.188 C 
BRANCH   3   4
ATOM      4  O   UNL A   1      34.729  21.007  24.774  1.00  0.00    -0.376 OA
BRANCH   4   5
ATOM      5  C   UNL A   1      33.698  21.466  25.622  1.00  0.00     0.202 C 
BRANCH   5   6
ATOM      6  C   UNL A   1      33.089  22.835  25.280  1.00  0.00     0.261 C 
BRANCH   6   7
ATOM      7  O   UNL A   1      31.660  22.849  25.229  1.00  0.00    -0.461 OA
BRANCH   7   8
ATOM      8  C   UNL A   1      31.100  23.958  25.789  1.00  0.00     0.333 C 
ATOM      9  O   UNL A   1      30.910  24.065  26.996  1.00  0.00    -0.249 OA
BRANCH   8  10
ATOM     10  C   UNL A   1      30.878  25.078  24.749  1.00  0.00     0.221 C 
BRANCH  10  11
ATOM     11  N   UNL A   1      29.444  25.418  24.573  1.00  0.00    -0.369 N 
ATOM     12  H   UNL A   1      28.794  24.771  24.932  1.00  0.00     0.161 HD
BRANCH  11  13
ATOM     13  C   UNL A   1      28.914  26.543  23.959  1.00  0.00     0.038 A 
ATOM     14  C   UNL A   1      30.177  29.649  22.084  1.00  0.00     0.044 C 
ATOM     15  C   UNL A   1      29.271  28.657  22.747  1.00  0.00    -0.046 A 
ATOM     16  C   UNL A   1      27.907  28.943  22.815  1.00  0.00     0.042 A 
ATOM     17  C   UNL A   1      29.766  27.474  23.338  1.00  0.00     0.029 A 
ATOM     18  C   UNL A   1      27.065  28.041  23.423  1.00  0.00     0.125 A 
ATOM     19  F   UNL A   1      25.752  28.294  23.503  1.00  0.00    -0.207 F 
ATOM     20  C   UNL A   1      27.560  26.862  23.960  1.00  0.00     0.065 A 
ENDBRANCH  11  13
ENDBRANCH  10  11
BRANCH  10  21
ATOM     21  C   UNL A   1      31.764  26.296  24.979  1.00  0.00    -0.014 A 
ATOM     22  C   UNL A   1      31.717  26.977  26.203  1.00  0.00     0.010 A 
ATOM     23  C   UNL A   1      32.621  26.796  23.994  1.00  0.00     0.010 A 
ATOM     24  C   UNL A   1      32.281  28.227  26.385  1.00  0.00    -0.051 A 
ATOM     25  C   UNL A   1      33.348  27.976  24.226  1.00  0.00    -0.051 A 
ATOM     26  C   UNL A   1      31.812  29.023  27.564  1.00  0.00     0.044 C 
ATOM     27  C   UNL A   1      33.115  28.722  25.394  1.00  0.00     0.006 A 
ATOM     28  C   UNL A   1      34.340  28.485  23.222  1.00  0.00     0.044 C 
ENDBRANCH  10  21
ENDBRANCH   8  10
ENDBRANCH   7   8
ENDBRANCH   6   7
ENDBRANCH   5   6
ENDBRANCH   4   5
ENDBRANCH   3   4
ENDBRANCH   2   3
ENDBRANCH   1   2
BRANCH   1  29
ATOM     29  C   UNL A   1      38.766  22.788  26.379  1.00  0.00     0.188 C 
BRANCH  29  30
ATOM     30  C   UNL A   1      39.630  21.578  25.971  1.00  0.00     0.188 C 
BRANCH  30  31
ATOM     31  O   UNL A   1      40.713  21.361  26.860  1.00  0.00    -0.376 OA
BRANCH  31  32
ATOM     32  C   UNL A   1      41.887  20.743  26.369  1.00  0.00     0.202 C 
BRANCH  32  33
ATOM     33  C   UNL A   1      43.069  21.555  25.805  1.00  0.00     0.261 C 
BRANCH  33  34
ATOM     34  O   UNL A   1      42.782  22.721  25.021  1.00  0.00    -0.460 OA
BRANCH  34  35
ATOM     35  C   UNL A   1      43.635  23.763  25.073  1.00  0.00     0.338 C 
ATOM     36  O   UNL A   1      44.627  23.943  24.386  1.00  0.00    -0.246 OA
BRANCH  35  37
ATOM     37  C   UNL A   1      43.032  24.768  25.978  1.00  0.00     0.060 A 
ATOM     38  C   UNL A   1      43.549  26.073  26.006  1.00  0.00     0.016 A 
ATOM     39  C   UNL A   1      41.925  24.433  26.761  1.00  0.00     0.016 A 
ATOM     40  C   UNL A   1      42.974  27.038  26.834  1.00  0.00     0.010 A 
ATOM     41  C   UNL A   1      41.372  25.389  27.615  1.00  0.00     0.010 A 
ATOM     42  C   UNL A   1      41.914  26.685  27.679  1.00  0.00    -0.014 A 
BRANCH  42  43
ATOM     43  C   UNL A   1      41.516  27.591  28.782  1.00  0.00     0.031 A 
ATOM     44  C   UNL A   1      42.288  27.509  30.069  1.00  0.00     0.074 A 
ATOM     45  C   UNL A   1      40.503  28.465  28.652  1.00  0.00     0.049 A 
ATOM     46  N   UNL A   1      42.079  28.117  31.208  1.00  0.00    -0.248 NA
ATOM     47  C   UNL A   1      43.454  26.609  30.072  1.00  0.00     0.031 C 
ATOM     48  C   UNL A   1      39.716  28.676  27.441  1.00  0.00     0.029 A 
ATOM     49  N   UNL A   1      39.956  29.329  29.568  1.00  0.00    -0.354 N 
ATOM     50  C   UNL A   1      43.077  27.666  32.062  1.00  0.00     0.074 A 
ATOM     51  C   UNL A   1      43.874  26.713  31.323  1.00  0.00     0.031 C 
ATOM     52  C   UNL A   1      38.770  29.599  27.693  1.00  0.00     0.029 A 
ATOM     53  C   UNL A   1      38.861  30.010  29.093  1.00  0.00     0.049 A 
ATOM     54  H   UNL A   1      40.313  29.449  30.477  1.00  0.00     0.167 HD
ATOM     55  C   UNL A   1      43.310  28.019  33.348  1.00  0.00     0.037 A 
ATOM     56  C   UNL A   1      38.015  30.843  29.731  1.00  0.00     0.037 A 
ATOM     57  C   UNL A   1      42.510  28.962  34.081  1.00  0.00     0.049 A 
ATOM     58  C   UNL A   1      38.240  31.150  31.190  1.00  0.00     0.074 A 
ATOM     59  C   UNL A   1      42.672  29.400  35.383  1.00  0.00     0.029 A 
ATOM     60  N   UNL A   1      41.389  29.605  33.578  1.00  0.00    -0.354 N 
ATOM     61  N   UNL A   1      39.196  30.737  31.987  1.00  0.00    -0.248 NA
ATOM     62  C   UNL A   1      37.264  32.036  31.840  1.00  0.00     0.031 C 
ATOM     63  C   UNL A   1      41.612  30.260  35.688  1.00  0.00     0.029 A 
ATOM     64  C   UNL A   1      40.828  30.409  34.555  1.00  0.00     0.049 A 
ATOM     65  H   UNL A   1      41.043  29.504  32.661  1.00  0.00     0.167 HD
ATOM     66  C   UNL A   1      38.955  31.335  33.220  1.00  0.00     0.074 A 
ATOM     67  C   UNL A   1      37.771  32.153  33.060  1.00  0.00     0.031 C 
ATOM     68  C   UNL A   1      39.649  31.221  34.378  1.00  0.00     0.037 A 
BRANCH  55  69
ATOM     69  C   UNL A   1      44.457  27.352  34.049  1.00  0.00     0.057 A 
ATOM     70  C   UNL A   1      44.312  26.127  34.715  1.00  0.00     0.134 A 
ATOM     71  C   UNL A   1      45.732  27.932  34.037  1.00  0.00     0.134 A 
ATOM     72  F   UNL A   1      43.114  25.526  34.781  1.00  0.00    -0.206 F 
ATOM     73  C   UNL A   1      45.387  25.518  35.364  1.00  0.00     0.040 A 
ATOM     74  C   UNL A   1      46.821  27.317  34.656  1.00  0.00     0.040 A 
ATOM     75  F   UNL A   1      45.942  29.103  33.416  1.00  0.00    -0.206 F 
ATOM     76  C   UNL A   1      46.648  26.110  35.328  1.00  0.00     0.006 A 
ENDBRANCH  55  69
BRANCH  56  77
ATOM     77  C   UNL A   1      36.856  31.429  29.009  1.00  0.00     0.057 A 
ATOM     78  C   UNL A   1      36.860  32.765  28.591  1.00  0.00     0.134 A 
ATOM     79  C   UNL A   1      35.703  30.679  28.748  1.00  0.00     0.134 A 
ATOM     80  F   UNL A   1      37.925  33.545  28.836  1.00  0.00    -0.206 F 
ATOM     81  C   UNL A   1      35.755  33.340  27.962  1.00  0.00     0.040 A 
ATOM     82  C   UNL A   1      34.600  31.232  28.093  1.00  0.00     0.040 A 
ATOM     83  F   UNL A   1      35.631  29.393  29.123  1.00  0.00    -0.206 F 
ATOM     84  C   UNL A   1      34.622  32.571  27.706  1.00  0.00     0.006 A 
ENDBRANCH  56  77
BRANCH  68  85
ATOM     85  C   UNL A   1      39.172  32.023  35.556  1.00  0.00     0.057 A 
ATOM     86  C   UNL A   1      38.338  31.476  36.538  1.00  0.00     0.134 A 
ATOM     87  C   UNL A   1      39.592  33.349  35.732  1.00  0.00     0.134 A 
ATOM     88  F   UNL A   1      37.889  30.217  36.426  1.00  0.00    -0.206 F 
ATOM     89  C   UNL A   1      37.918  32.226  37.640  1.00  0.00     0.040 A 
ATOM     90  C   UNL A   1      39.207  34.097  36.845  1.00  0.00     0.040 A 
ATOM     91  F   UNL A   1      40.404  33.932  34.835  1.00  0.00    -0.206 F 
ATOM     92  C   UNL A   1      38.360  33.538  37.799  1.00  0.00     0.006 A 
ENDBRANCH  68  85
ENDBRANCH  42  43
ENDBRANCH  35  37
ENDBRANCH  34  35
ENDBRANCH  33  34
ENDBRANCH  32  33
ENDBRANCH  31  32
ENDBRANCH  30  31
ENDBRANCH  29  30
ENDBRANCH   1  29
TORSDOF 23
ENDMDL
MODEL 3
REMARK VINA RESULT:     -10.5      3.592      6.277
REMARK SMILES Cc1cc(F)cc(N[C@H](C(=O)OCCOCCOCCOCCOC(=O)c2ccc(-c3c4nc(c(-c5c(F)cccc5F)c5ccc([nH]5)c(-c5c(F)cccc5F)c5nc(c(-c6c(F)cccc6F)c6ccc3[nH]6)C=C5)C=C4)cc2)c2cc(C)cc(C)c2)c1
REMARK SMILES IDX 18 1 17 2 16 3 15 4 14 5 13 6 12 7 10 8 11 9 9 10 8 11 7 13
REMARK SMILES IDX 1 14 2 15 3 16 89 17 4 18 5 19 6 20 81 21 82 22 88 23 83 24
REMARK SMILES IDX 86 25 84 26 85 27 87 28 19 29 20 30 21 31 22 32 23 33 24 34
REMARK SMILES IDX 25 35 26 36 27 37 28 38 80 39 29 40 79 41 30 42 31 43 32 44
REMARK SMILES IDX 73 45 33 46 78 47 72 48 74 49 34 50 77 51 71 52 70 53 35 55
REMARK SMILES IDX 61 56 44 57 60 58 45 59 48 60 59 61 75 62 46 63 47 64 58 66
REMARK SMILES IDX 76 67 49 68 36 69 37 70 42 71 38 72 39 73 41 74 43 75 40 76
REMARK SMILES IDX 62 77 63 78 68 79 64 80 65 81 67 82 69 83 66 84 50 85 51 86
REMARK SMILES IDX 56 87 52 88 53 89 55 90 57 91 54 92
REMARK H PARENT 8 12 74 54 48 65
REMARK Flexibility Score: inf
ROOT
ATOM      1  O   UNL A   1      34.539  21.798  27.032  1.00  0.00    -0.377 OA
ENDROOT
BRANCH   1   2
ATOM      2  C   UNL A   1      33.267  22.339  27.380  1.00  0.00     0.188 C 
BRANCH   2   3
ATOM      3  C   UNL A   1      32.607  23.531  26.634  1.00  0.00     0.188 C 
BRANCH   3   4
ATOM      4  O   UNL A   1      31.466  24.092  27.261  1.00  0.00    -0.376 OA
BRANCH   4   5
ATOM      5  C   UNL A   1      30.407  24.664  26.522  1.00  0.00     0.202 C 
BRANCH   5   6
ATOM      6  C   UNL A   1      30.682  24.946  25.037  1.00  0.00     0.261 C 
BRANCH   6   7
ATOM      7  O   UNL A   1      31.240  26.236  24.776  1.00  0.00    -0.461 OA
BRANCH   7   8
ATOM      8  C   UNL A   1      31.643  26.410  23.485  1.00  0.00     0.333 C 
ATOM      9  O   UNL A   1      31.469  25.560  22.618  1.00  0.00    -0.249 OA
BRANCH   8  10
ATOM     10  C   UNL A   1      32.200  27.830  23.242  1.00  0.00     0.221 C 
BRANCH  10  11
ATOM     11  N   UNL A   1      31.409  28.592  22.244  1.00  0.00    -0.369 N 
ATOM     12  H   UNL A   1      31.843  28.753  21.374  1.00  0.00     0.161 HD
BRANCH  11  13
ATOM     13  C   UNL A   1      30.129  29.103  22.395  1.00  0.00     0.038 A 
ATOM     14  C   UNL A   1      28.339  32.488  22.094  1.00  0.00     0.044 C 
ATOM     15  C   UNL A   1      28.604  31.036  22.350  1.00  0.00    -0.046 A 
ATOM     16  C   UNL A   1      27.562  30.245  22.834  1.00  0.00     0.042 A 
ATOM     17  C   UNL A   1      29.882  30.466  22.157  1.00  0.00     0.029 A 
ATOM     18  C   UNL A   1      27.794  28.910  23.074  1.00  0.00     0.125 A 
ATOM     19  F   UNL A   1      26.811  28.130  23.541  1.00  0.00    -0.207 F 
ATOM     20  C   UNL A   1      29.043  28.354  22.838  1.00  0.00     0.065 A 
ENDBRANCH  11  13
ENDBRANCH  10  11
BRANCH  10  21
ATOM     21  C   UNL A   1      32.454  28.604  24.530  1.00  0.00    -0.014 A 
ATOM     22  C   UNL A   1      31.517  29.544  24.980  1.00  0.00     0.010 A 
ATOM     23  C   UNL A   1      33.618  28.439  25.287  1.00  0.00     0.010 A 
ATOM     24  C   UNL A   1      31.798  30.463  25.976  1.00  0.00    -0.051 A 
ATOM     25  C   UNL A   1      33.845  29.244  26.416  1.00  0.00    -0.051 A 
ATOM     26  C   UNL A   1      30.905  31.660  26.074  1.00  0.00     0.044 C 
ATOM     27  C   UNL A   1      32.965  30.300  26.708  1.00  0.00     0.006 A 
ATOM     28  C   UNL A   1      35.041  29.027  27.295  1.00  0.00     0.044 C 
ENDBRANCH  10  21
ENDBRANCH   8  10
ENDBRANCH   7   8
ENDBRANCH   6   7
ENDBRANCH   5   6
ENDBRANCH   4   5
ENDBRANCH   3   4
ENDBRANCH   2   3
ENDBRANCH   1   2
BRANCH   1  29
ATOM     29  C   UNL A   1      35.132  22.193  25.805  1.00  0.00     0.188 C 
BRANCH  29  30
ATOM     30  C   UNL A   1      35.810  21.042  25.034  1.00  0.00     0.188 C 
BRANCH  30  31
ATOM     31  O   UNL A   1      37.160  20.852  25.421  1.00  0.00    -0.376 OA
BRANCH  31  32
ATOM     32  C   UNL A   1      37.855  19.717  24.942  1.00  0.00     0.202 C 
BRANCH  32  33
ATOM     33  C   UNL A   1      39.076  19.130  25.678  1.00  0.00     0.261 C 
BRANCH  33  34
ATOM     34  O   UNL A   1      40.334  19.808  25.558  1.00  0.00    -0.460 OA
BRANCH  34  35
ATOM     35  C   UNL A   1      41.133  19.887  26.640  1.00  0.00     0.338 C 
ATOM     36  O   UNL A   1      41.782  18.987  27.149  1.00  0.00    -0.246 OA
BRANCH  35  37
ATOM     37  C   UNL A   1      41.252  21.323  26.983  1.00  0.00     0.060 A 
ATOM     38  C   UNL A   1      40.629  22.283  26.169  1.00  0.00     0.016 A 
ATOM     39  C   UNL A   1      41.936  21.715  28.136  1.00  0.00     0.016 A 
ATOM     40  C   UNL A   1      40.710  23.637  26.494  1.00  0.00     0.010 A 
ATOM     41  C   UNL A   1      42.047  23.072  28.441  1.00  0.00     0.010 A 
ATOM     42  C   UNL A   1      41.462  24.041  27.605  1.00  0.00    -0.014 A 
BRANCH  42  43
ATOM     43  C   UNL A   1      41.826  25.467  27.772  1.00  0.00     0.031 A 
ATOM     44  C   UNL A   1      43.167  25.913  27.257  1.00  0.00     0.074 A 
ATOM     45  C   UNL A   1      40.996  26.347  28.358  1.00  0.00     0.049 A 
ATOM     46  N   UNL A   1      43.758  27.075  27.366  1.00  0.00    -0.248 NA
ATOM     47  C   UNL A   1      43.950  24.904  26.523  1.00  0.00     0.031 C 
ATOM     48  C   UNL A   1      39.654  26.050  28.848  1.00  0.00     0.029 A 
ATOM     49  N   UNL A   1      41.180  27.675  28.653  1.00  0.00    -0.354 N 
ATOM     50  C   UNL A   1      44.982  26.932  26.726  1.00  0.00     0.074 A 
ATOM     51  C   UNL A   1      45.064  25.567  26.258  1.00  0.00     0.031 C 
ATOM     52  C   UNL A   1      39.138  27.161  29.403  1.00  0.00     0.029 A 
ATOM     53  C   UNL A   1      40.131  28.233  29.343  1.00  0.00     0.049 A 
ATOM     54  H   UNL A   1      41.985  28.179  28.395  1.00  0.00     0.167 HD
ATOM     55  C   UNL A   1      45.952  27.859  26.544  1.00  0.00     0.037 A 
ATOM     56  C   UNL A   1      40.007  29.459  29.889  1.00  0.00     0.037 A 
ATOM     57  C   UNL A   1      45.869  29.214  27.019  1.00  0.00     0.049 A 
ATOM     58  C   UNL A   1      41.139  30.447  29.754  1.00  0.00     0.074 A 
ATOM     59  C   UNL A   1      46.790  30.235  26.872  1.00  0.00     0.029 A 
ATOM     60  N   UNL A   1      44.806  29.732  27.744  1.00  0.00    -0.354 N 
ATOM     61  N   UNL A   1      42.286  30.314  29.131  1.00  0.00    -0.248 NA
ATOM     62  C   UNL A   1      40.960  31.755  30.400  1.00  0.00     0.031 C 
ATOM     63  C   UNL A   1      46.312  31.353  27.562  1.00  0.00     0.029 A 
ATOM     64  C   UNL A   1      45.065  31.049  28.082  1.00  0.00     0.049 A 
ATOM     65  H   UNL A   1      43.989  29.236  27.983  1.00  0.00     0.167 HD
ATOM     66  C   UNL A   1      42.950  31.526  29.285  1.00  0.00     0.074 A 
ATOM     67  C   UNL A   1      42.069  32.388  30.047  1.00  0.00     0.031 C 
ATOM     68  C   UNL A   1      44.175  31.895  28.838  1.00  0.00     0.037 A 
BRANCH  55  69
ATOM     69  C   UNL A   1      47.198  27.423  25.830  1.00  0.00     0.057 A 
ATOM     70  C   UNL A   1      48.291  26.870  26.510  1.00  0.00     0.134 A 
ATOM     71  C   UNL A   1      47.294  27.536  24.437  1.00  0.00     0.134 A 
ATOM     72  F   UNL A   1      48.272  26.750  27.846  1.00  0.00    -0.206 F 
ATOM     73  C   UNL A   1      49.445  26.469  25.833  1.00  0.00     0.040 A 
ATOM     74  C   UNL A   1      48.430  27.110  23.746  1.00  0.00     0.040 A 
ATOM     75  F   UNL A   1      46.284  28.055  23.724  1.00  0.00    -0.206 F 
ATOM     76  C   UNL A   1      49.512  26.582  24.446  1.00  0.00     0.006 A 
ENDBRANCH  55  69
BRANCH  56  77
ATOM     77  C   UNL A   1      38.778  29.822  30.642  1.00  0.00     0.057 A 
ATOM     78  C   UNL A   1      37.700  30.454  30.012  1.00  0.00     0.134 A 
ATOM     79  C   UNL A   1      38.665  29.578  32.016  1.00  0.00     0.134 A 
ATOM     80  F   UNL A   1      37.758  30.741  28.703  1.00  0.00    -0.206 F 
ATOM     81  C   UNL A   1      36.565  30.849  30.722  1.00  0.00     0.040 A 
ATOM     82  C   UNL A   1      37.523  29.940  32.734  1.00  0.00     0.040 A 
ATOM     83  F   UNL A   1      39.662  28.977  32.683  1.00  0.00    -0.206 F 
ATOM     84  C   UNL A   1      36.472  30.587  32.088  1.00  0.00     0.006 A 
ENDBRANCH  56  77
BRANCH  68  85
ATOM     85  C   UNL A   1      44.625  33.300  29.125  1.00  0.00     0.057 A 
ATOM     86  C   UNL A   1      44.335  34.364  28.262  1.00  0.00     0.134 A 
ATOM     87  C   UNL A   1      45.319  33.598  30.306  1.00  0.00     0.134 A 
ATOM     88  F   UNL A   1      43.685  34.147  27.109  1.00  0.00    -0.206 F 
ATOM     89  C   UNL A   1      44.741  35.670  28.550  1.00  0.00     0.040 A 
ATOM     90  C   UNL A   1      45.700  34.904  30.621  1.00  0.00     0.040 A 
ATOM     91  F   UNL A   1      45.618  32.629  31.185  1.00  0.00    -0.206 F 
ATOM     92  C   UNL A   1      45.418  35.942  29.737  1.00  0.00     0.006 A 
ENDBRANCH  68  85
ENDBRANCH  42  43
ENDBRANCH  35  37
ENDBRANCH  34  35
ENDBRANCH  33  34
ENDBRANCH  32  33
ENDBRANCH  31  32
ENDBRANCH  30  31
ENDBRANCH  29  30
ENDBRANCH   1  29
TORSDOF 23
ENDMDL
