MODEL 1
REMARK VINA RESULT:     -10.2      0.000      0.000
REMARK SMILES Cc1cc(C(=O)N[C@H](CC(C)C)C(=O)OCCOCCOCCOCCOC(=O)c2ccc(-c3c4nc(c(-c5c(F)cccc5F)c5ccc([nH]5)c(-c5c(F)cccc5F)c5nc(c(-c6c(F)cccc6F)c6ccc3[nH]6)C=C5)C=C4)cc2)sc1Br
REMARK SMILES IDX 21 1 20 2 19 3 18 4 17 5 16 6 15 7 13 8 14 9 8 10 7 11 5 12
REMARK SMILES IDX 6 13 4 15 1 16 2 17 3 18 85 19 84 20 86 21 9 22 10 23 11 24
REMARK SMILES IDX 12 25 22 26 23 27 24 28 25 29 26 30 27 31 28 32 29 33 30 34
REMARK SMILES IDX 31 35 83 36 32 37 82 38 33 39 34 40 35 41 76 42 36 43 81 44
REMARK SMILES IDX 75 45 77 46 37 47 80 48 74 49 73 50 38 52 64 53 47 54 63 55
REMARK SMILES IDX 48 56 51 57 62 58 78 59 49 60 50 61 61 63 79 64 52 65 39 66
REMARK SMILES IDX 40 67 45 68 41 69 42 70 44 71 46 72 43 73 65 74 66 75 71 76
REMARK SMILES IDX 67 77 68 78 70 79 72 80 69 81 53 82 54 83 59 84 55 85 56 86
REMARK SMILES IDX 58 87 60 88 57 89
REMARK H PARENT 7 14 77 51 51 62
REMARK Flexibility Score: inf
ROOT
ATOM      1  O   UNL A   1      37.754  21.784  24.457  1.00  0.00    -0.377 OA
ENDROOT
BRANCH   1   2
ATOM      2  C   UNL A   1      36.628  22.634  24.279  1.00  0.00     0.188 C 
BRANCH   2   3
ATOM      3  C   UNL A   1      35.433  22.435  25.227  1.00  0.00     0.188 C 
BRANCH   3   4
ATOM      4  O   UNL A   1      34.254  22.035  24.545  1.00  0.00    -0.376 OA
BRANCH   4   5
ATOM      5  C   UNL A   1      33.293  21.361  25.332  1.00  0.00     0.202 C 
BRANCH   5   6
ATOM      6  C   UNL A   1      31.857  21.890  25.326  1.00  0.00     0.261 C 
BRANCH   6   7
ATOM      7  O   UNL A   1      31.524  23.281  25.122  1.00  0.00    -0.462 OA
BRANCH   7   8
ATOM      8  C   UNL A   1      31.546  24.266  26.038  1.00  0.00     0.328 C 
ATOM      9  O   UNL A   1      31.408  24.169  27.247  1.00  0.00    -0.250 OA
BRANCH   8  10
ATOM     10  C   UNL A   1      31.759  25.621  25.405  1.00  0.00     0.192 C 
BRANCH  10  11
ATOM     11  N   UNL A   1      31.774  25.516  23.944  1.00  0.00    -0.338 N 
ATOM     12  C   UNL A   1      31.556  26.472  22.962  1.00  0.00     0.262 C 
ATOM     13  O   UNL A   1      32.284  26.330  21.973  1.00  0.00    -0.268 OA
ATOM     14  H   UNL A   1      31.970  24.613  23.601  1.00  0.00     0.164 HD
BRANCH  12  15
ATOM     15  C   UNL A   1      30.451  27.443  22.980  1.00  0.00     0.093 A 
ATOM     16  C   UNL A   1      26.893  28.787  23.173  1.00  0.00     0.046 C 
ATOM     17  C   UNL A   1      28.379  28.629  23.033  1.00  0.00    -0.025 A 
ATOM     18  C   UNL A   1      29.138  27.460  23.429  1.00  0.00     0.030 A 
ATOM     19  C   UNL A   1      29.242  29.570  22.525  1.00  0.00     0.074 A 
ATOM     20  S   UNL A   1      30.834  29.024  22.373  1.00  0.00    -0.123 S 
ATOM     21  Br  UNL A   1      28.738  31.314  22.034  1.00  0.00    -0.039 Br
ENDBRANCH  12  15
ENDBRANCH  10  11
BRANCH  10  22
ATOM     22  C   UNL A   1      33.080  26.190  26.000  1.00  0.00     0.040 C 
BRANCH  22  23
ATOM     23  C   UNL A   1      33.018  27.539  26.749  1.00  0.00    -0.015 C 
ATOM     24  C   UNL A   1      34.202  28.459  26.441  1.00  0.00     0.007 C 
ATOM     25  C   UNL A   1      31.725  28.279  26.359  1.00  0.00     0.007 C 
ENDBRANCH  22  23
ENDBRANCH  10  22
ENDBRANCH   8  10
ENDBRANCH   7   8
ENDBRANCH   6   7
ENDBRANCH   5   6
ENDBRANCH   4   5
ENDBRANCH   3   4
ENDBRANCH   2   3
ENDBRANCH   1   2
BRANCH   1  26
ATOM     26  C   UNL A   1      38.266  21.578  25.772  1.00  0.00     0.188 C 
BRANCH  26  27
ATOM     27  C   UNL A   1      39.756  21.830  26.137  1.00  0.00     0.188 C 
BRANCH  27  28
ATOM     28  O   UNL A   1      40.235  21.230  27.329  1.00  0.00    -0.376 OA
BRANCH  28  29
ATOM     29  C   UNL A   1      41.114  20.123  27.379  1.00  0.00     0.202 C 
BRANCH  29  30
ATOM     30  C   UNL A   1      41.914  19.775  26.124  1.00  0.00     0.261 C 
BRANCH  30  31
ATOM     31  O   UNL A   1      43.230  20.280  26.167  1.00  0.00    -0.460 OA
BRANCH  31  32
ATOM     32  C   UNL A   1      43.890  20.160  25.000  1.00  0.00     0.338 C 
ATOM     33  O   UNL A   1      43.922  19.199  24.256  1.00  0.00    -0.246 OA
BRANCH  32  34
ATOM     34  C   UNL A   1      44.632  21.400  24.772  1.00  0.00     0.060 A 
ATOM     35  C   UNL A   1      45.645  21.626  25.697  1.00  0.00     0.016 A 
ATOM     36  C   UNL A   1      43.991  22.421  24.053  1.00  0.00     0.016 A 
ATOM     37  C   UNL A   1      45.680  22.875  26.238  1.00  0.00     0.010 A 
ATOM     38  C   UNL A   1      44.028  23.670  24.591  1.00  0.00     0.010 A 
ATOM     39  C   UNL A   1      44.756  23.816  25.764  1.00  0.00    -0.014 A 
BRANCH  39  40
ATOM     40  C   UNL A   1      44.536  24.961  26.599  1.00  0.00     0.031 A 
ATOM     41  C   UNL A   1      45.682  25.872  26.592  1.00  0.00     0.074 A 
ATOM     42  C   UNL A   1      43.390  25.121  27.281  1.00  0.00     0.049 A 
ATOM     43  N   UNL A   1      46.501  26.113  27.556  1.00  0.00    -0.248 NA
ATOM     44  C   UNL A   1      46.080  26.420  25.286  1.00  0.00     0.031 C 
ATOM     45  C   UNL A   1      42.123  24.398  27.132  1.00  0.00     0.029 A 
ATOM     46  N   UNL A   1      43.102  26.064  28.208  1.00  0.00    -0.354 N 
ATOM     47  C   UNL A   1      47.403  27.024  27.032  1.00  0.00     0.074 A 
ATOM     48  C   UNL A   1      47.221  27.025  25.604  1.00  0.00     0.031 C 
ATOM     49  C   UNL A   1      41.149  25.087  27.770  1.00  0.00     0.029 A 
ATOM     50  C   UNL A   1      41.752  26.211  28.468  1.00  0.00     0.049 A 
ATOM     51  H   UNL A   1      43.794  26.601  28.658  1.00  0.00     0.167 HD
ATOM     52  C   UNL A   1      48.019  27.922  27.837  1.00  0.00     0.037 A 
ATOM     53  C   UNL A   1      41.192  27.253  29.125  1.00  0.00     0.037 A 
ATOM     54  C   UNL A   1      48.025  27.495  29.212  1.00  0.00     0.049 A 
ATOM     55  C   UNL A   1      42.272  27.936  29.887  1.00  0.00     0.074 A 
ATOM     56  C   UNL A   1      48.536  26.401  29.883  1.00  0.00     0.029 A 
ATOM     57  N   UNL A   1      47.110  28.065  30.062  1.00  0.00    -0.354 N 
ATOM     58  N   UNL A   1      42.874  27.421  30.923  1.00  0.00    -0.248 NA
ATOM     59  C   UNL A   1      42.993  29.019  29.230  1.00  0.00     0.031 C 
ATOM     60  C   UNL A   1      47.598  26.120  30.919  1.00  0.00     0.029 A 
ATOM     61  C   UNL A   1      46.579  27.069  30.841  1.00  0.00     0.049 A 
ATOM     62  H   UNL A   1      46.876  29.021  30.105  1.00  0.00     0.167 HD
ATOM     63  C   UNL A   1      44.199  27.818  30.805  1.00  0.00     0.074 A 
ATOM     64  C   UNL A   1      44.189  28.885  29.811  1.00  0.00     0.031 C 
ATOM     65  C   UNL A   1      45.211  27.050  31.310  1.00  0.00     0.037 A 
BRANCH  52  66
ATOM     66  C   UNL A   1      48.232  29.347  27.415  1.00  0.00     0.057 A 
ATOM     67  C   UNL A   1      49.525  29.883  27.451  1.00  0.00     0.134 A 
ATOM     68  C   UNL A   1      47.188  30.285  27.246  1.00  0.00     0.134 A 
ATOM     69  F   UNL A   1      50.591  29.092  27.642  1.00  0.00    -0.206 F 
ATOM     70  C   UNL A   1      49.759  31.261  27.378  1.00  0.00     0.040 A 
ATOM     71  C   UNL A   1      47.414  31.653  27.112  1.00  0.00     0.040 A 
ATOM     72  F   UNL A   1      45.895  29.945  27.306  1.00  0.00    -0.206 F 
ATOM     73  C   UNL A   1      48.703  32.150  27.209  1.00  0.00     0.006 A 
ENDBRANCH  52  66
BRANCH  53  74
ATOM     74  C   UNL A   1      39.876  27.878  28.872  1.00  0.00     0.057 A 
ATOM     75  C   UNL A   1      38.899  27.927  29.873  1.00  0.00     0.134 A 
ATOM     76  C   UNL A   1      39.636  28.667  27.733  1.00  0.00     0.134 A 
ATOM     77  F   UNL A   1      39.060  27.243  31.015  1.00  0.00    -0.206 F 
ATOM     78  C   UNL A   1      37.756  28.730  29.757  1.00  0.00     0.040 A 
ATOM     79  C   UNL A   1      38.495  29.464  27.599  1.00  0.00     0.040 A 
ATOM     80  F   UNL A   1      40.540  28.763  26.748  1.00  0.00    -0.206 F 
ATOM     81  C   UNL A   1      37.556  29.508  28.620  1.00  0.00     0.006 A 
ENDBRANCH  53  74
BRANCH  65  82
ATOM     82  C   UNL A   1      44.824  25.926  32.230  1.00  0.00     0.057 A 
ATOM     83  C   UNL A   1      44.522  24.629  31.790  1.00  0.00     0.134 A 
ATOM     84  C   UNL A   1      44.886  26.129  33.613  1.00  0.00     0.134 A 
ATOM     85  F   UNL A   1      44.542  24.319  30.488  1.00  0.00    -0.206 F 
ATOM     86  C   UNL A   1      44.242  23.593  32.686  1.00  0.00     0.040 A 
ATOM     87  C   UNL A   1      44.641  25.094  34.519  1.00  0.00     0.040 A 
ATOM     88  F   UNL A   1      45.229  27.328  34.106  1.00  0.00    -0.206 F 
ATOM     89  C   UNL A   1      44.305  23.824  34.057  1.00  0.00     0.006 A 
ENDBRANCH  65  82
ENDBRANCH  39  40
ENDBRANCH  32  34
ENDBRANCH  31  32
ENDBRANCH  30  31
ENDBRANCH  29  30
ENDBRANCH  28  29
ENDBRANCH  27  28
ENDBRANCH  26  27
ENDBRANCH   1  26
TORSDOF 24
ENDMDL
MODEL 2
REMARK VINA RESULT:     -10.2      1.461      2.406
REMARK SMILES Cc1cc(C(=O)N[C@H](CC(C)C)C(=O)OCCOCCOCCOCCOC(=O)c2ccc(-c3c4nc(c(-c5c(F)cccc5F)c5ccc([nH]5)c(-c5c(F)cccc5F)c5nc(c(-c6c(F)cccc6F)c6ccc3[nH]6)C=C5)C=C4)cc2)sc1Br
REMARK SMILES IDX 21 1 20 2 19 3 18 4 17 5 16 6 15 7 13 8 14 9 8 10 7 11 5 12
REMARK SMILES IDX 6 13 4 15 1 16 2 17 3 18 85 19 84 20 86 21 9 22 10 23 11 24
REMARK SMILES IDX 12 25 22 26 23 27 24 28 25 29 26 30 27 31 28 32 29 33 30 34
REMARK SMILES IDX 31 35 83 36 32 37 82 38 33 39 34 40 35 41 76 42 36 43 81 44
REMARK SMILES IDX 75 45 77 46 37 47 80 48 74 49 73 50 38 52 64 53 47 54 63 55
REMARK SMILES IDX 48 56 51 57 62 58 78 59 49 60 50 61 61 63 79 64 52 65 39 66
REMARK SMILES IDX 40 67 45 68 41 69 42 70 44 71 46 72 43 73 65 74 66 75 71 76
REMARK SMILES IDX 67 77 68 78 70 79 72 80 69 81 53 82 54 83 59 84 55 85 56 86
REMARK SMILES IDX 58 87 60 88 57 89
REMARK H PARENT 7 14 77 51 51 62
REMARK Flexibility Score: inf
ROOT
ATOM      1  O   UNL A   1      37.978  22.638  25.454  1.00  0.00    -0.377 OA
ENDROOT
BRANCH   1   2
ATOM      2  C   UNL A   1      36.563  22.539  25.359  1.00  0.00     0.188 C 
BRANCH   2   3
ATOM      3  C   UNL A   1      35.936  22.660  23.960  1.00  0.00     0.188 C 
BRANCH   3   4
ATOM      4  O   UNL A   1      34.856  23.580  23.921  1.00  0.00    -0.376 OA
BRANCH   4   5
ATOM      5  C   UNL A   1      33.590  23.023  23.630  1.00  0.00     0.202 C 
BRANCH   5   6
ATOM      6  C   UNL A   1      32.929  23.391  22.299  1.00  0.00     0.261 C 
BRANCH   6   7
ATOM      7  O   UNL A   1      32.277  24.658  22.060  1.00  0.00    -0.462 OA
BRANCH   7   8
ATOM      8  C   UNL A   1      32.856  25.870  21.982  1.00  0.00     0.328 C 
ATOM      9  O   UNL A   1      33.621  26.282  21.125  1.00  0.00    -0.250 OA
BRANCH   8  10
ATOM     10  C   UNL A   1      32.466  26.756  23.142  1.00  0.00     0.192 C 
BRANCH  10  11
ATOM     11  N   UNL A   1      33.093  26.295  24.383  1.00  0.00    -0.338 N 
ATOM     12  C   UNL A   1      32.877  26.666  25.702  1.00  0.00     0.262 C 
ATOM     13  O   UNL A   1      32.958  25.722  26.495  1.00  0.00    -0.268 OA
ATOM     14  H   UNL A   1      33.784  25.605  24.259  1.00  0.00     0.164 HD
BRANCH  12  15
ATOM     15  C   UNL A   1      32.760  28.059  26.163  1.00  0.00     0.093 A 
ATOM     16  C   UNL A   1      31.403  31.603  26.482  1.00  0.00     0.046 C 
ATOM     17  C   UNL A   1      32.210  30.343  26.593  1.00  0.00    -0.025 A 
ATOM     18  C   UNL A   1      31.761  29.023  26.198  1.00  0.00     0.030 A 
ATOM     19  C   UNL A   1      33.485  30.249  27.096  1.00  0.00     0.074 A 
ATOM     20  S   UNL A   1      34.165  28.709  26.949  1.00  0.00    -0.123 S 
ATOM     21  Br  UNL A   1      34.420  31.676  27.887  1.00  0.00    -0.039 Br
ENDBRANCH  12  15
ENDBRANCH  10  11
BRANCH  10  22
ATOM     22  C   UNL A   1      30.911  26.763  23.197  1.00  0.00     0.040 C 
BRANCH  22  23
ATOM     23  C   UNL A   1      30.164  27.924  22.504  1.00  0.00    -0.015 C 
ATOM     24  C   UNL A   1      28.825  28.262  23.164  1.00  0.00     0.007 C 
ATOM     25  C   UNL A   1      31.045  29.187  22.538  1.00  0.00     0.007 C 
ENDBRANCH  22  23
ENDBRANCH  10  22
ENDBRANCH   8  10
ENDBRANCH   7   8
ENDBRANCH   6   7
ENDBRANCH   5   6
ENDBRANCH   4   5
ENDBRANCH   3   4
ENDBRANCH   2   3
ENDBRANCH   1   2
BRANCH   1  26
ATOM     26  C   UNL A   1      38.734  21.471  25.773  1.00  0.00     0.188 C 
BRANCH  26  27
ATOM     27  C   UNL A   1      40.048  21.529  26.602  1.00  0.00     0.188 C 
BRANCH  27  28
ATOM     28  O   UNL A   1      40.495  20.314  27.182  1.00  0.00    -0.376 OA
BRANCH  28  29
ATOM     29  C   UNL A   1      41.851  19.948  27.343  1.00  0.00     0.202 C 
BRANCH  29  30
ATOM     30  C   UNL A   1      42.584  19.340  26.147  1.00  0.00     0.261 C 
BRANCH  30  31
ATOM     31  O   UNL A   1      43.075  20.322  25.261  1.00  0.00    -0.460 OA
BRANCH  31  32
ATOM     32  C   UNL A   1      44.245  19.990  24.686  1.00  0.00     0.338 C 
ATOM     33  O   UNL A   1      44.640  18.880  24.383  1.00  0.00    -0.246 OA
BRANCH  32  34
ATOM     34  C   UNL A   1      45.025  21.215  24.510  1.00  0.00     0.060 A 
ATOM     35  C   UNL A   1      45.990  21.411  25.491  1.00  0.00     0.016 A 
ATOM     36  C   UNL A   1      44.447  22.255  23.766  1.00  0.00     0.016 A 
ATOM     37  C   UNL A   1      46.022  22.655  26.045  1.00  0.00     0.010 A 
ATOM     38  C   UNL A   1      44.481  23.499  24.316  1.00  0.00     0.010 A 
ATOM     39  C   UNL A   1      45.147  23.620  25.529  1.00  0.00    -0.014 A 
BRANCH  39  40
ATOM     40  C   UNL A   1      44.905  24.763  26.360  1.00  0.00     0.031 A 
ATOM     41  C   UNL A   1      46.066  25.654  26.416  1.00  0.00     0.074 A 
ATOM     42  C   UNL A   1      43.730  24.938  26.987  1.00  0.00     0.049 A 
ATOM     43  N   UNL A   1      46.840  25.875  27.420  1.00  0.00    -0.248 NA
ATOM     44  C   UNL A   1      46.536  26.203  25.135  1.00  0.00     0.031 C 
ATOM     45  C   UNL A   1      42.460  24.238  26.771  1.00  0.00     0.029 A 
ATOM     46  N   UNL A   1      43.413  25.880  27.906  1.00  0.00    -0.354 N 
ATOM     47  C   UNL A   1      47.782  26.773  26.947  1.00  0.00     0.074 A 
ATOM     48  C   UNL A   1      47.670  26.787  25.512  1.00  0.00     0.031 C 
ATOM     49  C   UNL A   1      41.467  24.939  27.366  1.00  0.00     0.029 A 
ATOM     50  C   UNL A   1      42.054  26.048  28.101  1.00  0.00     0.049 A 
ATOM     51  H   UNL A   1      44.091  26.402  28.393  1.00  0.00     0.167 HD
ATOM     52  C   UNL A   1      48.373  27.656  27.788  1.00  0.00     0.037 A 
ATOM     53  C   UNL A   1      41.481  27.095  28.737  1.00  0.00     0.037 A 
ATOM     54  C   UNL A   1      48.304  27.219  29.158  1.00  0.00     0.049 A 
ATOM     55  C   UNL A   1      42.534  27.754  29.556  1.00  0.00     0.074 A 
ATOM     56  C   UNL A   1      48.764  26.113  29.846  1.00  0.00     0.029 A 
ATOM     57  N   UNL A   1      47.359  27.800  29.967  1.00  0.00    -0.354 N 
ATOM     58  N   UNL A   1      43.075  27.223  30.616  1.00  0.00    -0.248 NA
ATOM     59  C   UNL A   1      43.304  28.830  28.943  1.00  0.00     0.031 C 
ATOM     60  C   UNL A   1      47.772  25.841  30.832  1.00  0.00     0.029 A 
ATOM     61  C   UNL A   1      46.774  26.808  30.712  1.00  0.00     0.049 A 
ATOM     62  H   UNL A   1      47.139  28.759  30.006  1.00  0.00     0.167 HD
ATOM     63  C   UNL A   1      44.412  27.598  30.565  1.00  0.00     0.074 A 
ATOM     64  C   UNL A   1      44.468  28.672  29.580  1.00  0.00     0.031 C 
ATOM     65  C   UNL A   1      45.385  26.810  31.113  1.00  0.00     0.037 A 
BRANCH  52  66
ATOM     66  C   UNL A   1      48.630  29.080  27.387  1.00  0.00     0.057 A 
ATOM     67  C   UNL A   1      49.937  29.579  27.445  1.00  0.00     0.134 A 
ATOM     68  C   UNL A   1      47.615  30.048  27.219  1.00  0.00     0.134 A 
ATOM     69  F   UNL A   1      50.978  28.756  27.637  1.00  0.00    -0.206 F 
ATOM     70  C   UNL A   1      50.210  30.951  27.393  1.00  0.00     0.040 A 
ATOM     71  C   UNL A   1      47.880  31.411  27.105  1.00  0.00     0.040 A 
ATOM     72  F   UNL A   1      46.312  29.744  27.260  1.00  0.00    -0.206 F 
ATOM     73  C   UNL A   1      49.180  31.871  27.224  1.00  0.00     0.006 A 
ENDBRANCH  52  66
BRANCH  53  74
ATOM     74  C   UNL A   1      40.190  27.744  28.425  1.00  0.00     0.057 A 
ATOM     75  C   UNL A   1      39.168  27.810  29.380  1.00  0.00     0.134 A 
ATOM     76  C   UNL A   1      40.017  28.539  27.278  1.00  0.00     0.134 A 
ATOM     77  F   UNL A   1      39.264  27.122  30.527  1.00  0.00    -0.206 F 
ATOM     78  C   UNL A   1      38.047  28.634  29.214  1.00  0.00     0.040 A 
ATOM     79  C   UNL A   1      38.898  29.357  27.093  1.00  0.00     0.040 A 
ATOM     80  F   UNL A   1      40.967  28.620  26.336  1.00  0.00    -0.206 F 
ATOM     81  C   UNL A   1      37.913  29.416  28.070  1.00  0.00     0.006 A 
ENDBRANCH  53  74
BRANCH  65  82
ATOM     82  C   UNL A   1      44.934  25.687  32.006  1.00  0.00     0.057 A 
ATOM     83  C   UNL A   1      44.552  24.423  31.533  1.00  0.00     0.134 A 
ATOM     84  C   UNL A   1      45.015  25.847  33.393  1.00  0.00     0.134 A 
ATOM     85  F   UNL A   1      44.546  24.147  30.223  1.00  0.00    -0.206 F 
ATOM     86  C   UNL A   1      44.213  23.381  32.403  1.00  0.00     0.040 A 
ATOM     87  C   UNL A   1      44.712  24.805  34.273  1.00  0.00     0.040 A 
ATOM     88  F   UNL A   1      45.434  27.010  33.916  1.00  0.00    -0.206 F 
ATOM     89  C   UNL A   1      44.297  23.571  33.779  1.00  0.00     0.006 A 
ENDBRANCH  65  82
ENDBRANCH  39  40
ENDBRANCH  32  34
ENDBRANCH  31  32
ENDBRANCH  30  31
ENDBRANCH  29  30
ENDBRANCH  28  29
ENDBRANCH  27  28
ENDBRANCH  26  27
ENDBRANCH   1  26
TORSDOF 24
ENDMDL
MODEL 3
REMARK VINA RESULT:     -10.1      1.769      2.902
REMARK SMILES Cc1cc(C(=O)N[C@H](CC(C)C)C(=O)OCCOCCOCCOCCOC(=O)c2ccc(-c3c4nc(c(-c5c(F)cccc5F)c5ccc([nH]5)c(-c5c(F)cccc5F)c5nc(c(-c6c(F)cccc6F)c6ccc3[nH]6)C=C5)C=C4)cc2)sc1Br
REMARK SMILES IDX 21 1 20 2 19 3 18 4 17 5 16 6 15 7 13 8 14 9 8 10 7 11 5 12
REMARK SMILES IDX 6 13 4 15 1 16 2 17 3 18 85 19 84 20 86 21 9 22 10 23 11 24
REMARK SMILES IDX 12 25 22 26 23 27 24 28 25 29 26 30 27 31 28 32 29 33 30 34
REMARK SMILES IDX 31 35 83 36 32 37 82 38 33 39 34 40 35 41 76 42 36 43 81 44
REMARK SMILES IDX 75 45 77 46 37 47 80 48 74 49 73 50 38 52 64 53 47 54 63 55
REMARK SMILES IDX 48 56 51 57 62 58 78 59 49 60 50 61 61 63 79 64 52 65 39 66
REMARK SMILES IDX 40 67 45 68 41 69 42 70 44 71 46 72 43 73 65 74 66 75 71 76
REMARK SMILES IDX 67 77 68 78 70 79 72 80 69 81 53 82 54 83 59 84 55 85 56 86
REMARK SMILES IDX 58 87 60 88 57 89
REMARK H PARENT 7 14 77 51 51 62
REMARK Flexibility Score: inf
ROOT
ATOM      1  O   UNL A   1      37.396  22.978  25.125  1.00  0.00    -0.377 OA
ENDROOT
BRANCH   1   2
ATOM      2  C   UNL A   1      36.572  23.747  25.993  1.00  0.00     0.188 C 
BRANCH   2   3
ATOM      3  C   UNL A   1      35.054  23.709  25.749  1.00  0.00     0.188 C 
BRANCH   3   4
ATOM      4  O   UNL A   1      34.523  24.978  25.399  1.00  0.00    -0.376 OA
BRANCH   4   5
ATOM      5  C   UNL A   1      33.385  25.385  26.131  1.00  0.00     0.202 C 
BRANCH   5   6
ATOM      6  C   UNL A   1      33.004  26.868  26.106  1.00  0.00     0.261 C 
BRANCH   6   7
ATOM      7  O   UNL A   1      32.000  27.414  25.222  1.00  0.00    -0.462 OA
BRANCH   7   8
ATOM      8  C   UNL A   1      32.191  28.281  24.211  1.00  0.00     0.328 C 
ATOM      9  O   UNL A   1      32.786  29.346  24.238  1.00  0.00    -0.250 OA
BRANCH   8  10
ATOM     10  C   UNL A   1      31.547  27.804  22.930  1.00  0.00     0.192 C 
BRANCH  10  11
ATOM     11  N   UNL A   1      32.512  27.079  22.101  1.00  0.00    -0.338 N 
ATOM     12  C   UNL A   1      32.528  25.761  21.666  1.00  0.00     0.262 C 
ATOM     13  O   UNL A   1      32.967  25.631  20.518  1.00  0.00    -0.268 OA
ATOM     14  H   UNL A   1      33.281  27.618  21.803  1.00  0.00     0.164 HD
BRANCH  12  15
ATOM     15  C   UNL A   1      32.244  24.601  22.526  1.00  0.00     0.093 A 
ATOM     16  C   UNL A   1      30.816  22.572  25.415  1.00  0.00     0.046 C 
ATOM     17  C   UNL A   1      31.554  23.038  24.194  1.00  0.00    -0.025 A 
ATOM     18  C   UNL A   1      31.281  24.261  23.465  1.00  0.00     0.030 A 
ATOM     19  C   UNL A   1      32.584  22.371  23.576  1.00  0.00     0.074 A 
ATOM     20  S   UNL A   1      33.293  23.234  22.308  1.00  0.00    -0.123 S 
ATOM     21  Br  UNL A   1      33.180  20.656  24.065  1.00  0.00    -0.039 Br
ENDBRANCH  12  15
ENDBRANCH  10  11
BRANCH  10  22
ATOM     22  C   UNL A   1      30.952  29.062  22.233  1.00  0.00     0.040 C 
BRANCH  22  23
ATOM     23  C   UNL A   1      29.473  29.414  22.508  1.00  0.00    -0.015 C 
ATOM     24  C   UNL A   1      28.666  28.242  23.073  1.00  0.00     0.007 C 
ATOM     25  C   UNL A   1      29.405  30.572  23.521  1.00  0.00     0.007 C 
ENDBRANCH  22  23
ENDBRANCH  10  22
ENDBRANCH   8  10
ENDBRANCH   7   8
ENDBRANCH   6   7
ENDBRANCH   5   6
ENDBRANCH   4   5
ENDBRANCH   3   4
ENDBRANCH   2   3
ENDBRANCH   1   2
BRANCH   1  26
ATOM     26  C   UNL A   1      38.111  21.864  25.655  1.00  0.00     0.188 C 
BRANCH  26  27
ATOM     27  C   UNL A   1      39.585  21.973  26.138  1.00  0.00     0.188 C 
BRANCH  27  28
ATOM     28  O   UNL A   1      40.058  20.946  26.994  1.00  0.00    -0.376 OA
BRANCH  28  29
ATOM     29  C   UNL A   1      41.398  20.805  27.423  1.00  0.00     0.202 C 
BRANCH  29  30
ATOM     30  C   UNL A   1      42.310  19.853  26.651  1.00  0.00     0.261 C 
BRANCH  30  31
ATOM     31  O   UNL A   1      42.730  20.392  25.417  1.00  0.00    -0.460 OA
BRANCH  31  32
ATOM     32  C   UNL A   1      44.025  20.155  25.139  1.00  0.00     0.338 C 
ATOM     33  O   UNL A   1      44.612  19.090  25.169  1.00  0.00    -0.246 OA
BRANCH  32  34
ATOM     34  C   UNL A   1      44.660  21.434  24.824  1.00  0.00     0.060 A 
ATOM     35  C   UNL A   1      45.740  21.741  25.643  1.00  0.00     0.016 A 
ATOM     36  C   UNL A   1      43.889  22.398  24.156  1.00  0.00     0.016 A 
ATOM     37  C   UNL A   1      45.746  23.001  26.161  1.00  0.00     0.010 A 
ATOM     38  C   UNL A   1      43.897  23.657  24.671  1.00  0.00     0.010 A 
ATOM     39  C   UNL A   1      44.723  23.872  25.766  1.00  0.00    -0.014 A 
BRANCH  39  40
ATOM     40  C   UNL A   1      44.510  25.017  26.603  1.00  0.00     0.031 A 
ATOM     41  C   UNL A   1      45.637  25.951  26.549  1.00  0.00     0.074 A 
ATOM     42  C   UNL A   1      43.387  25.159  27.325  1.00  0.00     0.049 A 
ATOM     43  N   UNL A   1      46.485  26.213  27.482  1.00  0.00    -0.248 NA
ATOM     44  C   UNL A   1      45.977  26.499  25.228  1.00  0.00     0.031 C 
ATOM     45  C   UNL A   1      42.130  24.410  27.225  1.00  0.00     0.029 A 
ATOM     46  N   UNL A   1      43.114  26.101  28.257  1.00  0.00    -0.354 N 
ATOM     47  C   UNL A   1      47.349  27.139  26.921  1.00  0.00     0.074 A 
ATOM     48  C   UNL A   1      47.116  27.128  25.501  1.00  0.00     0.031 C 
ATOM     49  C   UNL A   1      41.166  25.083  27.895  1.00  0.00     0.029 A 
ATOM     50  C   UNL A   1      41.771  26.222  28.565  1.00  0.00     0.049 A 
ATOM     51  H   UNL A   1      43.810  26.654  28.679  1.00  0.00     0.167 HD
ATOM     52  C   UNL A   1      47.976  28.053  27.699  1.00  0.00     0.037 A 
ATOM     53  C   UNL A   1      41.215  27.257  29.237  1.00  0.00     0.037 A 
ATOM     54  C   UNL A   1      48.040  27.634  29.075  1.00  0.00     0.049 A 
ATOM     55  C   UNL A   1      42.308  27.965  29.955  1.00  0.00     0.074 A 
ATOM     56  C   UNL A   1      48.597  26.555  29.733  1.00  0.00     0.029 A 
ATOM     57  N   UNL A   1      47.145  28.192  29.955  1.00  0.00    -0.354 N 
ATOM     58  N   UNL A   1      42.957  27.468  30.972  1.00  0.00    -0.248 NA
ATOM     59  C   UNL A   1      42.983  29.059  29.268  1.00  0.00     0.031 C 
ATOM     60  C   UNL A   1      47.703  26.261  30.803  1.00  0.00     0.029 A 
ATOM     61  C   UNL A   1      46.662  27.190  30.757  1.00  0.00     0.049 A 
ATOM     62  H   UNL A   1      46.894  29.143  30.001  1.00  0.00     0.167 HD
ATOM     63  C   UNL A   1      44.269  27.891  30.803  1.00  0.00     0.074 A 
ATOM     64  C   UNL A   1      44.202  28.952  29.806  1.00  0.00     0.031 C 
ATOM     65  C   UNL A   1      45.313  27.146  31.275  1.00  0.00     0.037 A 
BRANCH  52  66
ATOM     66  C   UNL A   1      48.145  29.480  27.262  1.00  0.00     0.057 A 
ATOM     67  C   UNL A   1      49.418  30.061  27.308  1.00  0.00     0.134 A 
ATOM     68  C   UNL A   1      47.072  30.379  27.069  1.00  0.00     0.134 A 
ATOM     69  F   UNL A   1      50.508  29.309  27.521  1.00  0.00    -0.206 F 
ATOM     70  C   UNL A   1      49.606  31.445  27.221  1.00  0.00     0.040 A 
ATOM     71  C   UNL A   1      47.253  31.753  26.921  1.00  0.00     0.040 A 
ATOM     72  F   UNL A   1      45.790  29.996  27.118  1.00  0.00    -0.206 F 
ATOM     73  C   UNL A   1      48.522  32.295  27.028  1.00  0.00     0.006 A 
ENDBRANCH  52  66
BRANCH  53  74
ATOM     74  C   UNL A   1      39.878  27.855  29.028  1.00  0.00     0.057 A 
ATOM     75  C   UNL A   1      38.988  28.017  30.097  1.00  0.00     0.134 A 
ATOM     76  C   UNL A   1      39.538  28.515  27.834  1.00  0.00     0.134 A 
ATOM     77  F   UNL A   1      39.250  27.462  31.290  1.00  0.00    -0.206 F 
ATOM     78  C   UNL A   1      37.835  28.806  29.990  1.00  0.00     0.040 A 
ATOM     79  C   UNL A   1      38.385  29.295  27.710  1.00  0.00     0.040 A 
ATOM     80  F   UNL A   1      40.356  28.499  26.772  1.00  0.00    -0.206 F 
ATOM     81  C   UNL A   1      37.535  29.454  28.796  1.00  0.00     0.006 A 
ENDBRANCH  53  74
BRANCH  65  82
ATOM     82  C   UNL A   1      44.982  26.020  32.215  1.00  0.00     0.057 A 
ATOM     83  C   UNL A   1      44.823  26.183  33.599  1.00  0.00     0.134 A 
ATOM     84  C   UNL A   1      44.687  24.759  31.687  1.00  0.00     0.134 A 
ATOM     85  F   UNL A   1      44.984  27.380  34.177  1.00  0.00    -0.206 F 
ATOM     86  C   UNL A   1      44.440  25.124  34.427  1.00  0.00     0.040 A 
ATOM     87  C   UNL A   1      44.270  23.701  32.498  1.00  0.00     0.040 A 
ATOM     88  F   UNL A   1      44.756  24.547  30.364  1.00  0.00    -0.206 F 
ATOM     89  C   UNL A   1      44.158  23.878  33.875  1.00  0.00     0.006 A 
ENDBRANCH  65  82
ENDBRANCH  39  40
ENDBRANCH  32  34
ENDBRANCH  31  32
ENDBRANCH  30  31
ENDBRANCH  29  30
ENDBRANCH  28  29
ENDBRANCH  27  28
ENDBRANCH  26  27
ENDBRANCH   1  26
TORSDOF 24
ENDMDL
