MODEL 1
REMARK VINA RESULT:     -10.4      0.000      0.000
REMARK SMILES CC(C)CN(C)c1cc2c(cc1Cl)C=C(C(=O)OCCOCCOCCOCCOC(=O)c1ccc(-c3c4nc(c(-c5c(F)cccc5F)c5ccc([nH]5)c(-c5c(F)cccc5F)c5nc(c(-c6c(F)cccc6F)c6ccc3[nH]6)C=C5)C=C4)cc1)[C@H](C(F)(F)F)O2
REMARK SMILES IDX 23 1 22 2 21 3 20 4 19 5 18 6 16 7 17 8 15 9 7 10 8 11 12 12
REMARK SMILES IDX 9 13 11 14 13 15 10 16 92 17 14 18 87 19 5 20 6 21 4 22 2 23
REMARK SMILES IDX 1 24 3 25 88 26 89 27 90 28 91 29 24 30 25 31 26 32 27 33
REMARK SMILES IDX 28 34 29 35 30 36 31 37 32 38 33 39 34 40 86 41 35 42 85 43
REMARK SMILES IDX 36 44 37 45 38 46 79 47 39 48 84 49 78 50 80 51 40 52 83 53
REMARK SMILES IDX 77 54 76 55 41 57 67 58 50 59 66 60 51 61 54 62 65 63 81 64
REMARK SMILES IDX 52 65 53 66 64 68 82 69 55 70 42 71 43 72 48 73 44 74 45 75
REMARK SMILES IDX 47 76 49 77 46 78 68 79 69 80 74 81 70 82 71 83 73 84 75 85
REMARK SMILES IDX 72 86 56 87 57 88 62 89 58 90 59 91 61 92 63 93 60 94
REMARK H PARENT 80 56 54 67
REMARK Flexibility Score: inf
ROOT
ATOM      1  C   UNL A   1      40.423  21.612  26.589  1.00  0.00     0.188 C 
ENDROOT
BRANCH   1   2
ATOM      2  C   UNL A   1      38.978  21.850  26.129  1.00  0.00     0.188 C 
BRANCH   2   3
ATOM      3  O   UNL A   1      38.423  20.731  25.442  1.00  0.00    -0.376 OA
BRANCH   3   4
ATOM      4  C   UNL A   1      37.326  20.970  24.573  1.00  0.00     0.202 C 
BRANCH   4   5
ATOM      5  C   UNL A   1      35.952  20.731  25.213  1.00  0.00     0.261 C 
BRANCH   5   6
ATOM      6  O   UNL A   1      35.013  21.786  24.955  1.00  0.00    -0.460 OA
BRANCH   6   7
ATOM      7  C   UNL A   1      34.812  22.674  25.941  1.00  0.00     0.338 C 
ATOM      8  O   UNL A   1      35.505  22.789  26.939  1.00  0.00    -0.246 OA
BRANCH   7   9
ATOM      9  C   UNL A   1      33.741  23.631  25.577  1.00  0.00     0.087 C 
ATOM     10  C   UNL A   1      31.846  27.877  23.599  1.00  0.00     0.059 A 
ATOM     11  C   UNL A   1      31.441  26.997  24.626  1.00  0.00     0.074 A 
ATOM     12  C   UNL A   1      33.013  27.521  22.888  1.00  0.00     0.065 A 
ATOM     13  C   UNL A   1      32.162  25.833  24.927  1.00  0.00     0.130 A 
ATOM     14  C   UNL A   1      33.645  26.293  23.094  1.00  0.00     0.034 A 
ATOM     15  Cl  UNL A   1      33.855  28.616  21.843  1.00  0.00    -0.082 Cl
ATOM     16  C   UNL A   1      33.228  25.456  24.123  1.00  0.00     0.019 A 
ATOM     17  O   UNL A   1      31.802  25.151  26.054  1.00  0.00    -0.475 OA
ATOM     18  C   UNL A   1      34.007  24.277  24.435  1.00  0.00     0.027 C 
ATOM     19  C   UNL A   1      32.598  23.999  26.498  1.00  0.00     0.316 C 
BRANCH  10  20
ATOM     20  N   UNL A   1      31.151  29.071  23.354  1.00  0.00    -0.373 N 
ATOM     21  C   UNL A   1      30.810  29.863  24.536  1.00  0.00     0.143 C 
BRANCH  20  22
ATOM     22  C   UNL A   1      30.180  29.114  22.236  1.00  0.00     0.119 C 
BRANCH  22  23
ATOM     23  C   UNL A   1      28.824  29.740  22.623  1.00  0.00     0.002 C 
ATOM     24  C   UNL A   1      28.294  30.667  21.525  1.00  0.00     0.009 C 
ATOM     25  C   UNL A   1      27.763  28.681  22.933  1.00  0.00     0.009 C 
ENDBRANCH  22  23
ENDBRANCH  20  22
ENDBRANCH  10  20
BRANCH  19  26
ATOM     26  C   UNL A   1      31.566  22.902  26.835  1.00  0.00     0.430 C 
ATOM     27  F   UNL A   1      31.964  22.136  27.876  1.00  0.00    -0.167 F 
ATOM     28  F   UNL A   1      30.340  23.389  27.119  1.00  0.00    -0.167 F 
ATOM     29  F   UNL A   1      31.399  22.070  25.773  1.00  0.00    -0.167 F 
ENDBRANCH  19  26
ENDBRANCH   7   9
ENDBRANCH   6   7
ENDBRANCH   5   6
ENDBRANCH   4   5
ENDBRANCH   3   4
ENDBRANCH   2   3
ENDBRANCH   1   2
BRANCH   1  30
ATOM     30  O   UNL A   1      40.683  20.481  27.400  1.00  0.00    -0.377 OA
BRANCH  30  31
ATOM     31  C   UNL A   1      41.971  19.904  27.277  1.00  0.00     0.188 C 
BRANCH  31  32
ATOM     32  C   UNL A   1      42.333  19.478  25.837  1.00  0.00     0.188 C 
BRANCH  32  33
ATOM     33  O   UNL A   1      43.131  20.287  24.977  1.00  0.00    -0.376 OA
BRANCH  33  34
ATOM     34  C   UNL A   1      44.457  20.641  25.327  1.00  0.00     0.202 C 
BRANCH  34  35
ATOM     35  C   UNL A   1      44.714  22.027  25.940  1.00  0.00     0.261 C 
BRANCH  35  36
ATOM     36  O   UNL A   1      43.622  22.951  25.885  1.00  0.00    -0.460 OA
BRANCH  36  37
ATOM     37  C   UNL A   1      43.944  24.224  25.551  1.00  0.00     0.338 C 
ATOM     38  O   UNL A   1      44.557  24.601  24.567  1.00  0.00    -0.246 OA
BRANCH  37  39
ATOM     39  C   UNL A   1      43.292  25.142  26.511  1.00  0.00     0.060 A 
ATOM     40  C   UNL A   1      42.263  24.700  27.347  1.00  0.00     0.016 A 
ATOM     41  C   UNL A   1      43.722  26.474  26.563  1.00  0.00     0.016 A 
ATOM     42  C   UNL A   1      41.687  25.590  28.258  1.00  0.00     0.010 A 
ATOM     43  C   UNL A   1      43.131  27.367  27.456  1.00  0.00     0.010 A 
ATOM     44  C   UNL A   1      42.129  26.923  28.329  1.00  0.00    -0.014 A 
BRANCH  44  45
ATOM     45  C   UNL A   1      41.682  27.794  29.440  1.00  0.00     0.031 A 
ATOM     46  C   UNL A   1      40.485  28.684  29.323  1.00  0.00     0.074 A 
ATOM     47  C   UNL A   1      42.409  27.785  30.571  1.00  0.00     0.049 A 
ATOM     48  N   UNL A   1      39.917  29.422  30.245  1.00  0.00    -0.248 NA
ATOM     49  C   UNL A   1      39.852  28.771  28.002  1.00  0.00     0.031 C 
ATOM     50  C   UNL A   1      43.619  26.987  30.781  1.00  0.00     0.029 A 
ATOM     51  N   UNL A   1      42.237  28.454  31.754  1.00  0.00    -0.354 N 
ATOM     52  C   UNL A   1      38.841  30.044  29.625  1.00  0.00     0.074 A 
ATOM     53  C   UNL A   1      38.873  29.637  28.233  1.00  0.00     0.031 C 
ATOM     54  C   UNL A   1      44.058  27.181  32.033  1.00  0.00     0.029 A 
ATOM     55  C   UNL A   1      43.174  28.131  32.702  1.00  0.00     0.049 A 
ATOM     56  H   UNL A   1      41.513  29.102  31.908  1.00  0.00     0.167 HD
ATOM     57  C   UNL A   1      37.912  30.866  30.173  1.00  0.00     0.037 A 
ATOM     58  C   UNL A   1      43.299  28.541  33.977  1.00  0.00     0.037 A 
ATOM     59  C   UNL A   1      37.915  31.295  31.551  1.00  0.00     0.049 A 
ATOM     60  C   UNL A   1      42.291  29.503  34.538  1.00  0.00     0.074 A 
ATOM     61  C   UNL A   1      36.988  32.080  32.217  1.00  0.00     0.029 A 
ATOM     62  N   UNL A   1      38.913  30.998  32.471  1.00  0.00    -0.354 N 
ATOM     63  N   UNL A   1      41.216  29.999  33.977  1.00  0.00    -0.248 NA
ATOM     64  C   UNL A   1      42.519  29.956  35.916  1.00  0.00     0.031 C 
ATOM     65  C   UNL A   1      37.456  32.308  33.517  1.00  0.00     0.029 A 
ATOM     66  C   UNL A   1      38.647  31.620  33.683  1.00  0.00     0.049 A 
ATOM     67  H   UNL A   1      39.695  30.430  32.289  1.00  0.00     0.167 HD
ATOM     68  C   UNL A   1      40.619  30.799  34.941  1.00  0.00     0.074 A 
ATOM     69  C   UNL A   1      41.448  30.709  36.128  1.00  0.00     0.031 C 
ATOM     70  C   UNL A   1      39.486  31.538  34.854  1.00  0.00     0.037 A 
BRANCH  57  71
ATOM     71  C   UNL A   1      36.823  31.367  29.267  1.00  0.00     0.057 A 
ATOM     72  C   UNL A   1      35.754  30.538  28.900  1.00  0.00     0.134 A 
ATOM     73  C   UNL A   1      36.835  32.668  28.745  1.00  0.00     0.134 A 
ATOM     74  F   UNL A   1      35.684  29.277  29.349  1.00  0.00    -0.206 F 
ATOM     75  C   UNL A   1      34.732  30.990  28.063  1.00  0.00     0.040 A 
ATOM     76  C   UNL A   1      35.804  33.140  27.928  1.00  0.00     0.040 A 
ATOM     77  F   UNL A   1      37.827  33.516  29.056  1.00  0.00    -0.206 F 
ATOM     78  C   UNL A   1      34.749  32.298  27.584  1.00  0.00     0.006 A 
ENDBRANCH  57  71
BRANCH  58  79
ATOM     79  C   UNL A   1      44.385  27.999  34.826  1.00  0.00     0.057 A 
ATOM     80  C   UNL A   1      45.683  28.518  34.782  1.00  0.00     0.134 A 
ATOM     81  C   UNL A   1      44.140  26.936  35.703  1.00  0.00     0.134 A 
ATOM     82  F   UNL A   1      45.981  29.529  33.955  1.00  0.00    -0.206 F 
ATOM     83  C   UNL A   1      46.703  27.995  35.578  1.00  0.00     0.040 A 
ATOM     84  C   UNL A   1      45.144  26.420  36.521  1.00  0.00     0.040 A 
ATOM     85  F   UNL A   1      42.910  26.409  35.797  1.00  0.00    -0.206 F 
ATOM     86  C   UNL A   1      46.431  26.947  36.456  1.00  0.00     0.006 A 
ENDBRANCH  58  79
BRANCH  70  87
ATOM     87  C   UNL A   1      39.071  32.287  36.089  1.00  0.00     0.057 A 
ATOM     88  C   UNL A   1      38.219  31.696  37.030  1.00  0.00     0.134 A 
ATOM     89  C   UNL A   1      39.519  33.589  36.350  1.00  0.00     0.134 A 
ATOM     90  F   UNL A   1      37.750  30.455  36.841  1.00  0.00    -0.206 F 
ATOM     91  C   UNL A   1      37.831  32.372  38.189  1.00  0.00     0.040 A 
ATOM     92  C   UNL A   1      39.162  34.263  37.520  1.00  0.00     0.040 A 
ATOM     93  F   UNL A   1      40.353  34.206  35.499  1.00  0.00    -0.206 F 
ATOM     94  C   UNL A   1      38.311  33.655  38.442  1.00  0.00     0.006 A 
ENDBRANCH  70  87
ENDBRANCH  44  45
ENDBRANCH  37  39
ENDBRANCH  36  37
ENDBRANCH  35  36
ENDBRANCH  34  35
ENDBRANCH  33  34
ENDBRANCH  32  33
ENDBRANCH  31  32
ENDBRANCH  30  31
ENDBRANCH   1  30
TORSDOF 24
ENDMDL
MODEL 2
REMARK VINA RESULT:      -9.6      1.500      6.126
REMARK SMILES CC(C)CN(C)c1cc2c(cc1Cl)C=C(C(=O)OCCOCCOCCOCCOC(=O)c1ccc(-c3c4nc(c(-c5c(F)cccc5F)c5ccc([nH]5)c(-c5c(F)cccc5F)c5nc(c(-c6c(F)cccc6F)c6ccc3[nH]6)C=C5)C=C4)cc1)[C@H](C(F)(F)F)O2
REMARK SMILES IDX 23 1 22 2 21 3 20 4 19 5 18 6 16 7 17 8 15 9 7 10 8 11 12 12
REMARK SMILES IDX 9 13 11 14 13 15 10 16 92 17 14 18 87 19 5 20 6 21 4 22 2 23
REMARK SMILES IDX 1 24 3 25 88 26 89 27 90 28 91 29 24 30 25 31 26 32 27 33
REMARK SMILES IDX 28 34 29 35 30 36 31 37 32 38 33 39 34 40 86 41 35 42 85 43
REMARK SMILES IDX 36 44 37 45 38 46 79 47 39 48 84 49 78 50 80 51 40 52 83 53
REMARK SMILES IDX 77 54 76 55 41 57 67 58 50 59 66 60 51 61 54 62 65 63 81 64
REMARK SMILES IDX 52 65 53 66 64 68 82 69 55 70 42 71 43 72 48 73 44 74 45 75
REMARK SMILES IDX 47 76 49 77 46 78 68 79 69 80 74 81 70 82 71 83 73 84 75 85
REMARK SMILES IDX 72 86 56 87 57 88 62 89 58 90 59 91 61 92 63 93 60 94
REMARK H PARENT 80 56 54 67
REMARK Flexibility Score: inf
ROOT
ATOM      1  C   UNL A   1      40.891  21.499  26.278  1.00  0.00     0.188 C 
ENDROOT
BRANCH   1   2
ATOM      2  C   UNL A   1      39.445  22.004  26.368  1.00  0.00     0.188 C 
BRANCH   2   3
ATOM      3  O   UNL A   1      39.331  23.239  27.072  1.00  0.00    -0.376 OA
BRANCH   3   4
ATOM      4  C   UNL A   1      38.329  24.150  26.644  1.00  0.00     0.202 C 
BRANCH   4   5
ATOM      5  C   UNL A   1      37.215  23.512  25.806  1.00  0.00     0.261 C 
BRANCH   5   6
ATOM      6  O   UNL A   1      36.084  24.376  25.610  1.00  0.00    -0.460 OA
BRANCH   6   7
ATOM      7  C   UNL A   1      34.870  23.845  25.824  1.00  0.00     0.338 C 
ATOM      8  O   UNL A   1      34.603  23.021  26.683  1.00  0.00    -0.246 OA
BRANCH   7   9
ATOM      9  C   UNL A   1      33.845  24.527  25.001  1.00  0.00     0.087 C 
ATOM     10  C   UNL A   1      30.494  28.144  23.898  1.00  0.00     0.059 A 
ATOM     11  C   UNL A   1      30.632  26.784  23.548  1.00  0.00     0.074 A 
ATOM     12  C   UNL A   1      31.519  28.698  24.696  1.00  0.00     0.065 A 
ATOM     13  C   UNL A   1      31.728  26.021  23.974  1.00  0.00     0.130 A 
ATOM     14  C   UNL A   1      32.676  27.976  24.998  1.00  0.00     0.034 A 
ATOM     15  Cl  UNL A   1      31.370  30.222  25.504  1.00  0.00    -0.082 Cl
ATOM     16  C   UNL A   1      32.774  26.633  24.649  1.00  0.00     0.019 A 
ATOM     17  O   UNL A   1      31.676  24.675  23.746  1.00  0.00    -0.475 OA
ATOM     18  C   UNL A   1      33.899  25.859  25.127  1.00  0.00     0.027 C 
ATOM     19  C   UNL A   1      32.728  23.801  24.282  1.00  0.00     0.316 C 
BRANCH  10  20
ATOM     20  N   UNL A   1      29.358  28.877  23.519  1.00  0.00    -0.373 N 
ATOM     21  C   UNL A   1      28.180  28.086  23.163  1.00  0.00     0.143 C 
BRANCH  20  22
ATOM     22  C   UNL A   1      29.544  30.144  22.774  1.00  0.00     0.119 C 
BRANCH  22  23
ATOM     23  C   UNL A   1      28.896  31.363  23.463  1.00  0.00     0.002 C 
ATOM     24  C   UNL A   1      29.185  32.662  22.705  1.00  0.00     0.009 C 
ATOM     25  C   UNL A   1      27.380  31.205  23.616  1.00  0.00     0.009 C 
ENDBRANCH  22  23
ENDBRANCH  20  22
ENDBRANCH  10  20
BRANCH  19  26
ATOM     26  C   UNL A   1      33.113  22.870  23.114  1.00  0.00     0.430 C 
ATOM     27  F   UNL A   1      32.116  22.756  22.208  1.00  0.00    -0.167 F 
ATOM     28  F   UNL A   1      34.227  23.262  22.462  1.00  0.00    -0.167 F 
ATOM     29  F   UNL A   1      33.373  21.618  23.575  1.00  0.00    -0.167 F 
ENDBRANCH  19  26
ENDBRANCH   7   9
ENDBRANCH   6   7
ENDBRANCH   5   6
ENDBRANCH   4   5
ENDBRANCH   3   4
ENDBRANCH   2   3
ENDBRANCH   1   2
BRANCH   1  30
ATOM     30  O   UNL A   1      41.097  20.123  26.009  1.00  0.00    -0.377 OA
BRANCH  30  31
ATOM     31  C   UNL A   1      42.275  19.550  26.548  1.00  0.00     0.188 C 
BRANCH  31  32
ATOM     32  C   UNL A   1      43.402  19.341  25.513  1.00  0.00     0.188 C 
BRANCH  32  33
ATOM     33  O   UNL A   1      44.739  19.780  25.737  1.00  0.00    -0.376 OA
BRANCH  33  34
ATOM     34  C   UNL A   1      45.305  20.828  24.969  1.00  0.00     0.202 C 
BRANCH  34  35
ATOM     35  C   UNL A   1      44.416  22.020  24.580  1.00  0.00     0.261 C 
BRANCH  35  36
ATOM     36  O   UNL A   1      44.007  22.876  25.652  1.00  0.00    -0.460 OA
BRANCH  36  37
ATOM     37  C   UNL A   1      43.540  24.094  25.288  1.00  0.00     0.338 C 
ATOM     38  O   UNL A   1      43.228  24.466  24.169  1.00  0.00    -0.246 OA
BRANCH  37  39
ATOM     39  C   UNL A   1      43.310  24.895  26.511  1.00  0.00     0.060 A 
ATOM     40  C   UNL A   1      43.696  26.236  26.578  1.00  0.00     0.016 A 
ATOM     41  C   UNL A   1      42.699  24.279  27.611  1.00  0.00     0.016 A 
ATOM     42  C   UNL A   1      43.440  26.968  27.741  1.00  0.00     0.010 A 
ATOM     43  C   UNL A   1      42.465  25.003  28.779  1.00  0.00     0.010 A 
ATOM     44  C   UNL A   1      42.808  26.360  28.841  1.00  0.00    -0.014 A 
BRANCH  44  45
ATOM     45  C   UNL A   1      42.336  27.188  29.975  1.00  0.00     0.031 A 
ATOM     46  C   UNL A   1      43.015  27.176  31.308  1.00  0.00     0.074 A 
ATOM     47  C   UNL A   1      41.242  27.946  29.780  1.00  0.00     0.049 A 
ATOM     48  N   UNL A   1      42.776  27.923  32.358  1.00  0.00    -0.248 NA
ATOM     49  C   UNL A   1      44.088  26.193  31.495  1.00  0.00     0.031 C 
ATOM     50  C   UNL A   1      40.476  28.004  28.533  1.00  0.00     0.029 A 
ATOM     51  N   UNL A   1      40.593  28.816  30.616  1.00  0.00    -0.354 N 
ATOM     52  C   UNL A   1      43.686  27.520  33.326  1.00  0.00     0.074 A 
ATOM     53  C   UNL A   1      44.443  26.424  32.752  1.00  0.00     0.031 C 
ATOM     54  C   UNL A   1      39.484  28.895  28.673  1.00  0.00     0.029 A 
ATOM     55  C   UNL A   1      39.532  29.451  30.021  1.00  0.00     0.049 A 
ATOM     56  H   UNL A   1      40.861  28.969  31.550  1.00  0.00     0.167 HD
ATOM     57  C   UNL A   1      43.875  28.029  34.569  1.00  0.00     0.037 A 
ATOM     58  C   UNL A   1      38.701  30.391  30.503  1.00  0.00     0.037 A 
ATOM     59  C   UNL A   1      43.088  29.094  35.142  1.00  0.00     0.049 A 
ATOM     60  C   UNL A   1      38.894  30.890  31.906  1.00  0.00     0.074 A 
ATOM     61  C   UNL A   1      43.236  29.718  36.370  1.00  0.00     0.029 A 
ATOM     62  N   UNL A   1      41.981  29.675  34.536  1.00  0.00    -0.354 N 
ATOM     63  N   UNL A   1      39.825  30.581  32.775  1.00  0.00    -0.248 NA
ATOM     64  C   UNL A   1      37.916  31.872  32.390  1.00  0.00     0.031 C 
ATOM     65  C   UNL A   1      42.185  30.629  36.532  1.00  0.00     0.029 A 
ATOM     66  C   UNL A   1      41.411  30.617  35.382  1.00  0.00     0.049 A 
ATOM     67  H   UNL A   1      41.649  29.450  33.638  1.00  0.00     0.167 HD
ATOM     68  C   UNL A   1      39.567  31.353  33.899  1.00  0.00     0.074 A 
ATOM     69  C   UNL A   1      38.397  32.154  33.594  1.00  0.00     0.031 C 
ATOM     70  C   UNL A   1      40.238  31.399  35.076  1.00  0.00     0.037 A 
BRANCH  57  71
ATOM     71  C   UNL A   1      44.972  27.420  35.397  1.00  0.00     0.057 A 
ATOM     72  C   UNL A   1      46.283  27.909  35.328  1.00  0.00     0.134 A 
ATOM     73  C   UNL A   1      44.735  26.337  36.257  1.00  0.00     0.134 A 
ATOM     74  F   UNL A   1      46.586  28.933  34.517  1.00  0.00    -0.206 F 
ATOM     75  C   UNL A   1      47.311  27.358  36.095  1.00  0.00     0.040 A 
ATOM     76  C   UNL A   1      45.750  25.795  37.048  1.00  0.00     0.040 A 
ATOM     77  F   UNL A   1      43.503  25.819  36.374  1.00  0.00    -0.206 F 
ATOM     78  C   UNL A   1      47.044  26.305  36.967  1.00  0.00     0.006 A 
ENDBRANCH  57  71
BRANCH  58  79
ATOM     79  C   UNL A   1      37.649  30.965  29.632  1.00  0.00     0.057 A 
ATOM     80  C   UNL A   1      37.786  32.228  29.045  1.00  0.00     0.134 A 
ATOM     81  C   UNL A   1      36.472  30.253  29.372  1.00  0.00     0.134 A 
ATOM     82  F   UNL A   1      38.886  32.961  29.265  1.00  0.00    -0.206 F 
ATOM     83  C   UNL A   1      36.786  32.765  28.233  1.00  0.00     0.040 A 
ATOM     84  C   UNL A   1      35.476  30.768  28.544  1.00  0.00     0.040 A 
ATOM     85  F   UNL A   1      36.293  29.031  29.898  1.00  0.00    -0.206 F 
ATOM     86  C   UNL A   1      35.630  32.030  27.976  1.00  0.00     0.006 A 
ENDBRANCH  58  79
BRANCH  70  87
ATOM     87  C   UNL A   1      39.731  32.366  36.108  1.00  0.00     0.057 A 
ATOM     88  C   UNL A   1      40.319  33.629  36.253  1.00  0.00     0.134 A 
ATOM     89  C   UNL A   1      38.657  32.053  36.951  1.00  0.00     0.134 A 
ATOM     90  F   UNL A   1      41.353  33.993  35.482  1.00  0.00    -0.206 F 
ATOM     91  C   UNL A   1      39.854  34.546  37.198  1.00  0.00     0.040 A 
ATOM     92  C   UNL A   1      38.164  32.973  37.879  1.00  0.00     0.040 A 
ATOM     93  F   UNL A   1      38.035  30.868  36.850  1.00  0.00    -0.206 F 
ATOM     94  C   UNL A   1      38.767  34.223  38.007  1.00  0.00     0.006 A 
ENDBRANCH  70  87
ENDBRANCH  44  45
ENDBRANCH  37  39
ENDBRANCH  36  37
ENDBRANCH  35  36
ENDBRANCH  34  35
ENDBRANCH  33  34
ENDBRANCH  32  33
ENDBRANCH  31  32
ENDBRANCH  30  31
ENDBRANCH   1  30
TORSDOF 24
ENDMDL
MODEL 3
REMARK VINA RESULT:      -9.0      6.566     10.795
REMARK SMILES CC(C)CN(C)c1cc2c(cc1Cl)C=C(C(=O)OCCOCCOCCOCCOC(=O)c1ccc(-c3c4nc(c(-c5c(F)cccc5F)c5ccc([nH]5)c(-c5c(F)cccc5F)c5nc(c(-c6c(F)cccc6F)c6ccc3[nH]6)C=C5)C=C4)cc1)[C@H](C(F)(F)F)O2
REMARK SMILES IDX 23 1 22 2 21 3 20 4 19 5 18 6 16 7 17 8 15 9 7 10 8 11 12 12
REMARK SMILES IDX 9 13 11 14 13 15 10 16 92 17 14 18 87 19 5 20 6 21 4 22 2 23
REMARK SMILES IDX 1 24 3 25 88 26 89 27 90 28 91 29 24 30 25 31 26 32 27 33
REMARK SMILES IDX 28 34 29 35 30 36 31 37 32 38 33 39 34 40 86 41 35 42 85 43
REMARK SMILES IDX 36 44 37 45 38 46 79 47 39 48 84 49 78 50 80 51 40 52 83 53
REMARK SMILES IDX 77 54 76 55 41 57 67 58 50 59 66 60 51 61 54 62 65 63 81 64
REMARK SMILES IDX 52 65 53 66 64 68 82 69 55 70 42 71 43 72 48 73 44 74 45 75
REMARK SMILES IDX 47 76 49 77 46 78 68 79 69 80 74 81 70 82 71 83 73 84 75 85
REMARK SMILES IDX 72 86 56 87 57 88 62 89 58 90 59 91 61 92 63 93 60 94
REMARK H PARENT 80 56 54 67
REMARK Flexibility Score: inf
ROOT
ATOM      1  C   UNL A   1      36.250  20.412  24.982  1.00  0.00     0.188 C 
ENDROOT
BRANCH   1   2
ATOM      2  C   UNL A   1      35.037  21.351  24.941  1.00  0.00     0.188 C 
BRANCH   2   3
ATOM      3  O   UNL A   1      35.307  22.577  24.266  1.00  0.00    -0.376 OA
BRANCH   3   4
ATOM      4  C   UNL A   1      34.212  23.255  23.669  1.00  0.00     0.202 C 
BRANCH   4   5
ATOM      5  C   UNL A   1      33.258  23.915  24.673  1.00  0.00     0.261 C 
BRANCH   5   6
ATOM      6  O   UNL A   1      32.795  25.209  24.253  1.00  0.00    -0.460 OA
BRANCH   6   7
ATOM      7  C   UNL A   1      31.901  25.819  25.045  1.00  0.00     0.338 C 
ATOM      8  O   UNL A   1      30.986  25.265  25.634  1.00  0.00    -0.246 OA
BRANCH   7   9
ATOM      9  C   UNL A   1      32.274  27.236  25.266  1.00  0.00     0.087 C 
ATOM     10  C   UNL A   1      34.484  31.087  27.677  1.00  0.00     0.059 A 
ATOM     11  C   UNL A   1      33.358  30.963  26.834  1.00  0.00     0.074 A 
ATOM     12  C   UNL A   1      35.239  29.914  27.898  1.00  0.00     0.065 A 
ATOM     13  C   UNL A   1      33.006  29.738  26.250  1.00  0.00     0.130 A 
ATOM     14  C   UNL A   1      34.969  28.733  27.204  1.00  0.00     0.034 A 
ATOM     15  Cl  UNL A   1      36.430  29.777  29.148  1.00  0.00    -0.082 Cl
ATOM     16  C   UNL A   1      33.844  28.641  26.391  1.00  0.00     0.019 A 
ATOM     17  O   UNL A   1      31.801  29.677  25.610  1.00  0.00    -0.475 OA
ATOM     18  C   UNL A   1      33.484  27.359  25.825  1.00  0.00     0.027 C 
ATOM     19  C   UNL A   1      31.313  28.392  25.091  1.00  0.00     0.316 C 
BRANCH  10  20
ATOM     20  N   UNL A   1      34.784  32.304  28.307  1.00  0.00    -0.373 N 
ATOM     21  C   UNL A   1      33.738  33.324  28.254  1.00  0.00     0.143 C 
BRANCH  20  22
ATOM     22  C   UNL A   1      36.181  32.799  28.271  1.00  0.00     0.119 C 
BRANCH  22  23
ATOM     23  C   UNL A   1      36.543  33.703  29.467  1.00  0.00     0.002 C 
ATOM     24  C   UNL A   1      36.379  32.970  30.802  1.00  0.00     0.009 C 
ATOM     25  C   UNL A   1      37.972  34.246  29.373  1.00  0.00     0.009 C 
ENDBRANCH  22  23
ENDBRANCH  20  22
ENDBRANCH  10  20
BRANCH  19  26
ATOM     26  C   UNL A   1      30.812  28.699  23.664  1.00  0.00     0.430 C 
ATOM     27  F   UNL A   1      31.787  29.221  22.886  1.00  0.00    -0.167 F 
ATOM     28  F   UNL A   1      30.306  27.620  23.031  1.00  0.00    -0.167 F 
ATOM     29  F   UNL A   1      29.806  29.612  23.703  1.00  0.00    -0.167 F 
ENDBRANCH  19  26
ENDBRANCH   7   9
ENDBRANCH   6   7
ENDBRANCH   5   6
ENDBRANCH   4   5
ENDBRANCH   3   4
ENDBRANCH   2   3
ENDBRANCH   1   2
BRANCH   1  30
ATOM     30  O   UNL A   1      37.531  20.990  25.160  1.00  0.00    -0.377 OA
BRANCH  30  31
ATOM     31  C   UNL A   1      38.631  20.097  25.135  1.00  0.00     0.188 C 
BRANCH  31  32
ATOM     32  C   UNL A   1      39.855  20.586  25.940  1.00  0.00     0.188 C 
BRANCH  32  33
ATOM     33  O   UNL A   1      39.732  21.412  27.095  1.00  0.00    -0.376 OA
BRANCH  33  34
ATOM     34  C   UNL A   1      39.965  22.808  27.025  1.00  0.00     0.202 C 
BRANCH  34  35
ATOM     35  C   UNL A   1      41.249  23.375  27.652  1.00  0.00     0.261 C 
BRANCH  35  36
ATOM     36  O   UNL A   1      42.459  22.668  27.355  1.00  0.00    -0.460 OA
BRANCH  36  37
ATOM     37  C   UNL A   1      43.021  22.943  26.154  1.00  0.00     0.338 C 
ATOM     38  O   UNL A   1      42.831  22.368  25.096  1.00  0.00    -0.246 OA
BRANCH  37  39
ATOM     39  C   UNL A   1      43.817  24.184  26.280  1.00  0.00     0.060 A 
ATOM     40  C   UNL A   1      44.360  24.572  27.508  1.00  0.00     0.016 A 
ATOM     41  C   UNL A   1      44.013  24.974  25.139  1.00  0.00     0.016 A 
ATOM     42  C   UNL A   1      45.126  25.739  27.583  1.00  0.00     0.010 A 
ATOM     43  C   UNL A   1      44.758  26.150  25.220  1.00  0.00     0.010 A 
ATOM     44  C   UNL A   1      45.343  26.524  26.437  1.00  0.00    -0.014 A 
BRANCH  44  45
ATOM     45  C   UNL A   1      46.334  27.624  26.469  1.00  0.00     0.031 A 
ATOM     46  C   UNL A   1      47.807  27.374  26.383  1.00  0.00     0.074 A 
ATOM     47  C   UNL A   1      45.869  28.879  26.608  1.00  0.00     0.049 A 
ATOM     48  N   UNL A   1      48.784  28.242  26.295  1.00  0.00    -0.248 NA
ATOM     49  C   UNL A   1      48.242  25.972  26.413  1.00  0.00     0.031 C 
ATOM     50  C   UNL A   1      44.455  29.236  26.743  1.00  0.00     0.029 A 
ATOM     51  N   UNL A   1      46.527  30.080  26.649  1.00  0.00    -0.354 N 
ATOM     52  C   UNL A   1      49.953  27.495  26.234  1.00  0.00     0.074 A 
ATOM     53  C   UNL A   1      49.561  26.103  26.351  1.00  0.00     0.031 C 
ATOM     54  C   UNL A   1      44.348  30.571  26.810  1.00  0.00     0.029 A 
ATOM     55  C   UNL A   1      45.683  31.157  26.746  1.00  0.00     0.049 A 
ATOM     56  H   UNL A   1      47.507  30.161  26.613  1.00  0.00     0.167 HD
ATOM     57  C   UNL A   1      51.227  27.934  26.083  1.00  0.00     0.037 A 
ATOM     58  C   UNL A   1      45.954  32.474  26.765  1.00  0.00     0.037 A 
ATOM     59  C   UNL A   1      51.607  29.324  26.008  1.00  0.00     0.049 A 
ATOM     60  C   UNL A   1      47.381  32.930  26.660  1.00  0.00     0.074 A 
ATOM     61  C   UNL A   1      52.862  29.870  25.800  1.00  0.00     0.029 A 
ATOM     62  N   UNL A   1      50.735  30.393  26.171  1.00  0.00    -0.354 N 
ATOM     63  N   UNL A   1      48.469  32.218  26.492  1.00  0.00    -0.248 NA
ATOM     64  C   UNL A   1      47.612  34.377  26.746  1.00  0.00     0.031 C 
ATOM     65  C   UNL A   1      52.760  31.263  25.897  1.00  0.00     0.029 A 
ATOM     66  C   UNL A   1      51.431  31.592  26.112  1.00  0.00     0.049 A 
ATOM     67  H   UNL A   1      49.764  30.311  26.310  1.00  0.00     0.167 HD
ATOM     68  C   UNL A   1      49.512  33.131  26.420  1.00  0.00     0.074 A 
ATOM     69  C   UNL A   1      48.922  34.449  26.550  1.00  0.00     0.031 C 
ATOM     70  C   UNL A   1      50.838  32.899  26.257  1.00  0.00     0.037 A 
BRANCH  57  71
ATOM     71  C   UNL A   1      52.305  26.889  26.006  1.00  0.00     0.057 A 
ATOM     72  C   UNL A   1      52.637  26.286  24.785  1.00  0.00     0.134 A 
ATOM     73  C   UNL A   1      53.010  26.468  27.142  1.00  0.00     0.134 A 
ATOM     74  F   UNL A   1      51.995  26.629  23.659  1.00  0.00    -0.206 F 
ATOM     75  C   UNL A   1      53.639  25.318  24.696  1.00  0.00     0.040 A 
ATOM     76  C   UNL A   1      54.032  25.519  27.061  1.00  0.00     0.040 A 
ATOM     77  F   UNL A   1      52.745  27.004  28.344  1.00  0.00    -0.206 F 
ATOM     78  C   UNL A   1      54.348  24.940  25.834  1.00  0.00     0.006 A 
ENDBRANCH  57  71
BRANCH  58  79
ATOM     79  C   UNL A   1      44.847  33.456  26.826  1.00  0.00     0.057 A 
ATOM     80  C   UNL A   1      44.200  33.911  25.671  1.00  0.00     0.134 A 
ATOM     81  C   UNL A   1      44.414  33.966  28.055  1.00  0.00     0.134 A 
ATOM     82  F   UNL A   1      44.577  33.466  24.464  1.00  0.00    -0.206 F 
ATOM     83  C   UNL A   1      43.164  34.843  25.737  1.00  0.00     0.040 A 
ATOM     84  C   UNL A   1      43.364  34.880  28.137  1.00  0.00     0.040 A 
ATOM     85  F   UNL A   1      44.989  33.555  29.196  1.00  0.00    -0.206 F 
ATOM     86  C   UNL A   1      42.739  35.324  26.974  1.00  0.00     0.006 A 
ENDBRANCH  58  79
BRANCH  70  87
ATOM     87  C   UNL A   1      51.732  34.105  26.188  1.00  0.00     0.057 A 
ATOM     88  C   UNL A   1      52.290  34.648  27.352  1.00  0.00     0.134 A 
ATOM     89  C   UNL A   1      52.047  34.724  24.971  1.00  0.00     0.134 A 
ATOM     90  F   UNL A   1      52.027  34.108  28.550  1.00  0.00    -0.206 F 
ATOM     91  C   UNL A   1      53.132  35.761  27.307  1.00  0.00     0.040 A 
ATOM     92  C   UNL A   1      52.912  35.820  24.912  1.00  0.00     0.040 A 
ATOM     93  F   UNL A   1      51.562  34.243  23.817  1.00  0.00    -0.206 F 
ATOM     94  C   UNL A   1      53.453  36.344  26.084  1.00  0.00     0.006 A 
ENDBRANCH  70  87
ENDBRANCH  44  45
ENDBRANCH  37  39
ENDBRANCH  36  37
ENDBRANCH  35  36
ENDBRANCH  34  35
ENDBRANCH  33  34
ENDBRANCH  32  33
ENDBRANCH  31  32
ENDBRANCH  30  31
ENDBRANCH   1  30
TORSDOF 24
ENDMDL
