MODEL 1
REMARK VINA RESULT:     -10.3      0.000      0.000
REMARK SMILES O=C(OCCOCCOCCOCCOC(=O)[C@]1(NC(=O)C2CCN(C(=O)C3CC3)CC2)CCCc2ccccc21)c1ccc(-c2c3nc(c(-c4c(F)cccc4F)c4ccc([nH]4)c(-c4c(F)cccc4F)c4nc(c(-c5c(F)cccc5F)c5ccc2[nH]5)C=C4)C=C3)cc1
REMARK SMILES IDX 10 1 9 2 8 3 7 4 6 5 5 6 4 7 3 8 2 9 1 10 42 11 43 12 95 13
REMARK SMILES IDX 44 14 94 15 45 16 46 17 47 18 88 19 48 20 93 21 87 22 89 23
REMARK SMILES IDX 49 24 92 25 86 26 85 27 50 29 76 30 59 31 75 32 60 33 63 34
REMARK SMILES IDX 74 35 90 36 61 37 62 38 73 40 91 41 64 42 51 43 52 44 57 45
REMARK SMILES IDX 53 46 54 47 56 48 58 49 55 50 77 51 78 52 83 53 79 54 80 55
REMARK SMILES IDX 82 56 84 57 81 58 65 59 66 60 71 61 67 62 68 63 70 64 72 65
REMARK SMILES IDX 69 66 11 67 12 68 13 69 14 70 15 71 16 72 17 73 18 74 33 75
REMARK SMILES IDX 41 76 34 77 36 78 40 79 35 80 37 81 39 82 38 83 19 84 20 85
REMARK SMILES IDX 21 87 22 88 23 89 32 90 24 91 31 92 25 93 26 94 27 95 28 96
REMARK SMILES IDX 29 97 30 98
REMARK H PARENT 89 28 63 39 19 86
REMARK Flexibility Score: inf
ROOT
ATOM      1  C   UNL A   1      36.532  29.710  29.369  1.00  0.00     0.188 C 
ENDROOT
BRANCH   1   2
ATOM      2  O   UNL A   1      37.916  29.376  29.452  1.00  0.00    -0.377 OA
BRANCH   2   3
ATOM      3  C   UNL A   1      38.461  28.588  28.404  1.00  0.00     0.188 C 
BRANCH   3   4
ATOM      4  C   UNL A   1      39.923  28.232  28.631  1.00  0.00     0.188 C 
BRANCH   4   5
ATOM      5  O   UNL A   1      40.254  27.055  27.893  1.00  0.00    -0.376 OA
BRANCH   5   6
ATOM      6  C   UNL A   1      39.686  25.837  28.369  1.00  0.00     0.202 C 
BRANCH   6   7
ATOM      7  C   UNL A   1      39.447  24.739  27.327  1.00  0.00     0.261 C 
BRANCH   7   8
ATOM      8  O   UNL A   1      40.555  24.503  26.447  1.00  0.00    -0.460 OA
BRANCH   8   9
ATOM      9  C   UNL A   1      41.820  24.128  26.749  1.00  0.00     0.338 C 
ATOM     10  O   UNL A   1      42.026  22.978  27.132  1.00  0.00    -0.246 OA
BRANCH   9  11
ATOM     11  C   UNL A   1      42.971  25.088  26.807  1.00  0.00     0.060 A 
ATOM     12  C   UNL A   1      43.599  25.519  27.974  1.00  0.00     0.016 A 
ATOM     13  C   UNL A   1      43.496  25.539  25.577  1.00  0.00     0.016 A 
ATOM     14  C   UNL A   1      44.753  26.273  27.941  1.00  0.00     0.010 A 
ATOM     15  C   UNL A   1      44.601  26.396  25.530  1.00  0.00     0.010 A 
ATOM     16  C   UNL A   1      45.215  26.766  26.726  1.00  0.00    -0.014 A 
BRANCH  16  17
ATOM     17  C   UNL A   1      46.119  27.913  26.867  1.00  0.00     0.031 A 
ATOM     18  C   UNL A   1      47.573  27.628  26.622  1.00  0.00     0.074 A 
ATOM     19  C   UNL A   1      45.609  29.154  26.856  1.00  0.00     0.049 A 
ATOM     20  N   UNL A   1      48.563  28.456  26.446  1.00  0.00    -0.248 NA
ATOM     21  C   UNL A   1      47.944  26.205  26.471  1.00  0.00     0.031 C 
ATOM     22  C   UNL A   1      44.180  29.476  26.877  1.00  0.00     0.029 A 
ATOM     23  N   UNL A   1      46.228  30.367  26.745  1.00  0.00    -0.354 N 
ATOM     24  C   UNL A   1      49.659  27.659  26.141  1.00  0.00     0.074 A 
ATOM     25  C   UNL A   1      49.221  26.286  26.142  1.00  0.00     0.031 C 
ATOM     26  C   UNL A   1      44.033  30.808  26.772  1.00  0.00     0.029 A 
ATOM     27  C   UNL A   1      45.354  31.425  26.719  1.00  0.00     0.049 A 
ATOM     28  H   UNL A   1      47.205  30.471  26.689  1.00  0.00     0.167 HD
ATOM     29  C   UNL A   1      50.929  28.050  25.899  1.00  0.00     0.037 A 
ATOM     30  C   UNL A   1      45.620  32.745  26.683  1.00  0.00     0.037 A 
ATOM     31  C   UNL A   1      51.339  29.421  25.991  1.00  0.00     0.049 A 
ATOM     32  C   UNL A   1      47.067  33.153  26.599  1.00  0.00     0.074 A 
ATOM     33  C   UNL A   1      52.611  29.955  25.989  1.00  0.00     0.029 A 
ATOM     34  N   UNL A   1      50.449  30.481  26.126  1.00  0.00    -0.354 N 
ATOM     35  N   UNL A   1      48.130  32.395  26.446  1.00  0.00    -0.248 NA
ATOM     36  C   UNL A   1      47.361  34.587  26.700  1.00  0.00     0.031 C 
ATOM     37  C   UNL A   1      52.491  31.340  26.161  1.00  0.00     0.029 A 
ATOM     38  C   UNL A   1      51.144  31.670  26.224  1.00  0.00     0.049 A 
ATOM     39  H   UNL A   1      49.470  30.396  26.148  1.00  0.00     0.167 HD
ATOM     40  C   UNL A   1      49.218  33.254  26.438  1.00  0.00     0.074 A 
ATOM     41  C   UNL A   1      48.680  34.597  26.564  1.00  0.00     0.031 C 
ATOM     42  C   UNL A   1      50.544  32.974  26.356  1.00  0.00     0.037 A 
BRANCH  29  43
ATOM     43  C   UNL A   1      51.927  26.963  25.646  1.00  0.00     0.057 A 
ATOM     44  C   UNL A   1      52.242  26.533  24.349  1.00  0.00     0.134 A 
ATOM     45  C   UNL A   1      52.499  26.264  26.715  1.00  0.00     0.134 A 
ATOM     46  F   UNL A   1      51.688  27.129  23.282  1.00  0.00    -0.206 F 
ATOM     47  C   UNL A   1      53.075  25.434  24.128  1.00  0.00     0.040 A 
ATOM     48  C   UNL A   1      53.345  25.174  26.507  1.00  0.00     0.040 A 
ATOM     49  F   UNL A   1      52.215  26.608  27.980  1.00  0.00    -0.206 F 
ATOM     50  C   UNL A   1      53.628  24.750  25.210  1.00  0.00     0.006 A 
ENDBRANCH  29  43
BRANCH  30  51
ATOM     51  C   UNL A   1      44.524  33.742  26.818  1.00  0.00     0.057 A 
ATOM     52  C   UNL A   1      43.795  34.205  25.717  1.00  0.00     0.134 A 
ATOM     53  C   UNL A   1      44.201  34.287  28.070  1.00  0.00     0.134 A 
ATOM     54  F   UNL A   1      44.063  33.746  24.487  1.00  0.00    -0.206 F 
ATOM     55  C   UNL A   1      42.800  35.179  25.854  1.00  0.00     0.040 A 
ATOM     56  C   UNL A   1      43.190  35.238  28.225  1.00  0.00     0.040 A 
ATOM     57  F   UNL A   1      44.862  33.897  29.170  1.00  0.00    -0.206 F 
ATOM     58  C   UNL A   1      42.492  35.693  27.112  1.00  0.00     0.006 A 
ENDBRANCH  30  51
BRANCH  42  59
ATOM     59  C   UNL A   1      51.473  34.144  26.401  1.00  0.00     0.057 A 
ATOM     60  C   UNL A   1      51.889  34.791  25.232  1.00  0.00     0.134 A 
ATOM     61  C   UNL A   1      51.917  34.651  27.627  1.00  0.00     0.134 A 
ATOM     62  F   UNL A   1      51.501  34.339  24.030  1.00  0.00    -0.206 F 
ATOM     63  C   UNL A   1      52.739  35.894  25.280  1.00  0.00     0.040 A 
ATOM     64  C   UNL A   1      52.748  35.769  27.689  1.00  0.00     0.040 A 
ATOM     65  F   UNL A   1      51.541  34.077  28.780  1.00  0.00    -0.206 F 
ATOM     66  C   UNL A   1      53.164  36.389  26.512  1.00  0.00     0.006 A 
ENDBRANCH  42  59
ENDBRANCH  16  17
ENDBRANCH   9  11
ENDBRANCH   8   9
ENDBRANCH   7   8
ENDBRANCH   6   7
ENDBRANCH   5   6
ENDBRANCH   4   5
ENDBRANCH   3   4
ENDBRANCH   2   3
ENDBRANCH   1   2
BRANCH   1  67
ATOM     67  C   UNL A   1      35.955  29.666  27.960  1.00  0.00     0.188 C 
BRANCH  67  68
ATOM     68  O   UNL A   1      34.866  30.578  27.790  1.00  0.00    -0.376 OA
BRANCH  68  69
ATOM     69  C   UNL A   1      33.764  30.056  27.051  1.00  0.00     0.202 C 
BRANCH  69  70
ATOM     70  C   UNL A   1      34.120  28.899  26.092  1.00  0.00     0.261 C 
BRANCH  70  71
ATOM     71  O   UNL A   1      33.167  28.600  25.042  1.00  0.00    -0.461 OA
BRANCH  71  72
ATOM     72  C   UNL A   1      33.725  27.954  23.988  1.00  0.00     0.336 C 
ATOM     73  O   UNL A   1      34.187  28.567  23.023  1.00  0.00    -0.249 OA
BRANCH  72  74
ATOM     74  C   UNL A   1      33.699  26.353  24.032  1.00  0.00     0.164 C 
ATOM     75  C   UNL A   1      33.977  25.802  22.598  1.00  0.00     0.046 C 
ATOM     76  C   UNL A   1      32.206  26.115  24.387  1.00  0.00    -0.008 A 
ATOM     77  C   UNL A   1      32.961  26.238  21.539  1.00  0.00     0.008 C 
ATOM     78  C   UNL A   1      31.213  25.964  23.407  1.00  0.00    -0.042 A 
ATOM     79  C   UNL A   1      31.839  26.178  25.752  1.00  0.00     0.007 A 
ATOM     80  C   UNL A   1      31.524  25.898  21.932  1.00  0.00     0.036 C 
ATOM     81  C   UNL A   1      29.878  25.860  23.823  1.00  0.00     0.004 A 
ATOM     82  C   UNL A   1      30.517  26.054  26.146  1.00  0.00     0.000 A 
ATOM     83  C   UNL A   1      29.534  25.902  25.178  1.00  0.00     0.000 A 
BRANCH  74  84
ATOM     84  N   UNL A   1      34.390  25.414  25.006  1.00  0.00    -0.336 N 
ATOM     85  C   UNL A   1      34.441  24.133  25.419  1.00  0.00     0.224 C 
ATOM     86  H   UNL A   1      35.041  25.934  25.530  1.00  0.00     0.164 HD
ATOM     87  O   UNL A   1      34.957  23.913  26.519  1.00  0.00    -0.275 OA
BRANCH  85  88
ATOM     88  C   UNL A   1      33.954  22.991  24.581  1.00  0.00     0.082 C 
ATOM     89  C   UNL A   1      32.673  22.452  25.221  1.00  0.00     0.035 C 
ATOM     90  C   UNL A   1      35.064  21.951  24.315  1.00  0.00     0.035 C 
ATOM     91  C   UNL A   1      32.744  21.095  25.924  1.00  0.00     0.120 C 
ATOM     92  C   UNL A   1      35.012  20.721  25.214  1.00  0.00     0.120 C 
ATOM     93  N   UNL A   1      33.664  20.188  25.257  1.00  0.00    -0.342 N 
ATOM     94  C   UNL A   1      33.224  18.914  24.919  1.00  0.00     0.225 C 
ATOM     95  O   UNL A   1      32.155  18.485  25.374  1.00  0.00    -0.275 OA
BRANCH  94  96
ATOM     96  C   UNL A   1      33.905  18.007  23.948  1.00  0.00     0.079 C 
ATOM     97  C   UNL A   1      33.755  16.540  23.670  1.00  0.00     0.014 C 
ATOM     98  C   UNL A   1      33.163  17.540  22.717  1.00  0.00     0.014 C 
ENDBRANCH  94  96
ENDBRANCH  85  88
ENDBRANCH  74  84
ENDBRANCH  72  74
ENDBRANCH  71  72
ENDBRANCH  70  71
ENDBRANCH  69  70
ENDBRANCH  68  69
ENDBRANCH  67  68
ENDBRANCH   1  67
TORSDOF 23
ENDMDL
MODEL 2
REMARK VINA RESULT:      -9.5      5.952     11.168
REMARK SMILES O=C(OCCOCCOCCOCCOC(=O)[C@]1(NC(=O)C2CCN(C(=O)C3CC3)CC2)CCCc2ccccc21)c1ccc(-c2c3nc(c(-c4c(F)cccc4F)c4ccc([nH]4)c(-c4c(F)cccc4F)c4nc(c(-c5c(F)cccc5F)c5ccc2[nH]5)C=C4)C=C3)cc1
REMARK SMILES IDX 10 1 9 2 8 3 7 4 6 5 5 6 4 7 3 8 2 9 1 10 42 11 43 12 95 13
REMARK SMILES IDX 44 14 94 15 45 16 46 17 47 18 88 19 48 20 93 21 87 22 89 23
REMARK SMILES IDX 49 24 92 25 86 26 85 27 50 29 76 30 59 31 75 32 60 33 63 34
REMARK SMILES IDX 74 35 90 36 61 37 62 38 73 40 91 41 64 42 51 43 52 44 57 45
REMARK SMILES IDX 53 46 54 47 56 48 58 49 55 50 77 51 78 52 83 53 79 54 80 55
REMARK SMILES IDX 82 56 84 57 81 58 65 59 66 60 71 61 67 62 68 63 70 64 72 65
REMARK SMILES IDX 69 66 11 67 12 68 13 69 14 70 15 71 16 72 17 73 18 74 33 75
REMARK SMILES IDX 41 76 34 77 36 78 40 79 35 80 37 81 39 82 38 83 19 84 20 85
REMARK SMILES IDX 21 87 22 88 23 89 32 90 24 91 31 92 25 93 26 94 27 95 28 96
REMARK SMILES IDX 29 97 30 98
REMARK H PARENT 89 28 63 39 19 86
REMARK Flexibility Score: inf
ROOT
ATOM      1  C   UNL A   1      43.194  21.826  26.144  1.00  0.00     0.188 C 
ENDROOT
BRANCH   1   2
ATOM      2  O   UNL A   1      43.333  22.672  27.283  1.00  0.00    -0.377 OA
BRANCH   2   3
ATOM      3  C   UNL A   1      42.187  22.862  28.099  1.00  0.00     0.188 C 
BRANCH   3   4
ATOM      4  C   UNL A   1      41.494  24.193  27.843  1.00  0.00     0.188 C 
BRANCH   4   5
ATOM      5  O   UNL A   1      41.254  24.353  26.445  1.00  0.00    -0.376 OA
BRANCH   5   6
ATOM      6  C   UNL A   1      41.566  25.632  25.898  1.00  0.00     0.202 C 
BRANCH   6   7
ATOM      7  C   UNL A   1      42.995  25.827  25.383  1.00  0.00     0.261 C 
BRANCH   7   8
ATOM      8  O   UNL A   1      44.014  25.674  26.381  1.00  0.00    -0.460 OA
BRANCH   8   9
ATOM      9  C   UNL A   1      44.729  26.627  27.024  1.00  0.00     0.338 C 
ATOM     10  O   UNL A   1      45.953  26.635  26.906  1.00  0.00    -0.246 OA
BRANCH   9  11
ATOM     11  C   UNL A   1      44.127  27.578  28.015  1.00  0.00     0.060 A 
ATOM     12  C   UNL A   1      44.339  28.955  28.036  1.00  0.00     0.016 A 
ATOM     13  C   UNL A   1      43.226  27.041  28.958  1.00  0.00     0.016 A 
ATOM     14  C   UNL A   1      43.625  29.786  28.874  1.00  0.00     0.010 A 
ATOM     15  C   UNL A   1      42.576  27.858  29.889  1.00  0.00     0.010 A 
ATOM     16  C   UNL A   1      42.795  29.234  29.843  1.00  0.00    -0.014 A 
BRANCH  16  17
ATOM     17  C   UNL A   1      42.492  30.154  30.945  1.00  0.00     0.031 A 
ATOM     18  C   UNL A   1      41.165  30.852  30.861  1.00  0.00     0.074 A 
ATOM     19  C   UNL A   1      43.198  30.069  32.082  1.00  0.00     0.049 A 
ATOM     20  N   UNL A   1      40.524  31.530  31.771  1.00  0.00    -0.248 NA
ATOM     21  C   UNL A   1      40.420  30.691  29.594  1.00  0.00     0.031 C 
ATOM     22  C   UNL A   1      44.384  29.229  32.275  1.00  0.00     0.029 A 
ATOM     23  N   UNL A   1      42.980  30.633  33.307  1.00  0.00    -0.354 N 
ATOM     24  C   UNL A   1      39.300  31.849  31.197  1.00  0.00     0.074 A 
ATOM     25  C   UNL A   1      39.274  31.288  29.870  1.00  0.00     0.031 C 
ATOM     26  C   UNL A   1      44.782  29.328  33.555  1.00  0.00     0.029 A 
ATOM     27  C   UNL A   1      43.907  30.265  34.250  1.00  0.00     0.049 A 
ATOM     28  H   UNL A   1      42.231  31.243  33.494  1.00  0.00     0.167 HD
ATOM     29  C   UNL A   1      38.292  32.569  31.737  1.00  0.00     0.037 A 
ATOM     30  C   UNL A   1      44.029  30.679  35.526  1.00  0.00     0.037 A 
ATOM     31  C   UNL A   1      38.395  33.180  33.030  1.00  0.00     0.049 A 
ATOM     32  C   UNL A   1      42.985  31.634  36.043  1.00  0.00     0.074 A 
ATOM     33  C   UNL A   1      37.566  34.106  33.627  1.00  0.00     0.029 A 
ATOM     34  N   UNL A   1      39.430  32.921  33.922  1.00  0.00    -0.354 N 
ATOM     35  N   UNL A   1      41.887  32.051  35.455  1.00  0.00    -0.248 NA
ATOM     36  C   UNL A   1      43.198  32.189  37.384  1.00  0.00     0.031 C 
ATOM     37  C   UNL A   1      38.123  34.438  34.869  1.00  0.00     0.029 A 
ATOM     38  C   UNL A   1      39.271  33.683  35.062  1.00  0.00     0.049 A 
ATOM     39  H   UNL A   1      40.166  32.289  33.764  1.00  0.00     0.167 HD
ATOM     40  C   UNL A   1      41.280  32.922  36.347  1.00  0.00     0.074 A 
ATOM     41  C   UNL A   1      42.116  32.941  37.534  1.00  0.00     0.031 C 
ATOM     42  C   UNL A   1      40.149  33.658  36.206  1.00  0.00     0.037 A 
BRANCH  29  43
ATOM     43  C   UNL A   1      37.098  32.804  30.866  1.00  0.00     0.057 A 
ATOM     44  C   UNL A   1      37.062  33.838  29.919  1.00  0.00     0.134 A 
ATOM     45  C   UNL A   1      35.929  32.057  31.052  1.00  0.00     0.134 A 
ATOM     46  F   UNL A   1      38.133  34.623  29.728  1.00  0.00    -0.206 F 
ATOM     47  C   UNL A   1      35.898  34.129  29.202  1.00  0.00     0.040 A 
ATOM     48  C   UNL A   1      34.765  32.329  30.331  1.00  0.00     0.040 A 
ATOM     49  F   UNL A   1      35.889  31.074  31.962  1.00  0.00    -0.206 F 
ATOM     50  C   UNL A   1      34.745  33.374  29.409  1.00  0.00     0.006 A 
ENDBRANCH  29  43
BRANCH  30  51
ATOM     51  C   UNL A   1      45.206  30.275  36.344  1.00  0.00     0.057 A 
ATOM     52  C   UNL A   1      46.393  31.016  36.363  1.00  0.00     0.134 A 
ATOM     53  C   UNL A   1      45.176  29.101  37.111  1.00  0.00     0.134 A 
ATOM     54  F   UNL A   1      46.502  32.137  35.636  1.00  0.00    -0.206 F 
ATOM     55  C   UNL A   1      47.506  30.598  37.098  1.00  0.00     0.040 A 
ATOM     56  C   UNL A   1      46.269  28.687  37.874  1.00  0.00     0.040 A 
ATOM     57  F   UNL A   1      44.074  28.336  37.136  1.00  0.00    -0.206 F 
ATOM     58  C   UNL A   1      47.443  29.433  37.861  1.00  0.00     0.006 A 
ENDBRANCH  30  51
BRANCH  42  59
ATOM     59  C   UNL A   1      39.775  34.529  37.363  1.00  0.00     0.057 A 
ATOM     60  C   UNL A   1      39.050  34.027  38.449  1.00  0.00     0.134 A 
ATOM     61  C   UNL A   1      40.184  35.866  37.406  1.00  0.00     0.134 A 
ATOM     62  F   UNL A   1      38.624  32.754  38.453  1.00  0.00    -0.206 F 
ATOM     63  C   UNL A   1      38.722  34.836  39.535  1.00  0.00     0.040 A 
ATOM     64  C   UNL A   1      39.882  36.679  38.497  1.00  0.00     0.040 A 
ATOM     65  F   UNL A   1      40.890  36.397  36.397  1.00  0.00    -0.206 F 
ATOM     66  C   UNL A   1      39.145  36.164  39.563  1.00  0.00     0.006 A 
ENDBRANCH  42  59
ENDBRANCH  16  17
ENDBRANCH   9  11
ENDBRANCH   8   9
ENDBRANCH   7   8
ENDBRANCH   6   7
ENDBRANCH   5   6
ENDBRANCH   4   5
ENDBRANCH   3   4
ENDBRANCH   2   3
ENDBRANCH   1   2
BRANCH   1  67
ATOM     67  C   UNL A   1      42.017  20.862  26.213  1.00  0.00     0.188 C 
BRANCH  67  68
ATOM     68  O   UNL A   1      40.862  21.365  25.535  1.00  0.00    -0.376 OA
BRANCH  68  69
ATOM     69  C   UNL A   1      39.621  21.046  26.160  1.00  0.00     0.202 C 
BRANCH  69  70
ATOM     70  C   UNL A   1      38.535  22.137  26.033  1.00  0.00     0.261 C 
BRANCH  70  71
ATOM     71  O   UNL A   1      37.775  22.166  24.800  1.00  0.00    -0.461 OA
BRANCH  71  72
ATOM     72  C   UNL A   1      36.630  21.442  24.867  1.00  0.00     0.336 C 
ATOM     73  O   UNL A   1      36.640  20.232  25.105  1.00  0.00    -0.249 OA
BRANCH  72  74
ATOM     74  C   UNL A   1      35.266  22.226  24.562  1.00  0.00     0.164 C 
ATOM     75  C   UNL A   1      35.130  23.415  25.563  1.00  0.00     0.046 C 
ATOM     76  C   UNL A   1      34.233  21.127  24.935  1.00  0.00    -0.008 A 
ATOM     77  C   UNL A   1      35.092  23.007  27.038  1.00  0.00     0.008 C 
ATOM     78  C   UNL A   1      33.705  20.997  26.228  1.00  0.00    -0.042 A 
ATOM     79  C   UNL A   1      33.922  20.160  23.950  1.00  0.00     0.007 A 
ATOM     80  C   UNL A   1      33.999  21.981  27.333  1.00  0.00     0.036 C 
ATOM     81  C   UNL A   1      32.860  19.910  26.496  1.00  0.00     0.004 A 
ATOM     82  C   UNL A   1      33.070  19.103  24.227  1.00  0.00     0.000 A 
ATOM     83  C   UNL A   1      32.544  18.975  25.505  1.00  0.00     0.000 A 
BRANCH  74  84
ATOM     84  N   UNL A   1      34.720  22.708  23.229  1.00  0.00    -0.336 N 
ATOM     85  C   UNL A   1      33.834  23.553  22.667  1.00  0.00     0.224 C 
ATOM     86  H   UNL A   1      35.184  22.222  22.509  1.00  0.00     0.164 HD
ATOM     87  O   UNL A   1      33.511  23.335  21.494  1.00  0.00    -0.275 OA
BRANCH  85  88
ATOM     88  C   UNL A   1      33.288  24.748  23.382  1.00  0.00     0.082 C 
ATOM     89  C   UNL A   1      31.926  24.366  23.965  1.00  0.00     0.035 C 
ATOM     90  C   UNL A   1      33.311  26.015  22.500  1.00  0.00     0.035 C 
ATOM     91  C   UNL A   1      30.678  24.960  23.311  1.00  0.00     0.120 C 
ATOM     92  C   UNL A   1      31.977  26.361  21.849  1.00  0.00     0.120 C 
ATOM     93  N   UNL A   1      30.912  26.313  22.831  1.00  0.00    -0.342 N 
ATOM     94  C   UNL A   1      30.028  27.319  23.202  1.00  0.00     0.225 C 
ATOM     95  O   UNL A   1      28.949  27.032  23.737  1.00  0.00    -0.275 OA
BRANCH  94  96
ATOM     96  C   UNL A   1      30.306  28.782  23.090  1.00  0.00     0.079 C 
ATOM     97  C   UNL A   1      29.558  29.986  23.581  1.00  0.00     0.014 C 
ATOM     98  C   UNL A   1      30.801  29.542  24.299  1.00  0.00     0.014 C 
ENDBRANCH  94  96
ENDBRANCH  85  88
ENDBRANCH  74  84
ENDBRANCH  72  74
ENDBRANCH  71  72
ENDBRANCH  70  71
ENDBRANCH  69  70
ENDBRANCH  68  69
ENDBRANCH  67  68
ENDBRANCH   1  67
TORSDOF 23
ENDMDL
MODEL 3
REMARK VINA RESULT:      -9.4      8.766     11.958
REMARK SMILES O=C(OCCOCCOCCOCCOC(=O)[C@]1(NC(=O)C2CCN(C(=O)C3CC3)CC2)CCCc2ccccc21)c1ccc(-c2c3nc(c(-c4c(F)cccc4F)c4ccc([nH]4)c(-c4c(F)cccc4F)c4nc(c(-c5c(F)cccc5F)c5ccc2[nH]5)C=C4)C=C3)cc1
REMARK SMILES IDX 10 1 9 2 8 3 7 4 6 5 5 6 4 7 3 8 2 9 1 10 42 11 43 12 95 13
REMARK SMILES IDX 44 14 94 15 45 16 46 17 47 18 88 19 48 20 93 21 87 22 89 23
REMARK SMILES IDX 49 24 92 25 86 26 85 27 50 29 76 30 59 31 75 32 60 33 63 34
REMARK SMILES IDX 74 35 90 36 61 37 62 38 73 40 91 41 64 42 51 43 52 44 57 45
REMARK SMILES IDX 53 46 54 47 56 48 58 49 55 50 77 51 78 52 83 53 79 54 80 55
REMARK SMILES IDX 82 56 84 57 81 58 65 59 66 60 71 61 67 62 68 63 70 64 72 65
REMARK SMILES IDX 69 66 11 67 12 68 13 69 14 70 15 71 16 72 17 73 18 74 33 75
REMARK SMILES IDX 41 76 34 77 36 78 40 79 35 80 37 81 39 82 38 83 19 84 20 85
REMARK SMILES IDX 21 87 22 88 23 89 32 90 24 91 31 92 25 93 26 94 27 95 28 96
REMARK SMILES IDX 29 97 30 98
REMARK H PARENT 89 28 63 39 19 86
REMARK Flexibility Score: inf
ROOT
ATOM      1  C   UNL A   1      34.484  33.205  28.522  1.00  0.00     0.188 C 
ENDROOT
BRANCH   1   2
ATOM      2  O   UNL A   1      33.518  33.909  29.299  1.00  0.00    -0.377 OA
BRANCH   2   3
ATOM      3  C   UNL A   1      32.825  34.976  28.668  1.00  0.00     0.188 C 
BRANCH   3   4
ATOM      4  C   UNL A   1      33.284  36.345  29.150  1.00  0.00     0.188 C 
BRANCH   4   5
ATOM      5  O   UNL A   1      32.519  36.737  30.291  1.00  0.00    -0.376 OA
BRANCH   5   6
ATOM      6  C   UNL A   1      33.237  36.846  31.519  1.00  0.00     0.202 C 
BRANCH   6   7
ATOM      7  C   UNL A   1      33.364  35.566  32.352  1.00  0.00     0.261 C 
BRANCH   7   8
ATOM      8  O   UNL A   1      34.575  34.830  32.132  1.00  0.00    -0.460 OA
BRANCH   8   9
ATOM      9  C   UNL A   1      34.893  33.573  32.522  1.00  0.00     0.338 C 
ATOM     10  O   UNL A   1      34.130  32.651  32.239  1.00  0.00    -0.246 OA
BRANCH   9  11
ATOM     11  C   UNL A   1      36.044  33.259  33.431  1.00  0.00     0.060 A 
ATOM     12  C   UNL A   1      36.591  31.993  33.626  1.00  0.00     0.016 A 
ATOM     13  C   UNL A   1      36.658  34.346  34.090  1.00  0.00     0.016 A 
ATOM     14  C   UNL A   1      37.750  31.807  34.349  1.00  0.00     0.010 A 
ATOM     15  C   UNL A   1      37.771  34.157  34.918  1.00  0.00     0.010 A 
ATOM     16  C   UNL A   1      38.301  32.875  35.048  1.00  0.00    -0.014 A 
BRANCH  16  17
ATOM     17  C   UNL A   1      39.202  32.462  36.130  1.00  0.00     0.031 A 
ATOM     18  C   UNL A   1      40.654  32.355  35.761  1.00  0.00     0.074 A 
ATOM     19  C   UNL A   1      38.778  32.540  37.401  1.00  0.00     0.049 A 
ATOM     20  N   UNL A   1      41.700  32.243  36.530  1.00  0.00    -0.248 NA
ATOM     21  C   UNL A   1      40.974  32.477  34.323  1.00  0.00     0.031 C 
ATOM     22  C   UNL A   1      37.407  32.855  37.812  1.00  0.00     0.029 A 
ATOM     23  N   UNL A   1      39.469  32.439  38.575  1.00  0.00    -0.354 N 
ATOM     24  C   UNL A   1      42.793  32.306  35.675  1.00  0.00     0.074 A 
ATOM     25  C   UNL A   1      42.295  32.478  34.334  1.00  0.00     0.031 C 
ATOM     26  C   UNL A   1      37.363  32.931  39.153  1.00  0.00     0.029 A 
ATOM     27  C   UNL A   1      38.686  32.629  39.687  1.00  0.00     0.049 A 
ATOM     28  H   UNL A   1      40.433  32.247  38.619  1.00  0.00     0.167 HD
ATOM     29  C   UNL A   1      44.102  32.210  35.993  1.00  0.00     0.037 A 
ATOM     30  C   UNL A   1      39.024  32.536  40.987  1.00  0.00     0.037 A 
ATOM     31  C   UNL A   1      44.549  31.956  37.331  1.00  0.00     0.049 A 
ATOM     32  C   UNL A   1      40.466  32.242  41.306  1.00  0.00     0.074 A 
ATOM     33  C   UNL A   1      45.808  31.621  37.783  1.00  0.00     0.029 A 
ATOM     34  N   UNL A   1      43.712  31.995  38.441  1.00  0.00    -0.354 N 
ATOM     35  N   UNL A   1      41.491  32.165  40.487  1.00  0.00    -0.248 NA
ATOM     36  C   UNL A   1      40.801  32.005  42.714  1.00  0.00     0.031 C 
ATOM     37  C   UNL A   1      45.723  31.418  39.167  1.00  0.00     0.029 A 
ATOM     38  C   UNL A   1      44.423  31.673  39.580  1.00  0.00     0.049 A 
ATOM     39  H   UNL A   1      42.754  32.218  38.418  1.00  0.00     0.167 HD
ATOM     40  C   UNL A   1      42.592  31.864  41.275  1.00  0.00     0.074 A 
ATOM     41  C   UNL A   1      42.112  31.812  42.644  1.00  0.00     0.031 C 
ATOM     42  C   UNL A   1      43.879  31.631  40.914  1.00  0.00     0.037 A 
BRANCH  29  43
ATOM     43  C   UNL A   1      45.071  32.261  34.854  1.00  0.00     0.057 A 
ATOM     44  C   UNL A   1      45.604  33.472  34.387  1.00  0.00     0.134 A 
ATOM     45  C   UNL A   1      45.393  31.098  34.145  1.00  0.00     0.134 A 
ATOM     46  F   UNL A   1      45.295  34.628  34.991  1.00  0.00    -0.206 F 
ATOM     47  C   UNL A   1      46.406  33.522  33.244  1.00  0.00     0.040 A 
ATOM     48  C   UNL A   1      46.205  31.134  33.011  1.00  0.00     0.040 A 
ATOM     49  F   UNL A   1      44.893  29.913  34.524  1.00  0.00    -0.206 F 
ATOM     50  C   UNL A   1      46.708  32.350  32.552  1.00  0.00     0.006 A 
ENDBRANCH  29  43
BRANCH  30  51
ATOM     51  C   UNL A   1      37.983  32.627  42.048  1.00  0.00     0.057 A 
ATOM     52  C   UNL A   1      37.212  31.526  42.435  1.00  0.00     0.134 A 
ATOM     53  C   UNL A   1      37.713  33.849  42.683  1.00  0.00     0.134 A 
ATOM     54  F   UNL A   1      37.399  30.332  41.856  1.00  0.00    -0.206 F 
ATOM     55  C   UNL A   1      36.205  31.639  43.399  1.00  0.00     0.040 A 
ATOM     56  C   UNL A   1      36.731  33.970  43.668  1.00  0.00     0.040 A 
ATOM     57  F   UNL A   1      38.407  34.950  42.358  1.00  0.00    -0.206 F 
ATOM     58  C   UNL A   1      35.967  32.863  44.023  1.00  0.00     0.006 A 
ENDBRANCH  30  51
BRANCH  42  59
ATOM     59  C   UNL A   1      44.830  31.304  42.021  1.00  0.00     0.057 A 
ATOM     60  C   UNL A   1      45.060  29.982  42.417  1.00  0.00     0.134 A 
ATOM     61  C   UNL A   1      45.551  32.318  42.660  1.00  0.00     0.134 A 
ATOM     62  F   UNL A   1      44.387  28.973  41.844  1.00  0.00    -0.206 F 
ATOM     63  C   UNL A   1      45.962  29.680  43.435  1.00  0.00     0.040 A 
ATOM     64  C   UNL A   1      46.474  32.026  43.663  1.00  0.00     0.040 A 
ATOM     65  F   UNL A   1      45.378  33.602  42.313  1.00  0.00    -0.206 F 
ATOM     66  C   UNL A   1      46.677  30.703  44.055  1.00  0.00     0.006 A 
ENDBRANCH  42  59
ENDBRANCH  16  17
ENDBRANCH   9  11
ENDBRANCH   8   9
ENDBRANCH   7   8
ENDBRANCH   6   7
ENDBRANCH   5   6
ENDBRANCH   4   5
ENDBRANCH   3   4
ENDBRANCH   2   3
ENDBRANCH   1   2
BRANCH   1  67
ATOM     67  C   UNL A   1      34.448  31.692  28.689  1.00  0.00     0.188 C 
BRANCH  67  68
ATOM     68  O   UNL A   1      35.055  31.009  27.588  1.00  0.00    -0.376 OA
BRANCH  68  69
ATOM     69  C   UNL A   1      34.133  30.390  26.692  1.00  0.00     0.202 C 
BRANCH  69  70
ATOM     70  C   UNL A   1      34.375  28.882  26.459  1.00  0.00     0.261 C 
BRANCH  70  71
ATOM     71  O   UNL A   1      33.349  28.157  25.737  1.00  0.00    -0.461 OA
BRANCH  71  72
ATOM     72  C   UNL A   1      33.777  27.683  24.541  1.00  0.00     0.336 C 
ATOM     73  O   UNL A   1      34.122  28.439  23.629  1.00  0.00    -0.249 OA
BRANCH  72  74
ATOM     74  C   UNL A   1      33.756  26.093  24.349  1.00  0.00     0.164 C 
ATOM     75  C   UNL A   1      33.909  25.763  22.830  1.00  0.00     0.046 C 
ATOM     76  C   UNL A   1      32.298  25.786  24.790  1.00  0.00    -0.008 A 
ATOM     77  C   UNL A   1      32.806  26.338  21.938  1.00  0.00     0.008 C 
ATOM     78  C   UNL A   1      31.225  25.770  23.887  1.00  0.00    -0.042 A 
ATOM     79  C   UNL A   1      32.050  25.643  26.176  1.00  0.00     0.007 A 
ATOM     80  C   UNL A   1      31.408  25.926  22.397  1.00  0.00     0.036 C 
ATOM     81  C   UNL A   1      29.930  25.588  24.395  1.00  0.00     0.004 A 
ATOM     82  C   UNL A   1      30.766  25.445  26.658  1.00  0.00     0.000 A 
ATOM     83  C   UNL A   1      29.705  25.425  25.765  1.00  0.00     0.000 A 
BRANCH  74  84
ATOM     84  N   UNL A   1      34.527  25.029  25.110  1.00  0.00    -0.336 N 
ATOM     85  C   UNL A   1      34.427  23.797  25.644  1.00  0.00     0.224 C 
ATOM     86  H   UNL A   1      35.438  25.365  25.275  1.00  0.00     0.164 HD
ATOM     87  O   UNL A   1      35.269  23.476  26.489  1.00  0.00    -0.275 OA
BRANCH  85  88
ATOM     88  C   UNL A   1      33.387  22.809  25.215  1.00  0.00     0.082 C 
ATOM     89  C   UNL A   1      32.914  22.054  26.459  1.00  0.00     0.035 C 
ATOM     90  C   UNL A   1      33.866  21.934  24.037  1.00  0.00     0.035 C 
ATOM     91  C   UNL A   1      33.346  20.595  26.614  1.00  0.00     0.120 C 
ATOM     92  C   UNL A   1      34.365  20.550  24.436  1.00  0.00     0.120 C 
ATOM     93  N   UNL A   1      33.419  19.914  25.331  1.00  0.00    -0.342 N 
ATOM     94  C   UNL A   1      32.758  18.702  25.176  1.00  0.00     0.225 C 
ATOM     95  O   UNL A   1      32.309  18.108  26.166  1.00  0.00    -0.275 OA
BRANCH  94  96
ATOM     96  C   UNL A   1      32.448  18.062  23.863  1.00  0.00     0.079 C 
ATOM     97  C   UNL A   1      32.630  18.533  22.449  1.00  0.00     0.014 C 
ATOM     98  C   UNL A   1      33.574  17.510  23.018  1.00  0.00     0.014 C 
ENDBRANCH  94  96
ENDBRANCH  85  88
ENDBRANCH  74  84
ENDBRANCH  72  74
ENDBRANCH  71  72
ENDBRANCH  70  71
ENDBRANCH  69  70
ENDBRANCH  68  69
ENDBRANCH  67  68
ENDBRANCH   1  67
TORSDOF 23
ENDMDL
