MODEL 1
REMARK VINA RESULT:     -10.7      0.000      0.000
REMARK SMILES Cc1cccc(-c2cc(C(=O)OCCOCCOCCOCCOC(=O)c3ccc(-c4c5nc(c(-c6c(F)cccc6F)c6ccc([nH]6)c(-c6c(F)cccc6F)c6nc(c(-c7c(F)cccc7F)c7ccc4[nH]7)C=C6)C=C5)cc3)ccn2)c1
REMARK SMILES IDX 19 1 18 2 17 3 16 4 15 5 14 6 13 7 12 8 10 9 11 10 9 11 7 12
REMARK SMILES IDX 8 13 83 14 82 15 81 16 6 17 1 18 2 19 3 20 84 21 4 22 5 23
REMARK SMILES IDX 20 24 21 25 22 26 23 27 24 28 25 29 26 30 27 31 28 32 80 33
REMARK SMILES IDX 29 34 79 35 30 36 31 37 32 38 73 39 33 40 78 41 72 42 74 43
REMARK SMILES IDX 34 44 77 45 71 46 70 47 35 49 61 50 44 51 60 52 45 53 48 54
REMARK SMILES IDX 59 55 75 56 46 57 47 58 58 60 76 61 49 62 36 63 37 64 42 65
REMARK SMILES IDX 38 66 39 67 41 68 43 69 40 70 62 71 63 72 68 73 64 74 65 75
REMARK SMILES IDX 67 76 69 77 66 78 50 79 51 80 56 81 52 82 53 83 55 84 57 85
REMARK SMILES IDX 54 86
REMARK H PARENT 74 48 48 59
REMARK Flexibility Score: inf
ROOT
ATOM      1  C   UNL A   1      33.709  31.491  27.705  1.00  0.00     0.188 C 
ENDROOT
BRANCH   1   2
ATOM      2  O   UNL A   1      34.587  30.376  27.806  1.00  0.00    -0.377 OA
BRANCH   2   3
ATOM      3  C   UNL A   1      34.518  29.337  26.842  1.00  0.00     0.188 C 
BRANCH   3   4
ATOM      4  C   UNL A   1      33.304  29.251  25.901  1.00  0.00     0.188 C 
BRANCH   4   5
ATOM      5  O   UNL A   1      33.381  28.384  24.793  1.00  0.00    -0.376 OA
BRANCH   5   6
ATOM      6  C   UNL A   1      33.663  27.016  25.047  1.00  0.00     0.202 C 
BRANCH   6   7
ATOM      7  C   UNL A   1      33.993  26.230  23.802  1.00  0.00     0.261 C 
BRANCH   7   8
ATOM      8  O   UNL A   1      33.700  26.875  22.566  1.00  0.00    -0.460 OA
BRANCH   8   9
ATOM      9  C   UNL A   1      32.783  26.359  21.713  1.00  0.00     0.338 C 
ATOM     10  O   UNL A   1      32.913  25.630  20.750  1.00  0.00    -0.246 OA
BRANCH   9  11
ATOM     11  C   UNL A   1      31.478  26.684  22.280  1.00  0.00     0.063 A 
ATOM     12  C   UNL A   1      29.827  28.265  22.901  1.00  0.00     0.071 A 
ATOM     13  C   UNL A   1      31.002  27.983  22.234  1.00  0.00     0.044 A 
ATOM     14  N   UNL A   1      29.137  27.331  23.599  1.00  0.00    -0.256 NA
ATOM     15  C   UNL A   1      29.626  26.067  23.597  1.00  0.00     0.112 A 
ATOM     16  C   UNL A   1      30.782  25.690  22.951  1.00  0.00     0.036 A 
BRANCH  12  17
ATOM     17  C   UNL A   1      29.301  29.622  22.829  1.00  0.00     0.000 A 
ATOM     18  C   UNL A   1      27.923  31.906  20.109  1.00  0.00     0.044 C 
ATOM     19  C   UNL A   1      28.434  31.432  21.435  1.00  0.00    -0.050 A 
ATOM     20  C   UNL A   1      28.555  32.303  22.519  1.00  0.00     0.003 A 
ATOM     21  C   UNL A   1      28.793  30.094  21.606  1.00  0.00     0.013 A 
ATOM     22  C   UNL A   1      29.042  31.846  23.747  1.00  0.00     0.001 A 
ATOM     23  C   UNL A   1      29.414  30.511  23.903  1.00  0.00     0.010 A 
ENDBRANCH  12  17
ENDBRANCH   9  11
ENDBRANCH   8   9
ENDBRANCH   7   8
ENDBRANCH   6   7
ENDBRANCH   5   6
ENDBRANCH   4   5
ENDBRANCH   3   4
ENDBRANCH   2   3
ENDBRANCH   1   2
BRANCH   1  24
ATOM     24  C   UNL A   1      34.332  32.860  28.000  1.00  0.00     0.188 C 
BRANCH  24  25
ATOM     25  O   UNL A   1      33.365  33.852  28.289  1.00  0.00    -0.376 OA
BRANCH  25  26
ATOM     26  C   UNL A   1      33.822  35.186  28.454  1.00  0.00     0.202 C 
BRANCH  26  27
ATOM     27  C   UNL A   1      33.277  35.820  29.735  1.00  0.00     0.261 C 
BRANCH  27  28
ATOM     28  O   UNL A   1      33.248  34.818  30.769  1.00  0.00    -0.460 OA
BRANCH  28  29
ATOM     29  C   UNL A   1      34.308  34.812  31.621  1.00  0.00     0.338 C 
ATOM     30  O   UNL A   1      34.625  35.723  32.377  1.00  0.00    -0.246 OA
BRANCH  29  31
ATOM     31  C   UNL A   1      35.188  33.644  31.336  1.00  0.00     0.060 A 
ATOM     32  C   UNL A   1      34.824  32.361  31.782  1.00  0.00     0.016 A 
ATOM     33  C   UNL A   1      36.472  33.853  30.847  1.00  0.00     0.016 A 
ATOM     34  C   UNL A   1      35.773  31.323  31.840  1.00  0.00     0.010 A 
ATOM     35  C   UNL A   1      37.415  32.844  30.965  1.00  0.00     0.010 A 
ATOM     36  C   UNL A   1      37.104  31.574  31.491  1.00  0.00    -0.014 A 
BRANCH  36  37
ATOM     37  C   UNL A   1      38.268  30.712  31.824  1.00  0.00     0.031 A 
ATOM     38  C   UNL A   1      38.622  29.521  30.986  1.00  0.00     0.074 A 
ATOM     39  C   UNL A   1      39.273  31.238  32.568  1.00  0.00     0.049 A 
ATOM     40  N   UNL A   1      39.706  28.831  31.117  1.00  0.00    -0.248 NA
ATOM     41  C   UNL A   1      37.778  28.976  29.929  1.00  0.00     0.031 C 
ATOM     42  C   UNL A   1      40.696  31.001  32.354  1.00  0.00     0.029 A 
ATOM     43  N   UNL A   1      39.277  32.173  33.588  1.00  0.00    -0.354 N 
ATOM     44  C   UNL A   1      39.931  28.169  29.933  1.00  0.00     0.074 A 
ATOM     45  C   UNL A   1      38.623  28.126  29.329  1.00  0.00     0.031 C 
ATOM     46  C   UNL A   1      41.429  31.618  33.283  1.00  0.00     0.029 A 
ATOM     47  C   UNL A   1      40.512  32.202  34.224  1.00  0.00     0.049 A 
ATOM     48  H   UNL A   1      38.510  32.740  33.830  1.00  0.00     0.167 HD
ATOM     49  C   UNL A   1      41.220  27.881  29.567  1.00  0.00     0.037 A 
ATOM     50  C   UNL A   1      40.722  32.228  35.560  1.00  0.00     0.037 A 
ATOM     51  C   UNL A   1      42.186  28.219  30.653  1.00  0.00     0.049 A 
ATOM     52  C   UNL A   1      41.379  30.907  35.879  1.00  0.00     0.074 A 
ATOM     53  C   UNL A   1      43.309  29.030  30.745  1.00  0.00     0.029 A 
ATOM     54  N   UNL A   1      41.908  27.837  31.978  1.00  0.00    -0.354 N 
ATOM     55  N   UNL A   1      41.196  29.858  35.103  1.00  0.00    -0.248 NA
ATOM     56  C   UNL A   1      42.470  30.709  36.830  1.00  0.00     0.031 C 
ATOM     57  C   UNL A   1      43.654  29.172  32.129  1.00  0.00     0.029 A 
ATOM     58  C   UNL A   1      42.750  28.447  32.897  1.00  0.00     0.049 A 
ATOM     59  H   UNL A   1      41.195  27.206  32.226  1.00  0.00     0.167 HD
ATOM     60  C   UNL A   1      42.260  29.020  35.247  1.00  0.00     0.074 A 
ATOM     61  C   UNL A   1      42.974  29.530  36.413  1.00  0.00     0.031 C 
ATOM     62  C   UNL A   1      42.695  28.110  34.323  1.00  0.00     0.037 A 
BRANCH  49  63
ATOM     63  C   UNL A   1      41.659  27.417  28.163  1.00  0.00     0.057 A 
ATOM     64  C   UNL A   1      41.442  28.225  27.024  1.00  0.00     0.134 A 
ATOM     65  C   UNL A   1      42.271  26.183  27.845  1.00  0.00     0.134 A 
ATOM     66  F   UNL A   1      40.846  29.421  27.113  1.00  0.00    -0.206 F 
ATOM     67  C   UNL A   1      41.822  27.853  25.717  1.00  0.00     0.040 A 
ATOM     68  C   UNL A   1      42.703  25.822  26.553  1.00  0.00     0.040 A 
ATOM     69  F   UNL A   1      42.454  25.213  28.741  1.00  0.00    -0.206 F 
ATOM     70  C   UNL A   1      42.477  26.657  25.478  1.00  0.00     0.006 A 
ENDBRANCH  49  63
BRANCH  50  71
ATOM     71  C   UNL A   1      39.807  33.180  36.240  1.00  0.00     0.057 A 
ATOM     72  C   UNL A   1      38.813  32.546  37.023  1.00  0.00     0.134 A 
ATOM     73  C   UNL A   1      40.275  34.413  36.713  1.00  0.00     0.134 A 
ATOM     74  F   UNL A   1      38.302  31.367  36.628  1.00  0.00    -0.206 F 
ATOM     75  C   UNL A   1      38.475  32.994  38.306  1.00  0.00     0.040 A 
ATOM     76  C   UNL A   1      39.950  34.864  38.006  1.00  0.00     0.040 A 
ATOM     77  F   UNL A   1      41.268  35.047  36.072  1.00  0.00    -0.206 F 
ATOM     78  C   UNL A   1      39.091  34.129  38.823  1.00  0.00     0.006 A 
ENDBRANCH  50  71
BRANCH  62  79
ATOM     79  C   UNL A   1      43.061  26.727  34.786  1.00  0.00     0.057 A 
ATOM     80  C   UNL A   1      42.098  25.749  35.095  1.00  0.00     0.134 A 
ATOM     81  C   UNL A   1      44.394  26.272  34.736  1.00  0.00     0.134 A 
ATOM     82  F   UNL A   1      40.786  26.024  35.098  1.00  0.00    -0.206 F 
ATOM     83  C   UNL A   1      42.441  24.425  35.373  1.00  0.00     0.040 A 
ATOM     84  C   UNL A   1      44.741  24.941  34.966  1.00  0.00     0.040 A 
ATOM     85  F   UNL A   1      45.414  27.087  34.428  1.00  0.00    -0.206 F 
ATOM     86  C   UNL A   1      43.764  24.015  35.297  1.00  0.00     0.006 A 
ENDBRANCH  62  79
ENDBRANCH  36  37
ENDBRANCH  29  31
ENDBRANCH  28  29
ENDBRANCH  27  28
ENDBRANCH  26  27
ENDBRANCH  25  26
ENDBRANCH  24  25
ENDBRANCH   1  24
TORSDOF 21
ENDMDL
MODEL 2
REMARK VINA RESULT:     -10.6      2.199      4.727
REMARK SMILES Cc1cccc(-c2cc(C(=O)OCCOCCOCCOCCOC(=O)c3ccc(-c4c5nc(c(-c6c(F)cccc6F)c6ccc([nH]6)c(-c6c(F)cccc6F)c6nc(c(-c7c(F)cccc7F)c7ccc4[nH]7)C=C6)C=C5)cc3)ccn2)c1
REMARK SMILES IDX 19 1 18 2 17 3 16 4 15 5 14 6 13 7 12 8 10 9 11 10 9 11 7 12
REMARK SMILES IDX 8 13 83 14 82 15 81 16 6 17 1 18 2 19 3 20 84 21 4 22 5 23
REMARK SMILES IDX 20 24 21 25 22 26 23 27 24 28 25 29 26 30 27 31 28 32 80 33
REMARK SMILES IDX 29 34 79 35 30 36 31 37 32 38 73 39 33 40 78 41 72 42 74 43
REMARK SMILES IDX 34 44 77 45 71 46 70 47 35 49 61 50 44 51 60 52 45 53 48 54
REMARK SMILES IDX 59 55 75 56 46 57 47 58 58 60 76 61 49 62 36 63 37 64 42 65
REMARK SMILES IDX 38 66 39 67 41 68 43 69 40 70 62 71 63 72 68 73 64 74 65 75
REMARK SMILES IDX 67 76 69 77 66 78 50 79 51 80 56 81 52 82 53 83 55 84 57 85
REMARK SMILES IDX 54 86
REMARK H PARENT 74 48 48 59
REMARK Flexibility Score: inf
ROOT
ATOM      1  C   UNL A   1      33.089  30.961  27.195  1.00  0.00     0.188 C 
ENDROOT
BRANCH   1   2
ATOM      2  O   UNL A   1      33.672  29.663  27.243  1.00  0.00    -0.377 OA
BRANCH   2   3
ATOM      3  C   UNL A   1      33.935  28.965  26.036  1.00  0.00     0.188 C 
BRANCH   3   4
ATOM      4  C   UNL A   1      32.851  28.892  24.947  1.00  0.00     0.188 C 
BRANCH   4   5
ATOM      5  O   UNL A   1      32.294  27.633  24.646  1.00  0.00    -0.376 OA
BRANCH   5   6
ATOM      6  C   UNL A   1      31.275  27.143  25.506  1.00  0.00     0.202 C 
BRANCH   6   7
ATOM      7  C   UNL A   1      31.582  25.784  26.087  1.00  0.00     0.261 C 
BRANCH   7   8
ATOM      8  O   UNL A   1      32.782  25.170  25.625  1.00  0.00    -0.460 OA
BRANCH   8   9
ATOM      9  C   UNL A   1      33.247  24.036  26.201  1.00  0.00     0.338 C 
ATOM     10  O   UNL A   1      32.756  23.312  27.044  1.00  0.00    -0.246 OA
BRANCH   9  11
ATOM     11  C   UNL A   1      34.452  23.674  25.462  1.00  0.00     0.063 A 
ATOM     12  C   UNL A   1      36.802  23.409  25.338  1.00  0.00     0.071 A 
ATOM     13  C   UNL A   1      35.676  23.624  26.105  1.00  0.00     0.044 A 
ATOM     14  N   UNL A   1      36.755  23.259  23.992  1.00  0.00    -0.256 NA
ATOM     15  C   UNL A   1      35.534  23.290  23.406  1.00  0.00     0.112 A 
ATOM     16  C   UNL A   1      34.356  23.486  24.091  1.00  0.00     0.036 A 
BRANCH  12  17
ATOM     17  C   UNL A   1      38.091  23.320  26.011  1.00  0.00     0.000 A 
ATOM     18  C   UNL A   1      40.676  20.600  26.672  1.00  0.00     0.044 C 
ATOM     19  C   UNL A   1      39.957  21.913  26.726  1.00  0.00    -0.050 A 
ATOM     20  C   UNL A   1      40.420  22.961  27.525  1.00  0.00     0.003 A 
ATOM     21  C   UNL A   1      38.805  22.109  25.963  1.00  0.00     0.013 A 
ATOM     22  C   UNL A   1      39.732  24.177  27.570  1.00  0.00     0.001 A 
ATOM     23  C   UNL A   1      38.571  24.357  26.817  1.00  0.00     0.010 A 
ENDBRANCH  12  17
ENDBRANCH   9  11
ENDBRANCH   8   9
ENDBRANCH   7   8
ENDBRANCH   6   7
ENDBRANCH   5   6
ENDBRANCH   4   5
ENDBRANCH   3   4
ENDBRANCH   2   3
ENDBRANCH   1   2
BRANCH   1  24
ATOM     24  C   UNL A   1      33.821  32.051  27.986  1.00  0.00     0.188 C 
BRANCH  24  25
ATOM     25  O   UNL A   1      33.182  33.310  27.904  1.00  0.00    -0.376 OA
BRANCH  25  26
ATOM     26  C   UNL A   1      33.977  34.465  28.121  1.00  0.00     0.202 C 
BRANCH  26  27
ATOM     27  C   UNL A   1      33.380  35.374  29.197  1.00  0.00     0.261 C 
BRANCH  27  28
ATOM     28  O   UNL A   1      33.257  34.621  30.419  1.00  0.00    -0.460 OA
BRANCH  28  29
ATOM     29  C   UNL A   1      34.325  34.673  31.259  1.00  0.00     0.338 C 
ATOM     30  O   UNL A   1      34.653  35.634  31.944  1.00  0.00    -0.246 OA
BRANCH  29  31
ATOM     31  C   UNL A   1      35.198  33.483  31.050  1.00  0.00     0.060 A 
ATOM     32  C   UNL A   1      34.853  32.246  31.623  1.00  0.00     0.016 A 
ATOM     33  C   UNL A   1      36.464  33.646  30.500  1.00  0.00     0.016 A 
ATOM     34  C   UNL A   1      35.807  31.217  31.742  1.00  0.00     0.010 A 
ATOM     35  C   UNL A   1      37.413  32.651  30.675  1.00  0.00     0.010 A 
ATOM     36  C   UNL A   1      37.123  31.435  31.325  1.00  0.00    -0.014 A 
BRANCH  36  37
ATOM     37  C   UNL A   1      38.300  30.606  31.694  1.00  0.00     0.031 A 
ATOM     38  C   UNL A   1      38.700  29.412  30.881  1.00  0.00     0.074 A 
ATOM     39  C   UNL A   1      39.278  31.167  32.450  1.00  0.00     0.049 A 
ATOM     40  N   UNL A   1      39.798  28.750  31.043  1.00  0.00    -0.248 NA
ATOM     41  C   UNL A   1      37.891  28.831  29.815  1.00  0.00     0.031 C 
ATOM     42  C   UNL A   1      40.710  30.961  32.267  1.00  0.00     0.029 A 
ATOM     43  N   UNL A   1      39.239  32.117  33.456  1.00  0.00    -0.354 N 
ATOM     44  C   UNL A   1      40.062  28.077  29.874  1.00  0.00     0.074 A 
ATOM     45  C   UNL A   1      38.767  27.994  29.245  1.00  0.00     0.031 C 
ATOM     46  C   UNL A   1      41.409  31.609  33.201  1.00  0.00     0.029 A 
ATOM     47  C   UNL A   1      40.460  32.184  34.115  1.00  0.00     0.049 A 
ATOM     48  H   UNL A   1      38.454  32.668  33.674  1.00  0.00     0.167 HD
ATOM     49  C   UNL A   1      41.365  27.815  29.538  1.00  0.00     0.037 A 
ATOM     50  C   UNL A   1      40.642  32.235  35.455  1.00  0.00     0.037 A 
ATOM     51  C   UNL A   1      42.301  28.192  30.638  1.00  0.00     0.049 A 
ATOM     52  C   UNL A   1      41.324  30.935  35.806  1.00  0.00     0.074 A 
ATOM     53  C   UNL A   1      43.401  29.031  30.739  1.00  0.00     0.029 A 
ATOM     54  N   UNL A   1      42.005  27.822  31.963  1.00  0.00    -0.354 N 
ATOM     55  N   UNL A   1      41.182  29.870  35.042  1.00  0.00    -0.248 NA
ATOM     56  C   UNL A   1      42.400  30.777  36.782  1.00  0.00     0.031 C 
ATOM     57  C   UNL A   1      43.714  29.201  32.129  1.00  0.00     0.029 A 
ATOM     58  C   UNL A   1      42.813  28.466  32.889  1.00  0.00     0.049 A 
ATOM     59  H   UNL A   1      41.302  27.178  32.205  1.00  0.00     0.167 HD
ATOM     60  C   UNL A   1      42.262  29.061  35.219  1.00  0.00     0.074 A 
ATOM     61  C   UNL A   1      42.940  29.604  36.392  1.00  0.00     0.031 C 
ATOM     62  C   UNL A   1      42.738  28.148  34.318  1.00  0.00     0.037 A 
BRANCH  49  63
ATOM     63  C   UNL A   1      41.843  27.342  28.150  1.00  0.00     0.057 A 
ATOM     64  C   UNL A   1      41.557  28.087  26.984  1.00  0.00     0.134 A 
ATOM     65  C   UNL A   1      42.559  26.155  27.874  1.00  0.00     0.134 A 
ATOM     66  F   UNL A   1      40.860  29.229  27.032  1.00  0.00    -0.206 F 
ATOM     67  C   UNL A   1      41.968  27.704  25.690  1.00  0.00     0.040 A 
ATOM     68  C   UNL A   1      43.021  25.787  26.594  1.00  0.00     0.040 A 
ATOM     69  F   UNL A   1      42.825  25.236  28.803  1.00  0.00    -0.206 F 
ATOM     70  C   UNL A   1      42.724  26.561  25.491  1.00  0.00     0.006 A 
ENDBRANCH  49  63
BRANCH  50  71
ATOM     71  C   UNL A   1      39.691  33.173  36.102  1.00  0.00     0.057 A 
ATOM     72  C   UNL A   1      38.709  32.529  36.892  1.00  0.00     0.134 A 
ATOM     73  C   UNL A   1      40.115  34.432  36.548  1.00  0.00     0.134 A 
ATOM     74  F   UNL A   1      38.240  31.325  36.522  1.00  0.00    -0.206 F 
ATOM     75  C   UNL A   1      38.346  32.997  38.160  1.00  0.00     0.040 A 
ATOM     76  C   UNL A   1      39.764  34.905  37.827  1.00  0.00     0.040 A 
ATOM     77  F   UNL A   1      41.095  35.081  35.901  1.00  0.00    -0.206 F 
ATOM     78  C   UNL A   1      38.920  34.163  38.654  1.00  0.00     0.006 A 
ENDBRANCH  50  71
BRANCH  62  79
ATOM     79  C   UNL A   1      43.127  26.781  34.809  1.00  0.00     0.057 A 
ATOM     80  C   UNL A   1      42.184  25.772  35.077  1.00  0.00     0.134 A 
ATOM     81  C   UNL A   1      44.475  26.372  34.829  1.00  0.00     0.134 A 
ATOM     82  F   UNL A   1      40.864  26.001  35.012  1.00  0.00    -0.206 F 
ATOM     83  C   UNL A   1      42.558  24.462  35.381  1.00  0.00     0.040 A 
ATOM     84  C   UNL A   1      44.856  25.055  35.085  1.00  0.00     0.040 A 
ATOM     85  F   UNL A   1      45.481  27.220  34.567  1.00  0.00    -0.206 F 
ATOM     86  C   UNL A   1      43.896  24.098  35.375  1.00  0.00     0.006 A 
ENDBRANCH  62  79
ENDBRANCH  36  37
ENDBRANCH  29  31
ENDBRANCH  28  29
ENDBRANCH  27  28
ENDBRANCH  26  27
ENDBRANCH  25  26
ENDBRANCH  24  25
ENDBRANCH   1  24
TORSDOF 21
ENDMDL
MODEL 3
REMARK VINA RESULT:     -10.5      1.885      4.067
REMARK SMILES Cc1cccc(-c2cc(C(=O)OCCOCCOCCOCCOC(=O)c3ccc(-c4c5nc(c(-c6c(F)cccc6F)c6ccc([nH]6)c(-c6c(F)cccc6F)c6nc(c(-c7c(F)cccc7F)c7ccc4[nH]7)C=C6)C=C5)cc3)ccn2)c1
REMARK SMILES IDX 19 1 18 2 17 3 16 4 15 5 14 6 13 7 12 8 10 9 11 10 9 11 7 12
REMARK SMILES IDX 8 13 83 14 82 15 81 16 6 17 1 18 2 19 3 20 84 21 4 22 5 23
REMARK SMILES IDX 20 24 21 25 22 26 23 27 24 28 25 29 26 30 27 31 28 32 80 33
REMARK SMILES IDX 29 34 79 35 30 36 31 37 32 38 73 39 33 40 78 41 72 42 74 43
REMARK SMILES IDX 34 44 77 45 71 46 70 47 35 49 61 50 44 51 60 52 45 53 48 54
REMARK SMILES IDX 59 55 75 56 46 57 47 58 58 60 76 61 49 62 36 63 37 64 42 65
REMARK SMILES IDX 38 66 39 67 41 68 43 69 40 70 62 71 63 72 68 73 64 74 65 75
REMARK SMILES IDX 67 76 69 77 66 78 50 79 51 80 56 81 52 82 53 83 55 84 57 85
REMARK SMILES IDX 54 86
REMARK H PARENT 74 48 48 59
REMARK Flexibility Score: inf
ROOT
ATOM      1  C   UNL A   1      34.028  31.920  28.164  1.00  0.00     0.188 C 
ENDROOT
BRANCH   1   2
ATOM      2  O   UNL A   1      33.379  31.459  26.983  1.00  0.00    -0.377 OA
BRANCH   2   3
ATOM      3  C   UNL A   1      33.055  30.085  26.850  1.00  0.00     0.188 C 
BRANCH   3   4
ATOM      4  C   UNL A   1      31.829  29.668  26.019  1.00  0.00     0.188 C 
BRANCH   4   5
ATOM      5  O   UNL A   1      32.019  29.371  24.655  1.00  0.00    -0.376 OA
BRANCH   5   6
ATOM      6  C   UNL A   1      31.587  28.100  24.193  1.00  0.00     0.202 C 
BRANCH   6   7
ATOM      7  C   UNL A   1      31.747  27.916  22.704  1.00  0.00     0.261 C 
BRANCH   7   8
ATOM      8  O   UNL A   1      31.504  26.601  22.212  1.00  0.00    -0.460 OA
BRANCH   8   9
ATOM      9  C   UNL A   1      32.527  25.814  21.802  1.00  0.00     0.338 C 
ATOM     10  O   UNL A   1      33.277  25.914  20.852  1.00  0.00    -0.246 OA
BRANCH   9  11
ATOM     11  C   UNL A   1      32.736  24.838  22.866  1.00  0.00     0.063 A 
ATOM     12  C   UNL A   1      34.166  23.483  24.180  1.00  0.00     0.071 A 
ATOM     13  C   UNL A   1      34.018  24.506  23.267  1.00  0.00     0.044 A 
ATOM     14  N   UNL A   1      33.116  22.791  24.684  1.00  0.00    -0.256 NA
ATOM     15  C   UNL A   1      31.876  23.166  24.284  1.00  0.00     0.112 A 
ATOM     16  C   UNL A   1      31.631  24.181  23.387  1.00  0.00     0.036 A 
BRANCH  12  17
ATOM     17  C   UNL A   1      35.511  23.150  24.633  1.00  0.00     0.000 A 
ATOM     18  C   UNL A   1      37.594  19.980  24.990  1.00  0.00     0.044 C 
ATOM     19  C   UNL A   1      37.163  21.410  25.098  1.00  0.00    -0.050 A 
ATOM     20  C   UNL A   1      37.951  22.357  25.756  1.00  0.00     0.003 A 
ATOM     21  C   UNL A   1      35.957  21.820  24.528  1.00  0.00     0.013 A 
ATOM     22  C   UNL A   1      37.530  23.687  25.855  1.00  0.00     0.001 A 
ATOM     23  C   UNL A   1      36.314  24.083  25.296  1.00  0.00     0.010 A 
ENDBRANCH  12  17
ENDBRANCH   9  11
ENDBRANCH   8   9
ENDBRANCH   7   8
ENDBRANCH   6   7
ENDBRANCH   5   6
ENDBRANCH   4   5
ENDBRANCH   3   4
ENDBRANCH   2   3
ENDBRANCH   1   2
BRANCH   1  24
ATOM     24  C   UNL A   1      34.921  33.154  27.995  1.00  0.00     0.188 C 
BRANCH  24  25
ATOM     25  O   UNL A   1      34.182  34.344  27.802  1.00  0.00    -0.376 OA
BRANCH  25  26
ATOM     26  C   UNL A   1      33.062  34.565  28.646  1.00  0.00     0.202 C 
BRANCH  26  27
ATOM     27  C   UNL A   1      33.356  35.613  29.720  1.00  0.00     0.261 C 
BRANCH  27  28
ATOM     28  O   UNL A   1      33.205  35.001  31.015  1.00  0.00    -0.460 OA
BRANCH  28  29
ATOM     29  C   UNL A   1      34.321  34.973  31.792  1.00  0.00     0.338 C 
ATOM     30  O   UNL A   1      34.694  35.865  32.544  1.00  0.00    -0.246 OA
BRANCH  29  31
ATOM     31  C   UNL A   1      35.172  33.807  31.423  1.00  0.00     0.060 A 
ATOM     32  C   UNL A   1      34.781  32.505  31.784  1.00  0.00     0.016 A 
ATOM     33  C   UNL A   1      36.459  34.018  30.943  1.00  0.00     0.016 A 
ATOM     34  C   UNL A   1      35.706  31.444  31.766  1.00  0.00     0.010 A 
ATOM     35  C   UNL A   1      37.378  32.982  30.986  1.00  0.00     0.010 A 
ATOM     36  C   UNL A   1      37.040  31.688  31.427  1.00  0.00    -0.014 A 
BRANCH  36  37
ATOM     37  C   UNL A   1      38.185  30.779  31.694  1.00  0.00     0.031 A 
ATOM     38  C   UNL A   1      38.510  29.641  30.774  1.00  0.00     0.074 A 
ATOM     39  C   UNL A   1      39.204  31.229  32.468  1.00  0.00     0.049 A 
ATOM     40  N   UNL A   1      39.579  28.920  30.850  1.00  0.00    -0.248 NA
ATOM     41  C   UNL A   1      37.651  29.191  29.684  1.00  0.00     0.031 C 
ATOM     42  C   UNL A   1      40.621  30.976  32.232  1.00  0.00     0.029 A 
ATOM     43  N   UNL A   1      39.232  32.090  33.551  1.00  0.00    -0.354 N 
ATOM     44  C   UNL A   1      39.785  28.338  29.623  1.00  0.00     0.074 A 
ATOM     45  C   UNL A   1      38.474  28.366  29.023  1.00  0.00     0.031 C 
ATOM     46  C   UNL A   1      41.370  31.509  33.198  1.00  0.00     0.029 A 
ATOM     47  C   UNL A   1      40.469  32.047  34.182  1.00  0.00     0.049 A 
ATOM     48  H   UNL A   1      38.479  32.656  33.835  1.00  0.00     0.167 HD
ATOM     49  C   UNL A   1      41.066  28.048  29.232  1.00  0.00     0.037 A 
ATOM     50  C   UNL A   1      40.683  31.975  35.516  1.00  0.00     0.037 A 
ATOM     51  C   UNL A   1      42.043  28.287  30.335  1.00  0.00     0.049 A 
ATOM     52  C   UNL A   1      41.312  30.621  35.738  1.00  0.00     0.074 A 
ATOM     53  C   UNL A   1      43.184  29.064  30.478  1.00  0.00     0.029 A 
ATOM     54  N   UNL A   1      41.760  27.819  31.631  1.00  0.00    -0.354 N 
ATOM     55  N   UNL A   1      41.102  29.633  34.892  1.00  0.00    -0.248 NA
ATOM     56  C   UNL A   1      42.400  30.332  36.669  1.00  0.00     0.031 C 
ATOM     57  C   UNL A   1      43.535  29.101  31.867  1.00  0.00     0.029 A 
ATOM     58  C   UNL A   1      42.618  28.345  32.587  1.00  0.00     0.049 A 
ATOM     59  H   UNL A   1      41.033  27.189  31.837  1.00  0.00     0.167 HD
ATOM     60  C   UNL A   1      42.148  28.763  34.972  1.00  0.00     0.074 A 
ATOM     61  C   UNL A   1      42.876  29.174  36.168  1.00  0.00     0.031 C 
ATOM     62  C   UNL A   1      42.560  27.911  33.986  1.00  0.00     0.037 A 
BRANCH  49  63
ATOM     63  C   UNL A   1      41.491  27.673  27.797  1.00  0.00     0.057 A 
ATOM     64  C   UNL A   1      41.399  26.342  27.330  1.00  0.00     0.134 A 
ATOM     65  C   UNL A   1      42.026  28.552  26.828  1.00  0.00     0.134 A 
ATOM     66  F   UNL A   1      40.945  25.353  28.110  1.00  0.00    -0.206 F 
ATOM     67  C   UNL A   1      41.772  25.941  26.030  1.00  0.00     0.040 A 
ATOM     68  C   UNL A   1      42.352  28.175  25.510  1.00  0.00     0.040 A 
ATOM     69  F   UNL A   1      42.322  29.826  27.090  1.00  0.00    -0.206 F 
ATOM     70  C   UNL A   1      42.229  26.863  25.103  1.00  0.00     0.006 A 
ENDBRANCH  49  63
BRANCH  50  71
ATOM     71  C   UNL A   1      39.791  32.897  36.264  1.00  0.00     0.057 A 
ATOM     72  C   UNL A   1      38.766  32.234  36.980  1.00  0.00     0.134 A 
ATOM     73  C   UNL A   1      40.294  34.069  36.845  1.00  0.00     0.134 A 
ATOM     74  F   UNL A   1      38.221  31.112  36.481  1.00  0.00    -0.206 F 
ATOM     75  C   UNL A   1      38.427  32.584  38.293  1.00  0.00     0.040 A 
ATOM     76  C   UNL A   1      39.968  34.420  38.169  1.00  0.00     0.040 A 
ATOM     77  F   UNL A   1      41.317  34.719  36.271  1.00  0.00    -0.206 F 
ATOM     78  C   UNL A   1      39.073  33.648  38.911  1.00  0.00     0.006 A 
ENDBRANCH  50  71
BRANCH  62  79
ATOM     79  C   UNL A   1      42.896  26.490  34.350  1.00  0.00     0.057 A 
ATOM     80  C   UNL A   1      44.166  25.928  34.126  1.00  0.00     0.134 A 
ATOM     81  C   UNL A   1      42.015  25.710  35.124  1.00  0.00     0.134 A 
ATOM     82  F   UNL A   1      45.130  26.594  33.474  1.00  0.00    -0.206 F 
ATOM     83  C   UNL A   1      44.518  24.666  34.605  1.00  0.00     0.040 A 
ATOM     84  C   UNL A   1      42.375  24.468  35.647  1.00  0.00     0.040 A 
ATOM     85  F   UNL A   1      40.780  26.130  35.440  1.00  0.00    -0.206 F 
ATOM     86  C   UNL A   1      43.626  23.937  35.378  1.00  0.00     0.006 A 
ENDBRANCH  62  79
ENDBRANCH  36  37
ENDBRANCH  29  31
ENDBRANCH  28  29
ENDBRANCH  27  28
ENDBRANCH  26  27
ENDBRANCH  25  26
ENDBRANCH  24  25
ENDBRANCH   1  24
TORSDOF 21
ENDMDL
