MODEL 1
REMARK VINA RESULT:     -10.3      0.000      0.000
REMARK SMILES Cc1cccc(NC(=O)C[C@@H]2CCCCO2)c1C(=O)OCCOCCOCCOCCOC(=O)c1ccc(-c2c3nc(c(-c4c(F)cccc4F)c4ccc([nH]4)c(-c4c(F)cccc4F)c4nc(c(-c5c(F)cccc5F)c5ccc2[nH]5)C=C4)C=C3)cc1
REMARK SMILES IDX 25 1 24 2 23 3 22 4 21 5 20 6 18 7 19 8 17 9 1 10 2 11 3 12
REMARK SMILES IDX 4 13 6 14 5 15 7 16 8 17 9 19 10 20 11 21 12 22 16 23 13 24
REMARK SMILES IDX 15 25 14 26 26 27 27 28 28 29 29 30 30 31 31 32 32 33 33 34
REMARK SMILES IDX 34 35 35 36 36 37 88 38 37 39 87 40 38 41 39 42 40 43 81 44
REMARK SMILES IDX 41 45 86 46 80 47 82 48 42 49 85 50 79 51 78 52 43 54 69 55
REMARK SMILES IDX 52 56 68 57 53 58 56 59 67 60 83 61 54 62 55 63 66 65 84 66
REMARK SMILES IDX 57 67 44 68 45 69 50 70 46 71 47 72 49 73 51 74 48 75 70 76
REMARK SMILES IDX 71 77 76 78 72 79 73 80 75 81 77 82 74 83 58 84 59 85 64 86
REMARK SMILES IDX 60 87 61 88 63 89 65 90 62 91
REMARK H PARENT 7 18 82 53 56 64
REMARK Flexibility Score: inf
ROOT
ATOM      1  C   UNL A   1      34.880  32.168  28.076  1.00  0.00     0.188 C 
ENDROOT
BRANCH   1   2
ATOM      2  C   UNL A   1      35.930  31.082  28.374  1.00  0.00     0.188 C 
BRANCH   2   3
ATOM      3  O   UNL A   1      35.556  29.727  28.211  1.00  0.00    -0.376 OA
BRANCH   3   4
ATOM      4  C   UNL A   1      34.303  29.543  27.585  1.00  0.00     0.202 C 
BRANCH   4   5
ATOM      5  C   UNL A   1      34.227  28.501  26.517  1.00  0.00     0.261 C 
BRANCH   5   6
ATOM      6  O   UNL A   1      32.861  28.385  26.165  1.00  0.00    -0.460 OA
BRANCH   6   7
ATOM      7  C   UNL A   1      32.716  27.602  25.103  1.00  0.00     0.340 C 
ATOM      8  O   UNL A   1      33.615  27.032  24.521  1.00  0.00    -0.246 OA
BRANCH   7   9
ATOM      9  C   UNL A   1      31.294  27.371  24.778  1.00  0.00     0.086 A 
ATOM     10  C   UNL A   1      30.656  29.538  23.454  1.00  0.00     0.045 C 
ATOM     11  C   UNL A   1      30.476  28.106  23.888  1.00  0.00    -0.034 A 
ATOM     12  C   UNL A   1      29.272  27.513  23.479  1.00  0.00     0.004 A 
ATOM     13  C   UNL A   1      28.869  26.280  23.991  1.00  0.00     0.002 A 
ATOM     14  C   UNL A   1      30.768  26.251  25.462  1.00  0.00     0.056 A 
ATOM     15  C   UNL A   1      29.591  25.672  25.017  1.00  0.00     0.027 A 
BRANCH  14  16
ATOM     16  N   UNL A   1      31.433  25.745  26.629  1.00  0.00    -0.325 N 
ATOM     17  C   UNL A   1      31.749  24.394  26.717  1.00  0.00     0.227 C 
ATOM     18  H   UNL A   1      31.668  26.355  27.367  1.00  0.00     0.169 HD
ATOM     19  O   UNL A   1      31.263  23.672  27.585  1.00  0.00    -0.275 OA
BRANCH  17  20
ATOM     20  C   UNL A   1      32.877  23.945  25.845  1.00  0.00     0.132 C 
BRANCH  20  21
ATOM     21  C   UNL A   1      32.632  22.847  24.804  1.00  0.00     0.127 C 
ATOM     22  C   UNL A   1      33.955  22.505  24.114  1.00  0.00     0.033 C 
ATOM     23  O   UNL A   1      31.623  23.043  23.821  1.00  0.00    -0.378 OA
ATOM     24  C   UNL A   1      34.379  23.634  23.179  1.00  0.00     0.005 C 
ATOM     25  C   UNL A   1      31.907  23.917  22.744  1.00  0.00     0.160 C 
ATOM     26  C   UNL A   1      33.300  23.876  22.150  1.00  0.00     0.029 C 
ENDBRANCH  20  21
ENDBRANCH  17  20
ENDBRANCH  14  16
ENDBRANCH   7   9
ENDBRANCH   6   7
ENDBRANCH   5   6
ENDBRANCH   4   5
ENDBRANCH   3   4
ENDBRANCH   2   3
ENDBRANCH   1   2
BRANCH   1  27
ATOM     27  O   UNL A   1      35.254  33.440  27.573  1.00  0.00    -0.377 OA
BRANCH  27  28
ATOM     28  C   UNL A   1      34.547  34.591  28.013  1.00  0.00     0.188 C 
BRANCH  28  29
ATOM     29  C   UNL A   1      33.408  34.413  28.995  1.00  0.00     0.188 C 
BRANCH  29  30
ATOM     30  O   UNL A   1      32.697  35.643  29.099  1.00  0.00    -0.376 OA
BRANCH  30  31
ATOM     31  C   UNL A   1      33.121  36.504  30.151  1.00  0.00     0.202 C 
BRANCH  31  32
ATOM     32  C   UNL A   1      32.606  36.058  31.523  1.00  0.00     0.261 C 
BRANCH  32  33
ATOM     33  O   UNL A   1      33.728  35.853  32.409  1.00  0.00    -0.460 OA
BRANCH  33  34
ATOM     34  C   UNL A   1      33.969  34.564  32.772  1.00  0.00     0.338 C 
ATOM     35  O   UNL A   1      33.117  33.706  32.949  1.00  0.00    -0.246 OA
BRANCH  34  36
ATOM     36  C   UNL A   1      35.384  34.412  33.226  1.00  0.00     0.060 A 
ATOM     37  C   UNL A   1      36.449  34.628  32.335  1.00  0.00     0.016 A 
ATOM     38  C   UNL A   1      35.625  33.728  34.405  1.00  0.00     0.016 A 
ATOM     39  C   UNL A   1      37.683  33.974  32.526  1.00  0.00     0.010 A 
ATOM     40  C   UNL A   1      36.811  33.036  34.538  1.00  0.00     0.010 A 
ATOM     41  C   UNL A   1      37.831  33.068  33.572  1.00  0.00    -0.014 A 
BRANCH  41  42
ATOM     42  C   UNL A   1      38.892  32.021  33.657  1.00  0.00     0.031 A 
ATOM     43  C   UNL A   1      38.732  30.756  32.835  1.00  0.00     0.074 A 
ATOM     44  C   UNL A   1      40.120  32.395  34.128  1.00  0.00     0.049 A 
ATOM     45  N   UNL A   1      39.622  29.834  32.666  1.00  0.00    -0.248 NA
ATOM     46  C   UNL A   1      37.535  30.462  32.043  1.00  0.00     0.031 C 
ATOM     47  C   UNL A   1      41.423  31.807  33.805  1.00  0.00     0.029 A 
ATOM     48  N   UNL A   1      40.520  33.457  34.922  1.00  0.00    -0.354 N 
ATOM     49  C   UNL A   1      39.320  29.127  31.503  1.00  0.00     0.074 A 
ATOM     50  C   UNL A   1      37.954  29.484  31.230  1.00  0.00     0.031 C 
ATOM     51  C   UNL A   1      42.434  32.462  34.397  1.00  0.00     0.029 A 
ATOM     52  C   UNL A   1      41.816  33.259  35.413  1.00  0.00     0.049 A 
ATOM     53  H   UNL A   1      39.965  34.245  35.116  1.00  0.00     0.167 HD
ATOM     54  C   UNL A   1      40.312  28.442  30.840  1.00  0.00     0.037 A 
ATOM     55  C   UNL A   1      42.026  32.946  36.729  1.00  0.00     0.037 A 
ATOM     56  C   UNL A   1      41.576  28.471  31.613  1.00  0.00     0.049 A 
ATOM     57  C   UNL A   1      42.403  31.448  36.839  1.00  0.00     0.074 A 
ATOM     58  C   UNL A   1      42.895  28.772  31.325  1.00  0.00     0.029 A 
ATOM     59  N   UNL A   1      41.543  28.299  32.999  1.00  0.00    -0.354 N 
ATOM     60  N   UNL A   1      41.910  30.500  36.057  1.00  0.00    -0.248 NA
ATOM     61  C   UNL A   1      43.614  30.994  37.532  1.00  0.00     0.031 C 
ATOM     62  C   UNL A   1      43.577  29.016  32.557  1.00  0.00     0.029 A 
ATOM     63  C   UNL A   1      42.710  28.722  33.605  1.00  0.00     0.049 A 
ATOM     64  H   UNL A   1      40.777  27.920  33.486  1.00  0.00     0.167 HD
ATOM     65  C   UNL A   1      42.802  29.449  35.986  1.00  0.00     0.074 A 
ATOM     66  C   UNL A   1      43.821  29.786  36.975  1.00  0.00     0.031 C 
ATOM     67  C   UNL A   1      42.922  28.471  35.024  1.00  0.00     0.037 A 
BRANCH  54  68
ATOM     68  C   UNL A   1      40.250  27.873  29.400  1.00  0.00     0.057 A 
ATOM     69  C   UNL A   1      39.533  26.683  29.123  1.00  0.00     0.134 A 
ATOM     70  C   UNL A   1      40.918  28.382  28.264  1.00  0.00     0.134 A 
ATOM     71  F   UNL A   1      38.805  26.070  30.067  1.00  0.00    -0.206 F 
ATOM     72  C   UNL A   1      39.503  26.054  27.860  1.00  0.00     0.040 A 
ATOM     73  C   UNL A   1      40.850  27.793  26.981  1.00  0.00     0.040 A 
ATOM     74  F   UNL A   1      41.706  29.459  28.322  1.00  0.00    -0.206 F 
ATOM     75  C   UNL A   1      40.153  26.615  26.775  1.00  0.00     0.006 A 
ENDBRANCH  54  68
BRANCH  55  76
ATOM     76  C   UNL A   1      41.294  33.940  37.588  1.00  0.00     0.057 A 
ATOM     77  C   UNL A   1      40.228  33.354  38.320  1.00  0.00     0.134 A 
ATOM     78  C   UNL A   1      41.996  34.957  38.251  1.00  0.00     0.134 A 
ATOM     79  F   UNL A   1      39.459  32.417  37.741  1.00  0.00    -0.206 F 
ATOM     80  C   UNL A   1      40.094  33.522  39.706  1.00  0.00     0.040 A 
ATOM     81  C   UNL A   1      41.833  35.166  39.637  1.00  0.00     0.040 A 
ATOM     82  F   UNL A   1      43.011  35.587  37.646  1.00  0.00    -0.206 F 
ATOM     83  C   UNL A   1      40.948  34.385  40.381  1.00  0.00     0.006 A 
ENDBRANCH  55  76
BRANCH  67  84
ATOM     84  C   UNL A   1      43.184  27.026  35.410  1.00  0.00     0.057 A 
ATOM     85  C   UNL A   1      42.214  26.223  36.021  1.00  0.00     0.134 A 
ATOM     86  C   UNL A   1      44.336  26.332  34.953  1.00  0.00     0.134 A 
ATOM     87  F   UNL A   1      41.043  26.724  36.435  1.00  0.00    -0.206 F 
ATOM     88  C   UNL A   1      42.381  24.845  36.186  1.00  0.00     0.040 A 
ATOM     89  C   UNL A   1      44.485  24.950  35.064  1.00  0.00     0.040 A 
ATOM     90  F   UNL A   1      45.356  26.945  34.337  1.00  0.00    -0.206 F 
ATOM     91  C   UNL A   1      43.508  24.201  35.692  1.00  0.00     0.006 A 
ENDBRANCH  67  84
ENDBRANCH  41  42
ENDBRANCH  34  36
ENDBRANCH  33  34
ENDBRANCH  32  33
ENDBRANCH  31  32
ENDBRANCH  30  31
ENDBRANCH  29  30
ENDBRANCH  28  29
ENDBRANCH  27  28
ENDBRANCH   1  27
TORSDOF 23
ENDMDL
MODEL 2
REMARK VINA RESULT:     -10.1      1.511      2.188
REMARK SMILES Cc1cccc(NC(=O)C[C@@H]2CCCCO2)c1C(=O)OCCOCCOCCOCCOC(=O)c1ccc(-c2c3nc(c(-c4c(F)cccc4F)c4ccc([nH]4)c(-c4c(F)cccc4F)c4nc(c(-c5c(F)cccc5F)c5ccc2[nH]5)C=C4)C=C3)cc1
REMARK SMILES IDX 25 1 24 2 23 3 22 4 21 5 20 6 18 7 19 8 17 9 1 10 2 11 3 12
REMARK SMILES IDX 4 13 6 14 5 15 7 16 8 17 9 19 10 20 11 21 12 22 16 23 13 24
REMARK SMILES IDX 15 25 14 26 26 27 27 28 28 29 29 30 30 31 31 32 32 33 33 34
REMARK SMILES IDX 34 35 35 36 36 37 88 38 37 39 87 40 38 41 39 42 40 43 81 44
REMARK SMILES IDX 41 45 86 46 80 47 82 48 42 49 85 50 79 51 78 52 43 54 69 55
REMARK SMILES IDX 52 56 68 57 53 58 56 59 67 60 83 61 54 62 55 63 66 65 84 66
REMARK SMILES IDX 57 67 44 68 45 69 50 70 46 71 47 72 49 73 51 74 48 75 70 76
REMARK SMILES IDX 71 77 76 78 72 79 73 80 75 81 77 82 74 83 58 84 59 85 64 86
REMARK SMILES IDX 60 87 61 88 63 89 65 90 62 91
REMARK H PARENT 7 18 82 53 56 64
REMARK Flexibility Score: inf
ROOT
ATOM      1  C   UNL A   1      35.763  32.338  28.004  1.00  0.00     0.188 C 
ENDROOT
BRANCH   1   2
ATOM      2  C   UNL A   1      34.765  31.172  28.125  1.00  0.00     0.188 C 
BRANCH   2   3
ATOM      3  O   UNL A   1      34.008  30.819  26.983  1.00  0.00    -0.376 OA
BRANCH   3   4
ATOM      4  C   UNL A   1      32.948  29.922  27.245  1.00  0.00     0.202 C 
BRANCH   4   5
ATOM      5  C   UNL A   1      32.394  29.170  26.079  1.00  0.00     0.261 C 
BRANCH   5   6
ATOM      6  O   UNL A   1      32.788  27.821  26.247  1.00  0.00    -0.460 OA
BRANCH   6   7
ATOM      7  C   UNL A   1      31.747  27.008  26.111  1.00  0.00     0.340 C 
ATOM      8  O   UNL A   1      30.836  26.895  26.905  1.00  0.00    -0.246 OA
BRANCH   7   9
ATOM      9  C   UNL A   1      31.735  26.341  24.794  1.00  0.00     0.086 A 
ATOM     10  C   UNL A   1      29.859  27.645  23.515  1.00  0.00     0.045 C 
ATOM     11  C   UNL A   1      31.073  26.757  23.616  1.00  0.00    -0.034 A 
ATOM     12  C   UNL A   1      31.471  26.162  22.408  1.00  0.00     0.004 A 
ATOM     13  C   UNL A   1      32.429  25.149  22.388  1.00  0.00     0.002 A 
ATOM     14  C   UNL A   1      32.519  25.164  24.789  1.00  0.00     0.056 A 
ATOM     15  C   UNL A   1      32.917  24.617  23.580  1.00  0.00     0.027 A 
BRANCH  14  16
ATOM     16  N   UNL A   1      32.865  24.526  26.027  1.00  0.00    -0.325 N 
ATOM     17  C   UNL A   1      32.096  23.470  26.503  1.00  0.00     0.227 C 
ATOM     18  H   UNL A   1      33.647  24.836  26.540  1.00  0.00     0.169 HD
ATOM     19  O   UNL A   1      31.482  23.544  27.564  1.00  0.00    -0.275 OA
BRANCH  17  20
ATOM     20  C   UNL A   1      32.257  22.181  25.762  1.00  0.00     0.132 C 
BRANCH  20  21
ATOM     21  C   UNL A   1      33.042  21.034  26.407  1.00  0.00     0.127 C 
ATOM     22  C   UNL A   1      34.224  21.613  27.190  1.00  0.00     0.033 C 
ATOM     23  O   UNL A   1      33.495  19.964  25.588  1.00  0.00    -0.378 OA
ATOM     24  C   UNL A   1      35.295  22.132  26.236  1.00  0.00     0.005 C 
ATOM     25  C   UNL A   1      34.624  20.192  24.763  1.00  0.00     0.160 C 
ATOM     26  C   UNL A   1      35.762  21.012  25.336  1.00  0.00     0.029 C 
ENDBRANCH  20  21
ENDBRANCH  17  20
ENDBRANCH  14  16
ENDBRANCH   7   9
ENDBRANCH   6   7
ENDBRANCH   5   6
ENDBRANCH   4   5
ENDBRANCH   3   4
ENDBRANCH   2   3
ENDBRANCH   1   2
BRANCH   1  27
ATOM     27  O   UNL A   1      35.612  33.524  28.768  1.00  0.00    -0.377 OA
BRANCH  27  28
ATOM     28  C   UNL A   1      34.704  34.521  28.323  1.00  0.00     0.188 C 
BRANCH  28  29
ATOM     29  C   UNL A   1      33.224  34.199  28.303  1.00  0.00     0.188 C 
BRANCH  29  30
ATOM     30  O   UNL A   1      32.611  34.791  29.444  1.00  0.00    -0.376 OA
BRANCH  30  31
ATOM     31  C   UNL A   1      32.865  36.180  29.620  1.00  0.00     0.202 C 
BRANCH  31  32
ATOM     32  C   UNL A   1      32.706  36.629  31.076  1.00  0.00     0.261 C 
BRANCH  32  33
ATOM     33  O   UNL A   1      34.011  36.873  31.645  1.00  0.00    -0.460 OA
BRANCH  33  34
ATOM     34  C   UNL A   1      34.139  36.601  32.972  1.00  0.00     0.338 C 
ATOM     35  O   UNL A   1      34.153  37.431  33.868  1.00  0.00    -0.246 OA
BRANCH  34  36
ATOM     36  C   UNL A   1      34.570  35.184  33.169  1.00  0.00     0.060 A 
ATOM     37  C   UNL A   1      34.727  34.656  34.462  1.00  0.00     0.016 A 
ATOM     38  C   UNL A   1      35.144  34.519  32.099  1.00  0.00     0.016 A 
ATOM     39  C   UNL A   1      35.631  33.600  34.697  1.00  0.00     0.010 A 
ATOM     40  C   UNL A   1      36.081  33.538  32.356  1.00  0.00     0.010 A 
ATOM     41  C   UNL A   1      36.413  33.114  33.654  1.00  0.00    -0.014 A 
BRANCH  41  42
ATOM     42  C   UNL A   1      37.667  32.320  33.819  1.00  0.00     0.031 A 
ATOM     43  C   UNL A   1      37.806  31.015  33.058  1.00  0.00     0.074 A 
ATOM     44  C   UNL A   1      38.771  32.964  34.303  1.00  0.00     0.049 A 
ATOM     45  N   UNL A   1      38.874  30.296  32.959  1.00  0.00    -0.248 NA
ATOM     46  C   UNL A   1      36.726  30.441  32.249  1.00  0.00     0.031 C 
ATOM     47  C   UNL A   1      40.179  32.652  34.045  1.00  0.00     0.029 A 
ATOM     48  N   UNL A   1      38.910  34.120  35.054  1.00  0.00    -0.354 N 
ATOM     49  C   UNL A   1      38.770  29.491  31.824  1.00  0.00     0.074 A 
ATOM     50  C   UNL A   1      37.371  29.540  31.497  1.00  0.00     0.031 C 
ATOM     51  C   UNL A   1      41.008  33.530  34.631  1.00  0.00     0.029 A 
ATOM     52  C   UNL A   1      40.200  34.222  35.589  1.00  0.00     0.049 A 
ATOM     53  H   UNL A   1      38.195  34.781  35.194  1.00  0.00     0.167 HD
ATOM     54  C   UNL A   1      39.907  29.003  31.223  1.00  0.00     0.037 A 
ATOM     55  C   UNL A   1      40.422  34.017  36.923  1.00  0.00     0.037 A 
ATOM     56  C   UNL A   1      41.108  29.332  32.026  1.00  0.00     0.049 A 
ATOM     57  C   UNL A   1      41.101  32.639  37.118  1.00  0.00     0.074 A 
ATOM     58  C   UNL A   1      42.344  29.892  31.759  1.00  0.00     0.029 A 
ATOM     59  N   UNL A   1      41.060  29.217  33.418  1.00  0.00    -0.354 N 
ATOM     60  N   UNL A   1      40.846  31.575  36.371  1.00  0.00    -0.248 NA
ATOM     61  C   UNL A   1      42.354  32.481  37.865  1.00  0.00     0.031 C 
ATOM     62  C   UNL A   1      42.914  30.326  32.996  1.00  0.00     0.029 A 
ATOM     63  C   UNL A   1      42.091  29.902  34.034  1.00  0.00     0.049 A 
ATOM     64  H   UNL A   1      40.374  28.706  33.903  1.00  0.00     0.167 HD
ATOM     65  C   UNL A   1      41.941  30.734  36.377  1.00  0.00     0.074 A 
ATOM     66  C   UNL A   1      42.830  31.321  37.374  1.00  0.00     0.031 C 
ATOM     67  C   UNL A   1      42.298  29.763  35.468  1.00  0.00     0.037 A 
BRANCH  54  68
ATOM     68  C   UNL A   1      40.018  28.373  29.812  1.00  0.00     0.057 A 
ATOM     69  C   UNL A   1      40.656  29.071  28.756  1.00  0.00     0.134 A 
ATOM     70  C   UNL A   1      39.470  27.140  29.393  1.00  0.00     0.134 A 
ATOM     71  F   UNL A   1      41.269  30.245  28.965  1.00  0.00    -0.206 F 
ATOM     72  C   UNL A   1      40.720  28.606  27.425  1.00  0.00     0.040 A 
ATOM     73  C   UNL A   1      39.575  26.637  28.078  1.00  0.00     0.040 A 
ATOM     74  F   UNL A   1      38.767  26.357  30.217  1.00  0.00    -0.206 F 
ATOM     75  C   UNL A   1      40.189  27.375  27.081  1.00  0.00     0.006 A 
ENDBRANCH  54  68
BRANCH  55  76
ATOM     76  C   UNL A   1      39.467  34.870  37.713  1.00  0.00     0.057 A 
ATOM     77  C   UNL A   1      38.609  34.107  38.546  1.00  0.00     0.134 A 
ATOM     78  C   UNL A   1      39.885  36.101  38.239  1.00  0.00     0.134 A 
ATOM     79  F   UNL A   1      38.106  32.944  38.098  1.00  0.00    -0.206 F 
ATOM     80  C   UNL A   1      38.459  34.381  39.914  1.00  0.00     0.040 A 
ATOM     81  C   UNL A   1      39.696  36.408  39.603  1.00  0.00     0.040 A 
ATOM     82  F   UNL A   1      40.686  36.907  37.530  1.00  0.00    -0.206 F 
ATOM     83  C   UNL A   1      39.063  35.506  40.461  1.00  0.00     0.006 A 
ENDBRANCH  55  76
BRANCH  67  84
ATOM     84  C   UNL A   1      42.843  28.424  35.933  1.00  0.00     0.057 A 
ATOM     85  C   UNL A   1      42.023  27.421  36.462  1.00  0.00     0.134 A 
ATOM     86  C   UNL A   1      44.170  28.016  35.630  1.00  0.00     0.134 A 
ATOM     87  F   UNL A   1      40.728  27.636  36.727  1.00  0.00    -0.206 F 
ATOM     88  C   UNL A   1      42.486  26.123  36.694  1.00  0.00     0.040 A 
ATOM     89  C   UNL A   1      44.622  26.709  35.806  1.00  0.00     0.040 A 
ATOM     90  F   UNL A   1      45.083  28.846  35.108  1.00  0.00    -0.206 F 
ATOM     91  C   UNL A   1      43.781  25.757  36.350  1.00  0.00     0.006 A 
ENDBRANCH  67  84
ENDBRANCH  41  42
ENDBRANCH  34  36
ENDBRANCH  33  34
ENDBRANCH  32  33
ENDBRANCH  31  32
ENDBRANCH  30  31
ENDBRANCH  29  30
ENDBRANCH  28  29
ENDBRANCH  27  28
ENDBRANCH   1  27
TORSDOF 23
ENDMDL
MODEL 3
REMARK VINA RESULT:     -10.0      2.129      3.679
REMARK SMILES Cc1cccc(NC(=O)C[C@@H]2CCCCO2)c1C(=O)OCCOCCOCCOCCOC(=O)c1ccc(-c2c3nc(c(-c4c(F)cccc4F)c4ccc([nH]4)c(-c4c(F)cccc4F)c4nc(c(-c5c(F)cccc5F)c5ccc2[nH]5)C=C4)C=C3)cc1
REMARK SMILES IDX 25 1 24 2 23 3 22 4 21 5 20 6 18 7 19 8 17 9 1 10 2 11 3 12
REMARK SMILES IDX 4 13 6 14 5 15 7 16 8 17 9 19 10 20 11 21 12 22 16 23 13 24
REMARK SMILES IDX 15 25 14 26 26 27 27 28 28 29 29 30 30 31 31 32 32 33 33 34
REMARK SMILES IDX 34 35 35 36 36 37 88 38 37 39 87 40 38 41 39 42 40 43 81 44
REMARK SMILES IDX 41 45 86 46 80 47 82 48 42 49 85 50 79 51 78 52 43 54 69 55
REMARK SMILES IDX 52 56 68 57 53 58 56 59 67 60 83 61 54 62 55 63 66 65 84 66
REMARK SMILES IDX 57 67 44 68 45 69 50 70 46 71 47 72 49 73 51 74 48 75 70 76
REMARK SMILES IDX 71 77 76 78 72 79 73 80 75 81 77 82 74 83 58 84 59 85 64 86
REMARK SMILES IDX 60 87 61 88 63 89 65 90 62 91
REMARK H PARENT 7 18 82 53 56 64
REMARK Flexibility Score: inf
ROOT
ATOM      1  C   UNL A   1      31.682  29.132  24.636  1.00  0.00     0.188 C 
ENDROOT
BRANCH   1   2
ATOM      2  C   UNL A   1      31.080  27.752  24.959  1.00  0.00     0.188 C 
BRANCH   2   3
ATOM      3  O   UNL A   1      30.298  27.115  23.966  1.00  0.00    -0.376 OA
BRANCH   3   4
ATOM      4  C   UNL A   1      30.419  25.707  23.948  1.00  0.00     0.202 C 
BRANCH   4   5
ATOM      5  C   UNL A   1      30.393  25.009  25.269  1.00  0.00     0.261 C 
BRANCH   5   6
ATOM      6  O   UNL A   1      31.383  23.999  25.209  1.00  0.00    -0.460 OA
BRANCH   6   7
ATOM      7  C   UNL A   1      32.134  24.013  26.303  1.00  0.00     0.340 C 
ATOM      8  O   UNL A   1      31.719  24.087  27.441  1.00  0.00    -0.246 OA
BRANCH   7   9
ATOM      9  C   UNL A   1      33.560  23.781  25.997  1.00  0.00     0.086 A 
ATOM     10  C   UNL A   1      34.200  25.917  24.624  1.00  0.00     0.045 C 
ATOM     11  C   UNL A   1      34.494  24.698  25.462  1.00  0.00    -0.034 A 
ATOM     12  C   UNL A   1      35.855  24.372  25.570  1.00  0.00     0.004 A 
ATOM     13  C   UNL A   1      36.259  23.155  26.120  1.00  0.00     0.002 A 
ATOM     14  C   UNL A   1      33.967  22.468  26.327  1.00  0.00     0.056 A 
ATOM     15  C   UNL A   1      35.316  22.184  26.453  1.00  0.00     0.027 A 
BRANCH  14  16
ATOM     16  N   UNL A   1      32.985  21.433  26.493  1.00  0.00    -0.325 N 
ATOM     17  C   UNL A   1      32.648  20.617  25.419  1.00  0.00     0.227 C 
ATOM     18  H   UNL A   1      32.552  21.300  27.367  1.00  0.00     0.169 HD
ATOM     19  O   UNL A   1      31.512  20.600  24.951  1.00  0.00    -0.275 OA
BRANCH  17  20
ATOM     20  C   UNL A   1      33.685  19.611  25.033  1.00  0.00     0.132 C 
BRANCH  20  21
ATOM     21  C   UNL A   1      33.308  18.469  24.084  1.00  0.00     0.127 C 
ATOM     22  C   UNL A   1      32.209  17.620  24.730  1.00  0.00     0.033 C 
ATOM     23  O   UNL A   1      34.335  17.617  23.590  1.00  0.00    -0.378 OA
ATOM     24  C   UNL A   1      32.776  16.799  25.883  1.00  0.00     0.005 C 
ATOM     25  C   UNL A   1      34.860  16.636  24.466  1.00  0.00     0.160 C 
ATOM     26  C   UNL A   1      33.892  15.914  25.380  1.00  0.00     0.029 C 
ENDBRANCH  20  21
ENDBRANCH  17  20
ENDBRANCH  14  16
ENDBRANCH   7   9
ENDBRANCH   6   7
ENDBRANCH   5   6
ENDBRANCH   4   5
ENDBRANCH   3   4
ENDBRANCH   2   3
ENDBRANCH   1   2
BRANCH   1  27
ATOM     27  O   UNL A   1      31.798  30.139  25.628  1.00  0.00    -0.377 OA
BRANCH  27  28
ATOM     28  C   UNL A   1      32.362  29.804  26.889  1.00  0.00     0.188 C 
BRANCH  28  29
ATOM     29  C   UNL A   1      33.790  29.299  26.935  1.00  0.00     0.188 C 
BRANCH  29  30
ATOM     30  O   UNL A   1      34.639  30.368  27.341  1.00  0.00    -0.376 OA
BRANCH  30  31
ATOM     31  C   UNL A   1      33.972  31.520  27.845  1.00  0.00     0.202 C 
BRANCH  31  32
ATOM     32  C   UNL A   1      34.667  32.113  29.075  1.00  0.00     0.261 C 
BRANCH  32  33
ATOM     33  O   UNL A   1      34.335  33.514  29.181  1.00  0.00    -0.460 OA
BRANCH  33  34
ATOM     34  C   UNL A   1      34.100  33.973  30.441  1.00  0.00     0.338 C 
ATOM     35  O   UNL A   1      33.168  34.690  30.771  1.00  0.00    -0.246 OA
BRANCH  34  36
ATOM     36  C   UNL A   1      35.297  33.745  31.305  1.00  0.00     0.060 A 
ATOM     37  C   UNL A   1      36.571  34.166  30.888  1.00  0.00     0.016 A 
ATOM     38  C   UNL A   1      35.199  32.821  32.331  1.00  0.00     0.016 A 
ATOM     39  C   UNL A   1      37.728  33.503  31.346  1.00  0.00     0.010 A 
ATOM     40  C   UNL A   1      36.333  32.133  32.712  1.00  0.00     0.010 A 
ATOM     41  C   UNL A   1      37.604  32.390  32.173  1.00  0.00    -0.014 A 
BRANCH  41  42
ATOM     42  C   UNL A   1      38.667  31.365  32.396  1.00  0.00     0.031 A 
ATOM     43  C   UNL A   1      38.649  30.105  31.552  1.00  0.00     0.074 A 
ATOM     44  C   UNL A   1      39.810  31.759  33.035  1.00  0.00     0.049 A 
ATOM     45  N   UNL A   1      39.573  29.204  31.501  1.00  0.00    -0.248 NA
ATOM     46  C   UNL A   1      37.579  29.794  30.601  1.00  0.00     0.031 C 
ATOM     47  C   UNL A   1      41.158  31.202  32.890  1.00  0.00     0.029 A 
ATOM     48  N   UNL A   1      40.074  32.821  33.884  1.00  0.00    -0.354 N 
ATOM     49  C   UNL A   1      39.450  28.502  30.302  1.00  0.00     0.074 A 
ATOM     50  C   UNL A   1      38.127  28.833  29.846  1.00  0.00     0.031 C 
ATOM     51  C   UNL A   1      42.063  31.872  33.621  1.00  0.00     0.029 A 
ATOM     52  C   UNL A   1      41.294  32.646  34.547  1.00  0.00     0.049 A 
ATOM     53  H   UNL A   1      39.480  33.596  34.005  1.00  0.00     0.167 HD
ATOM     54  C   UNL A   1      40.539  27.844  29.778  1.00  0.00     0.037 A 
ATOM     55  C   UNL A   1      41.327  32.325  35.877  1.00  0.00     0.037 A 
ATOM     56  C   UNL A   1      41.684  27.892  30.717  1.00  0.00     0.049 A 
ATOM     57  C   UNL A   1      41.719  30.834  36.028  1.00  0.00     0.074 A 
ATOM     58  C   UNL A   1      43.023  28.223  30.616  1.00  0.00     0.029 A 
ATOM     59  N   UNL A   1      41.464  27.706  32.084  1.00  0.00    -0.354 N 
ATOM     60  N   UNL A   1      41.358  29.883  35.179  1.00  0.00    -0.248 NA
ATOM     61  C   UNL A   1      42.832  30.398  36.878  1.00  0.00     0.031 C 
ATOM     62  C   UNL A   1      43.523  28.468  31.932  1.00  0.00     0.029 A 
ATOM     63  C   UNL A   1      42.527  28.147  32.849  1.00  0.00     0.049 A 
ATOM     64  H   UNL A   1      40.646  27.306  32.459  1.00  0.00     0.167 HD
ATOM     65  C   UNL A   1      42.275  28.852  35.224  1.00  0.00     0.074 A 
ATOM     66  C   UNL A   1      43.140  29.200  36.346  1.00  0.00     0.031 C 
ATOM     67  C   UNL A   1      42.547  27.886  34.281  1.00  0.00     0.037 A 
BRANCH  54  68
ATOM     68  C   UNL A   1      40.688  27.288  28.339  1.00  0.00     0.057 A 
ATOM     69  C   UNL A   1      40.131  26.033  27.987  1.00  0.00     0.134 A 
ATOM     70  C   UNL A   1      41.415  27.876  27.280  1.00  0.00     0.134 A 
ATOM     71  F   UNL A   1      39.376  25.338  28.849  1.00  0.00    -0.206 F 
ATOM     72  C   UNL A   1      40.299  25.419  26.728  1.00  0.00     0.040 A 
ATOM     73  C   UNL A   1      41.544  27.298  25.997  1.00  0.00     0.040 A 
ATOM     74  F   UNL A   1      42.077  29.028  27.422  1.00  0.00    -0.206 F 
ATOM     75  C   UNL A   1      40.998  26.057  25.717  1.00  0.00     0.006 A 
ENDBRANCH  54  68
BRANCH  55  76
ATOM     76  C   UNL A   1      40.462  33.294  36.635  1.00  0.00     0.057 A 
ATOM     77  C   UNL A   1      39.359  32.667  37.269  1.00  0.00     0.134 A 
ATOM     78  C   UNL A   1      41.041  34.360  37.340  1.00  0.00     0.134 A 
ATOM     79  F   UNL A   1      38.700  31.680  36.638  1.00  0.00    -0.206 F 
ATOM     80  C   UNL A   1      39.076  32.854  38.631  1.00  0.00     0.040 A 
ATOM     81  C   UNL A   1      40.728  34.586  38.697  1.00  0.00     0.040 A 
ATOM     82  F   UNL A   1      42.080  35.030  36.825  1.00  0.00    -0.206 F 
ATOM     83  C   UNL A   1      39.812  33.773  39.367  1.00  0.00     0.006 A 
ENDBRANCH  55  76
BRANCH  67  84
ATOM     84  C   UNL A   1      42.785  26.443  34.690  1.00  0.00     0.057 A 
ATOM     85  C   UNL A   1      41.820  25.682  35.359  1.00  0.00     0.134 A 
ATOM     86  C   UNL A   1      43.898  25.706  34.202  1.00  0.00     0.134 A 
ATOM     87  F   UNL A   1      40.682  26.225  35.810  1.00  0.00    -0.206 F 
ATOM     88  C   UNL A   1      41.956  24.304  35.549  1.00  0.00     0.040 A 
ATOM     89  C   UNL A   1      44.013  24.323  34.338  1.00  0.00     0.040 A 
ATOM     90  F   UNL A   1      44.907  26.276  33.530  1.00  0.00    -0.206 F 
ATOM     91  C   UNL A   1      43.042  23.617  35.024  1.00  0.00     0.006 A 
ENDBRANCH  67  84
ENDBRANCH  41  42
ENDBRANCH  34  36
ENDBRANCH  33  34
ENDBRANCH  32  33
ENDBRANCH  31  32
ENDBRANCH  30  31
ENDBRANCH  29  30
ENDBRANCH  28  29
ENDBRANCH  27  28
ENDBRANCH   1  27
TORSDOF 23
ENDMDL
