MODEL 1
REMARK VINA RESULT:     -10.8      0.000      0.000
REMARK SMILES Cc1cc2c(c(C)c1Cl)C=C(C(=O)OCCOCCOCCOCCOC(=O)c1ccc(-c3c4nc(c(-c5c(F)cccc5F)c5ccc([nH]5)c(-c5c(F)cccc5F)c5nc(c(-c6c(F)cccc6F)c6ccc3[nH]6)C=C5)C=C4)cc1)[C@@H](C(F)(F)F)O2
REMARK SMILES IDX 21 1 20 2 19 3 18 4 17 5 16 6 15 7 14 8 12 9 13 10 11 11
REMARK SMILES IDX 1 12 2 13 3 14 8 15 4 16 6 17 9 18 5 19 88 20 7 21 10 22
REMARK SMILES IDX 83 23 84 24 85 25 86 26 87 27 22 28 23 29 24 30 25 31 26 32
REMARK SMILES IDX 27 33 28 34 29 35 30 36 82 37 31 38 81 39 32 40 33 41 34 42
REMARK SMILES IDX 75 43 35 44 80 45 74 46 76 47 36 48 79 49 73 50 72 51 37 53
REMARK SMILES IDX 63 54 46 55 62 56 47 57 50 58 61 59 77 60 48 61 49 62 60 64
REMARK SMILES IDX 78 65 51 66 38 67 39 68 44 69 40 70 41 71 43 72 45 73 42 74
REMARK SMILES IDX 64 75 65 76 70 77 66 78 67 79 69 80 71 81 68 82 52 83 53 84
REMARK SMILES IDX 58 85 54 86 55 87 57 88 59 89 56 90
REMARK H PARENT 76 52 50 63
REMARK Flexibility Score: inf
ROOT
ATOM      1  C   UNL A   1      33.080  36.120  29.230  1.00  0.00     0.188 C 
ENDROOT
BRANCH   1   2
ATOM      2  O   UNL A   1      34.037  35.187  28.721  1.00  0.00    -0.377 OA
BRANCH   2   3
ATOM      3  C   UNL A   1      33.572  33.906  28.324  1.00  0.00     0.188 C 
BRANCH   3   4
ATOM      4  C   UNL A   1      34.670  32.825  28.357  1.00  0.00     0.188 C 
BRANCH   4   5
ATOM      5  O   UNL A   1      34.142  31.509  28.430  1.00  0.00    -0.376 OA
BRANCH   5   6
ATOM      6  C   UNL A   1      33.954  30.755  27.244  1.00  0.00     0.202 C 
BRANCH   6   7
ATOM      7  C   UNL A   1      32.912  29.625  27.157  1.00  0.00     0.261 C 
BRANCH   7   8
ATOM      8  O   UNL A   1      33.407  28.307  26.906  1.00  0.00    -0.460 OA
BRANCH   8   9
ATOM      9  C   UNL A   1      33.510  27.908  25.626  1.00  0.00     0.338 C 
ATOM     10  O   UNL A   1      33.967  28.548  24.696  1.00  0.00    -0.246 OA
BRANCH   9  11
ATOM     11  C   UNL A   1      33.131  26.478  25.571  1.00  0.00     0.087 C 
ATOM     12  C   UNL A   1      32.615  20.144  24.440  1.00  0.00     0.046 C 
ATOM     13  C   UNL A   1      33.073  21.511  24.871  1.00  0.00    -0.028 A 
ATOM     14  C   UNL A   1      32.099  22.498  25.065  1.00  0.00     0.052 A 
ATOM     15  C   UNL A   1      34.422  21.833  25.116  1.00  0.00     0.047 A 
ATOM     16  C   UNL A   1      32.461  23.811  25.354  1.00  0.00     0.128 A 
ATOM     17  C   UNL A   1      34.807  23.159  25.430  1.00  0.00    -0.021 A 
ATOM     18  Cl  UNL A   1      35.613  20.572  25.006  1.00  0.00    -0.084 Cl
ATOM     19  C   UNL A   1      33.808  24.164  25.471  1.00  0.00     0.022 A 
ATOM     20  O   UNL A   1      31.416  24.678  25.484  1.00  0.00    -0.475 OA
ATOM     21  C   UNL A   1      36.244  23.522  25.732  1.00  0.00     0.047 C 
ATOM     22  C   UNL A   1      34.131  25.588  25.553  1.00  0.00     0.027 C 
ATOM     23  C   UNL A   1      31.677  26.099  25.618  1.00  0.00     0.316 C 
BRANCH  23  24
ATOM     24  C   UNL A   1      30.842  26.827  24.556  1.00  0.00     0.430 C 
ATOM     25  F   UNL A   1      31.502  26.895  23.373  1.00  0.00    -0.167 F 
ATOM     26  F   UNL A   1      29.669  26.200  24.307  1.00  0.00    -0.167 F 
ATOM     27  F   UNL A   1      30.550  28.094  24.929  1.00  0.00    -0.167 F 
ENDBRANCH  23  24
ENDBRANCH   9  11
ENDBRANCH   8   9
ENDBRANCH   7   8
ENDBRANCH   6   7
ENDBRANCH   5   6
ENDBRANCH   4   5
ENDBRANCH   3   4
ENDBRANCH   2   3
ENDBRANCH   1   2
BRANCH   1  28
ATOM     28  C   UNL A   1      32.582  36.079  30.697  1.00  0.00     0.188 C 
BRANCH  28  29
ATOM     29  O   UNL A   1      33.617  36.142  31.669  1.00  0.00    -0.376 OA
BRANCH  29  30
ATOM     30  C   UNL A   1      33.991  34.940  32.320  1.00  0.00     0.202 C 
BRANCH  30  31
ATOM     31  C   UNL A   1      35.304  34.313  31.835  1.00  0.00     0.261 C 
BRANCH  31  32
ATOM     32  O   UNL A   1      35.378  32.883  31.921  1.00  0.00    -0.460 OA
BRANCH  32  33
ATOM     33  C   UNL A   1      36.234  32.353  32.821  1.00  0.00     0.338 C 
ATOM     34  O   UNL A   1      36.113  32.327  34.033  1.00  0.00    -0.246 OA
BRANCH  33  35
ATOM     35  C   UNL A   1      37.272  31.629  32.060  1.00  0.00     0.060 A 
ATOM     36  C   UNL A   1      38.306  30.986  32.752  1.00  0.00     0.016 A 
ATOM     37  C   UNL A   1      37.200  31.561  30.667  1.00  0.00     0.016 A 
ATOM     38  C   UNL A   1      39.285  30.288  32.045  1.00  0.00     0.010 A 
ATOM     39  C   UNL A   1      38.192  30.879  29.960  1.00  0.00     0.010 A 
ATOM     40  C   UNL A   1      39.253  30.261  30.644  1.00  0.00    -0.014 A 
BRANCH  40  41
ATOM     41  C   UNL A   1      40.417  29.745  29.888  1.00  0.00     0.031 A 
ATOM     42  C   UNL A   1      41.574  30.674  29.639  1.00  0.00     0.074 A 
ATOM     43  C   UNL A   1      40.463  28.473  29.452  1.00  0.00     0.049 A 
ATOM     44  N   UNL A   1      42.688  30.457  28.992  1.00  0.00    -0.248 NA
ATOM     45  C   UNL A   1      41.456  32.031  30.201  1.00  0.00     0.031 C 
ATOM     46  C   UNL A   1      39.425  27.468  29.667  1.00  0.00     0.029 A 
ATOM     47  N   UNL A   1      41.431  27.813  28.737  1.00  0.00    -0.354 N 
ATOM     48  C   UNL A   1      43.409  31.641  29.079  1.00  0.00     0.074 A 
ATOM     49  C   UNL A   1      42.590  32.589  29.801  1.00  0.00     0.031 C 
ATOM     50  C   UNL A   1      39.814  26.314  29.096  1.00  0.00     0.029 A 
ATOM     51  C   UNL A   1      41.112  26.507  28.452  1.00  0.00     0.049 A 
ATOM     52  H   UNL A   1      42.275  28.234  28.453  1.00  0.00     0.167 HD
ATOM     53  C   UNL A   1      44.651  31.908  28.614  1.00  0.00     0.037 A 
ATOM     54  C   UNL A   1      41.789  25.581  27.743  1.00  0.00     0.037 A 
ATOM     55  C   UNL A   1      45.461  30.969  27.888  1.00  0.00     0.049 A 
ATOM     56  C   UNL A   1      43.128  25.937  27.147  1.00  0.00     0.074 A 
ATOM     57  C   UNL A   1      46.731  31.151  27.370  1.00  0.00     0.029 A 
ATOM     58  N   UNL A   1      45.080  29.673  27.575  1.00  0.00    -0.354 N 
ATOM     59  N   UNL A   1      43.808  27.054  27.249  1.00  0.00    -0.248 NA
ATOM     60  C   UNL A   1      43.794  24.905  26.336  1.00  0.00     0.031 C 
ATOM     61  C   UNL A   1      47.098  29.982  26.699  1.00  0.00     0.029 A 
ATOM     62  C   UNL A   1      46.081  29.052  26.850  1.00  0.00     0.049 A 
ATOM     63  H   UNL A   1      44.224  29.258  27.829  1.00  0.00     0.167 HD
ATOM     64  C   UNL A   1      44.993  26.846  26.552  1.00  0.00     0.074 A 
ATOM     65  C   UNL A   1      44.942  25.496  26.033  1.00  0.00     0.031 C 
ATOM     66  C   UNL A   1      46.028  27.698  26.360  1.00  0.00     0.037 A 
BRANCH  53  67
ATOM     67  C   UNL A   1      45.216  33.272  28.876  1.00  0.00     0.057 A 
ATOM     68  C   UNL A   1      44.991  34.340  27.997  1.00  0.00     0.134 A 
ATOM     69  C   UNL A   1      45.927  33.539  30.052  1.00  0.00     0.134 A 
ATOM     70  F   UNL A   1      44.331  34.145  26.846  1.00  0.00    -0.206 F 
ATOM     71  C   UNL A   1      45.459  35.624  28.277  1.00  0.00     0.040 A 
ATOM     72  C   UNL A   1      46.377  34.826  30.355  1.00  0.00     0.040 A 
ATOM     73  F   UNL A   1      46.173  32.562  30.938  1.00  0.00    -0.206 F 
ATOM     74  C   UNL A   1      46.144  35.872  29.464  1.00  0.00     0.006 A 
ENDBRANCH  53  67
BRANCH  54  75
ATOM     75  C   UNL A   1      41.221  24.219  27.562  1.00  0.00     0.057 A 
ATOM     76  C   UNL A   1      41.728  23.126  28.276  1.00  0.00     0.134 A 
ATOM     77  C   UNL A   1      40.175  23.973  26.665  1.00  0.00     0.134 A 
ATOM     78  F   UNL A   1      42.747  23.291  29.130  1.00  0.00    -0.206 F 
ATOM     79  C   UNL A   1      41.222  21.836  28.096  1.00  0.00     0.040 A 
ATOM     80  C   UNL A   1      39.641  22.693  26.496  1.00  0.00     0.040 A 
ATOM     81  F   UNL A   1      39.647  24.976  25.948  1.00  0.00    -0.206 F 
ATOM     82  C   UNL A   1      40.170  21.619  27.209  1.00  0.00     0.006 A 
ENDBRANCH  54  75
BRANCH  66  83
ATOM     83  C   UNL A   1      47.220  27.202  25.592  1.00  0.00     0.057 A 
ATOM     84  C   UNL A   1      47.377  27.458  24.225  1.00  0.00     0.134 A 
ATOM     85  C   UNL A   1      48.272  26.556  26.255  1.00  0.00     0.134 A 
ATOM     86  F   UNL A   1      46.405  28.068  23.531  1.00  0.00    -0.206 F 
ATOM     87  C   UNL A   1      48.537  27.084  23.543  1.00  0.00     0.040 A 
ATOM     88  C   UNL A   1      49.446  26.202  25.591  1.00  0.00     0.040 A 
ATOM     89  F   UNL A   1      48.191  26.293  27.569  1.00  0.00    -0.206 F 
ATOM     90  C   UNL A   1      49.581  26.465  24.230  1.00  0.00     0.006 A 
ENDBRANCH  66  83
ENDBRANCH  40  41
ENDBRANCH  33  35
ENDBRANCH  32  33
ENDBRANCH  31  32
ENDBRANCH  30  31
ENDBRANCH  29  30
ENDBRANCH  28  29
ENDBRANCH   1  28
TORSDOF 21
ENDMDL
MODEL 2
REMARK VINA RESULT:     -10.8      5.036     10.398
REMARK SMILES Cc1cc2c(c(C)c1Cl)C=C(C(=O)OCCOCCOCCOCCOC(=O)c1ccc(-c3c4nc(c(-c5c(F)cccc5F)c5ccc([nH]5)c(-c5c(F)cccc5F)c5nc(c(-c6c(F)cccc6F)c6ccc3[nH]6)C=C5)C=C4)cc1)[C@@H](C(F)(F)F)O2
REMARK SMILES IDX 21 1 20 2 19 3 18 4 17 5 16 6 15 7 14 8 12 9 13 10 11 11
REMARK SMILES IDX 1 12 2 13 3 14 8 15 4 16 6 17 9 18 5 19 88 20 7 21 10 22
REMARK SMILES IDX 83 23 84 24 85 25 86 26 87 27 22 28 23 29 24 30 25 31 26 32
REMARK SMILES IDX 27 33 28 34 29 35 30 36 82 37 31 38 81 39 32 40 33 41 34 42
REMARK SMILES IDX 75 43 35 44 80 45 74 46 76 47 36 48 79 49 73 50 72 51 37 53
REMARK SMILES IDX 63 54 46 55 62 56 47 57 50 58 61 59 77 60 48 61 49 62 60 64
REMARK SMILES IDX 78 65 51 66 38 67 39 68 44 69 40 70 41 71 43 72 45 73 42 74
REMARK SMILES IDX 64 75 65 76 70 77 66 78 67 79 69 80 71 81 68 82 52 83 53 84
REMARK SMILES IDX 58 85 54 86 55 87 57 88 59 89 56 90
REMARK H PARENT 76 52 50 63
REMARK Flexibility Score: inf
ROOT
ATOM      1  C   UNL A   1      42.211  19.291  26.171  1.00  0.00     0.188 C 
ENDROOT
BRANCH   1   2
ATOM      2  O   UNL A   1      42.161  20.019  27.400  1.00  0.00    -0.377 OA
BRANCH   2   3
ATOM      3  C   UNL A   1      41.033  20.846  27.640  1.00  0.00     0.188 C 
BRANCH   3   4
ATOM      4  C   UNL A   1      40.248  21.187  26.358  1.00  0.00     0.188 C 
BRANCH   4   5
ATOM      5  O   UNL A   1      39.275  22.199  26.564  1.00  0.00    -0.376 OA
BRANCH   5   6
ATOM      6  C   UNL A   1      38.208  22.354  25.642  1.00  0.00     0.202 C 
BRANCH   6   7
ATOM      7  C   UNL A   1      37.434  23.678  25.510  1.00  0.00     0.261 C 
BRANCH   7   8
ATOM      8  O   UNL A   1      36.056  23.587  25.138  1.00  0.00    -0.460 OA
BRANCH   8   9
ATOM      9  C   UNL A   1      35.767  23.449  23.832  1.00  0.00     0.338 C 
ATOM     10  O   UNL A   1      36.464  22.930  22.980  1.00  0.00    -0.246 OA
BRANCH   9  11
ATOM     11  C   UNL A   1      34.364  23.884  23.636  1.00  0.00     0.087 C 
ATOM     12  C   UNL A   1      28.540  26.651  23.898  1.00  0.00     0.046 C 
ATOM     13  C   UNL A   1      30.010  26.371  23.742  1.00  0.00    -0.028 A 
ATOM     14  C   UNL A   1      30.397  25.060  23.436  1.00  0.00     0.052 A 
ATOM     15  C   UNL A   1      31.003  27.362  23.858  1.00  0.00     0.047 A 
ATOM     16  C   UNL A   1      31.744  24.708  23.389  1.00  0.00     0.128 A 
ATOM     17  C   UNL A   1      32.377  27.025  23.793  1.00  0.00    -0.021 A 
ATOM     18  Cl  UNL A   1      30.510  29.010  24.102  1.00  0.00    -0.084 Cl
ATOM     19  C   UNL A   1      32.735  25.662  23.632  1.00  0.00     0.022 A 
ATOM     20  O   UNL A   1      31.982  23.392  23.116  1.00  0.00    -0.475 OA
ATOM     21  C   UNL A   1      33.461  28.076  23.880  1.00  0.00     0.047 C 
ATOM     22  C   UNL A   1      34.109  25.189  23.789  1.00  0.00     0.027 C 
ATOM     23  C   UNL A   1      33.334  22.876  23.206  1.00  0.00     0.316 C 
BRANCH  23  24
ATOM     24  C   UNL A   1      33.300  21.641  24.118  1.00  0.00     0.430 C 
ATOM     25  F   UNL A   1      33.033  21.985  25.402  1.00  0.00    -0.167 F 
ATOM     26  F   UNL A   1      32.344  20.757  23.749  1.00  0.00    -0.167 F 
ATOM     27  F   UNL A   1      34.481  20.982  24.113  1.00  0.00    -0.167 F 
ENDBRANCH  23  24
ENDBRANCH   9  11
ENDBRANCH   8   9
ENDBRANCH   7   8
ENDBRANCH   6   7
ENDBRANCH   5   6
ENDBRANCH   4   5
ENDBRANCH   3   4
ENDBRANCH   2   3
ENDBRANCH   1   2
BRANCH   1  28
ATOM     28  C   UNL A   1      43.517  19.136  25.351  1.00  0.00     0.188 C 
BRANCH  28  29
ATOM     29  O   UNL A   1      43.862  20.279  24.579  1.00  0.00    -0.376 OA
BRANCH  29  30
ATOM     30  C   UNL A   1      45.152  20.838  24.761  1.00  0.00     0.202 C 
BRANCH  30  31
ATOM     31  C   UNL A   1      45.250  21.914  25.850  1.00  0.00     0.261 C 
BRANCH  31  32
ATOM     32  O   UNL A   1      44.126  22.799  25.950  1.00  0.00    -0.460 OA
BRANCH  32  33
ATOM     33  C   UNL A   1      44.272  24.054  25.474  1.00  0.00     0.338 C 
ATOM     34  O   UNL A   1      44.749  24.390  24.403  1.00  0.00    -0.246 OA
BRANCH  33  35
ATOM     35  C   UNL A   1      43.574  24.959  26.408  1.00  0.00     0.060 A 
ATOM     36  C   UNL A   1      43.949  26.308  26.466  1.00  0.00     0.016 A 
ATOM     37  C   UNL A   1      42.527  24.478  27.199  1.00  0.00     0.016 A 
ATOM     38  C   UNL A   1      43.286  27.175  27.335  1.00  0.00     0.010 A 
ATOM     39  C   UNL A   1      41.879  25.344  28.082  1.00  0.00     0.010 A 
ATOM     40  C   UNL A   1      42.273  26.690  28.172  1.00  0.00    -0.014 A 
BRANCH  40  41
ATOM     41  C   UNL A   1      41.749  27.539  29.267  1.00  0.00     0.031 A 
ATOM     42  C   UNL A   1      42.460  27.515  30.592  1.00  0.00     0.074 A 
ATOM     43  C   UNL A   1      40.681  28.337  29.085  1.00  0.00     0.049 A 
ATOM     44  N   UNL A   1      42.180  28.155  31.696  1.00  0.00    -0.248 NA
ATOM     45  C   UNL A   1      43.651  26.652  30.679  1.00  0.00     0.031 C 
ATOM     46  C   UNL A   1      39.935  28.480  27.838  1.00  0.00     0.029 A 
ATOM     47  N   UNL A   1      40.043  29.181  29.959  1.00  0.00    -0.354 N 
ATOM     48  C   UNL A   1      43.164  27.784  32.604  1.00  0.00     0.074 A 
ATOM     49  C   UNL A   1      44.023  26.829  31.939  1.00  0.00     0.031 C 
ATOM     50  C   UNL A   1      38.938  29.363  28.027  1.00  0.00     0.029 A 
ATOM     51  C   UNL A   1      38.959  29.825  29.413  1.00  0.00     0.049 A 
ATOM     52  H   UNL A   1      40.334  29.313  30.892  1.00  0.00     0.167 HD
ATOM     53  C   UNL A   1      43.346  28.216  33.873  1.00  0.00     0.037 A 
ATOM     54  C   UNL A   1      38.081  30.680  29.976  1.00  0.00     0.037 A 
ATOM     55  C   UNL A   1      42.487  29.158  34.536  1.00  0.00     0.049 A 
ATOM     56  C   UNL A   1      38.246  31.066  31.424  1.00  0.00     0.074 A 
ATOM     57  C   UNL A   1      42.587  29.651  35.825  1.00  0.00     0.029 A 
ATOM     58  N   UNL A   1      41.369  29.746  33.966  1.00  0.00    -0.354 N 
ATOM     59  N   UNL A   1      39.190  30.724  32.269  1.00  0.00    -0.248 NA
ATOM     60  C   UNL A   1      37.227  31.958  31.999  1.00  0.00     0.031 C 
ATOM     61  C   UNL A   1      41.500  30.499  36.052  1.00  0.00     0.029 A 
ATOM     62  C   UNL A   1      40.757  30.580  34.885  1.00  0.00     0.049 A 
ATOM     63  H   UNL A   1      41.057  29.593  33.045  1.00  0.00     0.167 HD
ATOM     64  C   UNL A   1      38.899  31.384  33.457  1.00  0.00     0.074 A 
ATOM     65  C   UNL A   1      37.694  32.152  33.225  1.00  0.00     0.031 C 
ATOM     66  C   UNL A   1      39.571  31.357  34.633  1.00  0.00     0.037 A 
BRANCH  53  67
ATOM     67  C   UNL A   1      44.521  27.676  34.632  1.00  0.00     0.057 A 
ATOM     68  C   UNL A   1      44.442  26.474  35.348  1.00  0.00     0.134 A 
ATOM     69  C   UNL A   1      45.762  28.323  34.587  1.00  0.00     0.134 A 
ATOM     70  F   UNL A   1      43.277  25.815  35.442  1.00  0.00    -0.206 F 
ATOM     71  C   UNL A   1      45.555  25.938  35.997  1.00  0.00     0.040 A 
ATOM     72  C   UNL A   1      46.888  27.783  35.210  1.00  0.00     0.040 A 
ATOM     73  F   UNL A   1      45.906  29.475  33.916  1.00  0.00    -0.206 F 
ATOM     74  C   UNL A   1      46.785  26.587  35.919  1.00  0.00     0.006 A 
ENDBRANCH  53  67
BRANCH  54  75
ATOM     75  C   UNL A   1      36.967  31.243  29.168  1.00  0.00     0.057 A 
ATOM     76  C   UNL A   1      37.002  32.567  28.714  1.00  0.00     0.134 A 
ATOM     77  C   UNL A   1      35.838  30.482  28.844  1.00  0.00     0.134 A 
ATOM     78  F   UNL A   1      38.044  33.356  29.014  1.00  0.00    -0.206 F 
ATOM     79  C   UNL A   1      35.951  33.117  27.977  1.00  0.00     0.040 A 
ATOM     80  C   UNL A   1      34.791  31.010  28.085  1.00  0.00     0.040 A 
ATOM     81  F   UNL A   1      35.740  29.208  29.251  1.00  0.00    -0.206 F 
ATOM     82  C   UNL A   1      34.844  32.334  27.655  1.00  0.00     0.006 A 
ENDBRANCH  54  75
BRANCH  66  83
ATOM     83  C   UNL A   1      39.057  32.206  35.760  1.00  0.00     0.057 A 
ATOM     84  C   UNL A   1      38.227  31.685  36.759  1.00  0.00     0.134 A 
ATOM     85  C   UNL A   1      39.490  33.531  35.905  1.00  0.00     0.134 A 
ATOM     86  F   UNL A   1      37.773  30.426  36.678  1.00  0.00    -0.206 F 
ATOM     87  C   UNL A   1      37.841  32.453  37.860  1.00  0.00     0.040 A 
ATOM     88  C   UNL A   1      39.134  34.300  37.013  1.00  0.00     0.040 A 
ATOM     89  F   UNL A   1      40.300  34.088  34.990  1.00  0.00    -0.206 F 
ATOM     90  C   UNL A   1      38.306  33.761  37.994  1.00  0.00     0.006 A 
ENDBRANCH  66  83
ENDBRANCH  40  41
ENDBRANCH  33  35
ENDBRANCH  32  33
ENDBRANCH  31  32
ENDBRANCH  30  31
ENDBRANCH  29  30
ENDBRANCH  28  29
ENDBRANCH   1  28
TORSDOF 21
ENDMDL
MODEL 3
REMARK VINA RESULT:     -10.7      1.106      2.443
REMARK SMILES Cc1cc2c(c(C)c1Cl)C=C(C(=O)OCCOCCOCCOCCOC(=O)c1ccc(-c3c4nc(c(-c5c(F)cccc5F)c5ccc([nH]5)c(-c5c(F)cccc5F)c5nc(c(-c6c(F)cccc6F)c6ccc3[nH]6)C=C5)C=C4)cc1)[C@@H](C(F)(F)F)O2
REMARK SMILES IDX 21 1 20 2 19 3 18 4 17 5 16 6 15 7 14 8 12 9 13 10 11 11
REMARK SMILES IDX 1 12 2 13 3 14 8 15 4 16 6 17 9 18 5 19 88 20 7 21 10 22
REMARK SMILES IDX 83 23 84 24 85 25 86 26 87 27 22 28 23 29 24 30 25 31 26 32
REMARK SMILES IDX 27 33 28 34 29 35 30 36 82 37 31 38 81 39 32 40 33 41 34 42
REMARK SMILES IDX 75 43 35 44 80 45 74 46 76 47 36 48 79 49 73 50 72 51 37 53
REMARK SMILES IDX 63 54 46 55 62 56 47 57 50 58 61 59 77 60 48 61 49 62 60 64
REMARK SMILES IDX 78 65 51 66 38 67 39 68 44 69 40 70 41 71 43 72 45 73 42 74
REMARK SMILES IDX 64 75 65 76 70 77 66 78 67 79 69 80 71 81 68 82 52 83 53 84
REMARK SMILES IDX 58 85 54 86 55 87 57 88 59 89 56 90
REMARK H PARENT 76 52 50 63
REMARK Flexibility Score: inf
ROOT
ATOM      1  C   UNL A   1      34.614  30.746  27.875  1.00  0.00     0.188 C 
ENDROOT
BRANCH   1   2
ATOM      2  O   UNL A   1      33.903  29.949  26.924  1.00  0.00    -0.377 OA
BRANCH   2   3
ATOM      3  C   UNL A   1      32.642  29.422  27.308  1.00  0.00     0.188 C 
BRANCH   3   4
ATOM      4  C   UNL A   1      32.255  28.150  26.528  1.00  0.00     0.188 C 
BRANCH   4   5
ATOM      5  O   UNL A   1      31.346  28.412  25.469  1.00  0.00    -0.376 OA
BRANCH   5   6
ATOM      6  C   UNL A   1      31.740  29.238  24.386  1.00  0.00     0.202 C 
BRANCH   6   7
ATOM      7  C   UNL A   1      32.619  28.708  23.238  1.00  0.00     0.261 C 
BRANCH   7   8
ATOM      8  O   UNL A   1      33.492  27.617  23.543  1.00  0.00    -0.460 OA
BRANCH   8   9
ATOM      9  C   UNL A   1      33.580  26.616  22.649  1.00  0.00     0.338 C 
ATOM     10  O   UNL A   1      33.924  26.704  21.484  1.00  0.00    -0.246 OA
BRANCH   9  11
ATOM     11  C   UNL A   1      33.355  25.346  23.378  1.00  0.00     0.087 C 
ATOM     12  C   UNL A   1      33.206  19.256  25.508  1.00  0.00     0.046 C 
ATOM     13  C   UNL A   1      33.623  20.643  25.099  1.00  0.00    -0.028 A 
ATOM     14  C   UNL A   1      32.647  21.647  25.103  1.00  0.00     0.052 A 
ATOM     15  C   UNL A   1      34.943  20.981  24.745  1.00  0.00     0.047 A 
ATOM     16  C   UNL A   1      32.937  22.924  24.629  1.00  0.00     0.128 A 
ATOM     17  C   UNL A   1      35.260  22.280  24.279  1.00  0.00    -0.021 A 
ATOM     18  Cl  UNL A   1      36.177  19.764  24.872  1.00  0.00    -0.084 Cl
ATOM     19  C   UNL A   1      34.215  23.230  24.154  1.00  0.00     0.022 A 
ATOM     20  O   UNL A   1      31.888  23.796  24.656  1.00  0.00    -0.475 OA
ATOM     21  C   UNL A   1      36.676  22.677  23.927  1.00  0.00     0.047 C 
ATOM     22  C   UNL A   1      34.396  24.509  23.468  1.00  0.00     0.027 C 
ATOM     23  C   UNL A   1      32.025  25.100  24.034  1.00  0.00     0.316 C 
BRANCH  23  24
ATOM     24  C   UNL A   1      30.847  25.279  23.067  1.00  0.00     0.430 C 
ATOM     25  F   UNL A   1      31.267  25.296  21.777  1.00  0.00    -0.167 F 
ATOM     26  F   UNL A   1      29.945  24.274  23.164  1.00  0.00    -0.167 F 
ATOM     27  F   UNL A   1      30.185  26.437  23.292  1.00  0.00    -0.167 F 
ENDBRANCH  23  24
ENDBRANCH   9  11
ENDBRANCH   8   9
ENDBRANCH   7   8
ENDBRANCH   6   7
ENDBRANCH   5   6
ENDBRANCH   4   5
ENDBRANCH   3   4
ENDBRANCH   2   3
ENDBRANCH   1   2
BRANCH   1  28
ATOM     28  C   UNL A   1      34.378  32.271  28.021  1.00  0.00     0.188 C 
BRANCH  28  29
ATOM     29  O   UNL A   1      33.823  32.660  29.270  1.00  0.00    -0.376 OA
BRANCH  29  30
ATOM     30  C   UNL A   1      34.289  33.863  29.859  1.00  0.00     0.202 C 
BRANCH  30  31
ATOM     31  C   UNL A   1      34.622  33.774  31.353  1.00  0.00     0.261 C 
BRANCH  31  32
ATOM     32  O   UNL A   1      34.858  32.451  31.858  1.00  0.00    -0.460 OA
BRANCH  32  33
ATOM     33  C   UNL A   1      35.878  32.285  32.727  1.00  0.00     0.338 C 
ATOM     34  O   UNL A   1      35.878  32.519  33.923  1.00  0.00    -0.246 OA
BRANCH  33  35
ATOM     35  C   UNL A   1      36.957  31.583  32.003  1.00  0.00     0.060 A 
ATOM     36  C   UNL A   1      38.000  30.995  32.730  1.00  0.00     0.016 A 
ATOM     37  C   UNL A   1      36.915  31.480  30.611  1.00  0.00     0.016 A 
ATOM     38  C   UNL A   1      39.017  30.317  32.059  1.00  0.00     0.010 A 
ATOM     39  C   UNL A   1      37.945  30.819  29.940  1.00  0.00     0.010 A 
ATOM     40  C   UNL A   1      39.014  30.256  30.658  1.00  0.00    -0.014 A 
BRANCH  40  41
ATOM     41  C   UNL A   1      40.211  29.767  29.937  1.00  0.00     0.031 A 
ATOM     42  C   UNL A   1      41.362  30.715  29.739  1.00  0.00     0.074 A 
ATOM     43  C   UNL A   1      40.291  28.501  29.490  1.00  0.00     0.049 A 
ATOM     44  N   UNL A   1      42.500  30.522  29.128  1.00  0.00    -0.248 NA
ATOM     45  C   UNL A   1      41.204  32.064  30.310  1.00  0.00     0.031 C 
ATOM     46  C   UNL A   1      39.262  27.478  29.658  1.00  0.00     0.029 A 
ATOM     47  N   UNL A   1      41.293  27.863  28.801  1.00  0.00    -0.354 N 
ATOM     48  C   UNL A   1      43.200  31.716  29.253  1.00  0.00     0.074 A 
ATOM     49  C   UNL A   1      42.342  32.643  29.956  1.00  0.00     0.031 C 
ATOM     50  C   UNL A   1      39.688  26.336  29.088  1.00  0.00     0.029 A 
ATOM     51  C   UNL A   1      41.004  26.556  28.492  1.00  0.00     0.049 A 
ATOM     52  H   UNL A   1      42.140  28.300  28.551  1.00  0.00     0.167 HD
ATOM     53  C   UNL A   1      44.452  32.007  28.834  1.00  0.00     0.037 A 
ATOM     54  C   UNL A   1      41.719  25.648  27.796  1.00  0.00     0.037 A 
ATOM     55  C   UNL A   1      45.301  31.088  28.126  1.00  0.00     0.049 A 
ATOM     56  C   UNL A   1      43.072  26.030  27.250  1.00  0.00     0.074 A 
ATOM     57  C   UNL A   1      46.585  31.295  27.654  1.00  0.00     0.029 A 
ATOM     58  N   UNL A   1      44.951  29.791  27.785  1.00  0.00    -0.354 N 
ATOM     59  N   UNL A   1      43.731  27.156  27.388  1.00  0.00    -0.248 NA
ATOM     60  C   UNL A   1      43.781  25.018  26.452  1.00  0.00     0.031 C 
ATOM     61  C   UNL A   1      46.993  30.139  26.983  1.00  0.00     0.029 A 
ATOM     62  C   UNL A   1      45.986  29.193  27.089  1.00  0.00     0.049 A 
ATOM     63  H   UNL A   1      44.093  29.360  28.005  1.00  0.00     0.167 HD
ATOM     64  C   UNL A   1      44.942  26.974  26.729  1.00  0.00     0.074 A 
ATOM     65  C   UNL A   1      44.930  25.629  26.195  1.00  0.00     0.031 C 
ATOM     66  C   UNL A   1      45.970  27.844  26.582  1.00  0.00     0.037 A 
BRANCH  53  67
ATOM     67  C   UNL A   1      44.987  33.376  29.129  1.00  0.00     0.057 A 
ATOM     68  C   UNL A   1      45.748  33.634  30.277  1.00  0.00     0.134 A 
ATOM     69  C   UNL A   1      44.804  34.428  28.224  1.00  0.00     0.134 A 
ATOM     70  F   UNL A   1      45.946  32.673  31.191  1.00  0.00    -0.206 F 
ATOM     71  C   UNL A   1      46.303  34.892  30.516  1.00  0.00     0.040 A 
ATOM     72  C   UNL A   1      45.376  35.682  28.439  1.00  0.00     0.040 A 
ATOM     73  F   UNL A   1      44.088  34.246  27.103  1.00  0.00    -0.206 F 
ATOM     74  C   UNL A   1      46.126  35.917  29.589  1.00  0.00     0.006 A 
ENDBRANCH  53  67
BRANCH  54  75
ATOM     75  C   UNL A   1      41.179  24.279  27.581  1.00  0.00     0.057 A 
ATOM     76  C   UNL A   1      40.149  24.047  26.661  1.00  0.00     0.134 A 
ATOM     77  C   UNL A   1      41.664  23.179  28.296  1.00  0.00     0.134 A 
ATOM     78  F   UNL A   1      39.623  25.064  25.964  1.00  0.00    -0.206 F 
ATOM     79  C   UNL A   1      39.614  22.771  26.469  1.00  0.00     0.040 A 
ATOM     80  C   UNL A   1      41.157  21.893  28.095  1.00  0.00     0.040 A 
ATOM     81  F   UNL A   1      42.647  23.334  29.195  1.00  0.00    -0.206 F 
ATOM     82  C   UNL A   1      40.124  21.688  27.182  1.00  0.00     0.006 A 
ENDBRANCH  54  75
BRANCH  66  83
ATOM     83  C   UNL A   1      47.195  27.374  25.851  1.00  0.00     0.057 A 
ATOM     84  C   UNL A   1      48.207  26.651  26.493  1.00  0.00     0.134 A 
ATOM     85  C   UNL A   1      47.306  27.552  24.465  1.00  0.00     0.134 A 
ATOM     86  F   UNL A   1      48.163  26.450  27.819  1.00  0.00    -0.206 F 
ATOM     87  C   UNL A   1      49.290  26.128  25.784  1.00  0.00     0.040 A 
ATOM     88  C   UNL A   1      48.368  27.011  23.742  1.00  0.00     0.040 A 
ATOM     89  F   UNL A   1      46.362  28.223  23.786  1.00  0.00    -0.206 F 
ATOM     90  C   UNL A   1      49.365  26.296  24.402  1.00  0.00     0.006 A 
ENDBRANCH  66  83
ENDBRANCH  40  41
ENDBRANCH  33  35
ENDBRANCH  32  33
ENDBRANCH  31  32
ENDBRANCH  30  31
ENDBRANCH  29  30
ENDBRANCH  28  29
ENDBRANCH   1  28
TORSDOF 21
ENDMDL
