MODEL 1
REMARK VINA RESULT:     -11.0      0.000      0.000
REMARK SMILES Cc1cccc(CC(=O)N2CCC3(CCC(=O)N([C@H](C)C(=O)OCCOCCOCCOCCOC(=O)c4ccc(-c5c6nc(c(-c7c(F)cccc7F)c7ccc([nH]7)c(-c7c(F)cccc7F)c7nc(c(-c8c(F)cccc8F)c8ccc5[nH]8)C=C7)C=C6)cc4)C3)CC2)c1
REMARK SMILES IDX 28 1 27 2 26 3 25 4 24 5 23 6 21 7 22 8 19 9 20 10 18 11
REMARK SMILES IDX 8 12 9 13 10 14 11 15 94 16 12 17 93 18 13 19 14 20 92 21
REMARK SMILES IDX 15 22 16 23 17 24 7 25 6 26 1 27 2 28 3 29 95 30 4 31 5 32
REMARK SMILES IDX 29 33 30 34 31 35 32 36 33 37 34 38 35 39 36 40 37 41 38 42
REMARK SMILES IDX 39 43 91 44 40 45 90 46 41 47 42 48 43 49 84 50 44 51 89 52
REMARK SMILES IDX 83 53 85 54 45 55 88 56 82 57 81 58 46 60 72 61 55 62 71 63
REMARK SMILES IDX 56 64 59 65 70 66 86 67 57 68 58 69 69 71 87 72 60 73 47 74
REMARK SMILES IDX 48 75 53 76 49 77 50 78 52 79 54 80 51 81 73 82 74 83 79 84
REMARK SMILES IDX 75 85 76 86 78 87 80 88 77 89 61 90 62 91 67 92 63 93 64 94
REMARK SMILES IDX 66 95 68 96 65 97
REMARK H PARENT 85 59 59 70
REMARK Flexibility Score: inf
ROOT
ATOM      1  C   UNL A   1      40.367  21.046  26.501  1.00  0.00     0.188 C 
ENDROOT
BRANCH   1   2
ATOM      2  C   UNL A   1      39.009  21.008  25.773  1.00  0.00     0.188 C 
BRANCH   2   3
ATOM      3  O   UNL A   1      38.399  22.206  25.327  1.00  0.00    -0.376 OA
BRANCH   3   4
ATOM      4  C   UNL A   1      38.586  23.356  26.145  1.00  0.00     0.202 C 
BRANCH   4   5
ATOM      5  C   UNL A   1      37.351  24.146  26.564  1.00  0.00     0.261 C 
BRANCH   5   6
ATOM      6  O   UNL A   1      36.398  24.127  25.506  1.00  0.00    -0.462 OA
BRANCH   6   7
ATOM      7  C   UNL A   1      35.213  23.532  25.750  1.00  0.00     0.328 C 
ATOM      8  O   UNL A   1      34.857  23.047  26.806  1.00  0.00    -0.250 OA
BRANCH   7   9
ATOM      9  C   UNL A   1      34.306  23.711  24.536  1.00  0.00     0.192 C 
ATOM     10  C   UNL A   1      34.882  23.045  23.298  1.00  0.00     0.044 C 
BRANCH   9  11
ATOM     11  N   UNL A   1      32.936  23.332  24.874  1.00  0.00    -0.329 N 
ATOM     12  C   UNL A   1      30.831  28.833  23.097  1.00  0.00     0.226 C 
ATOM     13  O   UNL A   1      31.361  29.412  22.140  1.00  0.00    -0.275 OA
ATOM     14  N   UNL A   1      30.548  27.479  23.018  1.00  0.00    -0.342 N 
ATOM     15  C   UNL A   1      31.464  26.641  22.263  1.00  0.00     0.120 C 
ATOM     16  C   UNL A   1      29.577  26.725  23.800  1.00  0.00     0.120 C 
ATOM     17  C   UNL A   1      32.236  25.783  23.266  1.00  0.00     0.030 C 
ATOM     18  C   UNL A   1      30.297  25.943  24.877  1.00  0.00     0.030 C 
ATOM     19  C   UNL A   1      31.303  24.985  24.236  1.00  0.00    -0.008 C 
ATOM     20  C   UNL A   1      30.548  23.851  23.470  1.00  0.00     0.019 C 
ATOM     21  C   UNL A   1      32.099  24.365  25.403  1.00  0.00     0.127 C 
ATOM     22  C   UNL A   1      31.482  22.724  23.051  1.00  0.00     0.101 C 
ATOM     23  C   UNL A   1      32.205  22.306  24.303  1.00  0.00     0.223 C 
ATOM     24  O   UNL A   1      31.814  21.326  24.926  1.00  0.00    -0.275 OA
BRANCH  12  25
ATOM     25  C   UNL A   1      30.770  29.563  24.439  1.00  0.00     0.135 C 
BRANCH  25  26
ATOM     26  C   UNL A   1      31.933  29.442  25.385  1.00  0.00    -0.038 A 
ATOM     27  C   UNL A   1      33.703  31.653  27.940  1.00  0.00     0.044 C 
ATOM     28  C   UNL A   1      33.385  30.501  27.034  1.00  0.00    -0.051 A 
ATOM     29  C   UNL A   1      34.308  29.464  26.859  1.00  0.00     0.003 A 
ATOM     30  C   UNL A   1      32.185  30.465  26.316  1.00  0.00     0.007 A 
ATOM     31  C   UNL A   1      34.025  28.397  26.003  1.00  0.00     0.001 A 
ATOM     32  C   UNL A   1      32.830  28.371  25.283  1.00  0.00     0.004 A 
ENDBRANCH  25  26
ENDBRANCH  12  25
ENDBRANCH   9  11
ENDBRANCH   7   9
ENDBRANCH   6   7
ENDBRANCH   5   6
ENDBRANCH   4   5
ENDBRANCH   3   4
ENDBRANCH   2   3
ENDBRANCH   1   2
BRANCH   1  33
ATOM     33  O   UNL A   1      40.707  20.022  27.425  1.00  0.00    -0.377 OA
BRANCH  33  34
ATOM     34  C   UNL A   1      41.944  19.333  27.274  1.00  0.00     0.188 C 
BRANCH  34  35
ATOM     35  C   UNL A   1      42.522  19.294  25.868  1.00  0.00     0.188 C 
BRANCH  35  36
ATOM     36  O   UNL A   1      43.133  18.020  25.684  1.00  0.00    -0.376 OA
BRANCH  36  37
ATOM     37  C   UNL A   1      44.441  17.849  26.222  1.00  0.00     0.202 C 
BRANCH  37  38
ATOM     38  C   UNL A   1      45.553  18.416  25.338  1.00  0.00     0.261 C 
BRANCH  38  39
ATOM     39  O   UNL A   1      45.962  19.702  25.848  1.00  0.00    -0.460 OA
BRANCH  39  40
ATOM     40  C   UNL A   1      46.081  20.687  24.917  1.00  0.00     0.338 C 
ATOM     41  O   UNL A   1      47.019  20.812  24.142  1.00  0.00    -0.246 OA
BRANCH  40  42
ATOM     42  C   UNL A   1      45.086  21.772  25.182  1.00  0.00     0.060 A 
ATOM     43  C   UNL A   1      44.757  22.687  24.166  1.00  0.00     0.016 A 
ATOM     44  C   UNL A   1      44.815  22.100  26.502  1.00  0.00     0.016 A 
ATOM     45  C   UNL A   1      44.355  23.997  24.489  1.00  0.00     0.010 A 
ATOM     46  C   UNL A   1      44.545  23.419  26.806  1.00  0.00     0.010 A 
ATOM     47  C   UNL A   1      44.344  24.403  25.823  1.00  0.00    -0.014 A 
BRANCH  47  48
ATOM     48  C   UNL A   1      44.321  25.800  26.325  1.00  0.00     0.031 A 
ATOM     49  C   UNL A   1      43.001  26.523  26.438  1.00  0.00     0.074 A 
ATOM     50  C   UNL A   1      45.391  26.260  27.024  1.00  0.00     0.049 A 
ATOM     51  N   UNL A   1      42.790  27.625  27.076  1.00  0.00    -0.248 NA
ATOM     52  C   UNL A   1      41.768  26.028  25.829  1.00  0.00     0.031 C 
ATOM     53  C   UNL A   1      45.338  27.161  28.175  1.00  0.00     0.029 A 
ATOM     54  N   UNL A   1      46.749  25.954  26.945  1.00  0.00    -0.354 N 
ATOM     55  C   UNL A   1      41.427  27.829  27.218  1.00  0.00     0.074 A 
ATOM     56  C   UNL A   1      40.840  26.830  26.364  1.00  0.00     0.031 C 
ATOM     57  C   UNL A   1      46.564  27.355  28.665  1.00  0.00     0.029 A 
ATOM     58  C   UNL A   1      47.484  26.899  27.677  1.00  0.00     0.049 A 
ATOM     59  H   UNL A   1      47.132  25.192  26.451  1.00  0.00     0.167 HD
ATOM     60  C   UNL A   1      40.978  28.753  28.126  1.00  0.00     0.037 A 
ATOM     61  C   UNL A   1      48.328  27.792  27.078  1.00  0.00     0.037 A 
ATOM     62  C   UNL A   1      42.099  29.553  28.649  1.00  0.00     0.049 A 
ATOM     63  C   UNL A   1      47.777  29.220  27.096  1.00  0.00     0.074 A 
ATOM     64  C   UNL A   1      42.589  29.832  29.913  1.00  0.00     0.029 A 
ATOM     65  N   UNL A   1      43.024  30.089  27.752  1.00  0.00    -0.354 N 
ATOM     66  N   UNL A   1      46.489  29.495  27.120  1.00  0.00    -0.248 NA
ATOM     67  C   UNL A   1      48.590  30.427  27.266  1.00  0.00     0.031 C 
ATOM     68  C   UNL A   1      43.838  30.486  29.759  1.00  0.00     0.029 A 
ATOM     69  C   UNL A   1      44.108  30.622  28.405  1.00  0.00     0.049 A 
ATOM     70  H   UNL A   1      42.912  30.086  26.774  1.00  0.00     0.167 HD
ATOM     71  C   UNL A   1      46.301  30.826  27.404  1.00  0.00     0.074 A 
ATOM     72  C   UNL A   1      47.646  31.373  27.438  1.00  0.00     0.031 C 
ATOM     73  C   UNL A   1      45.092  31.410  27.682  1.00  0.00     0.037 A 
BRANCH  60  74
ATOM     74  C   UNL A   1      39.560  28.888  28.708  1.00  0.00     0.057 A 
ATOM     75  C   UNL A   1      38.520  29.496  27.959  1.00  0.00     0.134 A 
ATOM     76  C   UNL A   1      39.159  28.542  30.013  1.00  0.00     0.134 A 
ATOM     77  F   UNL A   1      38.687  29.855  26.679  1.00  0.00    -0.206 F 
ATOM     78  C   UNL A   1      37.238  29.771  28.470  1.00  0.00     0.040 A 
ATOM     79  C   UNL A   1      37.863  28.763  30.521  1.00  0.00     0.040 A 
ATOM     80  F   UNL A   1      39.995  27.997  30.898  1.00  0.00    -0.206 F 
ATOM     81  C   UNL A   1      36.899  29.398  29.758  1.00  0.00     0.006 A 
ENDBRANCH  60  74
BRANCH  61  82
ATOM     82  C   UNL A   1      49.314  27.068  26.214  1.00  0.00     0.057 A 
ATOM     83  C   UNL A   1      49.151  27.384  24.844  1.00  0.00     0.134 A 
ATOM     84  C   UNL A   1      50.635  26.967  26.673  1.00  0.00     0.134 A 
ATOM     85  F   UNL A   1      47.918  27.429  24.311  1.00  0.00    -0.206 F 
ATOM     86  C   UNL A   1      50.197  27.934  24.093  1.00  0.00     0.040 A 
ATOM     87  C   UNL A   1      51.697  27.490  25.915  1.00  0.00     0.040 A 
ATOM     88  F   UNL A   1      50.885  26.612  27.940  1.00  0.00    -0.206 F 
ATOM     89  C   UNL A   1      51.464  28.052  24.658  1.00  0.00     0.006 A 
ENDBRANCH  61  82
BRANCH  73  90
ATOM     90  C   UNL A   1      44.699  32.836  27.331  1.00  0.00     0.057 A 
ATOM     91  C   UNL A   1      44.222  33.223  26.073  1.00  0.00     0.134 A 
ATOM     92  C   UNL A   1      44.554  33.825  28.343  1.00  0.00     0.134 A 
ATOM     93  F   UNL A   1      44.211  32.385  25.030  1.00  0.00    -0.206 F 
ATOM     94  C   UNL A   1      43.665  34.489  25.835  1.00  0.00     0.040 A 
ATOM     95  C   UNL A   1      43.953  35.066  28.127  1.00  0.00     0.040 A 
ATOM     96  F   UNL A   1      44.937  33.626  29.612  1.00  0.00    -0.206 F 
ATOM     97  C   UNL A   1      43.509  35.407  26.865  1.00  0.00     0.006 A 
ENDBRANCH  73  90
ENDBRANCH  47  48
ENDBRANCH  40  42
ENDBRANCH  39  40
ENDBRANCH  38  39
ENDBRANCH  37  38
ENDBRANCH  36  37
ENDBRANCH  35  36
ENDBRANCH  34  35
ENDBRANCH  33  34
ENDBRANCH   1  33
TORSDOF 23
ENDMDL
MODEL 2
REMARK VINA RESULT:     -10.1      4.796      8.929
REMARK SMILES Cc1cccc(CC(=O)N2CCC3(CCC(=O)N([C@H](C)C(=O)OCCOCCOCCOCCOC(=O)c4ccc(-c5c6nc(c(-c7c(F)cccc7F)c7ccc([nH]7)c(-c7c(F)cccc7F)c7nc(c(-c8c(F)cccc8F)c8ccc5[nH]8)C=C7)C=C6)cc4)C3)CC2)c1
REMARK SMILES IDX 28 1 27 2 26 3 25 4 24 5 23 6 21 7 22 8 19 9 20 10 18 11
REMARK SMILES IDX 8 12 9 13 10 14 11 15 94 16 12 17 93 18 13 19 14 20 92 21
REMARK SMILES IDX 15 22 16 23 17 24 7 25 6 26 1 27 2 28 3 29 95 30 4 31 5 32
REMARK SMILES IDX 29 33 30 34 31 35 32 36 33 37 34 38 35 39 36 40 37 41 38 42
REMARK SMILES IDX 39 43 91 44 40 45 90 46 41 47 42 48 43 49 84 50 44 51 89 52
REMARK SMILES IDX 83 53 85 54 45 55 88 56 82 57 81 58 46 60 72 61 55 62 71 63
REMARK SMILES IDX 56 64 59 65 70 66 86 67 57 68 58 69 69 71 87 72 60 73 47 74
REMARK SMILES IDX 48 75 53 76 49 77 50 78 52 79 54 80 51 81 73 82 74 83 79 84
REMARK SMILES IDX 75 85 76 86 78 87 80 88 77 89 61 90 62 91 67 92 63 93 64 94
REMARK SMILES IDX 66 95 68 96 65 97
REMARK H PARENT 85 59 59 70
REMARK Flexibility Score: inf
ROOT
ATOM      1  C   UNL A   1      41.440  21.507  26.153  1.00  0.00     0.188 C 
ENDROOT
BRANCH   1   2
ATOM      2  C   UNL A   1      39.926  21.517  26.440  1.00  0.00     0.188 C 
BRANCH   2   3
ATOM      3  O   UNL A   1      38.993  21.522  25.373  1.00  0.00    -0.376 OA
BRANCH   3   4
ATOM      4  C   UNL A   1      37.689  22.010  25.673  1.00  0.00     0.202 C 
BRANCH   4   5
ATOM      5  C   UNL A   1      37.554  23.456  26.138  1.00  0.00     0.261 C 
BRANCH   5   6
ATOM      6  O   UNL A   1      36.481  24.077  25.438  1.00  0.00    -0.462 OA
BRANCH   6   7
ATOM      7  C   UNL A   1      35.227  23.734  25.796  1.00  0.00     0.328 C 
ATOM      8  O   UNL A   1      34.883  23.297  26.877  1.00  0.00    -0.250 OA
BRANCH   7   9
ATOM      9  C   UNL A   1      34.263  24.139  24.685  1.00  0.00     0.192 C 
ATOM     10  C   UNL A   1      34.801  23.778  23.311  1.00  0.00     0.044 C 
BRANCH   9  11
ATOM     11  N   UNL A   1      32.920  23.648  24.983  1.00  0.00    -0.329 N 
ATOM     12  C   UNL A   1      30.396  28.808  22.777  1.00  0.00     0.226 C 
ATOM     13  O   UNL A   1      30.917  29.380  21.812  1.00  0.00    -0.275 OA
ATOM     14  N   UNL A   1      30.248  27.430  22.769  1.00  0.00    -0.342 N 
ATOM     15  C   UNL A   1      31.276  26.644  22.110  1.00  0.00     0.120 C 
ATOM     16  C   UNL A   1      29.314  26.631  23.552  1.00  0.00     0.120 C 
ATOM     17  C   UNL A   1      32.074  25.923  23.197  1.00  0.00     0.030 C 
ATOM     18  C   UNL A   1      30.048  25.985  24.706  1.00  0.00     0.030 C 
ATOM     19  C   UNL A   1      31.172  25.095  24.171  1.00  0.00    -0.008 C 
ATOM     20  C   UNL A   1      30.568  23.850  23.443  1.00  0.00     0.019 C 
ATOM     21  C   UNL A   1      31.963  24.623  25.409  1.00  0.00     0.127 C 
ATOM     22  C   UNL A   1      31.624  22.798  23.137  1.00  0.00     0.101 C 
ATOM     23  C   UNL A   1      32.320  22.524  24.444  1.00  0.00     0.223 C 
ATOM     24  O   UNL A   1      31.991  21.549  25.108  1.00  0.00    -0.275 OA
BRANCH  12  25
ATOM     25  C   UNL A   1      30.198  29.603  24.068  1.00  0.00     0.135 C 
BRANCH  25  26
ATOM     26  C   UNL A   1      31.348  29.724  25.030  1.00  0.00    -0.038 A 
ATOM     27  C   UNL A   1      34.062  27.448  26.445  1.00  0.00     0.044 C 
ATOM     28  C   UNL A   1      33.176  28.638  26.224  1.00  0.00    -0.051 A 
ATOM     29  C   UNL A   1      33.231  29.731  27.095  1.00  0.00     0.003 A 
ATOM     30  C   UNL A   1      32.252  28.657  25.174  1.00  0.00     0.007 A 
ATOM     31  C   UNL A   1      32.396  30.834  26.906  1.00  0.00     0.001 A 
ATOM     32  C   UNL A   1      31.471  30.844  25.861  1.00  0.00     0.004 A 
ENDBRANCH  25  26
ENDBRANCH  12  25
ENDBRANCH   9  11
ENDBRANCH   7   9
ENDBRANCH   6   7
ENDBRANCH   5   6
ENDBRANCH   4   5
ENDBRANCH   3   4
ENDBRANCH   2   3
ENDBRANCH   1   2
BRANCH   1  33
ATOM     33  O   UNL A   1      42.166  22.728  26.120  1.00  0.00    -0.377 OA
BRANCH  33  34
ATOM     34  C   UNL A   1      43.100  22.952  25.069  1.00  0.00     0.188 C 
BRANCH  34  35
ATOM     35  C   UNL A   1      44.429  23.570  25.473  1.00  0.00     0.188 C 
BRANCH  35  36
ATOM     36  O   UNL A   1      44.578  24.790  24.751  1.00  0.00    -0.376 OA
BRANCH  36  37
ATOM     37  C   UNL A   1      44.789  25.971  25.518  1.00  0.00     0.202 C 
BRANCH  37  38
ATOM     38  C   UNL A   1      44.217  25.899  26.935  1.00  0.00     0.261 C 
BRANCH  38  39
ATOM     39  O   UNL A   1      42.953  26.594  26.979  1.00  0.00    -0.460 OA
BRANCH  39  40
ATOM     40  C   UNL A   1      42.185  26.338  28.071  1.00  0.00     0.338 C 
ATOM     41  O   UNL A   1      41.926  25.223  28.503  1.00  0.00    -0.246 OA
BRANCH  40  42
ATOM     42  C   UNL A   1      41.437  27.568  28.478  1.00  0.00     0.060 A 
ATOM     43  C   UNL A   1      42.071  28.823  28.432  1.00  0.00     0.016 A 
ATOM     44  C   UNL A   1      40.300  27.412  29.256  1.00  0.00     0.016 A 
ATOM     45  C   UNL A   1      41.687  29.848  29.319  1.00  0.00     0.010 A 
ATOM     46  C   UNL A   1      40.019  28.375  30.204  1.00  0.00     0.010 A 
ATOM     47  C   UNL A   1      40.717  29.591  30.287  1.00  0.00    -0.014 A 
BRANCH  47  48
ATOM     48  C   UNL A   1      40.455  30.386  31.513  1.00  0.00     0.031 A 
ATOM     49  C   UNL A   1      41.372  30.233  32.702  1.00  0.00     0.074 A 
ATOM     50  C   UNL A   1      39.667  31.488  31.420  1.00  0.00     0.049 A 
ATOM     51  N   UNL A   1      41.426  31.017  33.726  1.00  0.00    -0.248 NA
ATOM     52  C   UNL A   1      42.348  29.151  32.820  1.00  0.00     0.031 C 
ATOM     53  C   UNL A   1      39.861  32.741  32.149  1.00  0.00     0.029 A 
ATOM     54  N   UNL A   1      38.587  31.785  30.591  1.00  0.00    -0.354 N 
ATOM     55  C   UNL A   1      42.571  30.749  34.459  1.00  0.00     0.074 A 
ATOM     56  C   UNL A   1      43.074  29.531  33.879  1.00  0.00     0.031 C 
ATOM     57  C   UNL A   1      38.947  33.639  31.771  1.00  0.00     0.029 A 
ATOM     58  C   UNL A   1      37.929  32.928  31.073  1.00  0.00     0.049 A 
ATOM     59  H   UNL A   1      38.327  31.273  29.791  1.00  0.00     0.167 HD
ATOM     60  C   UNL A   1      42.997  31.657  35.394  1.00  0.00     0.037 A 
ATOM     61  C   UNL A   1      36.665  32.878  31.592  1.00  0.00     0.037 A 
ATOM     62  C   UNL A   1      41.978  32.699  35.606  1.00  0.00     0.049 A 
ATOM     63  C   UNL A   1      36.648  33.066  33.111  1.00  0.00     0.074 A 
ATOM     64  C   UNL A   1      41.969  34.082  35.535  1.00  0.00     0.029 A 
ATOM     65  N   UNL A   1      40.649  32.317  35.796  1.00  0.00    -0.354 N 
ATOM     66  N   UNL A   1      37.657  32.732  33.889  1.00  0.00    -0.248 NA
ATOM     67  C   UNL A   1      35.609  33.786  33.852  1.00  0.00     0.031 C 
ATOM     68  C   UNL A   1      40.621  34.512  35.627  1.00  0.00     0.029 A 
ATOM     69  C   UNL A   1      39.805  33.400  35.769  1.00  0.00     0.049 A 
ATOM     70  H   UNL A   1      40.354  31.388  35.934  1.00  0.00     0.167 HD
ATOM     71  C   UNL A   1      37.471  33.258  35.145  1.00  0.00     0.074 A 
ATOM     72  C   UNL A   1      36.153  33.866  35.082  1.00  0.00     0.031 C 
ATOM     73  C   UNL A   1      38.408  33.258  36.146  1.00  0.00     0.037 A 
BRANCH  60  74
ATOM     74  C   UNL A   1      44.387  31.756  36.046  1.00  0.00     0.057 A 
ATOM     75  C   UNL A   1      45.329  32.723  35.611  1.00  0.00     0.134 A 
ATOM     76  C   UNL A   1      44.910  30.890  37.026  1.00  0.00     0.134 A 
ATOM     77  F   UNL A   1      45.010  33.668  34.717  1.00  0.00    -0.206 F 
ATOM     78  C   UNL A   1      46.658  32.789  36.068  1.00  0.00     0.040 A 
ATOM     79  C   UNL A   1      46.224  30.977  37.531  1.00  0.00     0.040 A 
ATOM     80  F   UNL A   1      44.204  29.881  37.541  1.00  0.00    -0.206 F 
ATOM     81  C   UNL A   1      47.112  31.916  37.040  1.00  0.00     0.006 A 
ENDBRANCH  60  74
BRANCH  61  82
ATOM     82  C   UNL A   1      35.732  32.236  30.613  1.00  0.00     0.057 A 
ATOM     83  C   UNL A   1      35.497  33.059  29.485  1.00  0.00     0.134 A 
ATOM     84  C   UNL A   1      35.894  30.867  30.356  1.00  0.00     0.134 A 
ATOM     85  F   UNL A   1      35.261  34.371  29.654  1.00  0.00    -0.206 F 
ATOM     86  C   UNL A   1      35.788  32.619  28.188  1.00  0.00     0.040 A 
ATOM     87  C   UNL A   1      36.156  30.410  29.053  1.00  0.00     0.040 A 
ATOM     88  F   UNL A   1      36.059  30.004  31.368  1.00  0.00    -0.206 F 
ATOM     89  C   UNL A   1      36.188  31.302  27.980  1.00  0.00     0.006 A 
ENDBRANCH  61  82
BRANCH  73  90
ATOM     90  C   UNL A   1      38.111  33.160  37.634  1.00  0.00     0.057 A 
ATOM     91  C   UNL A   1      37.704  31.981  38.269  1.00  0.00     0.134 A 
ATOM     92  C   UNL A   1      38.472  34.211  38.523  1.00  0.00     0.134 A 
ATOM     93  F   UNL A   1      37.405  30.872  37.582  1.00  0.00    -0.206 F 
ATOM     94  C   UNL A   1      37.644  31.859  39.665  1.00  0.00     0.040 A 
ATOM     95  C   UNL A   1      38.466  34.080  39.912  1.00  0.00     0.040 A 
ATOM     96  F   UNL A   1      38.903  35.406  38.096  1.00  0.00    -0.206 F 
ATOM     97  C   UNL A   1      38.045  32.900  40.492  1.00  0.00     0.006 A 
ENDBRANCH  73  90
ENDBRANCH  47  48
ENDBRANCH  40  42
ENDBRANCH  39  40
ENDBRANCH  38  39
ENDBRANCH  37  38
ENDBRANCH  36  37
ENDBRANCH  35  36
ENDBRANCH  34  35
ENDBRANCH  33  34
ENDBRANCH   1  33
TORSDOF 23
ENDMDL
MODEL 3
REMARK VINA RESULT:      -9.9      4.502      6.765
REMARK SMILES Cc1cccc(CC(=O)N2CCC3(CCC(=O)N([C@H](C)C(=O)OCCOCCOCCOCCOC(=O)c4ccc(-c5c6nc(c(-c7c(F)cccc7F)c7ccc([nH]7)c(-c7c(F)cccc7F)c7nc(c(-c8c(F)cccc8F)c8ccc5[nH]8)C=C7)C=C6)cc4)C3)CC2)c1
REMARK SMILES IDX 28 1 27 2 26 3 25 4 24 5 23 6 21 7 22 8 19 9 20 10 18 11
REMARK SMILES IDX 8 12 9 13 10 14 11 15 94 16 12 17 93 18 13 19 14 20 92 21
REMARK SMILES IDX 15 22 16 23 17 24 7 25 6 26 1 27 2 28 3 29 95 30 4 31 5 32
REMARK SMILES IDX 29 33 30 34 31 35 32 36 33 37 34 38 35 39 36 40 37 41 38 42
REMARK SMILES IDX 39 43 91 44 40 45 90 46 41 47 42 48 43 49 84 50 44 51 89 52
REMARK SMILES IDX 83 53 85 54 45 55 88 56 82 57 81 58 46 60 72 61 55 62 71 63
REMARK SMILES IDX 56 64 59 65 70 66 86 67 57 68 58 69 69 71 87 72 60 73 47 74
REMARK SMILES IDX 48 75 53 76 49 77 50 78 52 79 54 80 51 81 73 82 74 83 79 84
REMARK SMILES IDX 75 85 76 86 78 87 80 88 77 89 61 90 62 91 67 92 63 93 64 94
REMARK SMILES IDX 66 95 68 96 65 97
REMARK H PARENT 85 59 59 70
REMARK Flexibility Score: inf
ROOT
ATOM      1  C   UNL A   1      42.436  23.107  28.469  1.00  0.00     0.188 C 
ENDROOT
BRANCH   1   2
ATOM      2  C   UNL A   1      41.323  23.848  27.703  1.00  0.00     0.188 C 
BRANCH   2   3
ATOM      3  O   UNL A   1      40.228  24.417  28.399  1.00  0.00    -0.376 OA
BRANCH   3   4
ATOM      4  C   UNL A   1      38.990  24.473  27.698  1.00  0.00     0.202 C 
BRANCH   4   5
ATOM      5  C   UNL A   1      38.807  23.556  26.493  1.00  0.00     0.261 C 
BRANCH   5   6
ATOM      6  O   UNL A   1      37.571  23.860  25.854  1.00  0.00    -0.462 OA
BRANCH   6   7
ATOM      7  C   UNL A   1      36.850  22.825  25.377  1.00  0.00     0.328 C 
ATOM      8  O   UNL A   1      36.894  21.677  25.772  1.00  0.00    -0.250 OA
BRANCH   7   9
ATOM      9  C   UNL A   1      35.834  23.349  24.367  1.00  0.00     0.192 C 
ATOM     10  C   UNL A   1      36.240  23.028  22.939  1.00  0.00     0.044 C 
BRANCH   9  11
ATOM     11  N   UNL A   1      34.487  22.929  24.747  1.00  0.00    -0.329 N 
ATOM     12  C   UNL A   1      32.732  28.777  25.512  1.00  0.00     0.226 C 
ATOM     13  O   UNL A   1      33.191  29.656  24.771  1.00  0.00    -0.275 OA
ATOM     14  N   UNL A   1      32.309  27.572  24.976  1.00  0.00    -0.342 N 
ATOM     15  C   UNL A   1      33.032  27.049  23.830  1.00  0.00     0.120 C 
ATOM     16  C   UNL A   1      31.375  26.617  25.560  1.00  0.00     0.120 C 
ATOM     17  C   UNL A   1      33.836  25.838  24.304  1.00  0.00     0.030 C 
ATOM     18  C   UNL A   1      32.144  25.450  26.139  1.00  0.00     0.030 C 
ATOM     19  C   UNL A   1      32.959  24.770  25.038  1.00  0.00    -0.008 C 
ATOM     20  C   UNL A   1      32.004  24.052  24.030  1.00  0.00     0.019 C 
ATOM     21  C   UNL A   1      33.832  23.714  25.748  1.00  0.00     0.127 C 
ATOM     22  C   UNL A   1      32.759  23.134  23.080  1.00  0.00     0.101 C 
ATOM     23  C   UNL A   1      33.591  22.235  23.955  1.00  0.00     0.223 C 
ATOM     24  O   UNL A   1      33.186  21.109  24.219  1.00  0.00    -0.275 OA
BRANCH  12  25
ATOM     25  C   UNL A   1      32.916  28.935  27.022  1.00  0.00     0.135 C 
BRANCH  25  26
ATOM     26  C   UNL A   1      34.048  29.785  27.530  1.00  0.00    -0.038 A 
ATOM     27  C   UNL A   1      34.799  33.506  27.913  1.00  0.00     0.044 C 
ATOM     28  C   UNL A   1      34.968  32.015  27.890  1.00  0.00    -0.051 A 
ATOM     29  C   UNL A   1      36.235  31.445  28.056  1.00  0.00     0.003 A 
ATOM     30  C   UNL A   1      33.874  31.174  27.658  1.00  0.00     0.007 A 
ATOM     31  C   UNL A   1      36.401  30.059  28.018  1.00  0.00     0.001 A 
ATOM     32  C   UNL A   1      35.307  29.226  27.779  1.00  0.00     0.004 A 
ENDBRANCH  25  26
ENDBRANCH  12  25
ENDBRANCH   9  11
ENDBRANCH   7   9
ENDBRANCH   6   7
ENDBRANCH   5   6
ENDBRANCH   4   5
ENDBRANCH   3   4
ENDBRANCH   2   3
ENDBRANCH   1   2
BRANCH   1  33
ATOM     33  O   UNL A   1      43.669  22.815  27.826  1.00  0.00    -0.377 OA
BRANCH  33  34
ATOM     34  C   UNL A   1      44.790  23.662  28.057  1.00  0.00     0.188 C 
BRANCH  34  35
ATOM     35  C   UNL A   1      44.890  24.897  27.177  1.00  0.00     0.188 C 
BRANCH  35  36
ATOM     36  O   UNL A   1      44.957  24.460  25.822  1.00  0.00    -0.376 OA
BRANCH  36  37
ATOM     37  C   UNL A   1      44.013  25.022  24.916  1.00  0.00     0.202 C 
BRANCH  37  38
ATOM     38  C   UNL A   1      43.902  26.545  25.002  1.00  0.00     0.261 C 
BRANCH  38  39
ATOM     39  O   UNL A   1      42.531  26.940  24.794  1.00  0.00    -0.460 OA
BRANCH  39  40
ATOM     40  C   UNL A   1      42.133  28.047  25.476  1.00  0.00     0.338 C 
ATOM     41  O   UNL A   1      42.132  29.186  25.028  1.00  0.00    -0.246 OA
BRANCH  40  42
ATOM     42  C   UNL A   1      42.008  27.740  26.934  1.00  0.00     0.060 A 
ATOM     43  C   UNL A   1      40.741  27.500  27.495  1.00  0.00     0.016 A 
ATOM     44  C   UNL A   1      43.062  28.087  27.766  1.00  0.00     0.016 A 
ATOM     45  C   UNL A   1      40.490  27.807  28.846  1.00  0.00     0.010 A 
ATOM     46  C   UNL A   1      42.772  28.505  29.050  1.00  0.00     0.010 A 
ATOM     47  C   UNL A   1      41.487  28.411  29.611  1.00  0.00    -0.014 A 
BRANCH  47  48
ATOM     48  C   UNL A   1      41.306  29.136  30.894  1.00  0.00     0.031 A 
ATOM     49  C   UNL A   1      40.426  30.361  30.933  1.00  0.00     0.074 A 
ATOM     50  C   UNL A   1      41.599  28.492  32.053  1.00  0.00     0.049 A 
ATOM     51  N   UNL A   1      39.977  30.941  31.994  1.00  0.00    -0.248 NA
ATOM     52  C   UNL A   1      39.952  31.039  29.727  1.00  0.00     0.031 C 
ATOM     53  C   UNL A   1      40.862  28.618  33.311  1.00  0.00     0.029 A 
ATOM     54  N   UNL A   1      42.539  27.508  32.353  1.00  0.00    -0.354 N 
ATOM     55  C   UNL A   1      38.974  31.833  31.651  1.00  0.00     0.074 A 
ATOM     56  C   UNL A   1      39.047  31.896  30.215  1.00  0.00     0.031 C 
ATOM     57  C   UNL A   1      41.374  27.795  34.229  1.00  0.00     0.029 A 
ATOM     58  C   UNL A   1      42.647  27.374  33.746  1.00  0.00     0.049 A 
ATOM     59  H   UNL A   1      43.049  26.988  31.690  1.00  0.00     0.167 HD
ATOM     60  C   UNL A   1      38.144  32.318  32.629  1.00  0.00     0.037 A 
ATOM     61  C   UNL A   1      43.777  27.728  34.429  1.00  0.00     0.037 A 
ATOM     62  C   UNL A   1      38.645  31.949  33.964  1.00  0.00     0.049 A 
ATOM     63  C   UNL A   1      43.587  29.003  35.254  1.00  0.00     0.074 A 
ATOM     64  C   UNL A   1      38.112  31.283  35.054  1.00  0.00     0.029 A 
ATOM     65  N   UNL A   1      39.995  32.147  34.259  1.00  0.00    -0.354 N 
ATOM     66  N   UNL A   1      42.730  29.950  34.930  1.00  0.00    -0.248 NA
ATOM     67  C   UNL A   1      44.188  29.245  36.568  1.00  0.00     0.031 C 
ATOM     68  C   UNL A   1      39.165  31.038  35.971  1.00  0.00     0.029 A 
ATOM     69  C   UNL A   1      40.340  31.564  35.453  1.00  0.00     0.049 A 
ATOM     70  H   UNL A   1      40.620  32.644  33.683  1.00  0.00     0.167 HD
ATOM     71  C   UNL A   1      42.583  30.825  35.979  1.00  0.00     0.074 A 
ATOM     72  C   UNL A   1      43.553  30.368  36.959  1.00  0.00     0.031 C 
ATOM     73  C   UNL A   1      41.640  31.817  36.051  1.00  0.00     0.037 A 
BRANCH  60  74
ATOM     74  C   UNL A   1      36.778  33.003  32.450  1.00  0.00     0.057 A 
ATOM     75  C   UNL A   1      35.702  32.328  31.820  1.00  0.00     0.134 A 
ATOM     76  C   UNL A   1      36.467  34.338  32.776  1.00  0.00     0.134 A 
ATOM     77  F   UNL A   1      35.783  31.036  31.474  1.00  0.00    -0.206 F 
ATOM     78  C   UNL A   1      34.469  32.931  31.505  1.00  0.00     0.040 A 
ATOM     79  C   UNL A   1      35.219  34.939  32.515  1.00  0.00     0.040 A 
ATOM     80  F   UNL A   1      37.352  35.163  33.337  1.00  0.00    -0.206 F 
ATOM     81  C   UNL A   1      34.218  34.244  31.859  1.00  0.00     0.006 A 
ENDBRANCH  60  74
BRANCH  61  82
ATOM     82  C   UNL A   1      44.969  27.034  33.846  1.00  0.00     0.057 A 
ATOM     83  C   UNL A   1      44.863  25.626  33.941  1.00  0.00     0.134 A 
ATOM     84  C   UNL A   1      45.494  27.535  32.646  1.00  0.00     0.134 A 
ATOM     85  F   UNL A   1      44.436  25.065  35.085  1.00  0.00    -0.206 F 
ATOM     86  C   UNL A   1      44.907  24.812  32.802  1.00  0.00     0.040 A 
ATOM     87  C   UNL A   1      45.572  26.720  31.504  1.00  0.00     0.040 A 
ATOM     88  F   UNL A   1      45.689  28.852  32.490  1.00  0.00    -0.206 F 
ATOM     89  C   UNL A   1      45.196  25.377  31.563  1.00  0.00     0.006 A 
ENDBRANCH  61  82
BRANCH  73  90
ATOM     90  C   UNL A   1      41.823  33.160  36.741  1.00  0.00     0.057 A 
ATOM     91  C   UNL A   1      41.736  33.341  38.127  1.00  0.00     0.134 A 
ATOM     92  C   UNL A   1      42.344  34.280  36.036  1.00  0.00     0.134 A 
ATOM     93  F   UNL A   1      41.342  32.359  38.946  1.00  0.00    -0.206 F 
ATOM     94  C   UNL A   1      42.118  34.535  38.757  1.00  0.00     0.040 A 
ATOM     95  C   UNL A   1      42.775  35.452  36.660  1.00  0.00     0.040 A 
ATOM     96  F   UNL A   1      42.516  34.284  34.706  1.00  0.00    -0.206 F 
ATOM     97  C   UNL A   1      42.659  35.586  38.029  1.00  0.00     0.006 A 
ENDBRANCH  73  90
ENDBRANCH  47  48
ENDBRANCH  40  42
ENDBRANCH  39  40
ENDBRANCH  38  39
ENDBRANCH  37  38
ENDBRANCH  36  37
ENDBRANCH  35  36
ENDBRANCH  34  35
ENDBRANCH  33  34
ENDBRANCH   1  33
TORSDOF 23
ENDMDL
