MODEL 1
REMARK VINA RESULT:     -12.6      0.000      0.000
REMARK SMILES Cc1ccc(-c2cc(Cl)cc3c2O[C@H](C(F)(F)F)C(C(=O)OCCOCCOCCOCCOC(=O)c2ccc(-c4c5nc(c(-c6c(F)cccc6F)c6ccc([nH]6)c(-c6c(F)cccc6F)c6nc(c(-c7c(F)cccc7F)c7ccc4[nH]7)C=C6)C=C5)cc2)=C3)cc1F
REMARK SMILES IDX 29 1 28 2 27 3 26 4 25 5 24 6 23 7 22 8 20 9 21 10 19 11
REMARK SMILES IDX 6 12 7 13 12 14 8 15 11 16 13 17 9 18 10 19 91 20 14 21 5 22
REMARK SMILES IDX 1 23 2 24 3 25 93 26 4 27 92 28 94 29 15 30 16 31 17 32
REMARK SMILES IDX 18 33 30 34 31 35 32 36 33 37 34 38 35 39 36 40 37 41 38 42
REMARK SMILES IDX 90 43 39 44 89 45 40 46 41 47 42 48 83 49 43 50 88 51 82 52
REMARK SMILES IDX 84 53 44 54 87 55 81 56 80 57 45 59 71 60 54 61 70 62 55 63
REMARK SMILES IDX 58 64 69 65 85 66 56 67 57 68 68 70 86 71 59 72 46 73 47 74
REMARK SMILES IDX 52 75 48 76 49 77 51 78 53 79 50 80 72 81 73 82 78 83 74 84
REMARK SMILES IDX 75 85 77 86 79 87 76 88 60 89 61 90 66 91 62 92 63 93 65 94
REMARK SMILES IDX 67 95 64 96
REMARK H PARENT 84 58 58 69
REMARK Flexibility Score: inf
ROOT
ATOM      1  C   UNL A   1      33.905  27.546  25.930  1.00  0.00     0.188 C 
ENDROOT
BRANCH   1   2
ATOM      2  O   UNL A   1      34.195  25.877  24.849  1.00  0.00    -0.377 OA
BRANCH   2   3
ATOM      3  C   UNL A   1      34.014  25.506  23.150  1.00  0.00     0.188 C 
BRANCH   3   4
ATOM      4  C   UNL A   1      32.742  26.041  22.035  1.00  0.00     0.188 C 
BRANCH   4   5
ATOM      5  O   UNL A   1      31.290  26.131  22.135  1.00  0.00    -0.376 OA
BRANCH   5   6
ATOM      6  C   UNL A   1      30.405  25.532  23.119  1.00  0.00     0.202 C 
BRANCH   6   7
ATOM      7  C   UNL A   1      30.575  24.096  23.776  1.00  0.00     0.261 C 
BRANCH   7   8
ATOM      8  O   UNL A   1      30.766  24.018  25.224  1.00  0.00    -0.460 OA
BRANCH   8   9
ATOM      9  C   UNL A   1      30.814  22.780  25.747  1.00  0.00     0.338 C 
ATOM     10  O   UNL A   1      29.819  22.177  26.128  1.00  0.00    -0.246 OA
BRANCH   9  11
ATOM     11  C   UNL A   1      32.138  22.097  25.560  1.00  0.00     0.087 C 
ATOM     12  C   UNL A   1      35.550  19.702  24.760  1.00  0.00     0.026 A 
ATOM     13  C   UNL A   1      35.308  18.348  24.434  1.00  0.00     0.033 A 
ATOM     14  C   UNL A   1      34.425  20.549  24.902  1.00  0.00     0.135 A 
ATOM     15  C   UNL A   1      34.016  17.872  24.218  1.00  0.00     0.042 A 
ATOM     16  C   UNL A   1      33.133  20.029  24.785  1.00  0.00     0.019 A 
ATOM     17  O   UNL A   1      34.613  21.895  25.084  1.00  0.00    -0.475 OA
ATOM     18  Cl  UNL A   1      33.760  16.222  23.809  1.00  0.00    -0.084 Cl
ATOM     19  C   UNL A   1      32.928  18.710  24.380  1.00  0.00     0.032 A 
ATOM     20  C   UNL A   1      31.982  20.836  25.124  1.00  0.00     0.027 C 
ATOM     21  C   UNL A   1      33.518  22.714  25.638  1.00  0.00     0.316 C 
BRANCH  12  22
ATOM     22  C   UNL A   1      36.947  20.120  25.032  1.00  0.00    -0.012 A 
ATOM     23  C   UNL A   1      40.967  21.330  26.158  1.00  0.00     0.047 C 
ATOM     24  C   UNL A   1      39.588  20.892  25.768  1.00  0.00    -0.015 A 
ATOM     25  C   UNL A   1      39.306  19.565  25.436  1.00  0.00     0.007 A 
ATOM     26  C   UNL A   1      38.546  21.818  25.728  1.00  0.00     0.126 A 
ATOM     27  C   UNL A   1      38.004  19.188  25.071  1.00  0.00     0.009 A 
ATOM     28  C   UNL A   1      37.249  21.446  25.371  1.00  0.00     0.048 A 
ATOM     29  F   UNL A   1      38.782  23.096  26.059  1.00  0.00    -0.207 F 
ENDBRANCH  12  22
BRANCH  21  30
ATOM     30  C   UNL A   1      33.963  23.069  27.049  1.00  0.00     0.430 C 
ATOM     31  F   UNL A   1      33.212  24.085  27.545  1.00  0.00    -0.167 F 
ATOM     32  F   UNL A   1      33.832  22.029  27.897  1.00  0.00    -0.167 F 
ATOM     33  F   UNL A   1      35.248  23.484  27.080  1.00  0.00    -0.167 F 
ENDBRANCH  21  30
ENDBRANCH   9  11
ENDBRANCH   8   9
ENDBRANCH   7   8
ENDBRANCH   6   7
ENDBRANCH   5   6
ENDBRANCH   4   5
ENDBRANCH   3   4
ENDBRANCH   2   3
ENDBRANCH   1   2
BRANCH   1  34
ATOM     34  C   UNL A   1      32.469  28.064  26.845  1.00  0.00     0.188 C 
BRANCH  34  35
ATOM     35  O   UNL A   1      31.972  29.340  27.267  1.00  0.00    -0.376 OA
BRANCH  35  36
ATOM     36  C   UNL A   1      32.530  30.598  26.917  1.00  0.00     0.202 C 
BRANCH  36  37
ATOM     37  C   UNL A   1      33.768  31.174  27.626  1.00  0.00     0.261 C 
BRANCH  37  38
ATOM     38  O   UNL A   1      34.843  30.246  27.806  1.00  0.00    -0.460 OA
BRANCH  38  39
ATOM     39  C   UNL A   1      36.075  30.809  27.984  1.00  0.00     0.338 C 
ATOM     40  O   UNL A   1      36.307  31.963  28.300  1.00  0.00    -0.246 OA
BRANCH  39  41
ATOM     41  C   UNL A   1      37.055  29.696  28.156  1.00  0.00     0.060 A 
ATOM     42  C   UNL A   1      37.227  29.048  29.393  1.00  0.00     0.016 A 
ATOM     43  C   UNL A   1      38.100  29.730  27.214  1.00  0.00     0.016 A 
ATOM     44  C   UNL A   1      38.496  28.569  29.744  1.00  0.00     0.010 A 
ATOM     45  C   UNL A   1      39.369  29.331  27.600  1.00  0.00     0.010 A 
ATOM     46  C   UNL A   1      39.578  28.811  28.882  1.00  0.00    -0.014 A 
BRANCH  46  47
ATOM     47  C   UNL A   1      40.939  28.345  29.138  1.00  0.00     0.031 A 
ATOM     48  C   UNL A   1      41.152  26.952  28.730  1.00  0.00     0.074 A 
ATOM     49  C   UNL A   1      41.939  29.159  29.557  1.00  0.00     0.049 A 
ATOM     50  N   UNL A   1      42.001  26.140  29.237  1.00  0.00    -0.248 NA
ATOM     51  C   UNL A   1      40.328  26.338  27.684  1.00  0.00     0.031 C 
ATOM     52  C   UNL A   1      43.371  28.923  29.720  1.00  0.00     0.029 A 
ATOM     53  N   UNL A   1      41.792  30.368  30.236  1.00  0.00    -0.354 N 
ATOM     54  C   UNL A   1      42.177  25.172  28.272  1.00  0.00     0.074 A 
ATOM     55  C   UNL A   1      40.974  25.190  27.485  1.00  0.00     0.031 C 
ATOM     56  C   UNL A   1      43.803  29.611  30.802  1.00  0.00     0.029 A 
ATOM     57  C   UNL A   1      42.614  30.222  31.380  1.00  0.00     0.049 A 
ATOM     58  H   UNL A   1      41.243  31.144  29.979  1.00  0.00     0.167 HD
ATOM     59  C   UNL A   1      43.440  24.705  28.057  1.00  0.00     0.037 A 
ATOM     60  C   UNL A   1      42.038  29.971  32.600  1.00  0.00     0.037 A 
ATOM     61  C   UNL A   1      44.369  25.305  29.014  1.00  0.00     0.049 A 
ATOM     62  C   UNL A   1      42.617  28.685  33.186  1.00  0.00     0.074 A 
ATOM     63  C   UNL A   1      45.354  26.276  28.938  1.00  0.00     0.029 A 
ATOM     64  N   UNL A   1      44.097  25.155  30.358  1.00  0.00    -0.354 N 
ATOM     65  N   UNL A   1      43.040  27.709  32.414  1.00  0.00    -0.248 NA
ATOM     66  C   UNL A   1      42.931  28.411  34.591  1.00  0.00     0.031 C 
ATOM     67  C   UNL A   1      45.696  26.672  30.265  1.00  0.00     0.029 A 
ATOM     68  C   UNL A   1      44.861  25.991  31.130  1.00  0.00     0.049 A 
ATOM     69  H   UNL A   1      43.435  24.522  30.719  1.00  0.00     0.167 HD
ATOM     70  C   UNL A   1      43.833  26.853  33.136  1.00  0.00     0.074 A 
ATOM     71  C   UNL A   1      43.616  27.251  34.513  1.00  0.00     0.031 C 
ATOM     72  C   UNL A   1      44.674  25.939  32.562  1.00  0.00     0.037 A 
BRANCH  59  73
ATOM     73  C   UNL A   1      43.893  23.953  26.833  1.00  0.00     0.057 A 
ATOM     74  C   UNL A   1      44.282  24.653  25.672  1.00  0.00     0.134 A 
ATOM     75  C   UNL A   1      43.996  22.556  26.723  1.00  0.00     0.134 A 
ATOM     76  F   UNL A   1      44.312  25.990  25.619  1.00  0.00    -0.206 F 
ATOM     77  C   UNL A   1      44.680  24.024  24.490  1.00  0.00     0.040 A 
ATOM     78  C   UNL A   1      44.363  21.910  25.534  1.00  0.00     0.040 A 
ATOM     79  F   UNL A   1      43.811  21.747  27.771  1.00  0.00    -0.206 F 
ATOM     80  C   UNL A   1      44.710  22.644  24.412  1.00  0.00     0.006 A 
ENDBRANCH  59  73
BRANCH  60  81
ATOM     81  C   UNL A   1      40.689  30.680  32.719  1.00  0.00     0.057 A 
ATOM     82  C   UNL A   1      39.387  29.566  33.239  1.00  0.00     0.134 A 
ATOM     83  C   UNL A   1      40.302  32.362  32.726  1.00  0.00     0.134 A 
ATOM     84  F   UNL A   1      39.492  28.542  32.425  1.00  0.00    -0.206 F 
ATOM     85  C   UNL A   1      37.695  30.130  33.752  1.00  0.00     0.040 A 
ATOM     86  C   UNL A   1      38.698  33.001  33.148  1.00  0.00     0.040 A 
ATOM     87  F   UNL A   1      41.303  33.242  32.560  1.00  0.00    -0.206 F 
ATOM     88  C   UNL A   1      37.376  31.919  33.676  1.00  0.00     0.006 A 
ENDBRANCH  60  81
BRANCH  72  89
ATOM     89  C   UNL A   1      45.356  24.832  33.304  1.00  0.00     0.057 A 
ATOM     90  C   UNL A   1      46.721  24.805  33.579  1.00  0.00     0.134 A 
ATOM     91  C   UNL A   1      44.610  23.729  33.782  1.00  0.00     0.134 A 
ATOM     92  F   UNL A   1      47.554  25.697  33.026  1.00  0.00    -0.206 F 
ATOM     93  C   UNL A   1      47.273  23.848  34.436  1.00  0.00     0.040 A 
ATOM     94  C   UNL A   1      45.158  22.741  34.591  1.00  0.00     0.040 A 
ATOM     95  F   UNL A   1      43.305  23.574  33.523  1.00  0.00    -0.206 F 
ATOM     96  C   UNL A   1      46.485  22.829  34.967  1.00  0.00     0.006 A 
ENDBRANCH  72  89
ENDBRANCH  46  47
ENDBRANCH  39  41
ENDBRANCH  38  39
ENDBRANCH  37  38
ENDBRANCH  36  37
ENDBRANCH  35  36
ENDBRANCH  34  35
ENDBRANCH   1  34
TORSDOF 22
ENDMDL
MODEL 2
REMARK VINA RESULT:     -11.2      2.572      4.040
REMARK SMILES Cc1ccc(-c2cc(Cl)cc3c2O[C@H](C(F)(F)F)C(C(=O)OCCOCCOCCOCCOC(=O)c2ccc(-c4c5nc(c(-c6c(F)cccc6F)c6ccc([nH]6)c(-c6c(F)cccc6F)c6nc(c(-c7c(F)cccc7F)c7ccc4[nH]7)C=C6)C=C5)cc2)=C3)cc1F
REMARK SMILES IDX 29 1 28 2 27 3 26 4 25 5 24 6 23 7 22 8 20 9 21 10 19 11
REMARK SMILES IDX 6 12 7 13 12 14 8 15 11 16 13 17 9 18 10 19 91 20 14 21 5 22
REMARK SMILES IDX 1 23 2 24 3 25 93 26 4 27 92 28 94 29 15 30 16 31 17 32
REMARK SMILES IDX 18 33 30 34 31 35 32 36 33 37 34 38 35 39 36 40 37 41 38 42
REMARK SMILES IDX 90 43 39 44 89 45 40 46 41 47 42 48 83 49 43 50 88 51 82 52
REMARK SMILES IDX 84 53 44 54 87 55 81 56 80 57 45 59 71 60 54 61 70 62 55 63
REMARK SMILES IDX 58 64 69 65 85 66 56 67 57 68 68 70 86 71 59 72 46 73 47 74
REMARK SMILES IDX 52 75 48 76 49 77 51 78 53 79 50 80 72 81 73 82 78 83 74 84
REMARK SMILES IDX 75 85 77 86 79 87 76 88 60 89 61 90 66 91 62 92 63 93 65 94
REMARK SMILES IDX 67 95 64 96
REMARK H PARENT 84 58 58 69
REMARK Flexibility Score: inf
ROOT
ATOM      1  C   UNL A   1      33.928  32.236  27.771  1.00  0.00     0.188 C 
ENDROOT
BRANCH   1   2
ATOM      2  O   UNL A   1      32.140  32.038  26.875  1.00  0.00    -0.377 OA
BRANCH   2   3
ATOM      3  C   UNL A   1      31.415  30.766  25.919  1.00  0.00     0.188 C 
BRANCH   3   4
ATOM      4  C   UNL A   1      30.291  30.919  24.555  1.00  0.00     0.188 C 
BRANCH   4   5
ATOM      5  O   UNL A   1      30.008  30.092  23.386  1.00  0.00    -0.376 OA
BRANCH   5   6
ATOM      6  C   UNL A   1      29.665  28.682  23.330  1.00  0.00     0.202 C 
BRANCH   6   7
ATOM      7  C   UNL A   1      30.653  27.495  22.960  1.00  0.00     0.261 C 
BRANCH   7   8
ATOM      8  O   UNL A   1      30.805  26.400  23.918  1.00  0.00    -0.460 OA
BRANCH   8   9
ATOM      9  C   UNL A   1      31.906  26.440  24.689  1.00  0.00     0.338 C 
ATOM     10  O   UNL A   1      32.166  27.376  25.434  1.00  0.00    -0.246 OA
BRANCH   9  11
ATOM     11  C   UNL A   1      32.632  25.128  24.772  1.00  0.00     0.087 C 
ATOM     12  C   UNL A   1      35.151  21.750  25.283  1.00  0.00     0.026 A 
ATOM     13  C   UNL A   1      36.509  22.013  25.575  1.00  0.00     0.033 A 
ATOM     14  C   UNL A   1      34.268  22.854  25.238  1.00  0.00     0.135 A 
ATOM     15  C   UNL A   1      36.956  23.304  25.853  1.00  0.00     0.042 A 
ATOM     16  C   UNL A   1      34.755  24.153  25.415  1.00  0.00     0.019 A 
ATOM     17  O   UNL A   1      32.922  22.637  25.091  1.00  0.00    -0.475 OA
ATOM     18  Cl  UNL A   1      38.611  23.586  26.219  1.00  0.00    -0.084 Cl
ATOM     19  C   UNL A   1      36.081  24.374  25.785  1.00  0.00     0.032 A 
ATOM     20  C   UNL A   1      33.904  25.297  25.174  1.00  0.00     0.027 C 
ATOM     21  C   UNL A   1      32.053  23.737  24.633  1.00  0.00     0.316 C 
BRANCH  12  22
ATOM     22  C   UNL A   1      34.763  20.360  24.942  1.00  0.00    -0.012 A 
ATOM     23  C   UNL A   1      33.662  16.368  23.617  1.00  0.00     0.047 C 
ATOM     24  C   UNL A   1      34.062  17.737  24.077  1.00  0.00    -0.015 A 
ATOM     25  C   UNL A   1      35.363  18.018  24.503  1.00  0.00     0.007 A 
ATOM     26  C   UNL A   1      33.127  18.772  24.089  1.00  0.00     0.126 A 
ATOM     27  C   UNL A   1      35.705  19.310  24.931  1.00  0.00     0.009 A 
ATOM     28  C   UNL A   1      33.464  20.059  24.508  1.00  0.00     0.048 A 
ATOM     29  F   UNL A   1      31.875  18.538  23.669  1.00  0.00    -0.207 F 
ENDBRANCH  12  22
BRANCH  21  30
ATOM     30  C   UNL A   1      31.659  23.366  23.211  1.00  0.00     0.430 C 
ATOM     31  F   UNL A   1      32.364  24.102  22.313  1.00  0.00    -0.167 F 
ATOM     32  F   UNL A   1      31.907  22.069  22.939  1.00  0.00    -0.167 F 
ATOM     33  F   UNL A   1      30.352  23.608  22.973  1.00  0.00    -0.167 F 
ENDBRANCH  21  30
ENDBRANCH   9  11
ENDBRANCH   8   9
ENDBRANCH   7   8
ENDBRANCH   6   7
ENDBRANCH   5   6
ENDBRANCH   4   5
ENDBRANCH   3   4
ENDBRANCH   2   3
ENDBRANCH   1   2
BRANCH   1  34
ATOM     34  C   UNL A   1      34.367  33.169  29.222  1.00  0.00     0.188 C 
BRANCH  34  35
ATOM     35  O   UNL A   1      34.490  32.839  30.610  1.00  0.00    -0.376 OA
BRANCH  35  36
ATOM     36  C   UNL A   1      35.405  31.901  31.157  1.00  0.00     0.202 C 
BRANCH  36  37
ATOM     37  C   UNL A   1      36.871  31.818  30.695  1.00  0.00     0.261 C 
BRANCH  37  38
ATOM     38  O   UNL A   1      37.062  31.232  29.404  1.00  0.00    -0.460 OA
BRANCH  38  39
ATOM     39  C   UNL A   1      36.571  29.966  29.260  1.00  0.00     0.338 C 
ATOM     40  O   UNL A   1      35.421  29.660  28.996  1.00  0.00    -0.246 OA
BRANCH  39  41
ATOM     41  C   UNL A   1      37.734  29.055  29.048  1.00  0.00     0.060 A 
ATOM     42  C   UNL A   1      38.457  28.517  30.129  1.00  0.00     0.016 A 
ATOM     43  C   UNL A   1      38.344  29.222  27.791  1.00  0.00     0.016 A 
ATOM     44  C   UNL A   1      39.832  28.290  29.988  1.00  0.00     0.010 A 
ATOM     45  C   UNL A   1      39.717  29.075  27.684  1.00  0.00     0.010 A 
ATOM     46  C   UNL A   1      40.467  28.672  28.795  1.00  0.00    -0.014 A 
BRANCH  46  47
ATOM     47  C   UNL A   1      41.889  28.469  28.532  1.00  0.00     0.031 A 
ATOM     48  C   UNL A   1      42.253  27.053  28.421  1.00  0.00     0.074 A 
ATOM     49  C   UNL A   1      42.749  29.482  28.260  1.00  0.00     0.049 A 
ATOM     50  N   UNL A   1      43.399  26.547  28.683  1.00  0.00    -0.248 NA
ATOM     51  C   UNL A   1      41.261  26.047  28.025  1.00  0.00     0.031 C 
ATOM     52  C   UNL A   1      44.145  29.474  27.829  1.00  0.00     0.029 A 
ATOM     53  N   UNL A   1      42.591  30.819  28.620  1.00  0.00    -0.354 N 
ATOM     54  C   UNL A   1      43.414  25.347  28.004  1.00  0.00     0.074 A 
ATOM     55  C   UNL A   1      42.034  24.977  27.846  1.00  0.00     0.031 C 
ATOM     56  C   UNL A   1      44.783  30.515  28.411  1.00  0.00     0.029 A 
ATOM     57  C   UNL A   1      43.800  31.140  29.286  1.00  0.00     0.049 A 
ATOM     58  H   UNL A   1      41.819  31.405  28.452  1.00  0.00     0.167 HD
ATOM     59  C   UNL A   1      44.569  24.982  27.376  1.00  0.00     0.037 A 
ATOM     60  C   UNL A   1      43.817  31.229  30.654  1.00  0.00     0.037 A 
ATOM     61  C   UNL A   1      45.622  25.957  27.652  1.00  0.00     0.049 A 
ATOM     62  C   UNL A   1      44.865  30.271  31.218  1.00  0.00     0.074 A 
ATOM     63  C   UNL A   1      46.240  26.958  26.920  1.00  0.00     0.029 A 
ATOM     64  N   UNL A   1      45.934  26.214  28.971  1.00  0.00    -0.354 N 
ATOM     65  N   UNL A   1      45.177  29.154  30.599  1.00  0.00    -0.248 NA
ATOM     66  C   UNL A   1      45.752  30.497  32.362  1.00  0.00     0.031 C 
ATOM     67  C   UNL A   1      46.963  27.792  27.823  1.00  0.00     0.029 A 
ATOM     68  C   UNL A   1      46.714  27.334  29.102  1.00  0.00     0.049 A 
ATOM     69  H   UNL A   1      45.633  25.659  29.727  1.00  0.00     0.167 HD
ATOM     70  C   UNL A   1      46.366  28.669  31.083  1.00  0.00     0.074 A 
ATOM     71  C   UNL A   1      46.608  29.458  32.274  1.00  0.00     0.031 C 
ATOM     72  C   UNL A   1      47.111  27.720  30.437  1.00  0.00     0.037 A 
BRANCH  59  73
ATOM     73  C   UNL A   1      44.679  23.935  26.299  1.00  0.00     0.057 A 
ATOM     74  C   UNL A   1      43.928  24.055  25.111  1.00  0.00     0.134 A 
ATOM     75  C   UNL A   1      45.509  22.802  26.342  1.00  0.00     0.134 A 
ATOM     76  F   UNL A   1      43.136  25.106  24.869  1.00  0.00    -0.206 F 
ATOM     77  C   UNL A   1      43.954  23.108  24.085  1.00  0.00     0.040 A 
ATOM     78  C   UNL A   1      45.521  21.827  25.334  1.00  0.00     0.040 A 
ATOM     79  F   UNL A   1      46.396  22.609  27.324  1.00  0.00    -0.206 F 
ATOM     80  C   UNL A   1      44.743  21.979  24.198  1.00  0.00     0.006 A 
ENDBRANCH  59  73
BRANCH  60  81
ATOM     81  C   UNL A   1      42.491  31.781  31.179  1.00  0.00     0.057 A 
ATOM     82  C   UNL A   1      41.774  30.729  32.438  1.00  0.00     0.134 A 
ATOM     83  C   UNL A   1      41.765  33.334  30.977  1.00  0.00     0.134 A 
ATOM     84  F   UNL A   1      41.792  29.529  31.906  1.00  0.00    -0.206 F 
ATOM     85  C   UNL A   1      40.324  31.221  33.486  1.00  0.00     0.040 A 
ATOM     86  C   UNL A   1      40.342  33.880  31.891  1.00  0.00     0.040 A 
ATOM     87  F   UNL A   1      42.400  34.234  30.209  1.00  0.00    -0.206 F 
ATOM     88  C   UNL A   1      39.603  32.859  33.159  1.00  0.00     0.006 A 
ENDBRANCH  60  81
BRANCH  72  89
ATOM     89  C   UNL A   1      48.269  26.993  31.047  1.00  0.00     0.057 A 
ATOM     90  C   UNL A   1      48.140  25.984  31.997  1.00  0.00     0.134 A 
ATOM     91  C   UNL A   1      49.593  27.311  30.661  1.00  0.00     0.134 A 
ATOM     92  F   UNL A   1      46.957  25.721  32.570  1.00  0.00    -0.206 F 
ATOM     93  C   UNL A   1      49.237  25.210  32.392  1.00  0.00     0.040 A 
ATOM     94  C   UNL A   1      50.698  26.583  31.088  1.00  0.00     0.040 A 
ATOM     95  F   UNL A   1      49.879  28.314  29.821  1.00  0.00    -0.206 F 
ATOM     96  C   UNL A   1      50.515  25.492  31.915  1.00  0.00     0.006 A 
ENDBRANCH  72  89
ENDBRANCH  46  47
ENDBRANCH  39  41
ENDBRANCH  38  39
ENDBRANCH  37  38
ENDBRANCH  36  37
ENDBRANCH  35  36
ENDBRANCH  34  35
ENDBRANCH   1  34
TORSDOF 22
ENDMDL
MODEL 3
REMARK VINA RESULT:     -11.0      3.187      5.160
REMARK SMILES Cc1ccc(-c2cc(Cl)cc3c2O[C@H](C(F)(F)F)C(C(=O)OCCOCCOCCOCCOC(=O)c2ccc(-c4c5nc(c(-c6c(F)cccc6F)c6ccc([nH]6)c(-c6c(F)cccc6F)c6nc(c(-c7c(F)cccc7F)c7ccc4[nH]7)C=C6)C=C5)cc2)=C3)cc1F
REMARK SMILES IDX 29 1 28 2 27 3 26 4 25 5 24 6 23 7 22 8 20 9 21 10 19 11
REMARK SMILES IDX 6 12 7 13 12 14 8 15 11 16 13 17 9 18 10 19 91 20 14 21 5 22
REMARK SMILES IDX 1 23 2 24 3 25 93 26 4 27 92 28 94 29 15 30 16 31 17 32
REMARK SMILES IDX 18 33 30 34 31 35 32 36 33 37 34 38 35 39 36 40 37 41 38 42
REMARK SMILES IDX 90 43 39 44 89 45 40 46 41 47 42 48 83 49 43 50 88 51 82 52
REMARK SMILES IDX 84 53 44 54 87 55 81 56 80 57 45 59 71 60 54 61 70 62 55 63
REMARK SMILES IDX 58 64 69 65 85 66 56 67 57 68 68 70 86 71 59 72 46 73 47 74
REMARK SMILES IDX 52 75 48 76 49 77 51 78 53 79 50 80 72 81 73 82 78 83 74 84
REMARK SMILES IDX 75 85 77 86 79 87 76 88 60 89 61 90 66 91 62 92 63 93 65 94
REMARK SMILES IDX 67 95 64 96
REMARK H PARENT 84 58 58 69
REMARK Flexibility Score: inf
ROOT
ATOM      1  C   UNL A   1      33.633  34.457  28.261  1.00  0.00     0.188 C 
ENDROOT
BRANCH   1   2
ATOM      2  O   UNL A   1      31.882  33.718  27.606  1.00  0.00    -0.377 OA
BRANCH   2   3
ATOM      3  C   UNL A   1      31.455  32.298  26.679  1.00  0.00     0.188 C 
BRANCH   3   4
ATOM      4  C   UNL A   1      32.411  30.827  26.415  1.00  0.00     0.188 C 
BRANCH   4   5
ATOM      5  O   UNL A   1      32.429  29.813  25.366  1.00  0.00    -0.376 OA
BRANCH   5   6
ATOM      6  C   UNL A   1      31.312  29.113  24.757  1.00  0.00     0.202 C 
BRANCH   6   7
ATOM      7  C   UNL A   1      31.308  27.599  24.278  1.00  0.00     0.261 C 
BRANCH   7   8
ATOM      8  O   UNL A   1      32.210  26.661  24.947  1.00  0.00    -0.460 OA
BRANCH   8   9
ATOM      9  C   UNL A   1      33.277  26.259  24.234  1.00  0.00     0.338 C 
ATOM     10  O   UNL A   1      34.021  27.036  23.650  1.00  0.00    -0.246 OA
BRANCH   9  11
ATOM     11  C   UNL A   1      33.637  24.817  24.450  1.00  0.00     0.087 C 
ATOM     12  C   UNL A   1      35.214  20.961  25.265  1.00  0.00     0.026 A 
ATOM     13  C   UNL A   1      36.613  20.877  25.446  1.00  0.00     0.033 A 
ATOM     14  C   UNL A   1      34.651  22.252  25.122  1.00  0.00     0.135 A 
ATOM     15  C   UNL A   1      37.406  22.020  25.527  1.00  0.00     0.042 A 
ATOM     16  C   UNL A   1      35.476  23.380  25.100  1.00  0.00     0.019 A 
ATOM     17  O   UNL A   1      33.288  22.393  25.078  1.00  0.00    -0.475 OA
ATOM     18  Cl  UNL A   1      39.102  21.881  25.763  1.00  0.00    -0.084 Cl
ATOM     19  C   UNL A   1      36.841  23.273  25.366  1.00  0.00     0.032 A 
ATOM     20  C   UNL A   1      34.938  24.678  24.756  1.00  0.00     0.027 C 
ATOM     21  C   UNL A   1      32.702  23.629  24.526  1.00  0.00     0.316 C 
BRANCH  12  22
ATOM     22  C   UNL A   1      34.445  19.699  25.131  1.00  0.00    -0.012 A 
ATOM     23  C   UNL A   1      32.391  15.872  24.980  1.00  0.00     0.047 C 
ATOM     24  C   UNL A   1      33.083  17.199  25.045  1.00  0.00    -0.015 A 
ATOM     25  C   UNL A   1      32.558  18.266  25.778  1.00  0.00     0.007 A 
ATOM     26  C   UNL A   1      34.284  17.395  24.364  1.00  0.00     0.126 A 
ATOM     27  C   UNL A   1      33.229  19.498  25.816  1.00  0.00     0.009 A 
ATOM     28  C   UNL A   1      34.958  18.616  24.404  1.00  0.00     0.048 A 
ATOM     29  F   UNL A   1      34.823  16.383  23.667  1.00  0.00    -0.207 F 
ENDBRANCH  12  22
BRANCH  21  30
ATOM     30  C   UNL A   1      32.103  23.221  23.188  1.00  0.00     0.430 C 
ATOM     31  F   UNL A   1      33.059  23.196  22.225  1.00  0.00    -0.167 F 
ATOM     32  F   UNL A   1      31.555  21.990  23.233  1.00  0.00    -0.167 F 
ATOM     33  F   UNL A   1      31.157  24.093  22.776  1.00  0.00    -0.167 F 
ENDBRANCH  21  30
ENDBRANCH   9  11
ENDBRANCH   8   9
ENDBRANCH   7   8
ENDBRANCH   6   7
ENDBRANCH   5   6
ENDBRANCH   4   5
ENDBRANCH   3   4
ENDBRANCH   2   3
ENDBRANCH   1   2
BRANCH   1  34
ATOM     34  C   UNL A   1      35.002  33.611  29.020  1.00  0.00     0.188 C 
BRANCH  34  35
ATOM     35  O   UNL A   1      35.432  32.244  29.040  1.00  0.00    -0.376 OA
BRANCH  35  36
ATOM     36  C   UNL A   1      35.904  31.545  30.182  1.00  0.00     0.202 C 
BRANCH  36  37
ATOM     37  C   UNL A   1      35.795  30.016  30.312  1.00  0.00     0.261 C 
BRANCH  37  38
ATOM     38  O   UNL A   1      37.032  29.310  30.162  1.00  0.00    -0.460 OA
BRANCH  38  39
ATOM     39  C   UNL A   1      37.652  28.966  31.330  1.00  0.00     0.338 C 
ATOM     40  O   UNL A   1      37.120  28.809  32.415  1.00  0.00    -0.246 OA
BRANCH  39  41
ATOM     41  C   UNL A   1      38.986  28.399  30.978  1.00  0.00     0.060 A 
ATOM     42  C   UNL A   1      40.161  28.811  31.635  1.00  0.00     0.016 A 
ATOM     43  C   UNL A   1      39.040  27.886  29.668  1.00  0.00     0.016 A 
ATOM     44  C   UNL A   1      41.366  28.851  30.921  1.00  0.00     0.010 A 
ATOM     45  C   UNL A   1      40.215  28.008  28.945  1.00  0.00     0.010 A 
ATOM     46  C   UNL A   1      41.356  28.547  29.550  1.00  0.00    -0.014 A 
BRANCH  46  47
ATOM     47  C   UNL A   1      42.553  28.540  28.713  1.00  0.00     0.031 A 
ATOM     48  C   UNL A   1      43.128  27.202  28.548  1.00  0.00     0.074 A 
ATOM     49  C   UNL A   1      42.991  29.628  28.031  1.00  0.00     0.049 A 
ATOM     50  N   UNL A   1      44.359  26.933  28.322  1.00  0.00    -0.248 NA
ATOM     51  C   UNL A   1      42.297  26.001  28.685  1.00  0.00     0.031 C 
ATOM     52  C   UNL A   1      44.055  29.783  27.042  1.00  0.00     0.029 A 
ATOM     53  N   UNL A   1      42.719  30.961  28.336  1.00  0.00    -0.354 N 
ATOM     54  C   UNL A   1      44.346  25.665  27.782  1.00  0.00     0.074 A 
ATOM     55  C   UNL A   1      43.135  25.056  28.260  1.00  0.00     0.031 C 
ATOM     56  C   UNL A   1      44.641  30.989  27.222  1.00  0.00     0.029 A 
ATOM     57  C   UNL A   1      43.997  31.569  28.392  1.00  0.00     0.049 A 
ATOM     58  H   UNL A   1      41.841  31.382  28.480  1.00  0.00     0.167 HD
ATOM     59  C   UNL A   1      45.189  25.403  26.743  1.00  0.00     0.037 A 
ATOM     60  C   UNL A   1      44.555  31.861  29.611  1.00  0.00     0.037 A 
ATOM     61  C   UNL A   1      46.033  26.567  26.473  1.00  0.00     0.049 A 
ATOM     62  C   UNL A   1      45.918  31.181  29.728  1.00  0.00     0.074 A 
ATOM     63  C   UNL A   1      46.070  27.534  25.482  1.00  0.00     0.029 A 
ATOM     64  N   UNL A   1      46.797  27.063  27.508  1.00  0.00    -0.354 N 
ATOM     65  N   UNL A   1      46.175  30.050  29.109  1.00  0.00    -0.248 NA
ATOM     66  C   UNL A   1      47.127  31.715  30.359  1.00  0.00     0.031 C 
ATOM     67  C   UNL A   1      46.906  28.600  25.929  1.00  0.00     0.029 A 
ATOM     68  C   UNL A   1      47.307  28.302  27.217  1.00  0.00     0.049 A 
ATOM     69  H   UNL A   1      46.957  26.585  28.354  1.00  0.00     0.167 HD
ATOM     70  C   UNL A   1      47.531  29.842  29.062  1.00  0.00     0.074 A 
ATOM     71  C   UNL A   1      48.069  30.828  29.978  1.00  0.00     0.031 C 
ATOM     72  C   UNL A   1      48.127  28.942  28.221  1.00  0.00     0.037 A 
BRANCH  59  73
ATOM     73  C   UNL A   1      45.065  24.240  25.794  1.00  0.00     0.057 A 
ATOM     74  C   UNL A   1      46.110  23.299  25.682  1.00  0.00     0.134 A 
ATOM     75  C   UNL A   1      43.953  23.963  24.981  1.00  0.00     0.134 A 
ATOM     76  F   UNL A   1      47.216  23.366  26.431  1.00  0.00    -0.206 F 
ATOM     77  C   UNL A   1      46.079  22.215  24.801  1.00  0.00     0.040 A 
ATOM     78  C   UNL A   1      43.921  22.898  24.070  1.00  0.00     0.040 A 
ATOM     79  F   UNL A   1      42.817  24.664  25.070  1.00  0.00    -0.206 F 
ATOM     80  C   UNL A   1      44.986  22.016  23.979  1.00  0.00     0.006 A 
ENDBRANCH  59  73
BRANCH  60  81
ATOM     81  C   UNL A   1      43.478  32.263  30.619  1.00  0.00     0.057 A 
ATOM     82  C   UNL A   1      43.719  31.476  32.210  1.00  0.00     0.134 A 
ATOM     83  C   UNL A   1      42.302  33.524  30.561  1.00  0.00     0.134 A 
ATOM     84  F   UNL A   1      43.872  30.205  31.922  1.00  0.00    -0.206 F 
ATOM     85  C   UNL A   1      42.775  31.940  33.739  1.00  0.00     0.040 A 
ATOM     86  C   UNL A   1      41.308  34.007  31.953  1.00  0.00     0.040 A 
ATOM     87  F   UNL A   1      42.245  34.286  29.456  1.00  0.00    -0.206 F 
ATOM     88  C   UNL A   1      41.524  33.248  33.558  1.00  0.00     0.006 A 
ENDBRANCH  60  81
BRANCH  72  89
ATOM     89  C   UNL A   1      49.557  28.511  28.318  1.00  0.00     0.057 A 
ATOM     90  C   UNL A   1      50.047  27.653  29.299  1.00  0.00     0.134 A 
ATOM     91  C   UNL A   1      50.505  28.971  27.373  1.00  0.00     0.134 A 
ATOM     92  F   UNL A   1      49.290  27.298  30.346  1.00  0.00    -0.206 F 
ATOM     93  C   UNL A   1      51.344  27.134  29.232  1.00  0.00     0.040 A 
ATOM     94  C   UNL A   1      51.813  28.503  27.328  1.00  0.00     0.040 A 
ATOM     95  F   UNL A   1      50.201  29.865  26.423  1.00  0.00    -0.206 F 
ATOM     96  C   UNL A   1      52.221  27.538  28.228  1.00  0.00     0.006 A 
ENDBRANCH  72  89
ENDBRANCH  46  47
ENDBRANCH  39  41
ENDBRANCH  38  39
ENDBRANCH  37  38
ENDBRANCH  36  37
ENDBRANCH  35  36
ENDBRANCH  34  35
ENDBRANCH   1  34
TORSDOF 22
ENDMDL
