MODEL 1
REMARK VINA RESULT:      -8.9      0.000      0.000
REMARK SMILES Cc1ccc(S(=O)(=O)/C=C/C(=O)OCCOCCOCCOCCOC(=O)c2ccc(-c3c4nc(c(-c5c(F)cccc5F)c5ccc([nH]5)c(-c5c(F)cccc5F)c5nc(c(-c6c(F)cccc6F)c6ccc3[nH]6)C=C5)C=C4)cc2)cc1
REMARK SMILES IDX 19 1 18 2 17 3 16 4 15 5 14 6 13 7 11 8 12 9 10 10 9 11 6 12
REMARK SMILES IDX 7 13 8 14 5 15 1 16 2 17 3 18 83 19 4 20 82 21 20 22 21 23
REMARK SMILES IDX 22 24 23 25 24 26 25 27 26 28 27 29 28 30 29 31 81 32 30 33
REMARK SMILES IDX 80 34 31 35 32 36 33 37 74 38 34 39 79 40 73 41 75 42 35 43
REMARK SMILES IDX 78 44 72 45 71 46 36 48 62 49 45 50 61 51 46 52 49 53 60 54
REMARK SMILES IDX 76 55 47 56 48 57 59 59 77 60 50 61 37 62 38 63 43 64 39 65
REMARK SMILES IDX 40 66 42 67 44 68 41 69 63 70 64 71 69 72 65 73 66 74 68 75
REMARK SMILES IDX 70 76 67 77 51 78 52 79 57 80 53 81 54 82 56 83 58 84 55 85
REMARK H PARENT 75 47 49 58
REMARK Flexibility Score: inf
ROOT
ATOM      1  O   UNL A   1      33.130  25.075  26.166  1.00  0.00    -0.377 OA
ENDROOT
BRANCH   1   2
ATOM      2  C   UNL A   1      33.456  23.718  26.458  1.00  0.00     0.188 C 
BRANCH   2   3
ATOM      3  C   UNL A   1      33.587  22.849  25.213  1.00  0.00     0.188 C 
BRANCH   3   4
ATOM      4  O   UNL A   1      33.423  21.447  25.347  1.00  0.00    -0.376 OA
BRANCH   4   5
ATOM      5  C   UNL A   1      34.644  20.706  25.364  1.00  0.00     0.202 C 
BRANCH   5   6
ATOM      6  C   UNL A   1      35.827  21.409  24.681  1.00  0.00     0.261 C 
BRANCH   6   7
ATOM      7  O   UNL A   1      36.989  21.395  25.541  1.00  0.00    -0.460 OA
BRANCH   7   8
ATOM      8  C   UNL A   1      37.537  22.587  25.842  1.00  0.00     0.331 C 
ATOM      9  O   UNL A   1      36.933  23.629  26.057  1.00  0.00    -0.247 OA
BRANCH   8  10
ATOM     10  C   UNL A   1      38.975  22.463  26.179  1.00  0.00     0.106 C 
ATOM     11  C   UNL A   1      39.802  21.494  25.745  1.00  0.00     0.118 C 
BRANCH  11  12
ATOM     12  S   UNL A   1      41.215  21.081  26.692  1.00  0.00     0.200 S 
ATOM     13  O   UNL A   1      42.184  20.444  25.830  1.00  0.00    -0.219 OA
ATOM     14  O   UNL A   1      40.784  20.452  27.934  1.00  0.00    -0.219 OA
BRANCH  12  15
ATOM     15  C   UNL A   1      41.895  22.671  27.178  1.00  0.00     0.071 A 
ATOM     16  C   UNL A   1      44.779  25.569  28.434  1.00  0.00     0.044 C 
ATOM     17  C   UNL A   1      43.697  24.632  27.987  1.00  0.00    -0.051 A 
ATOM     18  C   UNL A   1      42.843  24.022  28.920  1.00  0.00     0.005 A 
ATOM     19  C   UNL A   1      43.531  24.362  26.629  1.00  0.00     0.005 A 
ATOM     20  C   UNL A   1      41.954  23.020  28.523  1.00  0.00     0.021 A 
ATOM     21  C   UNL A   1      42.596  23.417  26.229  1.00  0.00     0.021 A 
ENDBRANCH  12  15
ENDBRANCH  11  12
ENDBRANCH   8  10
ENDBRANCH   7   8
ENDBRANCH   6   7
ENDBRANCH   5   6
ENDBRANCH   4   5
ENDBRANCH   3   4
ENDBRANCH   2   3
ENDBRANCH   1   2
BRANCH   1  22
ATOM     22  C   UNL A   1      33.982  25.580  25.141  1.00  0.00     0.188 C 
BRANCH  22  23
ATOM     23  C   UNL A   1      33.215  26.588  24.307  1.00  0.00     0.188 C 
BRANCH  23  24
ATOM     24  O   UNL A   1      32.788  27.779  24.952  1.00  0.00    -0.376 OA
BRANCH  24  25
ATOM     25  C   UNL A   1      33.746  28.605  25.601  1.00  0.00     0.202 C 
BRANCH  25  26
ATOM     26  C   UNL A   1      33.232  29.383  26.821  1.00  0.00     0.261 C 
BRANCH  26  27
ATOM     27  O   UNL A   1      34.185  30.409  27.170  1.00  0.00    -0.460 OA
BRANCH  27  28
ATOM     28  C   UNL A   1      33.664  31.559  27.682  1.00  0.00     0.338 C 
ATOM     29  O   UNL A   1      32.630  32.091  27.310  1.00  0.00    -0.246 OA
BRANCH  28  30
ATOM     30  C   UNL A   1      34.720  32.268  28.476  1.00  0.00     0.060 A 
ATOM     31  C   UNL A   1      36.001  32.428  27.915  1.00  0.00     0.016 A 
ATOM     32  C   UNL A   1      34.563  32.371  29.855  1.00  0.00     0.016 A 
ATOM     33  C   UNL A   1      37.140  32.487  28.742  1.00  0.00     0.010 A 
ATOM     34  C   UNL A   1      35.694  32.339  30.657  1.00  0.00     0.010 A 
ATOM     35  C   UNL A   1      36.999  32.338  30.122  1.00  0.00    -0.014 A 
BRANCH  35  36
ATOM     36  C   UNL A   1      38.085  31.935  31.055  1.00  0.00     0.031 A 
ATOM     37  C   UNL A   1      38.609  32.914  32.068  1.00  0.00     0.074 A 
ATOM     38  C   UNL A   1      38.333  30.613  31.262  1.00  0.00     0.049 A 
ATOM     39  N   UNL A   1      39.477  32.653  32.988  1.00  0.00    -0.248 NA
ATOM     40  C   UNL A   1      38.151  34.292  32.150  1.00  0.00     0.031 C 
ATOM     41  C   UNL A   1      38.844  30.016  32.495  1.00  0.00     0.029 A 
ATOM     42  N   UNL A   1      38.114  29.487  30.455  1.00  0.00    -0.354 N 
ATOM     43  C   UNL A   1      39.410  33.627  33.968  1.00  0.00     0.074 A 
ATOM     44  C   UNL A   1      38.623  34.662  33.344  1.00  0.00     0.031 C 
ATOM     45  C   UNL A   1      38.987  28.694  32.371  1.00  0.00     0.029 A 
ATOM     46  C   UNL A   1      38.918  28.434  30.966  1.00  0.00     0.049 A 
ATOM     47  H   UNL A   1      37.512  29.436  29.677  1.00  0.00     0.167 HD
ATOM     48  C   UNL A   1      39.913  33.356  35.222  1.00  0.00     0.037 A 
ATOM     49  C   UNL A   1      39.991  27.954  30.267  1.00  0.00     0.037 A 
ATOM     50  C   UNL A   1      40.595  32.025  35.270  1.00  0.00     0.049 A 
ATOM     51  C   UNL A   1      41.331  28.278  30.929  1.00  0.00     0.074 A 
ATOM     52  C   UNL A   1      40.520  30.891  36.069  1.00  0.00     0.029 A 
ATOM     53  N   UNL A   1      41.440  31.645  34.221  1.00  0.00    -0.354 N 
ATOM     54  N   UNL A   1      41.432  29.042  31.990  1.00  0.00    -0.248 NA
ATOM     55  C   UNL A   1      42.646  27.808  30.511  1.00  0.00     0.031 C 
ATOM     56  C   UNL A   1      41.336  29.862  35.511  1.00  0.00     0.029 A 
ATOM     57  C   UNL A   1      41.945  30.369  34.379  1.00  0.00     0.049 A 
ATOM     58  H   UNL A   1      41.652  32.223  33.454  1.00  0.00     0.167 HD
ATOM     59  C   UNL A   1      42.723  29.175  32.411  1.00  0.00     0.074 A 
ATOM     60  C   UNL A   1      43.456  28.413  31.409  1.00  0.00     0.031 C 
ATOM     61  C   UNL A   1      43.042  29.909  33.528  1.00  0.00     0.037 A 
BRANCH  48  62
ATOM     62  C   UNL A   1      39.612  34.186  36.500  1.00  0.00     0.057 A 
ATOM     63  C   UNL A   1      40.056  35.522  36.648  1.00  0.00     0.134 A 
ATOM     64  C   UNL A   1      38.920  33.736  37.644  1.00  0.00     0.134 A 
ATOM     65  F   UNL A   1      40.598  36.206  35.636  1.00  0.00    -0.206 F 
ATOM     66  C   UNL A   1      39.933  36.270  37.838  1.00  0.00     0.040 A 
ATOM     67  C   UNL A   1      38.792  34.467  38.842  1.00  0.00     0.040 A 
ATOM     68  F   UNL A   1      38.250  32.586  37.673  1.00  0.00    -0.206 F 
ATOM     69  C   UNL A   1      39.317  35.737  38.952  1.00  0.00     0.006 A 
ENDBRANCH  48  62
BRANCH  49  70
ATOM     70  C   UNL A   1      39.579  27.681  28.856  1.00  0.00     0.057 A 
ATOM     71  C   UNL A   1      40.113  28.602  27.922  1.00  0.00     0.134 A 
ATOM     72  C   UNL A   1      39.448  26.358  28.417  1.00  0.00     0.134 A 
ATOM     73  F   UNL A   1      40.233  29.896  28.256  1.00  0.00    -0.206 F 
ATOM     74  C   UNL A   1      40.750  28.179  26.749  1.00  0.00     0.040 A 
ATOM     75  C   UNL A   1      40.058  25.930  27.223  1.00  0.00     0.040 A 
ATOM     76  F   UNL A   1      38.926  25.424  29.226  1.00  0.00    -0.206 F 
ATOM     77  C   UNL A   1      40.776  26.826  26.429  1.00  0.00     0.006 A 
ENDBRANCH  49  70
BRANCH  61  78
ATOM     78  C   UNL A   1      44.432  30.339  33.952  1.00  0.00     0.057 A 
ATOM     79  C   UNL A   1      45.214  29.686  34.902  1.00  0.00     0.134 A 
ATOM     80  C   UNL A   1      45.041  31.490  33.381  1.00  0.00     0.134 A 
ATOM     81  F   UNL A   1      44.702  28.736  35.693  1.00  0.00    -0.206 F 
ATOM     82  C   UNL A   1      46.559  30.024  35.121  1.00  0.00     0.040 A 
ATOM     83  C   UNL A   1      46.361  31.863  33.621  1.00  0.00     0.040 A 
ATOM     84  F   UNL A   1      44.397  32.318  32.550  1.00  0.00    -0.206 F 
ATOM     85  C   UNL A   1      47.145  31.096  34.458  1.00  0.00     0.006 A 
ENDBRANCH  61  78
ENDBRANCH  35  36
ENDBRANCH  28  30
ENDBRANCH  27  28
ENDBRANCH  26  27
ENDBRANCH  25  26
ENDBRANCH  24  25
ENDBRANCH  23  24
ENDBRANCH  22  23
ENDBRANCH   1  22
TORSDOF 22
ENDMDL
MODEL 2
REMARK VINA RESULT:      -8.6      3.043      8.061
REMARK SMILES Cc1ccc(S(=O)(=O)/C=C/C(=O)OCCOCCOCCOCCOC(=O)c2ccc(-c3c4nc(c(-c5c(F)cccc5F)c5ccc([nH]5)c(-c5c(F)cccc5F)c5nc(c(-c6c(F)cccc6F)c6ccc3[nH]6)C=C5)C=C4)cc2)cc1
REMARK SMILES IDX 19 1 18 2 17 3 16 4 15 5 14 6 13 7 11 8 12 9 10 10 9 11 6 12
REMARK SMILES IDX 7 13 8 14 5 15 1 16 2 17 3 18 83 19 4 20 82 21 20 22 21 23
REMARK SMILES IDX 22 24 23 25 24 26 25 27 26 28 27 29 28 30 29 31 81 32 30 33
REMARK SMILES IDX 80 34 31 35 32 36 33 37 74 38 34 39 79 40 73 41 75 42 35 43
REMARK SMILES IDX 78 44 72 45 71 46 36 48 62 49 45 50 61 51 46 52 49 53 60 54
REMARK SMILES IDX 76 55 47 56 48 57 59 59 77 60 50 61 37 62 38 63 43 64 39 65
REMARK SMILES IDX 40 66 42 67 44 68 41 69 63 70 64 71 69 72 65 73 66 74 68 75
REMARK SMILES IDX 70 76 67 77 51 78 52 79 57 80 53 81 54 82 56 83 58 84 55 85
REMARK H PARENT 75 47 49 58
REMARK Flexibility Score: inf
ROOT
ATOM      1  O   UNL A   1      34.816  30.707  27.200  1.00  0.00    -0.377 OA
ENDROOT
BRANCH   1   2
ATOM      2  C   UNL A   1      34.989  29.294  27.271  1.00  0.00     0.188 C 
BRANCH   2   3
ATOM      3  C   UNL A   1      34.160  28.534  26.244  1.00  0.00     0.188 C 
BRANCH   3   4
ATOM      4  O   UNL A   1      32.777  28.343  26.497  1.00  0.00    -0.376 OA
BRANCH   4   5
ATOM      5  C   UNL A   1      31.922  29.289  25.854  1.00  0.00     0.202 C 
BRANCH   5   6
ATOM      6  C   UNL A   1      31.059  28.706  24.725  1.00  0.00     0.261 C 
BRANCH   6   7
ATOM      7  O   UNL A   1      31.874  27.941  23.809  1.00  0.00    -0.460 OA
BRANCH   7   8
ATOM      8  C   UNL A   1      31.225  27.179  22.908  1.00  0.00     0.331 C 
ATOM      9  O   UNL A   1      30.619  27.578  21.924  1.00  0.00    -0.247 OA
BRANCH   8  10
ATOM     10  C   UNL A   1      31.553  25.742  23.064  1.00  0.00     0.106 C 
ATOM     11  C   UNL A   1      32.793  25.220  23.106  1.00  0.00     0.118 C 
BRANCH  11  12
ATOM     12  S   UNL A   1      33.042  23.554  22.631  1.00  0.00     0.200 S 
ATOM     13  O   UNL A   1      33.454  23.521  21.246  1.00  0.00    -0.219 OA
ATOM     14  O   UNL A   1      31.918  22.755  23.100  1.00  0.00    -0.219 OA
BRANCH  12  15
ATOM     15  C   UNL A   1      34.445  23.024  23.619  1.00  0.00     0.071 A 
ATOM     16  C   UNL A   1      37.716  20.607  24.943  1.00  0.00     0.044 C 
ATOM     17  C   UNL A   1      36.596  21.525  24.554  1.00  0.00    -0.051 A 
ATOM     18  C   UNL A   1      35.341  21.432  25.176  1.00  0.00     0.005 A 
ATOM     19  C   UNL A   1      36.800  22.486  23.564  1.00  0.00     0.005 A 
ATOM     20  C   UNL A   1      34.253  22.165  24.695  1.00  0.00     0.021 A 
ATOM     21  C   UNL A   1      35.732  23.264  23.136  1.00  0.00     0.021 A 
ENDBRANCH  12  15
ENDBRANCH  11  12
ENDBRANCH   8  10
ENDBRANCH   7   8
ENDBRANCH   6   7
ENDBRANCH   5   6
ENDBRANCH   4   5
ENDBRANCH   3   4
ENDBRANCH   2   3
ENDBRANCH   1   2
BRANCH   1  22
ATOM     22  C   UNL A   1      34.993  31.293  28.488  1.00  0.00     0.188 C 
BRANCH  22  23
ATOM     23  C   UNL A   1      36.040  32.387  28.398  1.00  0.00     0.188 C 
BRANCH  23  24
ATOM     24  O   UNL A   1      35.716  33.539  27.634  1.00  0.00    -0.376 OA
BRANCH  24  25
ATOM     25  C   UNL A   1      34.494  34.222  27.882  1.00  0.00     0.202 C 
BRANCH  25  26
ATOM     26  C   UNL A   1      33.867  33.981  29.263  1.00  0.00     0.261 C 
BRANCH  26  27
ATOM     27  O   UNL A   1      34.562  34.775  30.249  1.00  0.00    -0.460 OA
BRANCH  27  28
ATOM     28  C   UNL A   1      34.487  34.330  31.534  1.00  0.00     0.338 C 
ATOM     29  O   UNL A   1      33.482  34.345  32.228  1.00  0.00    -0.246 OA
BRANCH  28  30
ATOM     30  C   UNL A   1      35.873  34.189  32.089  1.00  0.00     0.060 A 
ATOM     31  C   UNL A   1      36.972  34.435  31.244  1.00  0.00     0.016 A 
ATOM     32  C   UNL A   1      36.057  33.433  33.243  1.00  0.00     0.016 A 
ATOM     33  C   UNL A   1      38.194  33.764  31.449  1.00  0.00     0.010 A 
ATOM     34  C   UNL A   1      37.232  32.710  33.384  1.00  0.00     0.010 A 
ATOM     35  C   UNL A   1      38.297  32.814  32.466  1.00  0.00    -0.014 A 
BRANCH  35  36
ATOM     36  C   UNL A   1      39.319  31.734  32.527  1.00  0.00     0.031 A 
ATOM     37  C   UNL A   1      39.133  30.476  31.726  1.00  0.00     0.074 A 
ATOM     38  C   UNL A   1      40.571  32.022  32.975  1.00  0.00     0.049 A 
ATOM     39  N   UNL A   1      39.990  29.516  31.622  1.00  0.00    -0.248 NA
ATOM     40  C   UNL A   1      37.948  30.215  30.923  1.00  0.00     0.031 C 
ATOM     41  C   UNL A   1      41.808  31.367  32.553  1.00  0.00     0.029 A 
ATOM     42  N   UNL A   1      41.043  33.015  33.846  1.00  0.00    -0.354 N 
ATOM     43  C   UNL A   1      39.685  28.749  30.512  1.00  0.00     0.074 A 
ATOM     44  C   UNL A   1      38.354  29.188  30.170  1.00  0.00     0.031 C 
ATOM     45  C   UNL A   1      42.868  31.875  33.188  1.00  0.00     0.029 A 
ATOM     46  C   UNL A   1      42.332  32.615  34.289  1.00  0.00     0.049 A 
ATOM     47  H   UNL A   1      40.568  33.838  34.103  1.00  0.00     0.167 HD
ATOM     48  C   UNL A   1      40.659  27.950  29.956  1.00  0.00     0.037 A 
ATOM     49  C   UNL A   1      42.557  32.245  35.585  1.00  0.00     0.037 A 
ATOM     50  C   UNL A   1      41.913  27.958  30.772  1.00  0.00     0.049 A 
ATOM     51  C   UNL A   1      42.877  30.758  35.738  1.00  0.00     0.074 A 
ATOM     52  C   UNL A   1      43.263  28.183  30.530  1.00  0.00     0.029 A 
ATOM     53  N   UNL A   1      41.831  27.871  32.166  1.00  0.00    -0.354 N 
ATOM     54  N   UNL A   1      42.819  29.913  34.736  1.00  0.00    -0.248 NA
ATOM     55  C   UNL A   1      43.284  30.074  36.959  1.00  0.00     0.031 C 
ATOM     56  C   UNL A   1      43.972  28.200  31.768  1.00  0.00     0.029 A 
ATOM     57  C   UNL A   1      43.065  27.953  32.780  1.00  0.00     0.049 A 
ATOM     58  H   UNL A   1      40.984  27.763  32.657  1.00  0.00     0.167 HD
ATOM     59  C   UNL A   1      43.162  28.646  35.108  1.00  0.00     0.074 A 
ATOM     60  C   UNL A   1      43.400  28.795  36.537  1.00  0.00     0.031 C 
ATOM     61  C   UNL A   1      43.197  27.616  34.198  1.00  0.00     0.037 A 
BRANCH  48  62
ATOM     62  C   UNL A   1      40.588  27.311  28.542  1.00  0.00     0.057 A 
ATOM     63  C   UNL A   1      39.873  26.115  28.295  1.00  0.00     0.134 A 
ATOM     64  C   UNL A   1      41.219  27.793  27.376  1.00  0.00     0.134 A 
ATOM     65  F   UNL A   1      39.074  25.563  29.212  1.00  0.00    -0.206 F 
ATOM     66  C   UNL A   1      39.892  25.420  27.067  1.00  0.00     0.040 A 
ATOM     67  C   UNL A   1      41.254  27.110  26.143  1.00  0.00     0.040 A 
ATOM     68  F   UNL A   1      41.792  28.993  27.311  1.00  0.00    -0.206 F 
ATOM     69  C   UNL A   1      40.602  25.905  25.987  1.00  0.00     0.006 A 
ENDBRANCH  48  62
BRANCH  49  70
ATOM     70  C   UNL A   1      41.967  33.270  36.501  1.00  0.00     0.057 A 
ATOM     71  C   UNL A   1      40.875  32.788  37.262  1.00  0.00     0.134 A 
ATOM     72  C   UNL A   1      42.804  34.196  37.135  1.00  0.00     0.134 A 
ATOM     73  F   UNL A   1      40.005  31.927  36.711  1.00  0.00    -0.206 F 
ATOM     74  C   UNL A   1      40.799  32.979  38.648  1.00  0.00     0.040 A 
ATOM     75  C   UNL A   1      42.715  34.419  38.521  1.00  0.00     0.040 A 
ATOM     76  F   UNL A   1      43.848  34.726  36.479  1.00  0.00    -0.206 F 
ATOM     77  C   UNL A   1      41.761  33.750  39.290  1.00  0.00     0.006 A 
ENDBRANCH  49  70
BRANCH  61  78
ATOM     78  C   UNL A   1      43.313  26.140  34.518  1.00  0.00     0.057 A 
ATOM     79  C   UNL A   1      42.318  25.373  35.121  1.00  0.00     0.134 A 
ATOM     80  C   UNL A   1      44.501  25.422  34.210  1.00  0.00     0.134 A 
ATOM     81  F   UNL A   1      41.243  25.941  35.679  1.00  0.00    -0.206 F 
ATOM     82  C   UNL A   1      42.413  23.977  35.226  1.00  0.00     0.040 A 
ATOM     83  C   UNL A   1      44.626  24.041  34.349  1.00  0.00     0.040 A 
ATOM     84  F   UNL A   1      45.610  26.012  33.748  1.00  0.00    -0.206 F 
ATOM     85  C   UNL A   1      43.557  23.304  34.812  1.00  0.00     0.006 A 
ENDBRANCH  61  78
ENDBRANCH  35  36
ENDBRANCH  28  30
ENDBRANCH  27  28
ENDBRANCH  26  27
ENDBRANCH  25  26
ENDBRANCH  24  25
ENDBRANCH  23  24
ENDBRANCH  22  23
ENDBRANCH   1  22
TORSDOF 22
ENDMDL
MODEL 3
REMARK VINA RESULT:      -8.2      2.498      7.795
REMARK SMILES Cc1ccc(S(=O)(=O)/C=C/C(=O)OCCOCCOCCOCCOC(=O)c2ccc(-c3c4nc(c(-c5c(F)cccc5F)c5ccc([nH]5)c(-c5c(F)cccc5F)c5nc(c(-c6c(F)cccc6F)c6ccc3[nH]6)C=C5)C=C4)cc2)cc1
REMARK SMILES IDX 19 1 18 2 17 3 16 4 15 5 14 6 13 7 11 8 12 9 10 10 9 11 6 12
REMARK SMILES IDX 7 13 8 14 5 15 1 16 2 17 3 18 83 19 4 20 82 21 20 22 21 23
REMARK SMILES IDX 22 24 23 25 24 26 25 27 26 28 27 29 28 30 29 31 81 32 30 33
REMARK SMILES IDX 80 34 31 35 32 36 33 37 74 38 34 39 79 40 73 41 75 42 35 43
REMARK SMILES IDX 78 44 72 45 71 46 36 48 62 49 45 50 61 51 46 52 49 53 60 54
REMARK SMILES IDX 76 55 47 56 48 57 59 59 77 60 50 61 37 62 38 63 43 64 39 65
REMARK SMILES IDX 40 66 42 67 44 68 41 69 63 70 64 71 69 72 65 73 66 74 68 75
REMARK SMILES IDX 70 76 67 77 51 78 52 79 57 80 53 81 54 82 56 83 58 84 55 85
REMARK H PARENT 75 47 49 58
REMARK Flexibility Score: inf
ROOT
ATOM      1  O   UNL A   1      36.032  24.061  26.069  1.00  0.00    -0.377 OA
ENDROOT
BRANCH   1   2
ATOM      2  C   UNL A   1      35.095  24.551  25.114  1.00  0.00     0.188 C 
BRANCH   2   3
ATOM      3  C   UNL A   1      33.764  24.961  25.731  1.00  0.00     0.188 C 
BRANCH   3   4
ATOM      4  O   UNL A   1      33.404  26.333  25.713  1.00  0.00    -0.376 OA
BRANCH   4   5
ATOM      5  C   UNL A   1      32.159  26.628  26.348  1.00  0.00     0.202 C 
BRANCH   5   6
ATOM      6  C   UNL A   1      31.816  28.124  26.420  1.00  0.00     0.261 C 
BRANCH   6   7
ATOM      7  O   UNL A   1      32.344  28.820  25.269  1.00  0.00    -0.460 OA
BRANCH   7   8
ATOM      8  C   UNL A   1      31.576  28.837  24.163  1.00  0.00     0.331 C 
ATOM      9  O   UNL A   1      30.609  29.559  23.964  1.00  0.00    -0.247 OA
BRANCH   8  10
ATOM     10  C   UNL A   1      32.193  28.074  23.052  1.00  0.00     0.106 C 
ATOM     11  C   UNL A   1      31.645  27.015  22.428  1.00  0.00     0.118 C 
BRANCH  11  12
ATOM     12  S   UNL A   1      32.685  25.842  21.649  1.00  0.00     0.200 S 
ATOM     13  O   UNL A   1      34.053  26.103  22.035  1.00  0.00    -0.219 OA
ATOM     14  O   UNL A   1      32.307  25.735  20.246  1.00  0.00    -0.219 OA
BRANCH  12  15
ATOM     15  C   UNL A   1      32.209  24.276  22.389  1.00  0.00     0.071 A 
ATOM     16  C   UNL A   1      32.030  21.094  25.241  1.00  0.00     0.044 C 
ATOM     17  C   UNL A   1      32.020  22.157  24.183  1.00  0.00    -0.051 A 
ATOM     18  C   UNL A   1      32.871  22.072  23.070  1.00  0.00     0.005 A 
ATOM     19  C   UNL A   1      31.154  23.244  24.301  1.00  0.00     0.005 A 
ATOM     20  C   UNL A   1      32.987  23.143  22.180  1.00  0.00     0.021 A 
ATOM     21  C   UNL A   1      31.221  24.276  23.374  1.00  0.00     0.021 A 
ENDBRANCH  12  15
ENDBRANCH  11  12
ENDBRANCH   8  10
ENDBRANCH   7   8
ENDBRANCH   6   7
ENDBRANCH   5   6
ENDBRANCH   4   5
ENDBRANCH   3   4
ENDBRANCH   2   3
ENDBRANCH   1   2
BRANCH   1  22
ATOM     22  C   UNL A   1      37.156  23.484  25.409  1.00  0.00     0.188 C 
BRANCH  22  23
ATOM     23  C   UNL A   1      38.315  23.397  26.383  1.00  0.00     0.188 C 
BRANCH  23  24
ATOM     24  O   UNL A   1      39.317  22.426  26.119  1.00  0.00    -0.376 OA
BRANCH  24  25
ATOM     25  C   UNL A   1      40.177  22.005  27.170  1.00  0.00     0.202 C 
BRANCH  25  26
ATOM     26  C   UNL A   1      41.424  22.872  27.395  1.00  0.00     0.261 C 
BRANCH  26  27
ATOM     27  O   UNL A   1      41.025  24.164  27.900  1.00  0.00    -0.460 OA
BRANCH  27  28
ATOM     28  C   UNL A   1      41.444  25.243  27.181  1.00  0.00     0.338 C 
ATOM     29  O   UNL A   1      42.508  25.323  26.587  1.00  0.00    -0.246 OA
BRANCH  28  30
ATOM     30  C   UNL A   1      40.607  26.432  27.543  1.00  0.00     0.060 A 
ATOM     31  C   UNL A   1      40.942  27.690  27.006  1.00  0.00     0.016 A 
ATOM     32  C   UNL A   1      39.815  26.369  28.686  1.00  0.00     0.016 A 
ATOM     33  C   UNL A   1      40.658  28.870  27.721  1.00  0.00     0.010 A 
ATOM     34  C   UNL A   1      39.620  27.527  29.424  1.00  0.00     0.010 A 
ATOM     35  C   UNL A   1      40.084  28.786  28.990  1.00  0.00    -0.014 A 
BRANCH  35  36
ATOM     36  C   UNL A   1      40.136  29.854  30.025  1.00  0.00     0.031 A 
ATOM     37  C   UNL A   1      41.309  29.939  30.960  1.00  0.00     0.074 A 
ATOM     38  C   UNL A   1      39.353  30.959  29.886  1.00  0.00     0.049 A 
ATOM     39  N   UNL A   1      41.513  30.873  31.829  1.00  0.00    -0.248 NA
ATOM     40  C   UNL A   1      42.396  28.973  30.959  1.00  0.00     0.031 C 
ATOM     41  C   UNL A   1      39.671  32.304  30.362  1.00  0.00     0.029 A 
ATOM     42  N   UNL A   1      38.133  31.159  29.223  1.00  0.00    -0.354 N 
ATOM     43  C   UNL A   1      42.845  30.867  32.202  1.00  0.00     0.074 A 
ATOM     44  C   UNL A   1      43.322  29.606  31.686  1.00  0.00     0.031 C 
ATOM     45  C   UNL A   1      38.689  33.164  30.077  1.00  0.00     0.029 A 
ATOM     46  C   UNL A   1      37.562  32.353  29.733  1.00  0.00     0.049 A 
ATOM     47  H   UNL A   1      37.746  30.577  28.529  1.00  0.00     0.167 HD
ATOM     48  C   UNL A   1      43.390  31.996  32.772  1.00  0.00     0.037 A 
ATOM     49  C   UNL A   1      36.429  32.331  30.499  1.00  0.00     0.037 A 
ATOM     50  C   UNL A   1      42.354  33.047  33.018  1.00  0.00     0.049 A 
ATOM     51  C   UNL A   1      36.680  32.728  31.953  1.00  0.00     0.074 A 
ATOM     52  C   UNL A   1      42.206  34.396  32.716  1.00  0.00     0.029 A 
ATOM     53  N   UNL A   1      41.111  32.682  33.548  1.00  0.00    -0.354 N 
ATOM     54  N   UNL A   1      37.881  32.947  32.432  1.00  0.00    -0.248 NA
ATOM     55  C   UNL A   1      35.674  32.924  32.990  1.00  0.00     0.031 C 
ATOM     56  C   UNL A   1      40.899  34.826  33.093  1.00  0.00     0.029 A 
ATOM     57  C   UNL A   1      40.243  33.750  33.659  1.00  0.00     0.049 A 
ATOM     58  H   UNL A   1      40.881  31.763  33.814  1.00  0.00     0.167 HD
ATOM     59  C   UNL A   1      37.856  33.304  33.749  1.00  0.00     0.074 A 
ATOM     60  C   UNL A   1      36.436  33.226  34.064  1.00  0.00     0.031 C 
ATOM     61  C   UNL A   1      39.009  33.609  34.432  1.00  0.00     0.037 A 
BRANCH  48  62
ATOM     62  C   UNL A   1      44.911  32.272  32.923  1.00  0.00     0.057 A 
ATOM     63  C   UNL A   1      45.536  32.348  34.191  1.00  0.00     0.134 A 
ATOM     64  C   UNL A   1      45.825  32.505  31.874  1.00  0.00     0.134 A 
ATOM     65  F   UNL A   1      44.902  32.012  35.317  1.00  0.00    -0.206 F 
ATOM     66  C   UNL A   1      46.879  32.734  34.389  1.00  0.00     0.040 A 
ATOM     67  C   UNL A   1      47.167  32.896  32.054  1.00  0.00     0.040 A 
ATOM     68  F   UNL A   1      45.518  32.304  30.595  1.00  0.00    -0.206 F 
ATOM     69  C   UNL A   1      47.699  33.031  33.319  1.00  0.00     0.006 A 
ENDBRANCH  48  62
BRANCH  49  70
ATOM     70  C   UNL A   1      35.396  31.484  29.826  1.00  0.00     0.057 A 
ATOM     71  C   UNL A   1      34.645  32.178  28.847  1.00  0.00     0.134 A 
ATOM     72  C   UNL A   1      35.672  30.138  29.557  1.00  0.00     0.134 A 
ATOM     73  F   UNL A   1      34.307  33.461  29.051  1.00  0.00    -0.206 F 
ATOM     74  C   UNL A   1      34.447  31.658  27.562  1.00  0.00     0.040 A 
ATOM     75  C   UNL A   1      35.447  29.597  28.278  1.00  0.00     0.040 A 
ATOM     76  F   UNL A   1      36.355  29.396  30.442  1.00  0.00    -0.206 F 
ATOM     77  C   UNL A   1      34.906  30.382  27.258  1.00  0.00     0.006 A 
ENDBRANCH  49  70
BRANCH  61  78
ATOM     78  C   UNL A   1      39.147  33.772  35.932  1.00  0.00     0.057 A 
ATOM     79  C   UNL A   1      39.372  34.981  36.586  1.00  0.00     0.134 A 
ATOM     80  C   UNL A   1      39.055  32.646  36.795  1.00  0.00     0.134 A 
ATOM     81  F   UNL A   1      39.712  36.086  35.912  1.00  0.00    -0.206 F 
ATOM     82  C   UNL A   1      39.310  35.096  37.983  1.00  0.00     0.040 A 
ATOM     83  C   UNL A   1      39.035  32.739  38.184  1.00  0.00     0.040 A 
ATOM     84  F   UNL A   1      38.971  31.388  36.345  1.00  0.00    -0.206 F 
ATOM     85  C   UNL A   1      39.111  33.978  38.786  1.00  0.00     0.006 A 
ENDBRANCH  61  78
ENDBRANCH  35  36
ENDBRANCH  28  30
ENDBRANCH  27  28
ENDBRANCH  26  27
ENDBRANCH  25  26
ENDBRANCH  24  25
ENDBRANCH  23  24
ENDBRANCH  22  23
ENDBRANCH   1  22
TORSDOF 22
ENDMDL
