MODEL 1
REMARK VINA RESULT:      -8.9      0.000      0.000
REMARK SMILES CC(C)CCn1cc(C(=O)OCCOCCOCCOCCOC(=O)c2ccc(-c3c4nc(c(-c5c(F)cccc5F)c5ccc([nH]5)c(-c5c(F)cccc5F)c5nc(c(-c6c(F)cccc6F)c6ccc3[nH]6)C=C5)C=C4)cc2)c(-c2ccoc2)n1
REMARK SMILES IDX 16 1 15 2 14 3 13 4 12 5 11 6 9 7 10 8 8 9 6 10 7 11 86 12
REMARK SMILES IDX 80 13 5 14 4 15 2 16 1 17 3 18 81 19 82 20 85 21 83 22 84 23
REMARK SMILES IDX 17 24 18 25 19 26 20 27 21 28 22 29 23 30 24 31 25 32 26 33
REMARK SMILES IDX 27 34 79 35 28 36 78 37 29 38 30 39 31 40 72 41 32 42 77 43
REMARK SMILES IDX 71 44 73 45 33 46 76 47 70 48 69 49 34 51 60 52 43 53 59 54
REMARK SMILES IDX 44 55 47 56 58 57 74 58 45 59 46 60 57 62 75 63 48 64 35 65
REMARK SMILES IDX 36 66 41 67 37 68 38 69 40 70 42 71 39 72 61 73 62 74 67 75
REMARK SMILES IDX 63 76 64 77 66 78 68 79 65 80 49 81 50 82 55 83 51 84 52 85
REMARK SMILES IDX 54 86 56 87 53 88
REMARK H PARENT 73 50 47 61
REMARK Flexibility Score: inf
ROOT
ATOM      1  C   UNL A   1      34.464  29.224  26.773  1.00  0.00     0.188 C 
ENDROOT
BRANCH   1   2
ATOM      2  C   UNL A   1      33.309  29.639  25.829  1.00  0.00     0.188 C 
BRANCH   2   3
ATOM      3  O   UNL A   1      33.016  28.677  24.840  1.00  0.00    -0.376 OA
BRANCH   3   4
ATOM      4  C   UNL A   1      31.969  28.873  23.924  1.00  0.00     0.202 C 
BRANCH   4   5
ATOM      5  C   UNL A   1      32.035  28.166  22.565  1.00  0.00     0.261 C 
BRANCH   5   6
ATOM      6  O   UNL A   1      31.786  26.756  22.555  1.00  0.00    -0.460 OA
BRANCH   6   7
ATOM      7  C   UNL A   1      32.820  25.928  22.215  1.00  0.00     0.342 C 
ATOM      8  O   UNL A   1      33.820  26.280  21.627  1.00  0.00    -0.246 OA
BRANCH   7   9
ATOM      9  C   UNL A   1      32.608  24.602  22.774  1.00  0.00     0.106 A 
ATOM     10  N   UNL A   1      32.399  22.418  22.983  1.00  0.00    -0.271 N 
ATOM     11  C   UNL A   1      32.756  23.399  22.105  1.00  0.00     0.125 A 
ATOM     12  N   UNL A   1      31.957  22.895  24.158  1.00  0.00    -0.172 NA
ATOM     13  C   UNL A   1      32.103  24.221  24.043  1.00  0.00     0.110 A 
BRANCH  10  14
ATOM     14  C   UNL A   1      32.545  20.988  22.799  1.00  0.00     0.144 C 
BRANCH  14  15
ATOM     15  C   UNL A   1      33.008  20.220  24.040  1.00  0.00     0.027 C 
BRANCH  15  16
ATOM     16  C   UNL A   1      32.406  18.814  24.224  1.00  0.00    -0.016 C 
ATOM     17  C   UNL A   1      32.946  17.801  23.213  1.00  0.00     0.007 C 
ATOM     18  C   UNL A   1      32.694  18.311  25.643  1.00  0.00     0.007 C 
ENDBRANCH  15  16
ENDBRANCH  14  15
ENDBRANCH  10  14
BRANCH  13  19
ATOM     19  C   UNL A   1      31.649  25.116  25.095  1.00  0.00     0.041 A 
ATOM     20  C   UNL A   1      32.469  25.725  26.072  1.00  0.00     0.052 A 
ATOM     21  C   UNL A   1      30.355  25.483  25.386  1.00  0.00     0.205 A 
ATOM     22  C   UNL A   1      31.619  26.447  26.879  1.00  0.00     0.195 A 
ATOM     23  O   UNL A   1      30.332  26.315  26.462  1.00  0.00    -0.472 OA
ENDBRANCH  13  19
ENDBRANCH   7   9
ENDBRANCH   6   7
ENDBRANCH   5   6
ENDBRANCH   4   5
ENDBRANCH   3   4
ENDBRANCH   2   3
ENDBRANCH   1   2
BRANCH   1  24
ATOM     24  O   UNL A   1      34.933  30.045  27.840  1.00  0.00    -0.377 OA
BRANCH  24  25
ATOM     25  C   UNL A   1      34.445  31.367  27.994  1.00  0.00     0.188 C 
BRANCH  25  26
ATOM     26  C   UNL A   1      35.471  32.525  27.960  1.00  0.00     0.188 C 
BRANCH  26  27
ATOM     27  O   UNL A   1      35.971  32.998  29.196  1.00  0.00    -0.376 OA
BRANCH  27  28
ATOM     28  C   UNL A   1      35.200  33.514  30.263  1.00  0.00     0.202 C 
BRANCH  28  29
ATOM     29  C   UNL A   1      34.947  32.808  31.586  1.00  0.00     0.261 C 
BRANCH  29  30
ATOM     30  O   UNL A   1      35.331  31.460  31.633  1.00  0.00    -0.460 OA
BRANCH  30  31
ATOM     31  C   UNL A   1      36.437  31.242  32.360  1.00  0.00     0.338 C 
ATOM     32  O   UNL A   1      36.696  31.653  33.475  1.00  0.00    -0.246 OA
BRANCH  31  33
ATOM     33  C   UNL A   1      37.388  30.563  31.491  1.00  0.00     0.060 A 
ATOM     34  C   UNL A   1      37.313  29.172  31.476  1.00  0.00     0.016 A 
ATOM     35  C   UNL A   1      38.536  31.279  31.121  1.00  0.00     0.016 A 
ATOM     36  C   UNL A   1      38.490  28.484  31.340  1.00  0.00     0.010 A 
ATOM     37  C   UNL A   1      39.713  30.594  31.031  1.00  0.00     0.010 A 
ATOM     38  C   UNL A   1      39.679  29.215  31.221  1.00  0.00    -0.014 A 
BRANCH  38  39
ATOM     39  C   UNL A   1      40.909  28.483  31.044  1.00  0.00     0.031 A 
ATOM     40  C   UNL A   1      41.627  28.424  32.332  1.00  0.00     0.074 A 
ATOM     41  C   UNL A   1      41.217  27.866  29.886  1.00  0.00     0.049 A 
ATOM     42  N   UNL A   1      42.700  29.067  32.646  1.00  0.00    -0.248 NA
ATOM     43  C   UNL A   1      40.944  27.817  33.495  1.00  0.00     0.031 C 
ATOM     44  C   UNL A   1      40.356  27.744  28.703  1.00  0.00     0.029 A 
ATOM     45  N   UNL A   1      42.305  27.109  29.557  1.00  0.00    -0.354 N 
ATOM     46  C   UNL A   1      42.997  28.636  33.934  1.00  0.00     0.074 A 
ATOM     47  C   UNL A   1      41.772  28.143  34.489  1.00  0.00     0.031 C 
ATOM     48  C   UNL A   1      40.841  26.776  27.896  1.00  0.00     0.029 A 
ATOM     49  C   UNL A   1      42.100  26.299  28.435  1.00  0.00     0.049 A 
ATOM     50  H   UNL A   1      43.151  27.130  30.062  1.00  0.00     0.167 HD
ATOM     51  C   UNL A   1      44.279  28.270  34.204  1.00  0.00     0.037 A 
ATOM     52  C   UNL A   1      42.890  25.264  28.047  1.00  0.00     0.037 A 
ATOM     53  C   UNL A   1      45.172  28.848  33.226  1.00  0.00     0.049 A 
ATOM     54  C   UNL A   1      44.216  25.467  28.675  1.00  0.00     0.074 A 
ATOM     55  C   UNL A   1      45.641  30.101  32.900  1.00  0.00     0.029 A 
ATOM     56  N   UNL A   1      45.322  28.060  32.117  1.00  0.00    -0.354 N 
ATOM     57  N   UNL A   1      45.030  26.425  28.328  1.00  0.00    -0.248 NA
ATOM     58  C   UNL A   1      44.496  24.842  29.964  1.00  0.00     0.031 C 
ATOM     59  C   UNL A   1      46.028  30.043  31.528  1.00  0.00     0.029 A 
ATOM     60  C   UNL A   1      45.843  28.745  31.060  1.00  0.00     0.049 A 
ATOM     61  H   UNL A   1      45.080  27.106  32.086  1.00  0.00     0.167 HD
ATOM     62  C   UNL A   1      45.606  26.820  29.519  1.00  0.00     0.074 A 
ATOM     63  C   UNL A   1      45.390  25.712  30.442  1.00  0.00     0.031 C 
ATOM     64  C   UNL A   1      45.873  28.139  29.749  1.00  0.00     0.037 A 
BRANCH  51  65
ATOM     65  C   UNL A   1      44.644  26.955  34.881  1.00  0.00     0.057 A 
ATOM     66  C   UNL A   1      45.560  26.998  35.949  1.00  0.00     0.134 A 
ATOM     67  C   UNL A   1      44.423  25.664  34.350  1.00  0.00     0.134 A 
ATOM     68  F   UNL A   1      45.873  28.162  36.537  1.00  0.00    -0.206 F 
ATOM     69  C   UNL A   1      46.254  25.865  36.393  1.00  0.00     0.040 A 
ATOM     70  C   UNL A   1      45.079  24.522  34.814  1.00  0.00     0.040 A 
ATOM     71  F   UNL A   1      43.640  25.428  33.293  1.00  0.00    -0.206 F 
ATOM     72  C   UNL A   1      46.022  24.623  35.819  1.00  0.00     0.006 A 
ENDBRANCH  51  65
BRANCH  52  73
ATOM     73  C   UNL A   1      42.532  23.988  27.382  1.00  0.00     0.057 A 
ATOM     74  C   UNL A   1      42.804  23.782  26.019  1.00  0.00     0.134 A 
ATOM     75  C   UNL A   1      42.194  22.840  28.118  1.00  0.00     0.134 A 
ATOM     76  F   UNL A   1      43.165  24.807  25.233  1.00  0.00    -0.206 F 
ATOM     77  C   UNL A   1      42.787  22.508  25.435  1.00  0.00     0.040 A 
ATOM     78  C   UNL A   1      42.167  21.563  27.545  1.00  0.00     0.040 A 
ATOM     79  F   UNL A   1      41.970  22.902  29.438  1.00  0.00    -0.206 F 
ATOM     80  C   UNL A   1      42.483  21.390  26.204  1.00  0.00     0.006 A 
ENDBRANCH  52  73
BRANCH  64  81
ATOM     81  C   UNL A   1      46.083  29.022  28.562  1.00  0.00     0.057 A 
ATOM     82  C   UNL A   1      47.282  29.137  27.846  1.00  0.00     0.134 A 
ATOM     83  C   UNL A   1      44.984  29.748  28.092  1.00  0.00     0.134 A 
ATOM     84  F   UNL A   1      48.362  28.416  28.177  1.00  0.00    -0.206 F 
ATOM     85  C   UNL A   1      47.387  29.981  26.735  1.00  0.00     0.040 A 
ATOM     86  C   UNL A   1      45.065  30.563  26.965  1.00  0.00     0.040 A 
ATOM     87  F   UNL A   1      43.796  29.651  28.710  1.00  0.00    -0.206 F 
ATOM     88  C   UNL A   1      46.276  30.694  26.290  1.00  0.00     0.006 A 
ENDBRANCH  64  81
ENDBRANCH  38  39
ENDBRANCH  31  33
ENDBRANCH  30  31
ENDBRANCH  29  30
ENDBRANCH  28  29
ENDBRANCH  27  28
ENDBRANCH  26  27
ENDBRANCH  25  26
ENDBRANCH  24  25
ENDBRANCH   1  24
TORSDOF 24
ENDMDL
MODEL 2
REMARK VINA RESULT:      -8.5      0.971      2.055
REMARK SMILES CC(C)CCn1cc(C(=O)OCCOCCOCCOCCOC(=O)c2ccc(-c3c4nc(c(-c5c(F)cccc5F)c5ccc([nH]5)c(-c5c(F)cccc5F)c5nc(c(-c6c(F)cccc6F)c6ccc3[nH]6)C=C5)C=C4)cc2)c(-c2ccoc2)n1
REMARK SMILES IDX 16 1 15 2 14 3 13 4 12 5 11 6 9 7 10 8 8 9 6 10 7 11 86 12
REMARK SMILES IDX 80 13 5 14 4 15 2 16 1 17 3 18 81 19 82 20 85 21 83 22 84 23
REMARK SMILES IDX 17 24 18 25 19 26 20 27 21 28 22 29 23 30 24 31 25 32 26 33
REMARK SMILES IDX 27 34 79 35 28 36 78 37 29 38 30 39 31 40 72 41 32 42 77 43
REMARK SMILES IDX 71 44 73 45 33 46 76 47 70 48 69 49 34 51 60 52 43 53 59 54
REMARK SMILES IDX 44 55 47 56 58 57 74 58 45 59 46 60 57 62 75 63 48 64 35 65
REMARK SMILES IDX 36 66 41 67 37 68 38 69 40 70 42 71 39 72 61 73 62 74 67 75
REMARK SMILES IDX 63 76 64 77 66 78 68 79 65 80 49 81 50 82 55 83 51 84 52 85
REMARK SMILES IDX 54 86 56 87 53 88
REMARK H PARENT 73 50 47 61
REMARK Flexibility Score: inf
ROOT
ATOM      1  C   UNL A   1      35.309  29.923  27.727  1.00  0.00     0.188 C 
ENDROOT
BRANCH   1   2
ATOM      2  C   UNL A   1      33.907  30.184  27.122  1.00  0.00     0.188 C 
BRANCH   2   3
ATOM      3  O   UNL A   1      32.936  29.244  27.525  1.00  0.00    -0.376 OA
BRANCH   3   4
ATOM      4  C   UNL A   1      31.891  28.866  26.665  1.00  0.00     0.202 C 
BRANCH   4   5
ATOM      5  C   UNL A   1      31.403  27.413  26.691  1.00  0.00     0.261 C 
BRANCH   5   6
ATOM      6  O   UNL A   1      31.250  26.758  25.426  1.00  0.00    -0.460 OA
BRANCH   6   7
ATOM      7  C   UNL A   1      30.446  25.653  25.373  1.00  0.00     0.342 C 
ATOM      8  O   UNL A   1      29.234  25.683  25.351  1.00  0.00    -0.246 OA
BRANCH   7   9
ATOM      9  C   UNL A   1      31.251  24.452  25.213  1.00  0.00     0.106 A 
ATOM     10  N   UNL A   1      32.254  22.528  25.597  1.00  0.00    -0.271 N 
ATOM     11  C   UNL A   1      31.352  23.408  26.117  1.00  0.00     0.125 A 
ATOM     12  N   UNL A   1      32.809  22.955  24.450  1.00  0.00    -0.172 NA
ATOM     13  C   UNL A   1      32.186  24.113  24.202  1.00  0.00     0.110 A 
BRANCH  10  14
ATOM     14  C   UNL A   1      32.570  21.205  26.097  1.00  0.00     0.144 C 
BRANCH  14  15
ATOM     15  C   UNL A   1      33.735  20.507  25.390  1.00  0.00     0.027 C 
BRANCH  15  16
ATOM     16  C   UNL A   1      33.378  19.227  24.610  1.00  0.00    -0.016 C 
ATOM     17  C   UNL A   1      32.792  18.132  25.504  1.00  0.00     0.007 C 
ATOM     18  C   UNL A   1      32.373  19.563  23.502  1.00  0.00     0.007 C 
ENDBRANCH  15  16
ENDBRANCH  14  15
ENDBRANCH  10  14
BRANCH  13  19
ATOM     19  C   UNL A   1      32.572  24.942  23.071  1.00  0.00     0.041 A 
ATOM     20  C   UNL A   1      31.713  25.384  22.041  1.00  0.00     0.052 A 
ATOM     21  C   UNL A   1      33.833  25.389  22.749  1.00  0.00     0.205 A 
ATOM     22  C   UNL A   1      32.506  26.097  21.170  1.00  0.00     0.195 A 
ATOM     23  O   UNL A   1      33.796  26.115  21.599  1.00  0.00    -0.472 OA
ENDBRANCH  13  19
ENDBRANCH   7   9
ENDBRANCH   6   7
ENDBRANCH   5   6
ENDBRANCH   4   5
ENDBRANCH   3   4
ENDBRANCH   2   3
ENDBRANCH   1   2
BRANCH   1  24
ATOM     24  O   UNL A   1      35.974  30.848  28.582  1.00  0.00    -0.377 OA
BRANCH  24  25
ATOM     25  C   UNL A   1      35.290  31.986  29.077  1.00  0.00     0.188 C 
BRANCH  25  26
ATOM     26  C   UNL A   1      36.096  33.294  29.259  1.00  0.00     0.188 C 
BRANCH  26  27
ATOM     27  O   UNL A   1      36.473  33.658  30.574  1.00  0.00    -0.376 OA
BRANCH  27  28
ATOM     28  C   UNL A   1      35.597  33.851  31.667  1.00  0.00     0.202 C 
BRANCH  28  29
ATOM     29  C   UNL A   1      35.337  32.841  32.773  1.00  0.00     0.261 C 
BRANCH  29  30
ATOM     30  O   UNL A   1      35.792  31.539  32.521  1.00  0.00    -0.460 OA
BRANCH  30  31
ATOM     31  C   UNL A   1      36.935  31.237  33.157  1.00  0.00     0.338 C 
ATOM     32  O   UNL A   1      37.293  31.588  34.265  1.00  0.00    -0.246 OA
BRANCH  31  33
ATOM     33  C   UNL A   1      37.785  30.550  32.196  1.00  0.00     0.060 A 
ATOM     34  C   UNL A   1      37.674  29.161  32.168  1.00  0.00     0.016 A 
ATOM     35  C   UNL A   1      38.913  31.243  31.733  1.00  0.00     0.016 A 
ATOM     36  C   UNL A   1      38.816  28.447  31.916  1.00  0.00     0.010 A 
ATOM     37  C   UNL A   1      40.059  30.532  31.528  1.00  0.00     0.010 A 
ATOM     38  C   UNL A   1      40.008  29.151  31.701  1.00  0.00    -0.014 A 
BRANCH  38  39
ATOM     39  C   UNL A   1      41.197  28.392  31.402  1.00  0.00     0.031 A 
ATOM     40  C   UNL A   1      42.008  28.262  32.629  1.00  0.00     0.074 A 
ATOM     41  C   UNL A   1      41.398  27.814  30.202  1.00  0.00     0.049 A 
ATOM     42  N   UNL A   1      43.121  28.862  32.883  1.00  0.00    -0.248 NA
ATOM     43  C   UNL A   1      41.397  27.629  33.817  1.00  0.00     0.031 C 
ATOM     44  C   UNL A   1      40.447  27.763  29.085  1.00  0.00     0.029 A 
ATOM     45  N   UNL A   1      42.434  27.040  29.763  1.00  0.00    -0.354 N 
ATOM     46  C   UNL A   1      43.502  28.372  34.128  1.00  0.00     0.074 A 
ATOM     47  C   UNL A   1      42.307  27.892  34.756  1.00  0.00     0.031 C 
ATOM     48  C   UNL A   1      40.839  26.814  28.207  1.00  0.00     0.029 A 
ATOM     49  C   UNL A   1      42.120  26.281  28.630  1.00  0.00     0.049 A 
ATOM     50  H   UNL A   1      43.316  27.017  30.201  1.00  0.00     0.167 HD
ATOM     51  C   UNL A   1      44.788  27.960  34.285  1.00  0.00     0.037 A 
ATOM     52  C   UNL A   1      42.846  25.241  28.145  1.00  0.00     0.037 A 
ATOM     53  C   UNL A   1      45.622  28.551  33.263  1.00  0.00     0.049 A 
ATOM     54  C   UNL A   1      44.221  25.381  28.676  1.00  0.00     0.074 A 
ATOM     55  C   UNL A   1      46.104  29.803  32.950  1.00  0.00     0.029 A 
ATOM     56  N   UNL A   1      45.664  27.804  32.118  1.00  0.00    -0.354 N 
ATOM     57  N   UNL A   1      45.036  26.329  28.304  1.00  0.00    -0.248 NA
ATOM     58  C   UNL A   1      44.578  24.698  29.915  1.00  0.00     0.031 C 
ATOM     59  C   UNL A   1      46.384  29.789  31.550  1.00  0.00     0.029 A 
ATOM     60  C   UNL A   1      46.125  28.515  31.050  1.00  0.00     0.049 A 
ATOM     61  H   UNL A   1      45.390  26.859  32.070  1.00  0.00     0.167 HD
ATOM     62  C   UNL A   1      45.712  26.661  29.461  1.00  0.00     0.074 A 
ATOM     63  C   UNL A   1      45.532  25.523  30.356  1.00  0.00     0.031 C 
ATOM     64  C   UNL A   1      46.037  27.962  29.719  1.00  0.00     0.037 A 
BRANCH  51  65
ATOM     65  C   UNL A   1      45.163  26.609  34.883  1.00  0.00     0.057 A 
ATOM     66  C   UNL A   1      46.187  26.580  35.848  1.00  0.00     0.134 A 
ATOM     67  C   UNL A   1      44.829  25.347  34.342  1.00  0.00     0.134 A 
ATOM     68  F   UNL A   1      46.611  27.710  36.432  1.00  0.00    -0.206 F 
ATOM     69  C   UNL A   1      46.871  25.404  36.184  1.00  0.00     0.040 A 
ATOM     70  C   UNL A   1      45.478  24.164  34.701  1.00  0.00     0.040 A 
ATOM     71  F   UNL A   1      43.930  25.179  33.368  1.00  0.00    -0.206 F 
ATOM     72  C   UNL A   1      46.525  24.192  35.603  1.00  0.00     0.006 A 
ENDBRANCH  51  65
BRANCH  52  73
ATOM     73  C   UNL A   1      42.400  24.002  27.462  1.00  0.00     0.057 A 
ATOM     74  C   UNL A   1      42.551  23.848  26.073  1.00  0.00     0.134 A 
ATOM     75  C   UNL A   1      42.093  22.833  28.177  1.00  0.00     0.134 A 
ATOM     76  F   UNL A   1      42.872  24.896  25.301  1.00  0.00    -0.206 F 
ATOM     77  C   UNL A   1      42.451  22.600  25.442  1.00  0.00     0.040 A 
ATOM     78  C   UNL A   1      41.985  21.582  27.558  1.00  0.00     0.040 A 
ATOM     79  F   UNL A   1      41.983  22.845  29.513  1.00  0.00    -0.206 F 
ATOM     80  C   UNL A   1      42.183  21.458  26.189  1.00  0.00     0.006 A 
ENDBRANCH  52  73
BRANCH  64  81
ATOM     81  C   UNL A   1      46.184  28.884  28.553  1.00  0.00     0.057 A 
ATOM     82  C   UNL A   1      45.150  29.643  27.990  1.00  0.00     0.134 A 
ATOM     83  C   UNL A   1      47.465  29.047  28.014  1.00  0.00     0.134 A 
ATOM     84  F   UNL A   1      43.909  29.610  28.495  1.00  0.00    -0.206 F 
ATOM     85  C   UNL A   1      45.380  30.493  26.903  1.00  0.00     0.040 A 
ATOM     86  C   UNL A   1      47.714  29.918  26.955  1.00  0.00     0.040 A 
ATOM     87  F   UNL A   1      48.507  28.377  28.533  1.00  0.00    -0.206 F 
ATOM     88  C   UNL A   1      46.666  30.634  26.386  1.00  0.00     0.006 A 
ENDBRANCH  64  81
ENDBRANCH  38  39
ENDBRANCH  31  33
ENDBRANCH  30  31
ENDBRANCH  29  30
ENDBRANCH  28  29
ENDBRANCH  27  28
ENDBRANCH  26  27
ENDBRANCH  25  26
ENDBRANCH  24  25
ENDBRANCH   1  24
TORSDOF 24
ENDMDL
MODEL 3
REMARK VINA RESULT:      -8.3      5.439     10.080
REMARK SMILES CC(C)CCn1cc(C(=O)OCCOCCOCCOCCOC(=O)c2ccc(-c3c4nc(c(-c5c(F)cccc5F)c5ccc([nH]5)c(-c5c(F)cccc5F)c5nc(c(-c6c(F)cccc6F)c6ccc3[nH]6)C=C5)C=C4)cc2)c(-c2ccoc2)n1
REMARK SMILES IDX 16 1 15 2 14 3 13 4 12 5 11 6 9 7 10 8 8 9 6 10 7 11 86 12
REMARK SMILES IDX 80 13 5 14 4 15 2 16 1 17 3 18 81 19 82 20 85 21 83 22 84 23
REMARK SMILES IDX 17 24 18 25 19 26 20 27 21 28 22 29 23 30 24 31 25 32 26 33
REMARK SMILES IDX 27 34 79 35 28 36 78 37 29 38 30 39 31 40 72 41 32 42 77 43
REMARK SMILES IDX 71 44 73 45 33 46 76 47 70 48 69 49 34 51 60 52 43 53 59 54
REMARK SMILES IDX 44 55 47 56 58 57 74 58 45 59 46 60 57 62 75 63 48 64 35 65
REMARK SMILES IDX 36 66 41 67 37 68 38 69 40 70 42 71 39 72 61 73 62 74 67 75
REMARK SMILES IDX 63 76 64 77 66 78 68 79 65 80 49 81 50 82 55 83 51 84 52 85
REMARK SMILES IDX 54 86 56 87 53 88
REMARK H PARENT 73 50 47 61
REMARK Flexibility Score: inf
ROOT
ATOM      1  C   UNL A   1      45.236  21.051  24.414  1.00  0.00     0.188 C 
ENDROOT
BRANCH   1   2
ATOM      2  C   UNL A   1      43.804  21.243  24.973  1.00  0.00     0.188 C 
BRANCH   2   3
ATOM      3  O   UNL A   1      43.079  20.039  25.091  1.00  0.00    -0.376 OA
BRANCH   3   4
ATOM      4  C   UNL A   1      43.107  19.288  26.277  1.00  0.00     0.202 C 
BRANCH   4   5
ATOM      5  C   UNL A   1      41.975  19.470  27.294  1.00  0.00     0.261 C 
BRANCH   5   6
ATOM      6  O   UNL A   1      40.802  20.156  26.842  1.00  0.00    -0.460 OA
BRANCH   6   7
ATOM      7  C   UNL A   1      40.712  21.498  27.091  1.00  0.00     0.342 C 
ATOM      8  O   UNL A   1      41.568  22.155  27.644  1.00  0.00    -0.246 OA
BRANCH   7   9
ATOM      9  C   UNL A   1      39.509  22.044  26.481  1.00  0.00     0.106 A 
ATOM     10  N   UNL A   1      37.667  22.255  25.290  1.00  0.00    -0.271 N 
ATOM     11  C   UNL A   1      38.600  21.349  25.701  1.00  0.00     0.125 A 
ATOM     12  N   UNL A   1      37.939  23.510  25.684  1.00  0.00    -0.172 NA
ATOM     13  C   UNL A   1      39.046  23.383  26.426  1.00  0.00     0.110 A 
BRANCH  10  14
ATOM     14  C   UNL A   1      36.428  21.975  24.592  1.00  0.00     0.144 C 
BRANCH  14  15
ATOM     15  C   UNL A   1      35.951  23.084  23.650  1.00  0.00     0.027 C 
BRANCH  15  16
ATOM     16  C   UNL A   1      34.538  23.635  23.923  1.00  0.00    -0.016 C 
ATOM     17  C   UNL A   1      33.976  24.434  22.745  1.00  0.00     0.007 C 
ATOM     18  C   UNL A   1      33.587  22.478  24.247  1.00  0.00     0.007 C 
ENDBRANCH  15  16
ENDBRANCH  14  15
ENDBRANCH  10  14
BRANCH  13  19
ATOM     19  C   UNL A   1      39.716  24.551  26.974  1.00  0.00     0.041 A 
ATOM     20  C   UNL A   1      39.612  25.014  28.305  1.00  0.00     0.052 A 
ATOM     21  C   UNL A   1      40.507  25.457  26.305  1.00  0.00     0.205 A 
ATOM     22  C   UNL A   1      40.371  26.160  28.365  1.00  0.00     0.195 A 
ATOM     23  O   UNL A   1      40.930  26.431  27.155  1.00  0.00    -0.472 OA
ENDBRANCH  13  19
ENDBRANCH   7   9
ENDBRANCH   6   7
ENDBRANCH   5   6
ENDBRANCH   4   5
ENDBRANCH   3   4
ENDBRANCH   2   3
ENDBRANCH   1   2
BRANCH   1  24
ATOM     24  O   UNL A   1      46.404  21.524  25.080  1.00  0.00    -0.377 OA
BRANCH  24  25
ATOM     25  C   UNL A   1      46.381  22.757  25.777  1.00  0.00     0.188 C 
BRANCH  25  26
ATOM     26  C   UNL A   1      46.307  24.058  24.942  1.00  0.00     0.188 C 
BRANCH  26  27
ATOM     27  O   UNL A   1      47.172  25.120  25.299  1.00  0.00    -0.376 OA
BRANCH  27  28
ATOM     28  C   UNL A   1      46.790  26.328  25.928  1.00  0.00     0.202 C 
BRANCH  28  29
ATOM     29  C   UNL A   1      47.627  27.093  26.941  1.00  0.00     0.261 C 
BRANCH  29  30
ATOM     30  O   UNL A   1      46.902  27.802  27.910  1.00  0.00    -0.460 OA
BRANCH  30  31
ATOM     31  C   UNL A   1      46.500  27.042  28.941  1.00  0.00     0.338 C 
ATOM     32  O   UNL A   1      47.005  26.019  29.362  1.00  0.00    -0.246 OA
BRANCH  31  33
ATOM     33  C   UNL A   1      45.209  27.561  29.370  1.00  0.00     0.060 A 
ATOM     34  C   UNL A   1      44.310  27.875  28.354  1.00  0.00     0.016 A 
ATOM     35  C   UNL A   1      45.140  28.112  30.659  1.00  0.00     0.016 A 
ATOM     36  C   UNL A   1      43.490  28.953  28.554  1.00  0.00     0.010 A 
ATOM     37  C   UNL A   1      44.357  29.214  30.840  1.00  0.00     0.010 A 
ATOM     38  C   UNL A   1      43.604  29.662  29.758  1.00  0.00    -0.014 A 
BRANCH  38  39
ATOM     39  C   UNL A   1      42.713  30.775  29.975  1.00  0.00     0.031 A 
ATOM     40  C   UNL A   1      43.426  32.031  29.670  1.00  0.00     0.074 A 
ATOM     41  C   UNL A   1      41.412  30.605  30.277  1.00  0.00     0.049 A 
ATOM     42  N   UNL A   1      43.839  32.908  30.522  1.00  0.00    -0.248 NA
ATOM     43  C   UNL A   1      43.997  32.211  28.318  1.00  0.00     0.031 C 
ATOM     44  C   UNL A   1      40.684  29.331  30.329  1.00  0.00     0.029 A 
ATOM     45  N   UNL A   1      40.428  31.532  30.478  1.00  0.00    -0.354 N 
ATOM     46  C   UNL A   1      44.397  33.913  29.740  1.00  0.00     0.074 A 
ATOM     47  C   UNL A   1      44.734  33.310  28.485  1.00  0.00     0.031 C 
ATOM     48  C   UNL A   1      39.355  29.573  30.305  1.00  0.00     0.029 A 
ATOM     49  C   UNL A   1      39.137  31.006  30.361  1.00  0.00     0.049 A 
ATOM     50  H   UNL A   1      40.611  32.478  30.683  1.00  0.00     0.167 HD
ATOM     51  C   UNL A   1      44.056  35.201  30.018  1.00  0.00     0.037 A 
ATOM     52  C   UNL A   1      37.993  31.729  30.242  1.00  0.00     0.037 A 
ATOM     53  C   UNL A   1      43.550  35.294  31.368  1.00  0.00     0.049 A 
ATOM     54  C   UNL A   1      38.277  33.086  30.763  1.00  0.00     0.074 A 
ATOM     55  C   UNL A   1      44.054  35.193  32.646  1.00  0.00     0.029 A 
ATOM     56  N   UNL A   1      42.204  35.063  31.445  1.00  0.00    -0.354 N 
ATOM     57  N   UNL A   1      38.490  33.335  32.025  1.00  0.00    -0.248 NA
ATOM     58  C   UNL A   1      38.709  34.127  29.837  1.00  0.00     0.031 C 
ATOM     59  C   UNL A   1      42.956  34.836  33.485  1.00  0.00     0.029 A 
ATOM     60  C   UNL A   1      41.797  34.784  32.715  1.00  0.00     0.049 A 
ATOM     61  H   UNL A   1      41.598  35.094  30.670  1.00  0.00     0.167 HD
ATOM     62  C   UNL A   1      39.470  34.308  32.012  1.00  0.00     0.074 A 
ATOM     63  C   UNL A   1      39.431  34.881  30.672  1.00  0.00     0.031 C 
ATOM     64  C   UNL A   1      40.456  34.304  32.956  1.00  0.00     0.037 A 
BRANCH  51  65
ATOM     65  C   UNL A   1      43.575  36.182  28.957  1.00  0.00     0.057 A 
ATOM     66  C   UNL A   1      44.134  37.474  28.955  1.00  0.00     0.134 A 
ATOM     67  C   UNL A   1      42.398  36.051  28.186  1.00  0.00     0.134 A 
ATOM     68  F   UNL A   1      45.245  37.741  29.657  1.00  0.00    -0.206 F 
ATOM     69  C   UNL A   1      43.527  38.557  28.305  1.00  0.00     0.040 A 
ATOM     70  C   UNL A   1      41.808  37.116  27.501  1.00  0.00     0.040 A 
ATOM     71  F   UNL A   1      41.685  34.923  28.117  1.00  0.00    -0.206 F 
ATOM     72  C   UNL A   1      42.354  38.383  27.583  1.00  0.00     0.006 A 
ENDBRANCH  51  65
BRANCH  52  73
ATOM     73  C   UNL A   1      36.748  31.429  29.495  1.00  0.00     0.057 A 
ATOM     74  C   UNL A   1      35.532  32.048  29.836  1.00  0.00     0.134 A 
ATOM     75  C   UNL A   1      36.769  30.766  28.257  1.00  0.00     0.134 A 
ATOM     76  F   UNL A   1      35.414  32.731  30.984  1.00  0.00    -0.206 F 
ATOM     77  C   UNL A   1      34.425  32.049  28.977  1.00  0.00     0.040 A 
ATOM     78  C   UNL A   1      35.668  30.755  27.392  1.00  0.00     0.040 A 
ATOM     79  F   UNL A   1      37.888  30.188  27.798  1.00  0.00    -0.206 F 
ATOM     80  C   UNL A   1      34.496  31.414  27.742  1.00  0.00     0.006 A 
ENDBRANCH  52  73
BRANCH  64  81
ATOM     81  C   UNL A   1      40.158  33.651  34.267  1.00  0.00     0.057 A 
ATOM     82  C   UNL A   1      40.446  32.318  34.588  1.00  0.00     0.134 A 
ATOM     83  C   UNL A   1      39.597  34.446  35.274  1.00  0.00     0.134 A 
ATOM     84  F   UNL A   1      41.057  31.509  33.712  1.00  0.00    -0.206 F 
ATOM     85  C   UNL A   1      40.143  31.791  35.848  1.00  0.00     0.040 A 
ATOM     86  C   UNL A   1      39.325  33.943  36.544  1.00  0.00     0.040 A 
ATOM     87  F   UNL A   1      39.333  35.741  35.042  1.00  0.00    -0.206 F 
ATOM     88  C   UNL A   1      39.584  32.606  36.830  1.00  0.00     0.006 A 
ENDBRANCH  64  81
ENDBRANCH  38  39
ENDBRANCH  31  33
ENDBRANCH  30  31
ENDBRANCH  29  30
ENDBRANCH  28  29
ENDBRANCH  27  28
ENDBRANCH  26  27
ENDBRANCH  25  26
ENDBRANCH  24  25
ENDBRANCH   1  24
TORSDOF 24
ENDMDL
