MODEL 1
REMARK VINA RESULT:     -10.6      0.000      0.000
REMARK SMILES O=C(OCCOCCOCCOCCOC(=O)[C@@H]1CCCC[C@@H]1Sc1ccncc1)c1ccc(-c2c3nc(c(-c4c(F)cccc4F)c4ccc([nH]4)c(-c4c(F)cccc4F)c4nc(c(-c5c(F)cccc5F)c5ccc2[nH]5)C=C4)C=C3)cc1
REMARK SMILES IDX 9 1 8 2 7 3 6 4 5 5 4 6 3 7 2 8 1 9 31 10 32 11 84 12 33 13
REMARK SMILES IDX 83 14 34 15 35 16 36 17 77 18 37 19 82 20 76 21 78 22 38 23
REMARK SMILES IDX 81 24 75 25 74 26 39 28 65 29 48 30 64 31 49 32 52 33 63 34
REMARK SMILES IDX 79 35 50 36 51 37 62 39 80 40 53 41 40 42 41 43 46 44 42 45
REMARK SMILES IDX 43 46 45 47 47 48 44 49 66 50 67 51 72 52 68 53 69 54 71 55
REMARK SMILES IDX 73 56 70 57 54 58 55 59 60 60 56 61 57 62 59 63 61 64 58 65
REMARK SMILES IDX 10 66 11 67 12 68 13 69 14 70 15 71 16 72 17 73 18 74 19 75
REMARK SMILES IDX 23 76 20 77 22 78 21 79 24 80 25 81 26 82 30 83 27 84 29 85
REMARK SMILES IDX 28 86
REMARK H PARENT 78 27 52 38
REMARK Flexibility Score: inf
ROOT
ATOM      1  O   UNL A   1      42.777  19.218  26.850  1.00  0.00    -0.377 OA
ENDROOT
BRANCH   1   2
ATOM      2  C   UNL A   1      43.026  18.802  25.519  1.00  0.00     0.188 C 
BRANCH   2   3
ATOM      3  C   UNL A   1      44.462  18.969  25.087  1.00  0.00     0.188 C 
BRANCH   3   4
ATOM      4  O   UNL A   1      44.606  20.226  24.456  1.00  0.00    -0.376 OA
BRANCH   4   5
ATOM      5  C   UNL A   1      45.729  21.025  24.782  1.00  0.00     0.202 C 
BRANCH   5   6
ATOM      6  C   UNL A   1      45.604  22.515  24.509  1.00  0.00     0.261 C 
BRANCH   6   7
ATOM      7  O   UNL A   1      44.810  23.296  25.424  1.00  0.00    -0.460 OA
BRANCH   7   8
ATOM      8  C   UNL A   1      43.506  23.606  25.523  1.00  0.00     0.338 C 
ATOM      9  O   UNL A   1      42.705  22.953  24.835  1.00  0.00    -0.246 OA
BRANCH   8  10
ATOM     10  C   UNL A   1      42.926  24.659  26.392  1.00  0.00     0.060 A 
ATOM     11  C   UNL A   1      43.177  26.024  26.283  1.00  0.00     0.016 A 
ATOM     12  C   UNL A   1      41.954  24.253  27.319  1.00  0.00     0.016 A 
ATOM     13  C   UNL A   1      42.573  26.958  27.095  1.00  0.00     0.010 A 
ATOM     14  C   UNL A   1      41.320  25.183  28.144  1.00  0.00     0.010 A 
ATOM     15  C   UNL A   1      41.670  26.533  28.051  1.00  0.00    -0.014 A 
BRANCH  15  16
ATOM     16  C   UNL A   1      41.350  27.495  29.104  1.00  0.00     0.031 A 
ATOM     17  C   UNL A   1      42.268  27.515  30.282  1.00  0.00     0.074 A 
ATOM     18  C   UNL A   1      40.399  28.420  28.908  1.00  0.00     0.049 A 
ATOM     19  N   UNL A   1      42.142  28.128  31.421  1.00  0.00    -0.248 NA
ATOM     20  C   UNL A   1      43.513  26.733  30.148  1.00  0.00     0.031 C 
ATOM     21  C   UNL A   1      39.626  28.595  27.675  1.00  0.00     0.029 A 
ATOM     22  N   UNL A   1      39.938  29.400  29.738  1.00  0.00    -0.354 N 
ATOM     23  C   UNL A   1      43.251  27.747  32.166  1.00  0.00     0.074 A 
ATOM     24  C   UNL A   1      44.051  26.870  31.347  1.00  0.00     0.031 C 
ATOM     25  C   UNL A   1      38.771  29.616  27.839  1.00  0.00     0.029 A 
ATOM     26  C   UNL A   1      38.878  30.092  29.212  1.00  0.00     0.049 A 
ATOM     27  H   UNL A   1      40.327  29.590  30.622  1.00  0.00     0.167 HD
ATOM     28  C   UNL A   1      43.537  28.093  33.438  1.00  0.00     0.037 A 
ATOM     29  C   UNL A   1      38.048  30.956  29.820  1.00  0.00     0.037 A 
ATOM     30  C   UNL A   1      42.692  28.975  34.192  1.00  0.00     0.049 A 
ATOM     31  C   UNL A   1      38.306  31.238  31.276  1.00  0.00     0.074 A 
ATOM     32  C   UNL A   1      42.787  29.358  35.513  1.00  0.00     0.029 A 
ATOM     33  N   UNL A   1      41.575  29.615  33.659  1.00  0.00    -0.354 N 
ATOM     34  N   UNL A   1      39.273  30.785  32.044  1.00  0.00    -0.248 NA
ATOM     35  C   UNL A   1      37.360  32.124  31.957  1.00  0.00     0.031 C 
ATOM     36  C   UNL A   1      41.696  30.190  35.793  1.00  0.00     0.029 A 
ATOM     37  C   UNL A   1      40.959  30.379  34.628  1.00  0.00     0.049 A 
ATOM     38  H   UNL A   1      41.270  29.534  32.727  1.00  0.00     0.167 HD
ATOM     39  C   UNL A   1      39.070  31.349  33.293  1.00  0.00     0.074 A 
ATOM     40  C   UNL A   1      37.885  32.182  33.174  1.00  0.00     0.031 C 
ATOM     41  C   UNL A   1      39.789  31.202  34.434  1.00  0.00     0.037 A 
BRANCH  28  42
ATOM     42  C   UNL A   1      44.713  27.412  34.075  1.00  0.00     0.057 A 
ATOM     43  C   UNL A   1      44.589  26.244  34.841  1.00  0.00     0.134 A 
ATOM     44  C   UNL A   1      45.981  28.002  34.006  1.00  0.00     0.134 A 
ATOM     45  F   UNL A   1      43.394  25.649  34.986  1.00  0.00    -0.206 F 
ATOM     46  C   UNL A   1      45.672  25.714  35.547  1.00  0.00     0.040 A 
ATOM     47  C   UNL A   1      47.077  27.466  34.684  1.00  0.00     0.040 A 
ATOM     48  F   UNL A   1      46.170  29.131  33.306  1.00  0.00    -0.206 F 
ATOM     49  C   UNL A   1      46.922  26.326  35.469  1.00  0.00     0.006 A 
ENDBRANCH  28  42
BRANCH  29  50
ATOM     50  C   UNL A   1      36.890  31.522  29.086  1.00  0.00     0.057 A 
ATOM     51  C   UNL A   1      35.746  30.761  28.826  1.00  0.00     0.134 A 
ATOM     52  C   UNL A   1      36.883  32.856  28.652  1.00  0.00     0.134 A 
ATOM     53  F   UNL A   1      35.690  29.476  29.204  1.00  0.00    -0.206 F 
ATOM     54  C   UNL A   1      34.643  31.301  28.159  1.00  0.00     0.040 A 
ATOM     55  C   UNL A   1      35.778  33.416  28.008  1.00  0.00     0.040 A 
ATOM     56  F   UNL A   1      37.944  33.647  28.873  1.00  0.00    -0.206 F 
ATOM     57  C   UNL A   1      34.654  32.634  27.756  1.00  0.00     0.006 A 
ENDBRANCH  29  50
BRANCH  41  58
ATOM     58  C   UNL A   1      39.347  32.011  35.614  1.00  0.00     0.057 A 
ATOM     59  C   UNL A   1      39.766  33.330  35.807  1.00  0.00     0.134 A 
ATOM     60  C   UNL A   1      38.415  31.477  36.513  1.00  0.00     0.134 A 
ATOM     61  F   UNL A   1      40.666  33.887  34.983  1.00  0.00    -0.206 F 
ATOM     62  C   UNL A   1      39.280  34.092  36.869  1.00  0.00     0.040 A 
ATOM     63  C   UNL A   1      37.899  32.239  37.558  1.00  0.00     0.040 A 
ATOM     64  F   UNL A   1      37.970  30.221  36.367  1.00  0.00    -0.206 F 
ATOM     65  C   UNL A   1      38.335  33.551  37.739  1.00  0.00     0.006 A 
ENDBRANCH  41  58
ENDBRANCH  15  16
ENDBRANCH   8  10
ENDBRANCH   7   8
ENDBRANCH   6   7
ENDBRANCH   5   6
ENDBRANCH   4   5
ENDBRANCH   3   4
ENDBRANCH   2   3
ENDBRANCH   1   2
BRANCH   1  66
ATOM     66  C   UNL A   1      42.241  20.501  27.146  1.00  0.00     0.188 C 
BRANCH  66  67
ATOM     67  C   UNL A   1      40.723  20.687  27.245  1.00  0.00     0.188 C 
BRANCH  67  68
ATOM     68  O   UNL A   1      40.121  21.143  26.057  1.00  0.00    -0.376 OA
BRANCH  68  69
ATOM     69  C   UNL A   1      39.092  22.122  26.152  1.00  0.00     0.202 C 
BRANCH  69  70
ATOM     70  C   UNL A   1      37.767  22.074  25.348  1.00  0.00     0.261 C 
BRANCH  70  71
ATOM     71  O   UNL A   1      37.192  23.318  24.884  1.00  0.00    -0.463 OA
BRANCH  71  72
ATOM     72  C   UNL A   1      36.319  23.211  23.853  1.00  0.00     0.310 C 
ATOM     73  O   UNL A   1      36.680  22.903  22.715  1.00  0.00    -0.252 OA
BRANCH  72  74
ATOM     74  C   UNL A   1      34.818  23.385  24.138  1.00  0.00     0.112 C 
ATOM     75  C   UNL A   1      34.671  24.319  25.352  1.00  0.00     0.016 C 
ATOM     76  C   UNL A   1      33.747  22.257  24.145  1.00  0.00     0.066 C 
ATOM     77  C   UNL A   1      33.271  24.916  25.418  1.00  0.00     0.001 C 
ATOM     78  C   UNL A   1      32.338  22.878  24.300  1.00  0.00     0.016 C 
ATOM     79  C   UNL A   1      32.210  23.832  25.475  1.00  0.00     0.001 C 
BRANCH  76  80
ATOM     80  S   UNL A   1      34.025  20.910  25.368  1.00  0.00    -0.122 SA
BRANCH  80  81
ATOM     81  C   UNL A   1      33.746  19.375  24.454  1.00  0.00     0.011 A 
ATOM     82  C   UNL A   1      34.588  18.262  24.429  1.00  0.00     0.035 A 
ATOM     83  C   UNL A   1      32.586  19.322  23.675  1.00  0.00     0.035 A 
ATOM     84  C   UNL A   1      34.265  17.188  23.607  1.00  0.00     0.112 A 
ATOM     85  C   UNL A   1      32.338  18.198  22.899  1.00  0.00     0.112 A 
ATOM     86  N   UNL A   1      33.159  17.132  22.840  1.00  0.00    -0.265 NA
ENDBRANCH  80  81
ENDBRANCH  76  80
ENDBRANCH  72  74
ENDBRANCH  71  72
ENDBRANCH  70  71
ENDBRANCH  69  70
ENDBRANCH  68  69
ENDBRANCH  67  68
ENDBRANCH  66  67
ENDBRANCH   1  66
TORSDOF 22
ENDMDL
MODEL 2
REMARK VINA RESULT:      -9.8      1.631      2.767
REMARK SMILES O=C(OCCOCCOCCOCCOC(=O)[C@@H]1CCCC[C@@H]1Sc1ccncc1)c1ccc(-c2c3nc(c(-c4c(F)cccc4F)c4ccc([nH]4)c(-c4c(F)cccc4F)c4nc(c(-c5c(F)cccc5F)c5ccc2[nH]5)C=C4)C=C3)cc1
REMARK SMILES IDX 9 1 8 2 7 3 6 4 5 5 4 6 3 7 2 8 1 9 31 10 32 11 84 12 33 13
REMARK SMILES IDX 83 14 34 15 35 16 36 17 77 18 37 19 82 20 76 21 78 22 38 23
REMARK SMILES IDX 81 24 75 25 74 26 39 28 65 29 48 30 64 31 49 32 52 33 63 34
REMARK SMILES IDX 79 35 50 36 51 37 62 39 80 40 53 41 40 42 41 43 46 44 42 45
REMARK SMILES IDX 43 46 45 47 47 48 44 49 66 50 67 51 72 52 68 53 69 54 71 55
REMARK SMILES IDX 73 56 70 57 54 58 55 59 60 60 56 61 57 62 59 63 61 64 58 65
REMARK SMILES IDX 10 66 11 67 12 68 13 69 14 70 15 71 16 72 17 73 18 74 19 75
REMARK SMILES IDX 23 76 20 77 22 78 21 79 24 80 25 81 26 82 30 83 27 84 29 85
REMARK SMILES IDX 28 86
REMARK H PARENT 78 27 52 38
REMARK Flexibility Score: inf
ROOT
ATOM      1  O   UNL A   1      42.746  19.492  26.893  1.00  0.00    -0.377 OA
ENDROOT
BRANCH   1   2
ATOM      2  C   UNL A   1      42.959  19.106  25.547  1.00  0.00     0.188 C 
BRANCH   2   3
ATOM      3  C   UNL A   1      44.390  19.251  25.090  1.00  0.00     0.188 C 
BRANCH   3   4
ATOM      4  O   UNL A   1      44.550  20.519  24.486  1.00  0.00    -0.376 OA
BRANCH   4   5
ATOM      5  C   UNL A   1      45.698  21.285  24.805  1.00  0.00     0.202 C 
BRANCH   5   6
ATOM      6  C   UNL A   1      45.606  22.782  24.559  1.00  0.00     0.261 C 
BRANCH   6   7
ATOM      7  O   UNL A   1      44.802  23.559  25.469  1.00  0.00    -0.460 OA
BRANCH   7   8
ATOM      8  C   UNL A   1      43.495  23.859  25.562  1.00  0.00     0.338 C 
ATOM      9  O   UNL A   1      42.704  23.209  24.859  1.00  0.00    -0.246 OA
BRANCH   8  10
ATOM     10  C   UNL A   1      42.902  24.897  26.440  1.00  0.00     0.060 A 
ATOM     11  C   UNL A   1      43.081  26.270  26.302  1.00  0.00     0.016 A 
ATOM     12  C   UNL A   1      41.990  24.459  27.413  1.00  0.00     0.016 A 
ATOM     13  C   UNL A   1      42.467  27.187  27.125  1.00  0.00     0.010 A 
ATOM     14  C   UNL A   1      41.347  25.371  28.251  1.00  0.00     0.010 A 
ATOM     15  C   UNL A   1      41.626  26.734  28.124  1.00  0.00    -0.014 A 
BRANCH  15  16
ATOM     16  C   UNL A   1      41.304  27.697  29.176  1.00  0.00     0.031 A 
ATOM     17  C   UNL A   1      42.227  27.725  30.351  1.00  0.00     0.074 A 
ATOM     18  C   UNL A   1      40.346  28.615  28.982  1.00  0.00     0.049 A 
ATOM     19  N   UNL A   1      42.101  28.339  31.489  1.00  0.00    -0.248 NA
ATOM     20  C   UNL A   1      43.476  26.951  30.214  1.00  0.00     0.031 C 
ATOM     21  C   UNL A   1      39.568  28.782  27.752  1.00  0.00     0.029 A 
ATOM     22  N   UNL A   1      39.882  29.594  29.811  1.00  0.00    -0.354 N 
ATOM     23  C   UNL A   1      43.215  27.967  32.230  1.00  0.00     0.074 A 
ATOM     24  C   UNL A   1      44.017  27.094  31.411  1.00  0.00     0.031 C 
ATOM     25  C   UNL A   1      38.707  29.798  27.917  1.00  0.00     0.029 A 
ATOM     26  C   UNL A   1      38.816  30.278  29.288  1.00  0.00     0.049 A 
ATOM     27  H   UNL A   1      40.274  29.788  30.694  1.00  0.00     0.167 HD
ATOM     28  C   UNL A   1      43.504  28.318  33.501  1.00  0.00     0.037 A 
ATOM     29  C   UNL A   1      37.983  31.138  29.898  1.00  0.00     0.037 A 
ATOM     30  C   UNL A   1      42.656  29.196  34.257  1.00  0.00     0.049 A 
ATOM     31  C   UNL A   1      38.245  31.425  31.352  1.00  0.00     0.074 A 
ATOM     32  C   UNL A   1      42.754  29.583  35.576  1.00  0.00     0.029 A 
ATOM     33  N   UNL A   1      41.533  29.828  33.726  1.00  0.00    -0.354 N 
ATOM     34  N   UNL A   1      39.217  30.979  32.117  1.00  0.00    -0.248 NA
ATOM     35  C   UNL A   1      37.295  32.307  32.035  1.00  0.00     0.031 C 
ATOM     36  C   UNL A   1      41.658  30.408  35.858  1.00  0.00     0.029 A 
ATOM     37  C   UNL A   1      40.916  30.590  34.696  1.00  0.00     0.049 A 
ATOM     38  H   UNL A   1      41.225  29.743  32.796  1.00  0.00     0.167 HD
ATOM     39  C   UNL A   1      39.015  31.545  33.366  1.00  0.00     0.074 A 
ATOM     40  C   UNL A   1      37.825  32.370  33.250  1.00  0.00     0.031 C 
ATOM     41  C   UNL A   1      39.740  31.406  34.505  1.00  0.00     0.037 A 
BRANCH  28  42
ATOM     42  C   UNL A   1      44.686  27.646  34.135  1.00  0.00     0.057 A 
ATOM     43  C   UNL A   1      44.579  26.457  34.870  1.00  0.00     0.134 A 
ATOM     44  C   UNL A   1      45.943  28.264  34.096  1.00  0.00     0.134 A 
ATOM     45  F   UNL A   1      43.395  25.833  34.986  1.00  0.00    -0.206 F 
ATOM     46  C   UNL A   1      45.664  25.932  35.576  1.00  0.00     0.040 A 
ATOM     47  C   UNL A   1      47.042  27.734  34.773  1.00  0.00     0.040 A 
ATOM     48  F   UNL A   1      46.116  29.413  33.426  1.00  0.00    -0.206 F 
ATOM     49  C   UNL A   1      46.902  26.572  35.528  1.00  0.00     0.006 A 
ENDBRANCH  28  42
BRANCH  29  50
ATOM     50  C   UNL A   1      36.818  31.695  29.167  1.00  0.00     0.057 A 
ATOM     51  C   UNL A   1      35.662  30.939  28.949  1.00  0.00     0.134 A 
ATOM     52  C   UNL A   1      36.818  33.016  28.694  1.00  0.00     0.134 A 
ATOM     53  F   UNL A   1      35.600  29.666  29.364  1.00  0.00    -0.206 F 
ATOM     54  C   UNL A   1      34.554  31.471  28.285  1.00  0.00     0.040 A 
ATOM     55  C   UNL A   1      35.708  33.569  28.053  1.00  0.00     0.040 A 
ATOM     56  F   UNL A   1      37.890  33.801  28.874  1.00  0.00    -0.206 F 
ATOM     57  C   UNL A   1      34.572  32.792  27.842  1.00  0.00     0.006 A 
ENDBRANCH  29  50
BRANCH  41  58
ATOM     58  C   UNL A   1      39.297  32.214  35.684  1.00  0.00     0.057 A 
ATOM     59  C   UNL A   1      39.740  33.523  35.894  1.00  0.00     0.134 A 
ATOM     60  C   UNL A   1      38.342  31.692  36.565  1.00  0.00     0.134 A 
ATOM     61  F   UNL A   1      40.663  34.068  35.088  1.00  0.00    -0.206 F 
ATOM     62  C   UNL A   1      39.254  34.286  36.955  1.00  0.00     0.040 A 
ATOM     63  C   UNL A   1      37.826  32.457  37.609  1.00  0.00     0.040 A 
ATOM     64  F   UNL A   1      37.873  30.446  36.403  1.00  0.00    -0.206 F 
ATOM     65  C   UNL A   1      38.286  33.758  37.807  1.00  0.00     0.006 A 
ENDBRANCH  41  58
ENDBRANCH  15  16
ENDBRANCH   8  10
ENDBRANCH   7   8
ENDBRANCH   6   7
ENDBRANCH   5   6
ENDBRANCH   4   5
ENDBRANCH   3   4
ENDBRANCH   2   3
ENDBRANCH   1   2
BRANCH   1  66
ATOM     66  C   UNL A   1      42.300  20.798  27.237  1.00  0.00     0.188 C 
BRANCH  66  67
ATOM     67  C   UNL A   1      40.800  21.077  27.375  1.00  0.00     0.188 C 
BRANCH  67  68
ATOM     68  O   UNL A   1      40.152  21.358  26.158  1.00  0.00    -0.376 OA
BRANCH  68  69
ATOM     69  C   UNL A   1      39.190  22.408  26.129  1.00  0.00     0.202 C 
BRANCH  69  70
ATOM     70  C   UNL A   1      37.754  22.258  25.564  1.00  0.00     0.261 C 
BRANCH  70  71
ATOM     71  O   UNL A   1      37.140  23.398  24.919  1.00  0.00    -0.463 OA
BRANCH  71  72
ATOM     72  C   UNL A   1      36.110  23.114  24.085  1.00  0.00     0.310 C 
ATOM     73  O   UNL A   1      36.265  22.983  22.869  1.00  0.00    -0.252 OA
BRANCH  72  74
ATOM     74  C   UNL A   1      34.722  22.852  24.693  1.00  0.00     0.112 C 
ATOM     75  C   UNL A   1      34.230  21.486  24.183  1.00  0.00     0.016 C 
ATOM     76  C   UNL A   1      33.558  23.879  24.802  1.00  0.00     0.066 C 
ATOM     77  C   UNL A   1      33.120  20.937  25.069  1.00  0.00     0.001 C 
ATOM     78  C   UNL A   1      32.403  23.270  25.633  1.00  0.00     0.016 C 
ATOM     79  C   UNL A   1      31.950  21.903  25.151  1.00  0.00     0.001 C 
BRANCH  76  80
ATOM     80  S   UNL A   1      32.950  24.558  23.202  1.00  0.00    -0.122 SA
BRANCH  80  81
ATOM     81  C   UNL A   1      32.951  26.353  23.420  1.00  0.00     0.011 A 
ATOM     82  C   UNL A   1      32.266  27.283  22.635  1.00  0.00     0.035 A 
ATOM     83  C   UNL A   1      33.745  26.850  24.459  1.00  0.00     0.035 A 
ATOM     84  C   UNL A   1      32.437  28.639  22.888  1.00  0.00     0.112 A 
ATOM     85  C   UNL A   1      33.841  28.221  24.646  1.00  0.00     0.112 A 
ATOM     86  N   UNL A   1      33.211  29.129  23.875  1.00  0.00    -0.265 NA
ENDBRANCH  80  81
ENDBRANCH  76  80
ENDBRANCH  72  74
ENDBRANCH  71  72
ENDBRANCH  70  71
ENDBRANCH  69  70
ENDBRANCH  68  69
ENDBRANCH  67  68
ENDBRANCH  66  67
ENDBRANCH   1  66
TORSDOF 22
ENDMDL
MODEL 3
REMARK VINA RESULT:      -9.5      1.631      6.549
REMARK SMILES O=C(OCCOCCOCCOCCOC(=O)[C@@H]1CCCC[C@@H]1Sc1ccncc1)c1ccc(-c2c3nc(c(-c4c(F)cccc4F)c4ccc([nH]4)c(-c4c(F)cccc4F)c4nc(c(-c5c(F)cccc5F)c5ccc2[nH]5)C=C4)C=C3)cc1
REMARK SMILES IDX 9 1 8 2 7 3 6 4 5 5 4 6 3 7 2 8 1 9 31 10 32 11 84 12 33 13
REMARK SMILES IDX 83 14 34 15 35 16 36 17 77 18 37 19 82 20 76 21 78 22 38 23
REMARK SMILES IDX 81 24 75 25 74 26 39 28 65 29 48 30 64 31 49 32 52 33 63 34
REMARK SMILES IDX 79 35 50 36 51 37 62 39 80 40 53 41 40 42 41 43 46 44 42 45
REMARK SMILES IDX 43 46 45 47 47 48 44 49 66 50 67 51 72 52 68 53 69 54 71 55
REMARK SMILES IDX 73 56 70 57 54 58 55 59 60 60 56 61 57 62 59 63 61 64 58 65
REMARK SMILES IDX 10 66 11 67 12 68 13 69 14 70 15 71 16 72 17 73 18 74 19 75
REMARK SMILES IDX 23 76 20 77 22 78 21 79 24 80 25 81 26 82 30 83 27 84 29 85
REMARK SMILES IDX 28 86
REMARK H PARENT 78 27 52 38
REMARK Flexibility Score: inf
ROOT
ATOM      1  O   UNL A   1      40.609  20.413  27.370  1.00  0.00    -0.377 OA
ENDROOT
BRANCH   1   2
ATOM      2  C   UNL A   1      41.898  20.999  27.352  1.00  0.00     0.188 C 
BRANCH   2   3
ATOM      3  C   UNL A   1      42.717  20.636  26.138  1.00  0.00     0.188 C 
BRANCH   3   4
ATOM      4  O   UNL A   1      42.870  21.786  25.331  1.00  0.00    -0.376 OA
BRANCH   4   5
ATOM      5  C   UNL A   1      42.782  23.062  25.940  1.00  0.00     0.202 C 
BRANCH   5   6
ATOM      6  C   UNL A   1      44.089  23.812  26.139  1.00  0.00     0.261 C 
BRANCH   6   7
ATOM      7  O   UNL A   1      44.063  25.246  25.994  1.00  0.00    -0.460 OA
BRANCH   7   8
ATOM      8  C   UNL A   1      43.095  26.170  25.872  1.00  0.00     0.338 C 
ATOM      9  O   UNL A   1      42.610  26.351  24.744  1.00  0.00    -0.246 OA
BRANCH   8  10
ATOM     10  C   UNL A   1      42.541  26.999  26.971  1.00  0.00     0.060 A 
ATOM     11  C   UNL A   1      42.702  28.375  27.105  1.00  0.00     0.016 A 
ATOM     12  C   UNL A   1      41.686  26.357  27.880  1.00  0.00     0.016 A 
ATOM     13  C   UNL A   1      42.125  29.095  28.127  1.00  0.00     0.010 A 
ATOM     14  C   UNL A   1      41.081  27.069  28.917  1.00  0.00     0.010 A 
ATOM     15  C   UNL A   1      41.343  28.435  29.055  1.00  0.00    -0.014 A 
BRANCH  15  16
ATOM     16  C   UNL A   1      41.070  29.159  30.295  1.00  0.00     0.031 A 
ATOM     17  C   UNL A   1      39.863  30.038  30.295  1.00  0.00     0.074 A 
ATOM     18  C   UNL A   1      41.768  28.882  31.407  1.00  0.00     0.049 A 
ATOM     19  N   UNL A   1      39.474  30.914  31.174  1.00  0.00    -0.248 NA
ATOM     20  C   UNL A   1      38.960  29.901  29.135  1.00  0.00     0.031 C 
ATOM     21  C   UNL A   1      42.809  27.857  31.522  1.00  0.00     0.029 A 
ATOM     22  N   UNL A   1      41.688  29.425  32.656  1.00  0.00    -0.354 N 
ATOM     23  C   UNL A   1      38.326  31.483  30.639  1.00  0.00     0.074 A 
ATOM     24  C   UNL A   1      38.065  30.844  29.373  1.00  0.00     0.031 C 
ATOM     25  C   UNL A   1      43.283  27.860  32.777  1.00  0.00     0.029 A 
ATOM     26  C   UNL A   1      42.645  28.944  33.511  1.00  0.00     0.049 A 
ATOM     27  H   UNL A   1      41.012  30.093  32.915  1.00  0.00     0.167 HD
ATOM     28  C   UNL A   1      37.586  32.480  31.169  1.00  0.00     0.037 A 
ATOM     29  C   UNL A   1      43.001  29.402  34.723  1.00  0.00     0.037 A 
ATOM     30  C   UNL A   1      37.907  33.068  32.439  1.00  0.00     0.049 A 
ATOM     31  C   UNL A   1      42.247  30.594  35.250  1.00  0.00     0.074 A 
ATOM     32  C   UNL A   1      37.318  34.138  33.080  1.00  0.00     0.029 A 
ATOM     33  N   UNL A   1      38.932  32.610  33.264  1.00  0.00    -0.354 N 
ATOM     34  N   UNL A   1      41.241  31.239  34.702  1.00  0.00    -0.248 NA
ATOM     35  C   UNL A   1      42.682  31.136  36.539  1.00  0.00     0.031 C 
ATOM     36  C   UNL A   1      38.023  34.359  34.269  1.00  0.00     0.029 A 
ATOM     37  C   UNL A   1      39.007  33.385  34.402  1.00  0.00     0.049 A 
ATOM     38  H   UNL A   1      39.517  31.845  33.064  1.00  0.00     0.167 HD
ATOM     39  C   UNL A   1      40.902  32.248  35.590  1.00  0.00     0.074 A 
ATOM     40  C   UNL A   1      41.814  32.123  36.714  1.00  0.00     0.031 C 
ATOM     41  C   UNL A   1      39.930  33.191  35.495  1.00  0.00     0.037 A 
BRANCH  28  42
ATOM     42  C   UNL A   1      36.486  33.034  30.313  1.00  0.00     0.057 A 
ATOM     43  C   UNL A   1      36.714  33.981  29.305  1.00  0.00     0.134 A 
ATOM     44  C   UNL A   1      35.155  32.689  30.579  1.00  0.00     0.134 A 
ATOM     45  F   UNL A   1      37.962  34.391  29.026  1.00  0.00    -0.206 F 
ATOM     46  C   UNL A   1      35.659  34.593  28.624  1.00  0.00     0.040 A 
ATOM     47  C   UNL A   1      34.093  33.272  29.886  1.00  0.00     0.040 A 
ATOM     48  F   UNL A   1      34.861  31.802  31.542  1.00  0.00    -0.206 F 
ATOM     49  C   UNL A   1      34.343  34.239  28.914  1.00  0.00     0.006 A 
ENDBRANCH  28  42
BRANCH  29  50
ATOM     50  C   UNL A   1      44.144  28.792  35.445  1.00  0.00     0.057 A 
ATOM     51  C   UNL A   1      45.455  29.239  35.251  1.00  0.00     0.134 A 
ATOM     52  C   UNL A   1      43.951  27.762  36.379  1.00  0.00     0.134 A 
ATOM     53  F   UNL A   1      45.711  30.212  34.365  1.00  0.00    -0.206 F 
ATOM     54  C   UNL A   1      46.529  28.684  35.951  1.00  0.00     0.040 A 
ATOM     55  C   UNL A   1      45.012  27.218  37.105  1.00  0.00     0.040 A 
ATOM     56  F   UNL A   1      42.720  27.288  36.622  1.00  0.00    -0.206 F 
ATOM     57  C   UNL A   1      46.308  27.676  36.887  1.00  0.00     0.006 A 
ENDBRANCH  29  50
BRANCH  41  58
ATOM     58  C   UNL A   1      39.770  34.108  36.667  1.00  0.00     0.057 A 
ATOM     59  C   UNL A   1      40.361  35.374  36.704  1.00  0.00     0.134 A 
ATOM     60  C   UNL A   1      38.934  33.740  37.729  1.00  0.00     0.134 A 
ATOM     61  F   UNL A   1      41.179  35.773  35.719  1.00  0.00    -0.206 F 
ATOM     62  C   UNL A   1      40.134  36.244  37.769  1.00  0.00     0.040 A 
ATOM     63  C   UNL A   1      38.675  34.613  38.783  1.00  0.00     0.040 A 
ATOM     64  F   UNL A   1      38.332  32.542  37.739  1.00  0.00    -0.206 F 
ATOM     65  C   UNL A   1      39.279  35.869  38.805  1.00  0.00     0.006 A 
ENDBRANCH  41  58
ENDBRANCH  15  16
ENDBRANCH   8  10
ENDBRANCH   7   8
ENDBRANCH   6   7
ENDBRANCH   5   6
ENDBRANCH   4   5
ENDBRANCH   3   4
ENDBRANCH   2   3
ENDBRANCH   1   2
BRANCH   1  66
ATOM     66  C   UNL A   1      39.839  20.258  26.184  1.00  0.00     0.188 C 
BRANCH  66  67
ATOM     67  C   UNL A   1      38.853  21.355  25.770  1.00  0.00     0.188 C 
BRANCH  67  68
ATOM     68  O   UNL A   1      39.120  22.615  26.339  1.00  0.00    -0.376 OA
BRANCH  68  69
ATOM     69  C   UNL A   1      38.127  23.630  26.235  1.00  0.00     0.202 C 
BRANCH  69  70
ATOM     70  C   UNL A   1      36.663  23.374  25.792  1.00  0.00     0.261 C 
BRANCH  70  71
ATOM     71  O   UNL A   1      36.119  24.161  24.707  1.00  0.00    -0.463 OA
BRANCH  71  72
ATOM     72  C   UNL A   1      35.760  23.464  23.601  1.00  0.00     0.310 C 
ATOM     73  O   UNL A   1      36.591  22.958  22.844  1.00  0.00    -0.252 OA
BRANCH  72  74
ATOM     74  C   UNL A   1      34.265  23.218  23.340  1.00  0.00     0.112 C 
ATOM     75  C   UNL A   1      33.475  24.378  23.971  1.00  0.00     0.016 C 
ATOM     76  C   UNL A   1      33.517  21.863  23.490  1.00  0.00     0.066 C 
ATOM     77  C   UNL A   1      32.076  24.476  23.378  1.00  0.00     0.001 C 
ATOM     78  C   UNL A   1      32.070  22.006  22.962  1.00  0.00     0.016 C 
ATOM     79  C   UNL A   1      31.308  23.178  23.557  1.00  0.00     0.001 C 
BRANCH  76  80
ATOM     80  S   UNL A   1      33.547  21.125  25.177  1.00  0.00    -0.122 SA
BRANCH  80  81
ATOM     81  C   UNL A   1      33.631  19.339  24.911  1.00  0.00     0.011 A 
ATOM     82  C   UNL A   1      34.767  18.607  24.561  1.00  0.00     0.035 A 
ATOM     83  C   UNL A   1      32.428  18.637  25.041  1.00  0.00     0.035 A 
ATOM     84  C   UNL A   1      34.644  17.244  24.315  1.00  0.00     0.112 A 
ATOM     85  C   UNL A   1      32.406  17.272  24.793  1.00  0.00     0.112 A 
ATOM     86  N   UNL A   1      33.488  16.560  24.421  1.00  0.00    -0.265 NA
ENDBRANCH  80  81
ENDBRANCH  76  80
ENDBRANCH  72  74
ENDBRANCH  71  72
ENDBRANCH  70  71
ENDBRANCH  69  70
ENDBRANCH  68  69
ENDBRANCH  67  68
ENDBRANCH  66  67
ENDBRANCH   1  66
TORSDOF 22
ENDMDL
