MODEL 1
REMARK VINA RESULT:     -10.3      0.000      0.000
REMARK SMILES Cc1ccccc1CNc1ccc(C(=O)OCCOCCOCCOCCOC(=O)c2ccc(-c3c4nc(c(-c5c(F)cccc5F)c5ccc([nH]5)c(-c5c(F)cccc5F)c5nc(c(-c6c(F)cccc6F)c6ccc3[nH]6)C=C5)C=C4)cc2)c(F)c1F
REMARK SMILES IDX 21 1 20 2 19 3 18 4 17 5 16 6 14 7 15 8 13 9 10 10 11 11
REMARK SMILES IDX 87 12 12 13 85 14 88 15 86 16 9 17 8 19 7 20 1 21 2 22 3 23
REMARK SMILES IDX 4 24 6 25 5 26 22 27 23 28 24 29 25 30 26 31 27 32 28 33
REMARK SMILES IDX 29 34 30 35 31 36 32 37 84 38 33 39 83 40 34 41 35 42 36 43
REMARK SMILES IDX 77 44 37 45 82 46 76 47 78 48 38 49 81 50 75 51 74 52 39 54
REMARK SMILES IDX 65 55 48 56 64 57 49 58 52 59 63 60 79 61 50 62 51 63 62 65
REMARK SMILES IDX 80 66 53 67 40 68 41 69 46 70 42 71 43 72 45 73 47 74 44 75
REMARK SMILES IDX 66 76 67 77 72 78 68 79 69 80 71 81 73 82 70 83 54 84 55 85
REMARK SMILES IDX 60 86 56 87 57 88 59 89 61 90 58 91
REMARK H PARENT 9 18 78 53 52 64
REMARK Flexibility Score: inf
ROOT
ATOM      1  C   UNL A   1      35.478  21.169  25.434  1.00  0.00     0.188 C 
ENDROOT
BRANCH   1   2
ATOM      2  C   UNL A   1      35.102  22.643  25.202  1.00  0.00     0.188 C 
BRANCH   2   3
ATOM      3  O   UNL A   1      34.311  23.240  26.216  1.00  0.00    -0.376 OA
BRANCH   3   4
ATOM      4  C   UNL A   1      34.002  22.353  27.281  1.00  0.00     0.202 C 
BRANCH   4   5
ATOM      5  C   UNL A   1      32.545  22.541  27.620  1.00  0.00     0.261 C 
BRANCH   5   6
ATOM      6  O   UNL A   1      32.083  23.683  26.909  1.00  0.00    -0.460 OA
BRANCH   6   7
ATOM      7  C   UNL A   1      30.910  23.440  26.306  1.00  0.00     0.341 C 
ATOM      8  O   UNL A   1      30.115  22.561  26.601  1.00  0.00    -0.246 OA
BRANCH   7   9
ATOM      9  C   UNL A   1      30.704  24.494  25.308  1.00  0.00     0.099 A 
ATOM     10  C   UNL A   1      30.637  26.566  23.470  1.00  0.00     0.074 A 
ATOM     11  C   UNL A   1      29.916  26.678  24.663  1.00  0.00     0.030 A 
ATOM     12  C   UNL A   1      31.212  25.334  23.130  1.00  0.00     0.182 A 
ATOM     13  C   UNL A   1      29.970  25.655  25.597  1.00  0.00     0.021 A 
ATOM     14  C   UNL A   1      31.245  24.300  24.045  1.00  0.00     0.175 A 
ATOM     15  F   UNL A   1      31.842  25.195  21.953  1.00  0.00    -0.201 F 
ATOM     16  F   UNL A   1      31.835  23.145  23.705  1.00  0.00    -0.203 F 
BRANCH  10  17
ATOM     17  N   UNL A   1      31.004  27.732  22.776  1.00  0.00    -0.379 N 
ATOM     18  H   UNL A   1      30.409  28.191  22.140  1.00  0.00     0.161 HD
BRANCH  17  19
ATOM     19  C   UNL A   1      32.358  28.194  23.091  1.00  0.00     0.149 C 
BRANCH  19  20
ATOM     20  C   UNL A   1      32.472  28.561  24.556  1.00  0.00    -0.026 A 
ATOM     21  C   UNL A   1      33.997  26.570  25.084  1.00  0.00     0.044 C 
ATOM     22  C   UNL A   1      33.232  27.806  25.468  1.00  0.00    -0.046 A 
ATOM     23  C   UNL A   1      33.314  28.232  26.806  1.00  0.00     0.004 A 
ATOM     24  C   UNL A   1      32.625  29.361  27.250  1.00  0.00     0.000 A 
ATOM     25  C   UNL A   1      31.776  29.696  25.026  1.00  0.00     0.006 A 
ATOM     26  C   UNL A   1      31.845  30.089  26.362  1.00  0.00     0.000 A 
ENDBRANCH  19  20
ENDBRANCH  17  19
ENDBRANCH  10  17
ENDBRANCH   7   9
ENDBRANCH   6   7
ENDBRANCH   5   6
ENDBRANCH   4   5
ENDBRANCH   3   4
ENDBRANCH   2   3
ENDBRANCH   1   2
BRANCH   1  27
ATOM     27  O   UNL A   1      36.826  20.737  25.313  1.00  0.00    -0.377 OA
BRANCH  27  28
ATOM     28  C   UNL A   1      37.860  21.683  25.065  1.00  0.00     0.188 C 
BRANCH  28  29
ATOM     29  C   UNL A   1      38.780  22.076  26.210  1.00  0.00     0.188 C 
BRANCH  29  30
ATOM     30  O   UNL A   1      40.112  21.725  25.841  1.00  0.00    -0.376 OA
BRANCH  30  31
ATOM     31  C   UNL A   1      40.632  20.554  26.457  1.00  0.00     0.202 C 
BRANCH  31  32
ATOM     32  C   UNL A   1      42.105  20.286  26.123  1.00  0.00     0.261 C 
BRANCH  32  33
ATOM     33  O   UNL A   1      42.621  21.388  25.350  1.00  0.00    -0.460 OA
BRANCH  33  34
ATOM     34  C   UNL A   1      43.936  21.307  25.013  1.00  0.00     0.338 C 
ATOM     35  O   UNL A   1      44.506  20.307  24.605  1.00  0.00    -0.246 OA
BRANCH  34  36
ATOM     36  C   UNL A   1      44.652  22.517  25.508  1.00  0.00     0.060 A 
ATOM     37  C   UNL A   1      44.849  22.701  26.888  1.00  0.00     0.016 A 
ATOM     38  C   UNL A   1      44.808  23.595  24.644  1.00  0.00     0.016 A 
ATOM     39  C   UNL A   1      45.026  23.992  27.410  1.00  0.00     0.010 A 
ATOM     40  C   UNL A   1      44.871  24.868  25.174  1.00  0.00     0.010 A 
ATOM     41  C   UNL A   1      44.935  25.093  26.558  1.00  0.00    -0.014 A 
BRANCH  41  42
ATOM     42  C   UNL A   1      44.692  26.492  26.983  1.00  0.00     0.031 A 
ATOM     43  C   UNL A   1      43.282  27.030  26.980  1.00  0.00     0.074 A 
ATOM     44  C   UNL A   1      45.670  27.080  27.727  1.00  0.00     0.049 A 
ATOM     45  N   UNL A   1      42.927  28.218  27.346  1.00  0.00    -0.248 NA
ATOM     46  C   UNL A   1      42.118  26.242  26.558  1.00  0.00     0.031 C 
ATOM     47  C   UNL A   1      45.518  28.123  28.740  1.00  0.00     0.029 A 
ATOM     48  N   UNL A   1      47.042  26.834  27.792  1.00  0.00    -0.354 N 
ATOM     49  C   UNL A   1      41.558  28.204  27.597  1.00  0.00     0.074 A 
ATOM     50  C   UNL A   1      41.093  27.005  26.955  1.00  0.00     0.031 C 
ATOM     51  C   UNL A   1      46.706  28.469  29.259  1.00  0.00     0.029 A 
ATOM     52  C   UNL A   1      47.684  27.950  28.342  1.00  0.00     0.049 A 
ATOM     53  H   UNL A   1      47.487  26.007  27.496  1.00  0.00     0.167 HD
ATOM     54  C   UNL A   1      41.015  29.110  28.475  1.00  0.00     0.037 A 
ATOM     55  C   UNL A   1      48.474  28.791  27.603  1.00  0.00     0.037 A 
ATOM     56  C   UNL A   1      42.006  30.134  28.877  1.00  0.00     0.049 A 
ATOM     57  C   UNL A   1      47.775  30.139  27.378  1.00  0.00     0.074 A 
ATOM     58  C   UNL A   1      42.443  30.634  30.092  1.00  0.00     0.029 A 
ATOM     59  N   UNL A   1      42.872  30.675  27.922  1.00  0.00    -0.354 N 
ATOM     60  N   UNL A   1      46.470  30.288  27.454  1.00  0.00    -0.248 NA
ATOM     61  C   UNL A   1      48.444  31.429  27.215  1.00  0.00     0.031 C 
ATOM     62  C   UNL A   1      43.688  31.296  29.874  1.00  0.00     0.029 A 
ATOM     63  C   UNL A   1      43.939  31.322  28.508  1.00  0.00     0.049 A 
ATOM     64  H   UNL A   1      42.736  30.603  26.949  1.00  0.00     0.167 HD
ATOM     65  C   UNL A   1      46.135  31.612  27.473  1.00  0.00     0.074 A 
ATOM     66  C   UNL A   1      47.404  32.288  27.263  1.00  0.00     0.031 C 
ATOM     67  C   UNL A   1      44.872  32.092  27.694  1.00  0.00     0.037 A 
BRANCH  54  68
ATOM     68  C   UNL A   1      39.659  28.965  29.197  1.00  0.00     0.057 A 
ATOM     69  C   UNL A   1      38.458  29.341  28.551  1.00  0.00     0.134 A 
ATOM     70  C   UNL A   1      39.468  28.589  30.546  1.00  0.00     0.134 A 
ATOM     71  F   UNL A   1      38.447  29.702  27.261  1.00  0.00    -0.206 F 
ATOM     72  C   UNL A   1      37.203  29.368  29.190  1.00  0.00     0.040 A 
ATOM     73  C   UNL A   1      38.207  28.550  31.177  1.00  0.00     0.040 A 
ATOM     74  F   UNL A   1      40.490  28.292  31.357  1.00  0.00    -0.206 F 
ATOM     75  C   UNL A   1      37.069  28.958  30.506  1.00  0.00     0.006 A 
ENDBRANCH  54  68
BRANCH  55  76
ATOM     76  C   UNL A   1      49.478  28.019  26.808  1.00  0.00     0.057 A 
ATOM     77  C   UNL A   1      50.471  27.409  27.608  1.00  0.00     0.134 A 
ATOM     78  C   UNL A   1      49.078  27.310  25.667  1.00  0.00     0.134 A 
ATOM     79  F   UNL A   1      50.959  28.059  28.677  1.00  0.00    -0.206 F 
ATOM     80  C   UNL A   1      50.792  26.053  27.474  1.00  0.00     0.040 A 
ATOM     81  C   UNL A   1      49.426  25.958  25.503  1.00  0.00     0.040 A 
ATOM     82  F   UNL A   1      48.167  27.827  24.831  1.00  0.00    -0.206 F 
ATOM     83  C   UNL A   1      50.215  25.307  26.454  1.00  0.00     0.006 A 
ENDBRANCH  55  76
BRANCH  67  84
ATOM     84  C   UNL A   1      44.363  33.405  27.147  1.00  0.00     0.057 A 
ATOM     85  C   UNL A   1      43.942  33.549  25.819  1.00  0.00     0.134 A 
ATOM     86  C   UNL A   1      44.025  34.480  28.006  1.00  0.00     0.134 A 
ATOM     87  F   UNL A   1      44.097  32.565  24.922  1.00  0.00    -0.206 F 
ATOM     88  C   UNL A   1      43.271  34.689  25.368  1.00  0.00     0.040 A 
ATOM     89  C   UNL A   1      43.305  35.594  27.578  1.00  0.00     0.040 A 
ATOM     90  F   UNL A   1      44.335  34.479  29.310  1.00  0.00    -0.206 F 
ATOM     91  C   UNL A   1      42.935  35.708  26.250  1.00  0.00     0.006 A 
ENDBRANCH  67  84
ENDBRANCH  41  42
ENDBRANCH  34  36
ENDBRANCH  33  34
ENDBRANCH  32  33
ENDBRANCH  31  32
ENDBRANCH  30  31
ENDBRANCH  29  30
ENDBRANCH  28  29
ENDBRANCH  27  28
ENDBRANCH   1  27
TORSDOF 23
ENDMDL
MODEL 2
REMARK VINA RESULT:     -10.3      4.297     10.338
REMARK SMILES Cc1ccccc1CNc1ccc(C(=O)OCCOCCOCCOCCOC(=O)c2ccc(-c3c4nc(c(-c5c(F)cccc5F)c5ccc([nH]5)c(-c5c(F)cccc5F)c5nc(c(-c6c(F)cccc6F)c6ccc3[nH]6)C=C5)C=C4)cc2)c(F)c1F
REMARK SMILES IDX 21 1 20 2 19 3 18 4 17 5 16 6 14 7 15 8 13 9 10 10 11 11
REMARK SMILES IDX 87 12 12 13 85 14 88 15 86 16 9 17 8 19 7 20 1 21 2 22 3 23
REMARK SMILES IDX 4 24 6 25 5 26 22 27 23 28 24 29 25 30 26 31 27 32 28 33
REMARK SMILES IDX 29 34 30 35 31 36 32 37 84 38 33 39 83 40 34 41 35 42 36 43
REMARK SMILES IDX 77 44 37 45 82 46 76 47 78 48 38 49 81 50 75 51 74 52 39 54
REMARK SMILES IDX 65 55 48 56 64 57 49 58 52 59 63 60 79 61 50 62 51 63 62 65
REMARK SMILES IDX 80 66 53 67 40 68 41 69 46 70 42 71 43 72 45 73 47 74 44 75
REMARK SMILES IDX 66 76 67 77 72 78 68 79 69 80 71 81 73 82 70 83 54 84 55 85
REMARK SMILES IDX 60 86 56 87 57 88 59 89 61 90 58 91
REMARK H PARENT 9 18 78 53 52 64
REMARK Flexibility Score: inf
ROOT
ATOM      1  C   UNL A   1      33.135  27.279  22.300  1.00  0.00     0.188 C 
ENDROOT
BRANCH   1   2
ATOM      2  C   UNL A   1      32.128  26.254  21.750  1.00  0.00     0.188 C 
BRANCH   2   3
ATOM      3  O   UNL A   1      32.045  25.033  22.463  1.00  0.00    -0.376 OA
BRANCH   3   4
ATOM      4  C   UNL A   1      33.291  24.358  22.565  1.00  0.00     0.202 C 
BRANCH   4   5
ATOM      5  C   UNL A   1      33.381  23.780  23.955  1.00  0.00     0.261 C 
BRANCH   5   6
ATOM      6  O   UNL A   1      34.752  23.514  24.221  1.00  0.00    -0.460 OA
BRANCH   6   7
ATOM      7  C   UNL A   1      34.898  22.747  25.312  1.00  0.00     0.341 C 
ATOM      8  O   UNL A   1      33.996  22.250  25.970  1.00  0.00    -0.246 OA
BRANCH   7   9
ATOM      9  C   UNL A   1      36.333  22.518  25.499  1.00  0.00     0.099 A 
ATOM     10  C   UNL A   1      38.962  21.907  26.125  1.00  0.00     0.074 A 
ATOM     11  C   UNL A   1      38.514  23.226  26.242  1.00  0.00     0.030 A 
ATOM     12  C   UNL A   1      38.142  20.957  25.501  1.00  0.00     0.182 A 
ATOM     13  C   UNL A   1      37.192  23.530  25.957  1.00  0.00     0.021 A 
ATOM     14  C   UNL A   1      36.832  21.261  25.188  1.00  0.00     0.175 A 
ATOM     15  F   UNL A   1      38.592  19.706  25.316  1.00  0.00    -0.201 F 
ATOM     16  F   UNL A   1      36.058  20.320  24.626  1.00  0.00    -0.203 F 
BRANCH  10  17
ATOM     17  N   UNL A   1      40.086  21.495  26.861  1.00  0.00    -0.379 N 
ATOM     18  H   UNL A   1      40.038  21.190  27.795  1.00  0.00     0.161 HD
BRANCH  17  19
ATOM     19  C   UNL A   1      41.336  21.564  26.099  1.00  0.00     0.149 C 
BRANCH  19  20
ATOM     20  C   UNL A   1      42.441  22.172  26.935  1.00  0.00    -0.026 A 
ATOM     21  C   UNL A   1      44.140  22.081  25.018  1.00  0.00     0.044 C 
ATOM     22  C   UNL A   1      43.732  22.409  26.428  1.00  0.00    -0.046 A 
ATOM     23  C   UNL A   1      44.695  23.008  27.260  1.00  0.00     0.004 A 
ATOM     24  C   UNL A   1      44.405  23.332  28.586  1.00  0.00     0.000 A 
ATOM     25  C   UNL A   1      42.170  22.501  28.282  1.00  0.00     0.006 A 
ATOM     26  C   UNL A   1      43.143  23.069  29.102  1.00  0.00     0.000 A 
ENDBRANCH  19  20
ENDBRANCH  17  19
ENDBRANCH  10  17
ENDBRANCH   7   9
ENDBRANCH   6   7
ENDBRANCH   5   6
ENDBRANCH   4   5
ENDBRANCH   3   4
ENDBRANCH   2   3
ENDBRANCH   1   2
BRANCH   1  27
ATOM     27  O   UNL A   1      32.714  28.584  22.669  1.00  0.00    -0.377 OA
BRANCH  27  28
ATOM     28  C   UNL A   1      31.403  28.795  23.179  1.00  0.00     0.188 C 
BRANCH  28  29
ATOM     29  C   UNL A   1      31.164  28.632  24.672  1.00  0.00     0.188 C 
BRANCH  29  30
ATOM     30  O   UNL A   1      32.313  29.129  25.354  1.00  0.00    -0.376 OA
BRANCH  30  31
ATOM     31  C   UNL A   1      32.201  30.451  25.866  1.00  0.00     0.202 C 
BRANCH  31  32
ATOM     32  C   UNL A   1      32.761  30.611  27.284  1.00  0.00     0.261 C 
BRANCH  32  33
ATOM     33  O   UNL A   1      33.885  31.513  27.249  1.00  0.00    -0.460 OA
BRANCH  33  34
ATOM     34  C   UNL A   1      33.783  32.612  28.044  1.00  0.00     0.338 C 
ATOM     35  O   UNL A   1      32.992  33.529  27.892  1.00  0.00    -0.246 OA
BRANCH  34  36
ATOM     36  C   UNL A   1      34.976  32.693  28.936  1.00  0.00     0.060 A 
ATOM     37  C   UNL A   1      36.193  33.188  28.436  1.00  0.00     0.016 A 
ATOM     38  C   UNL A   1      34.965  31.973  30.125  1.00  0.00     0.016 A 
ATOM     39  C   UNL A   1      37.407  32.811  29.033  1.00  0.00     0.010 A 
ATOM     40  C   UNL A   1      36.163  31.518  30.637  1.00  0.00     0.010 A 
ATOM     41  C   UNL A   1      37.397  31.887  30.078  1.00  0.00    -0.014 A 
BRANCH  41  42
ATOM     42  C   UNL A   1      38.561  31.092  30.534  1.00  0.00     0.031 A 
ATOM     43  C   UNL A   1      38.923  29.825  29.797  1.00  0.00     0.074 A 
ATOM     44  C   UNL A   1      39.470  31.738  31.317  1.00  0.00     0.049 A 
ATOM     45  N   UNL A   1      39.922  29.052  30.072  1.00  0.00    -0.248 NA
ATOM     46  C   UNL A   1      38.168  29.317  28.647  1.00  0.00     0.031 C 
ATOM     47  C   UNL A   1      40.905  31.476  31.422  1.00  0.00     0.029 A 
ATOM     48  N   UNL A   1      39.329  32.834  32.168  1.00  0.00    -0.354 N 
ATOM     49  C   UNL A   1      40.171  28.252  28.961  1.00  0.00     0.074 A 
ATOM     50  C   UNL A   1      38.972  28.357  28.175  1.00  0.00     0.031 C 
ATOM     51  C   UNL A   1      41.482  32.304  32.307  1.00  0.00     0.029 A 
ATOM     52  C   UNL A   1      40.398  32.856  33.071  1.00  0.00     0.049 A 
ATOM     53  H   UNL A   1      38.593  33.487  32.138  1.00  0.00     0.167 HD
ATOM     54  C   UNL A   1      41.431  27.747  28.751  1.00  0.00     0.037 A 
ATOM     55  C   UNL A   1      40.251  32.561  34.401  1.00  0.00     0.037 A 
ATOM     56  C   UNL A   1      42.312  27.992  29.914  1.00  0.00     0.049 A 
ATOM     57  C   UNL A   1      40.874  31.197  34.730  1.00  0.00     0.074 A 
ATOM     58  C   UNL A   1      43.575  28.537  30.075  1.00  0.00     0.029 A 
ATOM     59  N   UNL A   1      41.814  27.827  31.210  1.00  0.00    -0.354 N 
ATOM     60  N   UNL A   1      41.072  30.265  33.822  1.00  0.00    -0.248 NA
ATOM     61  C   UNL A   1      41.461  30.814  36.013  1.00  0.00     0.031 C 
ATOM     62  C   UNL A   1      43.733  28.887  31.449  1.00  0.00     0.029 A 
ATOM     63  C   UNL A   1      42.625  28.428  32.149  1.00  0.00     0.049 A 
ATOM     64  H   UNL A   1      40.985  27.342  31.426  1.00  0.00     0.167 HD
ATOM     65  C   UNL A   1      41.865  29.269  34.315  1.00  0.00     0.074 A 
ATOM     66  C   UNL A   1      42.037  29.632  35.712  1.00  0.00     0.031 C 
ATOM     67  C   UNL A   1      42.371  28.237  33.572  1.00  0.00     0.037 A 
BRANCH  54  68
ATOM     68  C   UNL A   1      41.986  27.245  27.401  1.00  0.00     0.057 A 
ATOM     69  C   UNL A   1      41.651  25.957  26.922  1.00  0.00     0.134 A 
ATOM     70  C   UNL A   1      42.939  27.906  26.593  1.00  0.00     0.134 A 
ATOM     71  F   UNL A   1      40.744  25.197  27.549  1.00  0.00    -0.206 F 
ATOM     72  C   UNL A   1      42.226  25.376  25.774  1.00  0.00     0.040 A 
ATOM     73  C   UNL A   1      43.472  27.361  25.407  1.00  0.00     0.040 A 
ATOM     74  F   UNL A   1      43.458  29.093  26.926  1.00  0.00    -0.206 F 
ATOM     75  C   UNL A   1      43.132  26.083  25.001  1.00  0.00     0.006 A 
ENDBRANCH  54  68
BRANCH  55  76
ATOM     76  C   UNL A   1      39.118  33.334  34.998  1.00  0.00     0.057 A 
ATOM     77  C   UNL A   1      38.033  32.518  35.389  1.00  0.00     0.134 A 
ATOM     78  C   UNL A   1      39.376  34.452  35.802  1.00  0.00     0.134 A 
ATOM     79  F   UNL A   1      37.678  31.470  34.627  1.00  0.00    -0.206 F 
ATOM     80  C   UNL A   1      37.466  32.610  36.666  1.00  0.00     0.040 A 
ATOM     81  C   UNL A   1      38.783  34.575  37.072  1.00  0.00     0.040 A 
ATOM     82  F   UNL A   1      40.364  35.301  35.489  1.00  0.00    -0.206 F 
ATOM     83  C   UNL A   1      37.892  33.606  37.536  1.00  0.00     0.006 A 
ENDBRANCH  55  76
BRANCH  67  84
ATOM     84  C   UNL A   1      42.703  26.877  34.139  1.00  0.00     0.057 A 
ATOM     85  C   UNL A   1      44.022  26.449  34.334  1.00  0.00     0.134 A 
ATOM     86  C   UNL A   1      41.712  26.074  34.757  1.00  0.00     0.134 A 
ATOM     87  F   UNL A   1      45.065  27.169  33.899  1.00  0.00    -0.206 F 
ATOM     88  C   UNL A   1      44.333  25.292  35.054  1.00  0.00     0.040 A 
ATOM     89  C   UNL A   1      42.017  24.951  35.527  1.00  0.00     0.040 A 
ATOM     90  F   UNL A   1      40.406  26.366  34.686  1.00  0.00    -0.206 F 
ATOM     91  C   UNL A   1      43.333  24.549  35.668  1.00  0.00     0.006 A 
ENDBRANCH  67  84
ENDBRANCH  41  42
ENDBRANCH  34  36
ENDBRANCH  33  34
ENDBRANCH  32  33
ENDBRANCH  31  32
ENDBRANCH  30  31
ENDBRANCH  29  30
ENDBRANCH  28  29
ENDBRANCH  27  28
ENDBRANCH   1  27
TORSDOF 23
ENDMDL
MODEL 3
REMARK VINA RESULT:     -10.1      3.890      9.660
REMARK SMILES Cc1ccccc1CNc1ccc(C(=O)OCCOCCOCCOCCOC(=O)c2ccc(-c3c4nc(c(-c5c(F)cccc5F)c5ccc([nH]5)c(-c5c(F)cccc5F)c5nc(c(-c6c(F)cccc6F)c6ccc3[nH]6)C=C5)C=C4)cc2)c(F)c1F
REMARK SMILES IDX 21 1 20 2 19 3 18 4 17 5 16 6 14 7 15 8 13 9 10 10 11 11
REMARK SMILES IDX 87 12 12 13 85 14 88 15 86 16 9 17 8 19 7 20 1 21 2 22 3 23
REMARK SMILES IDX 4 24 6 25 5 26 22 27 23 28 24 29 25 30 26 31 27 32 28 33
REMARK SMILES IDX 29 34 30 35 31 36 32 37 84 38 33 39 83 40 34 41 35 42 36 43
REMARK SMILES IDX 77 44 37 45 82 46 76 47 78 48 38 49 81 50 75 51 74 52 39 54
REMARK SMILES IDX 65 55 48 56 64 57 49 58 52 59 63 60 79 61 50 62 51 63 62 65
REMARK SMILES IDX 80 66 53 67 40 68 41 69 46 70 42 71 43 72 45 73 47 74 44 75
REMARK SMILES IDX 66 76 67 77 72 78 68 79 69 80 71 81 73 82 70 83 54 84 55 85
REMARK SMILES IDX 60 86 56 87 57 88 59 89 61 90 58 91
REMARK H PARENT 9 18 78 53 52 64
REMARK Flexibility Score: inf
ROOT
ATOM      1  C   UNL A   1      32.344  26.122  24.220  1.00  0.00     0.188 C 
ENDROOT
BRANCH   1   2
ATOM      2  C   UNL A   1      32.052  24.894  23.339  1.00  0.00     0.188 C 
BRANCH   2   3
ATOM      3  O   UNL A   1      32.873  24.754  22.193  1.00  0.00    -0.376 OA
BRANCH   3   4
ATOM      4  C   UNL A   1      33.320  23.423  21.983  1.00  0.00     0.202 C 
BRANCH   4   5
ATOM      5  C   UNL A   1      32.450  22.516  22.816  1.00  0.00     0.261 C 
BRANCH   5   6
ATOM      6  O   UNL A   1      33.285  21.503  23.363  1.00  0.00    -0.460 OA
BRANCH   6   7
ATOM      7  C   UNL A   1      33.315  21.565  24.703  1.00  0.00     0.341 C 
ATOM      8  O   UNL A   1      32.351  21.489  25.450  1.00  0.00    -0.246 OA
BRANCH   7   9
ATOM      9  C   UNL A   1      34.722  21.624  25.108  1.00  0.00     0.099 A 
ATOM     10  C   UNL A   1      37.434  21.912  25.593  1.00  0.00     0.074 A 
ATOM     11  C   UNL A   1      36.919  20.649  25.286  1.00  0.00     0.030 A 
ATOM     12  C   UNL A   1      36.551  22.969  25.853  1.00  0.00     0.182 A 
ATOM     13  C   UNL A   1      35.567  20.507  25.014  1.00  0.00     0.021 A 
ATOM     14  C   UNL A   1      35.199  22.825  25.612  1.00  0.00     0.175 A 
ATOM     15  F   UNL A   1      37.033  24.165  26.223  1.00  0.00    -0.201 F 
ATOM     16  F   UNL A   1      34.381  23.865  25.834  1.00  0.00    -0.203 F 
BRANCH  10  17
ATOM     17  N   UNL A   1      38.798  22.171  25.374  1.00  0.00    -0.379 N 
ATOM     18  H   UNL A   1      39.168  22.409  24.493  1.00  0.00     0.161 HD
BRANCH  17  19
ATOM     19  C   UNL A   1      39.614  22.049  26.585  1.00  0.00     0.149 C 
BRANCH  19  20
ATOM     20  C   UNL A   1      40.928  21.361  26.280  1.00  0.00    -0.026 A 
ATOM     21  C   UNL A   1      42.133  23.567  25.776  1.00  0.00     0.044 C 
ATOM     22  C   UNL A   1      42.086  22.069  25.908  1.00  0.00    -0.046 A 
ATOM     23  C   UNL A   1      43.276  21.358  25.674  1.00  0.00     0.004 A 
ATOM     24  C   UNL A   1      43.318  19.966  25.762  1.00  0.00     0.000 A 
ATOM     25  C   UNL A   1      40.988  19.952  26.357  1.00  0.00     0.006 A 
ATOM     26  C   UNL A   1      42.169  19.260  26.094  1.00  0.00     0.000 A 
ENDBRANCH  19  20
ENDBRANCH  17  19
ENDBRANCH  10  17
ENDBRANCH   7   9
ENDBRANCH   6   7
ENDBRANCH   5   6
ENDBRANCH   4   5
ENDBRANCH   3   4
ENDBRANCH   2   3
ENDBRANCH   1   2
BRANCH   1  27
ATOM     27  O   UNL A   1      31.516  26.429  25.333  1.00  0.00    -0.377 OA
BRANCH  27  28
ATOM     28  C   UNL A   1      30.940  27.725  25.459  1.00  0.00     0.188 C 
BRANCH  28  29
ATOM     29  C   UNL A   1      31.042  28.687  24.286  1.00  0.00     0.188 C 
BRANCH  29  30
ATOM     30  O   UNL A   1      31.678  29.875  24.749  1.00  0.00    -0.376 OA
BRANCH  30  31
ATOM     31  C   UNL A   1      32.034  29.885  26.126  1.00  0.00     0.202 C 
BRANCH  31  32
ATOM     32  C   UNL A   1      33.532  30.100  26.373  1.00  0.00     0.261 C 
BRANCH  32  33
ATOM     33  O   UNL A   1      33.708  30.822  27.608  1.00  0.00    -0.460 OA
BRANCH  33  34
ATOM     34  C   UNL A   1      34.940  31.365  27.802  1.00  0.00     0.338 C 
ATOM     35  O   UNL A   1      35.277  32.494  27.485  1.00  0.00    -0.246 OA
BRANCH  34  36
ATOM     36  C   UNL A   1      35.906  30.290  28.169  1.00  0.00     0.060 A 
ATOM     37  C   UNL A   1      35.844  29.695  29.441  1.00  0.00     0.016 A 
ATOM     38  C   UNL A   1      37.050  30.134  27.395  1.00  0.00     0.016 A 
ATOM     39  C   UNL A   1      36.987  29.100  29.999  1.00  0.00     0.010 A 
ATOM     40  C   UNL A   1      38.196  29.649  27.992  1.00  0.00     0.010 A 
ATOM     41  C   UNL A   1      38.198  29.168  29.311  1.00  0.00    -0.014 A 
BRANCH  41  42
ATOM     42  C   UNL A   1      39.539  28.968  29.909  1.00  0.00     0.031 A 
ATOM     43  C   UNL A   1      40.337  27.742  29.537  1.00  0.00     0.074 A 
ATOM     44  C   UNL A   1      40.143  30.071  30.430  1.00  0.00     0.049 A 
ATOM     45  N   UNL A   1      41.523  27.455  29.964  1.00  0.00    -0.248 NA
ATOM     46  C   UNL A   1      39.849  26.709  28.615  1.00  0.00     0.031 C 
ATOM     47  C   UNL A   1      41.576  30.343  30.529  1.00  0.00     0.029 A 
ATOM     48  N   UNL A   1      39.605  31.250  30.947  1.00  0.00    -0.354 N 
ATOM     49  C   UNL A   1      42.076  26.507  29.109  1.00  0.00     0.074 A 
ATOM     50  C   UNL A   1      40.948  25.980  28.390  1.00  0.00     0.031 C 
ATOM     51  C   UNL A   1      41.803  31.530  31.116  1.00  0.00     0.029 A 
ATOM     52  C   UNL A   1      40.562  31.880  31.751  1.00  0.00     0.049 A 
ATOM     53  H   UNL A   1      38.695  31.584  30.775  1.00  0.00     0.167 HD
ATOM     54  C   UNL A   1      43.440  26.413  28.982  1.00  0.00     0.037 A 
ATOM     55  C   UNL A   1      40.462  31.938  33.116  1.00  0.00     0.037 A 
ATOM     56  C   UNL A   1      44.135  27.253  29.983  1.00  0.00     0.049 A 
ATOM     57  C   UNL A   1      41.490  31.010  33.780  1.00  0.00     0.074 A 
ATOM     58  C   UNL A   1      45.135  28.210  29.918  1.00  0.00     0.029 A 
ATOM     59  N   UNL A   1      43.662  27.303  31.297  1.00  0.00    -0.354 N 
ATOM     60  N   UNL A   1      42.029  29.983  33.159  1.00  0.00    -0.248 NA
ATOM     61  C   UNL A   1      42.112  31.222  35.086  1.00  0.00     0.031 C 
ATOM     62  C   UNL A   1      45.103  28.963  31.129  1.00  0.00     0.029 A 
ATOM     63  C   UNL A   1      44.181  28.377  31.987  1.00  0.00     0.049 A 
ATOM     64  H   UNL A   1      43.033  26.650  31.683  1.00  0.00     0.167 HD
ATOM     65  C   UNL A   1      43.086  29.489  33.869  1.00  0.00     0.074 A 
ATOM     66  C   UNL A   1      43.062  30.265  35.098  1.00  0.00     0.031 C 
ATOM     67  C   UNL A   1      43.941  28.520  33.419  1.00  0.00     0.037 A 
BRANCH  54  68
ATOM     68  C   UNL A   1      44.193  25.767  27.800  1.00  0.00     0.057 A 
ATOM     69  C   UNL A   1      44.805  24.500  27.945  1.00  0.00     0.134 A 
ATOM     70  C   UNL A   1      44.462  26.372  26.551  1.00  0.00     0.134 A 
ATOM     71  F   UNL A   1      44.637  23.770  29.055  1.00  0.00    -0.206 F 
ATOM     72  C   UNL A   1      45.624  23.911  26.961  1.00  0.00     0.040 A 
ATOM     73  C   UNL A   1      45.226  25.764  25.534  1.00  0.00     0.040 A 
ATOM     74  F   UNL A   1      44.054  27.612  26.255  1.00  0.00    -0.206 F 
ATOM     75  C   UNL A   1      45.828  24.535  25.742  1.00  0.00     0.006 A 
ENDBRANCH  54  68
BRANCH  55  76
ATOM     76  C   UNL A   1      39.110  32.424  33.532  1.00  0.00     0.057 A 
ATOM     77  C   UNL A   1      38.394  31.482  34.304  1.00  0.00     0.134 A 
ATOM     78  C   UNL A   1      38.918  33.772  33.863  1.00  0.00     0.134 A 
ATOM     79  F   UNL A   1      38.469  30.175  34.001  1.00  0.00    -0.206 F 
ATOM     80  C   UNL A   1      37.803  31.828  35.525  1.00  0.00     0.040 A 
ATOM     81  C   UNL A   1      38.291  34.133  35.068  1.00  0.00     0.040 A 
ATOM     82  F   UNL A   1      39.529  34.737  33.162  1.00  0.00    -0.206 F 
ATOM     83  C   UNL A   1      37.809  33.154  35.940  1.00  0.00     0.006 A 
ENDBRANCH  55  76
BRANCH  67  84
ATOM     84  C   UNL A   1      44.682  27.565  34.325  1.00  0.00     0.057 A 
ATOM     85  C   UNL A   1      45.948  27.860  34.847  1.00  0.00     0.134 A 
ATOM     86  C   UNL A   1      44.031  26.454  34.915  1.00  0.00     0.134 A 
ATOM     87  F   UNL A   1      46.632  28.945  34.459  1.00  0.00    -0.206 F 
ATOM     88  C   UNL A   1      46.540  27.087  35.850  1.00  0.00     0.040 A 
ATOM     89  C   UNL A   1      44.589  25.714  35.957  1.00  0.00     0.040 A 
ATOM     90  F   UNL A   1      42.804  26.062  34.544  1.00  0.00    -0.206 F 
ATOM     91  C   UNL A   1      45.855  26.023  36.421  1.00  0.00     0.006 A 
ENDBRANCH  67  84
ENDBRANCH  41  42
ENDBRANCH  34  36
ENDBRANCH  33  34
ENDBRANCH  32  33
ENDBRANCH  31  32
ENDBRANCH  30  31
ENDBRANCH  29  30
ENDBRANCH  28  29
ENDBRANCH  27  28
ENDBRANCH   1  27
TORSDOF 23
ENDMDL
