MODEL 1
REMARK VINA RESULT:      -9.4      0.000      0.000
REMARK SMILES C=CCN(CC(=O)OCCOCCOCCOCCOC(=O)c1ccc(-c2c3nc(c(-c4c(F)cccc4F)c4ccc([nH]4)c(-c4c(F)cccc4F)c4nc(c(-c5c(F)cccc5F)c5ccc2[nH]5)C=C4)C=C3)cc1)C(=O)c1cn(C2C[NH2+]C2)nn1
REMARK SMILES IDX 13 1 12 2 11 3 10 4 9 5 8 6 6 7 7 8 5 9 4 10 3 11 2 12 1 13
REMARK SMILES IDX 77 14 78 15 79 16 80 17 87 18 81 19 86 20 82 21 83 22 85 23
REMARK SMILES IDX 84 24 14 27 15 28 16 29 17 30 18 31 19 32 20 33 21 34 22 35
REMARK SMILES IDX 23 36 24 37 76 38 25 39 75 40 26 41 27 42 28 43 69 44 29 45
REMARK SMILES IDX 74 46 68 47 70 48 30 49 73 50 67 51 66 52 31 54 57 55 40 56
REMARK SMILES IDX 56 57 41 58 44 59 55 60 71 61 42 62 43 63 54 65 72 66 45 67
REMARK SMILES IDX 32 68 33 69 38 70 34 71 35 72 37 73 39 74 36 75 58 76 59 77
REMARK SMILES IDX 64 78 60 79 61 80 63 81 65 82 62 83 46 84 47 85 52 86 48 87
REMARK SMILES IDX 49 88 51 89 53 90 50 91
REMARK H PARENT 84 25 84 26 70 53 44 64
REMARK Flexibility Score: inf
ROOT
ATOM      1  C   UNL A   1      34.025  30.022  26.852  1.00  0.00     0.188 C 
ENDROOT
BRANCH   1   2
ATOM      2  C   UNL A   1      33.507  28.616  27.122  1.00  0.00     0.188 C 
BRANCH   2   3
ATOM      3  O   UNL A   1      32.080  28.567  27.198  1.00  0.00    -0.376 OA
BRANCH   3   4
ATOM      4  C   UNL A   1      31.452  27.461  26.542  1.00  0.00     0.202 C 
BRANCH   4   5
ATOM      5  C   UNL A   1      32.140  26.098  26.713  1.00  0.00     0.261 C 
BRANCH   5   6
ATOM      6  O   UNL A   1      31.183  25.023  26.815  1.00  0.00    -0.462 OA
BRANCH   6   7
ATOM      7  C   UNL A   1      31.605  23.801  26.409  1.00  0.00     0.325 C 
ATOM      8  O   UNL A   1      30.927  22.785  26.501  1.00  0.00    -0.250 OA
BRANCH   7   9
ATOM      9  C   UNL A   1      33.059  23.811  25.905  1.00  0.00     0.242 C 
BRANCH   9  10
ATOM     10  N   UNL A   1      33.375  23.130  24.632  1.00  0.00    -0.322 N 
BRANCH  10  11
ATOM     11  C   UNL A   1      34.511  22.202  24.614  1.00  0.00     0.147 C 
BRANCH  11  12
ATOM     12  C   UNL A   1      35.592  22.652  23.675  1.00  0.00    -0.014 C 
ATOM     13  C   UNL A   1      36.892  22.656  24.008  1.00  0.00     0.006 C 
ENDBRANCH  11  12
ENDBRANCH  10  11
BRANCH  10  14
ATOM     14  C   UNL A   1      32.705  23.351  23.408  1.00  0.00     0.276 C 
ATOM     15  O   UNL A   1      32.161  22.416  22.818  1.00  0.00    -0.267 OA
BRANCH  14  16
ATOM     16  C   UNL A   1      32.682  24.674  22.775  1.00  0.00     0.170 A 
ATOM     17  C   UNL A   1      31.781  25.712  22.904  1.00  0.00     0.145 A 
ATOM     18  N   UNL A   1      33.772  25.149  22.074  1.00  0.00    -0.125 NA
ATOM     19  N   UNL A   1      32.415  26.797  22.363  1.00  0.00    -0.237 N 
ATOM     20  N   UNL A   1      33.574  26.430  21.789  1.00  0.00    -0.066 NA
BRANCH  19  21
ATOM     21  C   UNL A   1      32.006  28.170  22.393  1.00  0.00     0.218 C 
ATOM     22  C   UNL A   1      30.798  28.514  23.291  1.00  0.00     0.294 C 
ATOM     23  C   UNL A   1      32.789  29.004  23.438  1.00  0.00     0.294 C 
ATOM     24  N   UNL A   1      31.527  29.728  23.741  1.00  0.00    -0.342 N 
ATOM     25  H   UNL A   1      31.397  29.964  24.724  1.00  0.00     0.346 HD
ATOM     26  H   UNL A   1      31.330  30.649  23.347  1.00  0.00     0.346 HD
ENDBRANCH  19  21
ENDBRANCH  14  16
ENDBRANCH  10  14
ENDBRANCH   9  10
ENDBRANCH   7   9
ENDBRANCH   6   7
ENDBRANCH   5   6
ENDBRANCH   4   5
ENDBRANCH   3   4
ENDBRANCH   2   3
ENDBRANCH   1   2
BRANCH   1  27
ATOM     27  O   UNL A   1      33.719  30.921  27.920  1.00  0.00    -0.377 OA
BRANCH  27  28
ATOM     28  C   UNL A   1      34.369  32.184  27.841  1.00  0.00     0.188 C 
BRANCH  28  29
ATOM     29  C   UNL A   1      33.475  33.418  28.026  1.00  0.00     0.188 C 
BRANCH  29  30
ATOM     30  O   UNL A   1      33.325  33.845  29.379  1.00  0.00    -0.376 OA
BRANCH  30  31
ATOM     31  C   UNL A   1      34.413  34.630  29.875  1.00  0.00     0.202 C 
BRANCH  31  32
ATOM     32  C   UNL A   1      34.696  34.439  31.376  1.00  0.00     0.261 C 
BRANCH  32  33
ATOM     33  O   UNL A   1      36.015  33.967  31.687  1.00  0.00    -0.460 OA
BRANCH  33  34
ATOM     34  C   UNL A   1      36.115  32.822  32.401  1.00  0.00     0.338 C 
ATOM     35  O   UNL A   1      35.399  32.458  33.308  1.00  0.00    -0.246 OA
BRANCH  34  36
ATOM     36  C   UNL A   1      37.121  31.967  31.728  1.00  0.00     0.060 A 
ATOM     37  C   UNL A   1      38.040  31.272  32.528  1.00  0.00     0.016 A 
ATOM     38  C   UNL A   1      37.121  31.799  30.340  1.00  0.00     0.016 A 
ATOM     39  C   UNL A   1      38.950  30.393  31.943  1.00  0.00     0.010 A 
ATOM     40  C   UNL A   1      38.064  30.958  29.749  1.00  0.00     0.010 A 
ATOM     41  C   UNL A   1      38.996  30.273  30.547  1.00  0.00    -0.014 A 
BRANCH  41  42
ATOM     42  C   UNL A   1      40.210  29.717  29.912  1.00  0.00     0.031 A 
ATOM     43  C   UNL A   1      41.359  30.666  29.719  1.00  0.00     0.074 A 
ATOM     44  C   UNL A   1      40.290  28.441  29.501  1.00  0.00     0.049 A 
ATOM     45  N   UNL A   1      42.517  30.473  29.147  1.00  0.00    -0.248 NA
ATOM     46  C   UNL A   1      41.167  32.030  30.246  1.00  0.00     0.031 C 
ATOM     47  C   UNL A   1      39.256  27.424  29.675  1.00  0.00     0.029 A 
ATOM     48  N   UNL A   1      41.298  27.790  28.835  1.00  0.00    -0.354 N 
ATOM     49  C   UNL A   1      43.187  31.685  29.250  1.00  0.00     0.074 A 
ATOM     50  C   UNL A   1      42.305  32.613  29.917  1.00  0.00     0.031 C 
ATOM     51  C   UNL A   1      39.680  26.275  29.116  1.00  0.00     0.029 A 
ATOM     52  C   UNL A   1      40.998  26.488  28.519  1.00  0.00     0.049 A 
ATOM     53  H   UNL A   1      42.156  28.215  28.607  1.00  0.00     0.167 HD
ATOM     54  C   UNL A   1      44.429  32.002  28.820  1.00  0.00     0.037 A 
ATOM     55  C   UNL A   1      41.708  25.588  27.809  1.00  0.00     0.037 A 
ATOM     56  C   UNL A   1      45.278  31.092  28.109  1.00  0.00     0.049 A 
ATOM     57  C   UNL A   1      43.050  25.991  27.251  1.00  0.00     0.074 A 
ATOM     58  C   UNL A   1      46.548  31.307  27.606  1.00  0.00     0.029 A 
ATOM     59  N   UNL A   1      44.925  29.792  27.777  1.00  0.00    -0.354 N 
ATOM     60  N   UNL A   1      43.692  27.129  27.376  1.00  0.00    -0.248 NA
ATOM     61  C   UNL A   1      43.765  24.988  26.448  1.00  0.00     0.031 C 
ATOM     62  C   UNL A   1      46.942  30.150  26.927  1.00  0.00     0.029 A 
ATOM     63  C   UNL A   1      45.942  29.197  27.056  1.00  0.00     0.049 A 
ATOM     64  H   UNL A   1      44.075  29.357  28.020  1.00  0.00     0.167 HD
ATOM     65  C   UNL A   1      44.898  26.967  26.705  1.00  0.00     0.074 A 
ATOM     66  C   UNL A   1      44.897  25.622  26.168  1.00  0.00     0.031 C 
ATOM     67  C   UNL A   1      45.919  27.847  26.553  1.00  0.00     0.037 A 
BRANCH  54  68
ATOM     68  C   UNL A   1      44.885  33.409  29.064  1.00  0.00     0.057 A 
ATOM     69  C   UNL A   1      44.696  34.424  28.115  1.00  0.00     0.134 A 
ATOM     70  C   UNL A   1      45.576  33.740  30.235  1.00  0.00     0.134 A 
ATOM     71  F   UNL A   1      44.070  34.163  26.957  1.00  0.00    -0.206 F 
ATOM     72  C   UNL A   1      45.209  35.707  28.307  1.00  0.00     0.040 A 
ATOM     73  C   UNL A   1      46.069  35.027  30.452  1.00  0.00     0.040 A 
ATOM     74  F   UNL A   1      45.799  32.813  31.180  1.00  0.00    -0.206 F 
ATOM     75  C   UNL A   1      45.897  36.012  29.481  1.00  0.00     0.006 A 
ENDBRANCH  54  68
BRANCH  55  76
ATOM     76  C   UNL A   1      41.172  24.221  27.585  1.00  0.00     0.057 A 
ATOM     77  C   UNL A   1      41.684  23.121  28.283  1.00  0.00     0.134 A 
ATOM     78  C   UNL A   1      40.145  23.976  26.666  1.00  0.00     0.134 A 
ATOM     79  F   UNL A   1      42.687  23.286  29.159  1.00  0.00    -0.206 F 
ATOM     80  C   UNL A   1      41.200  21.829  28.073  1.00  0.00     0.040 A 
ATOM     81  C   UNL A   1      39.636  22.692  26.461  1.00  0.00     0.040 A 
ATOM     82  F   UNL A   1      39.612  24.985  25.960  1.00  0.00    -0.206 F 
ATOM     83  C   UNL A   1      40.167  21.612  27.163  1.00  0.00     0.006 A 
ENDBRANCH  55  76
BRANCH  67  84
ATOM     84  C   UNL A   1      47.145  27.371  25.831  1.00  0.00     0.057 A 
ATOM     85  C   UNL A   1      48.167  26.674  26.482  1.00  0.00     0.134 A 
ATOM     86  C   UNL A   1      47.254  27.541  24.444  1.00  0.00     0.134 A 
ATOM     87  F   UNL A   1      48.125  26.486  27.809  1.00  0.00    -0.206 F 
ATOM     88  C   UNL A   1      49.262  26.167  25.780  1.00  0.00     0.040 A 
ATOM     89  C   UNL A   1      48.330  27.018  23.727  1.00  0.00     0.040 A 
ATOM     90  F   UNL A   1      46.299  28.190  23.760  1.00  0.00    -0.206 F 
ATOM     91  C   UNL A   1      49.340  26.330  24.397  1.00  0.00     0.006 A 
ENDBRANCH  67  84
ENDBRANCH  41  42
ENDBRANCH  34  36
ENDBRANCH  33  34
ENDBRANCH  32  33
ENDBRANCH  31  32
ENDBRANCH  30  31
ENDBRANCH  29  30
ENDBRANCH  28  29
ENDBRANCH  27  28
ENDBRANCH   1  27
TORSDOF 26
ENDMDL
MODEL 2
REMARK VINA RESULT:      -9.1      3.381      8.707
REMARK SMILES C=CCN(CC(=O)OCCOCCOCCOCCOC(=O)c1ccc(-c2c3nc(c(-c4c(F)cccc4F)c4ccc([nH]4)c(-c4c(F)cccc4F)c4nc(c(-c5c(F)cccc5F)c5ccc2[nH]5)C=C4)C=C3)cc1)C(=O)c1cn(C2C[NH2+]C2)nn1
REMARK SMILES IDX 13 1 12 2 11 3 10 4 9 5 8 6 6 7 7 8 5 9 4 10 3 11 2 12 1 13
REMARK SMILES IDX 77 14 78 15 79 16 80 17 87 18 81 19 86 20 82 21 83 22 85 23
REMARK SMILES IDX 84 24 14 27 15 28 16 29 17 30 18 31 19 32 20 33 21 34 22 35
REMARK SMILES IDX 23 36 24 37 76 38 25 39 75 40 26 41 27 42 28 43 69 44 29 45
REMARK SMILES IDX 74 46 68 47 70 48 30 49 73 50 67 51 66 52 31 54 57 55 40 56
REMARK SMILES IDX 56 57 41 58 44 59 55 60 71 61 42 62 43 63 54 65 72 66 45 67
REMARK SMILES IDX 32 68 33 69 38 70 34 71 35 72 37 73 39 74 36 75 58 76 59 77
REMARK SMILES IDX 64 78 60 79 61 80 63 81 65 82 62 83 46 84 47 85 52 86 48 87
REMARK SMILES IDX 49 88 51 89 53 90 50 91
REMARK H PARENT 84 25 84 26 70 53 44 64
REMARK Flexibility Score: inf
ROOT
ATOM      1  C   UNL A   1      38.908  23.109  26.491  1.00  0.00     0.188 C 
ENDROOT
BRANCH   1   2
ATOM      2  C   UNL A   1      37.641  23.599  25.804  1.00  0.00     0.188 C 
BRANCH   2   3
ATOM      3  O   UNL A   1      37.090  22.620  24.918  1.00  0.00    -0.376 OA
BRANCH   3   4
ATOM      4  C   UNL A   1      36.359  23.126  23.797  1.00  0.00     0.202 C 
BRANCH   4   5
ATOM      5  C   UNL A   1      35.138  23.998  24.128  1.00  0.00     0.261 C 
BRANCH   5   6
ATOM      6  O   UNL A   1      34.450  24.434  22.936  1.00  0.00    -0.462 OA
BRANCH   6   7
ATOM      7  C   UNL A   1      33.618  25.493  23.075  1.00  0.00     0.325 C 
ATOM      8  O   UNL A   1      33.926  26.524  23.662  1.00  0.00    -0.250 OA
BRANCH   7   9
ATOM      9  C   UNL A   1      32.217  25.230  22.496  1.00  0.00     0.242 C 
BRANCH   9  10
ATOM     10  N   UNL A   1      31.092  25.007  23.429  1.00  0.00    -0.322 N 
BRANCH  10  11
ATOM     11  C   UNL A   1      30.801  23.628  23.836  1.00  0.00     0.147 C 
BRANCH  11  12
ATOM     12  C   UNL A   1      31.295  23.333  25.222  1.00  0.00    -0.014 C 
ATOM     13  C   UNL A   1      30.702  22.442  26.032  1.00  0.00     0.006 C 
ENDBRANCH  11  12
ENDBRANCH  10  11
BRANCH  10  14
ATOM     14  C   UNL A   1      30.231  26.017  23.914  1.00  0.00     0.276 C 
ATOM     15  O   UNL A   1      29.041  26.026  23.596  1.00  0.00    -0.267 OA
BRANCH  14  16
ATOM     16  C   UNL A   1      30.729  27.110  24.755  1.00  0.00     0.170 A 
ATOM     17  C   UNL A   1      31.255  27.088  26.031  1.00  0.00     0.145 A 
ATOM     18  N   UNL A   1      30.939  28.372  24.237  1.00  0.00    -0.125 NA
ATOM     19  N   UNL A   1      31.851  28.310  26.187  1.00  0.00    -0.237 N 
ATOM     20  N   UNL A   1      31.581  29.105  25.138  1.00  0.00    -0.066 NA
BRANCH  19  21
ATOM     21  C   UNL A   1      32.697  28.756  27.255  1.00  0.00     0.218 C 
ATOM     22  C   UNL A   1      34.213  28.797  26.966  1.00  0.00     0.294 C 
ATOM     23  C   UNL A   1      32.847  30.297  27.293  1.00  0.00     0.294 C 
ATOM     24  N   UNL A   1      34.272  30.106  27.668  1.00  0.00    -0.342 N 
ATOM     25  H   UNL A   1      34.915  30.781  27.256  1.00  0.00     0.346 HD
ATOM     26  H   UNL A   1      34.587  30.181  28.636  1.00  0.00     0.346 HD
ENDBRANCH  19  21
ENDBRANCH  14  16
ENDBRANCH  10  14
ENDBRANCH   9  10
ENDBRANCH   7   9
ENDBRANCH   6   7
ENDBRANCH   5   6
ENDBRANCH   4   5
ENDBRANCH   3   4
ENDBRANCH   2   3
ENDBRANCH   1   2
BRANCH   1  27
ATOM     27  O   UNL A   1      39.362  21.864  25.956  1.00  0.00    -0.377 OA
BRANCH  27  28
ATOM     28  C   UNL A   1      40.744  21.594  26.164  1.00  0.00     0.188 C 
BRANCH  28  29
ATOM     29  C   UNL A   1      41.109  20.915  27.491  1.00  0.00     0.188 C 
BRANCH  29  30
ATOM     30  O   UNL A   1      41.741  19.643  27.352  1.00  0.00    -0.376 OA
BRANCH  30  31
ATOM     31  C   UNL A   1      41.817  19.165  26.005  1.00  0.00     0.202 C 
BRANCH  31  32
ATOM     32  C   UNL A   1      43.167  18.523  25.639  1.00  0.00     0.261 C 
BRANCH  32  33
ATOM     33  O   UNL A   1      43.666  18.867  24.338  1.00  0.00    -0.460 OA
BRANCH  33  34
ATOM     34  C   UNL A   1      44.866  19.488  24.275  1.00  0.00     0.338 C 
ATOM     35  O   UNL A   1      45.873  19.086  23.734  1.00  0.00    -0.246 OA
BRANCH  34  36
ATOM     36  C   UNL A   1      44.680  20.867  24.786  1.00  0.00     0.060 A 
ATOM     37  C   UNL A   1      44.368  21.878  23.865  1.00  0.00     0.016 A 
ATOM     38  C   UNL A   1      44.746  21.150  26.153  1.00  0.00     0.016 A 
ATOM     39  C   UNL A   1      44.103  23.171  24.312  1.00  0.00     0.010 A 
ATOM     40  C   UNL A   1      44.531  22.455  26.597  1.00  0.00     0.010 A 
ATOM     41  C   UNL A   1      44.234  23.472  25.675  1.00  0.00    -0.014 A 
BRANCH  41  42
ATOM     42  C   UNL A   1      44.399  24.883  26.087  1.00  0.00     0.031 A 
ATOM     43  C   UNL A   1      45.786  25.451  25.989  1.00  0.00     0.074 A 
ATOM     44  C   UNL A   1      43.379  25.623  26.550  1.00  0.00     0.049 A 
ATOM     45  N   UNL A   1      46.234  26.630  26.329  1.00  0.00    -0.248 NA
ATOM     46  C   UNL A   1      46.814  24.554  25.429  1.00  0.00     0.031 C 
ATOM     47  C   UNL A   1      41.987  25.190  26.649  1.00  0.00     0.029 A 
ATOM     48  N   UNL A   1      43.370  26.906  27.040  1.00  0.00    -0.354 N 
ATOM     49  C   UNL A   1      47.588  26.614  26.021  1.00  0.00     0.074 A 
ATOM     50  C   UNL A   1      47.897  25.308  25.489  1.00  0.00     0.031 C 
ATOM     51  C   UNL A   1      41.259  26.190  27.181  1.00  0.00     0.029 A 
ATOM     52  C   UNL A   1      42.140  27.316  27.488  1.00  0.00     0.049 A 
ATOM     53  H   UNL A   1      44.171  27.477  27.066  1.00  0.00     0.167 HD
ATOM     54  C   UNL A   1      48.501  27.600  26.175  1.00  0.00     0.037 A 
ATOM     55  C   UNL A   1      41.783  28.466  28.095  1.00  0.00     0.037 A 
ATOM     56  C   UNL A   1      48.199  28.875  26.756  1.00  0.00     0.049 A 
ATOM     57  C   UNL A   1      42.835  29.516  28.349  1.00  0.00     0.074 A 
ATOM     58  C   UNL A   1      49.045  29.944  26.982  1.00  0.00     0.029 A 
ATOM     59  N   UNL A   1      46.947  29.241  27.230  1.00  0.00    -0.354 N 
ATOM     60  N   UNL A   1      44.108  29.508  28.030  1.00  0.00    -0.248 NA
ATOM     61  C   UNL A   1      42.404  30.734  29.052  1.00  0.00     0.031 C 
ATOM     62  C   UNL A   1      48.313  30.940  27.638  1.00  0.00     0.029 A 
ATOM     63  C   UNL A   1      47.001  30.512  27.768  1.00  0.00     0.049 A 
ATOM     64  H   UNL A   1      46.140  28.678  27.188  1.00  0.00     0.167 HD
ATOM     65  C   UNL A   1      44.620  30.728  28.455  1.00  0.00     0.074 A 
ATOM     66  C   UNL A   1      43.521  31.451  29.062  1.00  0.00     0.031 C 
ATOM     67  C   UNL A   1      45.882  31.213  28.347  1.00  0.00     0.037 A 
BRANCH  54  68
ATOM     68  C   UNL A   1      49.906  27.285  25.760  1.00  0.00     0.057 A 
ATOM     69  C   UNL A   1      50.325  27.392  24.426  1.00  0.00     0.134 A 
ATOM     70  C   UNL A   1      50.835  26.812  26.693  1.00  0.00     0.134 A 
ATOM     71  F   UNL A   1      49.472  27.808  23.476  1.00  0.00    -0.206 F 
ATOM     72  C   UNL A   1      51.606  27.005  24.031  1.00  0.00     0.040 A 
ATOM     73  C   UNL A   1      52.128  26.449  26.315  1.00  0.00     0.040 A 
ATOM     74  F   UNL A   1      50.496  26.677  27.984  1.00  0.00    -0.206 F 
ATOM     75  C   UNL A   1      52.513  26.534  24.978  1.00  0.00     0.006 A 
ENDBRANCH  54  68
BRANCH  55  76
ATOM     76  C   UNL A   1      40.373  28.690  28.504  1.00  0.00     0.057 A 
ATOM     77  C   UNL A   1      39.426  29.179  27.596  1.00  0.00     0.134 A 
ATOM     78  C   UNL A   1      39.936  28.430  29.809  1.00  0.00     0.134 A 
ATOM     79  F   UNL A   1      39.788  29.473  26.338  1.00  0.00    -0.206 F 
ATOM     80  C   UNL A   1      38.101  29.408  27.970  1.00  0.00     0.040 A 
ATOM     81  C   UNL A   1      38.608  28.633  30.192  1.00  0.00     0.040 A 
ATOM     82  F   UNL A   1      40.792  27.963  30.730  1.00  0.00    -0.206 F 
ATOM     83  C   UNL A   1      37.687  29.128  29.271  1.00  0.00     0.006 A 
ENDBRANCH  55  76
BRANCH  67  84
ATOM     84  C   UNL A   1      46.136  32.608  28.837  1.00  0.00     0.057 A 
ATOM     85  C   UNL A   1      45.936  33.728  28.026  1.00  0.00     0.134 A 
ATOM     86  C   UNL A   1      46.500  32.827  30.173  1.00  0.00     0.134 A 
ATOM     87  F   UNL A   1      45.594  33.584  26.737  1.00  0.00    -0.206 F 
ATOM     88  C   UNL A   1      46.098  35.023  28.523  1.00  0.00     0.040 A 
ATOM     89  C   UNL A   1      46.641  34.116  30.688  1.00  0.00     0.040 A 
ATOM     90  F   UNL A   1      46.694  31.793  31.005  1.00  0.00    -0.206 F 
ATOM     91  C   UNL A   1      46.442  35.219  29.860  1.00  0.00     0.006 A 
ENDBRANCH  67  84
ENDBRANCH  41  42
ENDBRANCH  34  36
ENDBRANCH  33  34
ENDBRANCH  32  33
ENDBRANCH  31  32
ENDBRANCH  30  31
ENDBRANCH  29  30
ENDBRANCH  28  29
ENDBRANCH  27  28
ENDBRANCH   1  27
TORSDOF 26
ENDMDL
MODEL 3
REMARK VINA RESULT:      -8.9      3.637      9.083
REMARK SMILES C=CCN(CC(=O)OCCOCCOCCOCCOC(=O)c1ccc(-c2c3nc(c(-c4c(F)cccc4F)c4ccc([nH]4)c(-c4c(F)cccc4F)c4nc(c(-c5c(F)cccc5F)c5ccc2[nH]5)C=C4)C=C3)cc1)C(=O)c1cn(C2C[NH2+]C2)nn1
REMARK SMILES IDX 13 1 12 2 11 3 10 4 9 5 8 6 6 7 7 8 5 9 4 10 3 11 2 12 1 13
REMARK SMILES IDX 77 14 78 15 79 16 80 17 87 18 81 19 86 20 82 21 83 22 85 23
REMARK SMILES IDX 84 24 14 27 15 28 16 29 17 30 18 31 19 32 20 33 21 34 22 35
REMARK SMILES IDX 23 36 24 37 76 38 25 39 75 40 26 41 27 42 28 43 69 44 29 45
REMARK SMILES IDX 74 46 68 47 70 48 30 49 73 50 67 51 66 52 31 54 57 55 40 56
REMARK SMILES IDX 56 57 41 58 44 59 55 60 71 61 42 62 43 63 54 65 72 66 45 67
REMARK SMILES IDX 32 68 33 69 38 70 34 71 35 72 37 73 39 74 36 75 58 76 59 77
REMARK SMILES IDX 64 78 60 79 61 80 63 81 65 82 62 83 46 84 47 85 52 86 48 87
REMARK SMILES IDX 49 88 51 89 53 90 50 91
REMARK H PARENT 84 25 84 26 70 53 44 64
REMARK Flexibility Score: inf
ROOT
ATOM      1  C   UNL A   1      39.031  22.190  26.176  1.00  0.00     0.188 C 
ENDROOT
BRANCH   1   2
ATOM      2  C   UNL A   1      37.738  22.169  25.374  1.00  0.00     0.188 C 
BRANCH   2   3
ATOM      3  O   UNL A   1      37.343  23.475  24.944  1.00  0.00    -0.376 OA
BRANCH   3   4
ATOM      4  C   UNL A   1      36.145  23.996  25.529  1.00  0.00     0.202 C 
BRANCH   4   5
ATOM      5  C   UNL A   1      35.248  22.975  26.246  1.00  0.00     0.261 C 
BRANCH   5   6
ATOM      6  O   UNL A   1      34.208  23.619  27.012  1.00  0.00    -0.462 OA
BRANCH   6   7
ATOM      7  C   UNL A   1      32.938  23.233  26.746  1.00  0.00     0.325 C 
ATOM      8  O   UNL A   1      32.437  22.202  27.180  1.00  0.00    -0.250 OA
BRANCH   7   9
ATOM      9  C   UNL A   1      32.220  24.180  25.768  1.00  0.00     0.242 C 
BRANCH   9  10
ATOM     10  N   UNL A   1      31.952  23.713  24.392  1.00  0.00    -0.322 N 
BRANCH  10  11
ATOM     11  C   UNL A   1      30.598  23.894  23.857  1.00  0.00     0.147 C 
BRANCH  11  12
ATOM     12  C   UNL A   1      30.287  25.336  23.587  1.00  0.00    -0.014 C 
ATOM     13  C   UNL A   1      31.125  26.151  22.925  1.00  0.00     0.006 C 
ENDBRANCH  11  12
ENDBRANCH  10  11
BRANCH  10  14
ATOM     14  C   UNL A   1      32.886  23.046  23.568  1.00  0.00     0.276 C 
ATOM     15  O   UNL A   1      33.729  23.685  22.937  1.00  0.00    -0.267 OA
BRANCH  14  16
ATOM     16  C   UNL A   1      32.850  21.590  23.391  1.00  0.00     0.170 A 
ATOM     17  C   UNL A   1      33.326  20.579  24.201  1.00  0.00     0.145 A 
ATOM     18  N   UNL A   1      32.079  21.009  22.405  1.00  0.00    -0.125 NA
ATOM     19  N   UNL A   1      32.737  19.440  23.725  1.00  0.00    -0.237 N 
ATOM     20  N   UNL A   1      32.059  19.696  22.593  1.00  0.00    -0.066 NA
BRANCH  19  21
ATOM     21  C   UNL A   1      32.745  18.128  24.302  1.00  0.00     0.218 C 
ATOM     22  C   UNL A   1      34.128  17.527  24.636  1.00  0.00     0.294 C 
ATOM     23  C   UNL A   1      32.586  18.153  25.843  1.00  0.00     0.294 C 
ATOM     24  N   UNL A   1      33.560  17.033  25.918  1.00  0.00    -0.342 N 
ATOM     25  H   UNL A   1      34.199  17.077  26.711  1.00  0.00     0.346 HD
ATOM     26  H   UNL A   1      33.257  16.065  26.032  1.00  0.00     0.346 HD
ENDBRANCH  19  21
ENDBRANCH  14  16
ENDBRANCH  10  14
ENDBRANCH   9  10
ENDBRANCH   7   9
ENDBRANCH   6   7
ENDBRANCH   5   6
ENDBRANCH   4   5
ENDBRANCH   3   4
ENDBRANCH   2   3
ENDBRANCH   1   2
BRANCH   1  27
ATOM     27  O   UNL A   1      39.891  21.101  25.836  1.00  0.00    -0.377 OA
BRANCH  27  28
ATOM     28  C   UNL A   1      41.269  21.319  26.117  1.00  0.00     0.188 C 
BRANCH  28  29
ATOM     29  C   UNL A   1      41.777  20.789  27.465  1.00  0.00     0.188 C 
BRANCH  29  30
ATOM     30  O   UNL A   1      42.317  19.469  27.419  1.00  0.00    -0.376 OA
BRANCH  30  31
ATOM     31  C   UNL A   1      42.305  18.872  26.118  1.00  0.00     0.202 C 
BRANCH  31  32
ATOM     32  C   UNL A   1      43.686  18.399  25.629  1.00  0.00     0.261 C 
BRANCH  32  33
ATOM     33  O   UNL A   1      44.034  18.822  24.302  1.00  0.00    -0.460 OA
BRANCH  33  34
ATOM     34  C   UNL A   1      45.199  19.490  24.146  1.00  0.00     0.338 C 
ATOM     35  O   UNL A   1      46.172  19.134  23.519  1.00  0.00    -0.246 OA
BRANCH  34  36
ATOM     36  C   UNL A   1      45.003  20.856  24.688  1.00  0.00     0.060 A 
ATOM     37  C   UNL A   1      44.545  21.855  23.816  1.00  0.00     0.016 A 
ATOM     38  C   UNL A   1      45.202  21.137  26.043  1.00  0.00     0.016 A 
ATOM     39  C   UNL A   1      44.267  23.132  24.300  1.00  0.00     0.010 A 
ATOM     40  C   UNL A   1      44.973  22.427  26.519  1.00  0.00     0.010 A 
ATOM     41  C   UNL A   1      44.530  23.433  25.644  1.00  0.00    -0.014 A 
BRANCH  41  42
ATOM     42  C   UNL A   1      44.670  24.848  26.049  1.00  0.00     0.031 A 
ATOM     43  C   UNL A   1      46.048  25.440  25.951  1.00  0.00     0.074 A 
ATOM     44  C   UNL A   1      43.636  25.574  26.507  1.00  0.00     0.049 A 
ATOM     45  N   UNL A   1      46.475  26.628  26.286  1.00  0.00    -0.248 NA
ATOM     46  C   UNL A   1      47.092  24.558  25.398  1.00  0.00     0.031 C 
ATOM     47  C   UNL A   1      42.252  25.118  26.605  1.00  0.00     0.029 A 
ATOM     48  N   UNL A   1      43.605  26.858  26.990  1.00  0.00    -0.354 N 
ATOM     49  C   UNL A   1      47.830  26.634  25.981  1.00  0.00     0.074 A 
ATOM     50  C   UNL A   1      48.162  25.330  25.456  1.00  0.00     0.031 C 
ATOM     51  C   UNL A   1      41.506  26.107  27.131  1.00  0.00     0.029 A 
ATOM     52  C   UNL A   1      42.367  27.250  27.434  1.00  0.00     0.049 A 
ATOM     53  H   UNL A   1      44.396  27.443  27.015  1.00  0.00     0.167 HD
ATOM     54  C   UNL A   1      48.725  27.635  26.131  1.00  0.00     0.037 A 
ATOM     55  C   UNL A   1      41.989  28.396  28.035  1.00  0.00     0.037 A 
ATOM     56  C   UNL A   1      48.400  28.908  26.706  1.00  0.00     0.049 A 
ATOM     57  C   UNL A   1      43.023  29.466  28.286  1.00  0.00     0.074 A 
ATOM     58  C   UNL A   1      49.228  29.993  26.928  1.00  0.00     0.029 A 
ATOM     59  N   UNL A   1      47.141  29.255  27.176  1.00  0.00    -0.354 N 
ATOM     60  N   UNL A   1      44.297  29.478  27.969  1.00  0.00    -0.248 NA
ATOM     61  C   UNL A   1      42.570  30.679  28.982  1.00  0.00     0.031 C 
ATOM     62  C   UNL A   1      48.478  30.979  27.577  1.00  0.00     0.029 A 
ATOM     63  C   UNL A   1      47.172  30.530  27.708  1.00  0.00     0.049 A 
ATOM     64  H   UNL A   1      46.344  28.678  27.135  1.00  0.00     0.167 HD
ATOM     65  C   UNL A   1      44.787  30.708  28.389  1.00  0.00     0.074 A 
ATOM     66  C   UNL A   1      43.674  31.415  28.990  1.00  0.00     0.031 C 
ATOM     67  C   UNL A   1      46.041  31.214  28.281  1.00  0.00     0.037 A 
BRANCH  54  68
ATOM     68  C   UNL A   1      50.136  27.343  25.720  1.00  0.00     0.057 A 
ATOM     69  C   UNL A   1      51.098  26.901  26.640  1.00  0.00     0.134 A 
ATOM     70  C   UNL A   1      50.554  27.562  24.403  1.00  0.00     0.134 A 
ATOM     71  F   UNL A   1      50.770  26.704  27.926  1.00  0.00    -0.206 F 
ATOM     72  C   UNL A   1      52.432  26.724  26.271  1.00  0.00     0.040 A 
ATOM     73  C   UNL A   1      51.878  27.361  24.015  1.00  0.00     0.040 A 
ATOM     74  F   UNL A   1      49.685  27.993  23.476  1.00  0.00    -0.206 F 
ATOM     75  C   UNL A   1      52.825  26.953  24.953  1.00  0.00     0.006 A 
ENDBRANCH  54  68
BRANCH  55  76
ATOM     76  C   UNL A   1      40.575  28.598  28.441  1.00  0.00     0.057 A 
ATOM     77  C   UNL A   1      39.630  29.102  27.539  1.00  0.00     0.134 A 
ATOM     78  C   UNL A   1      40.132  28.302  29.735  1.00  0.00     0.134 A 
ATOM     79  F   UNL A   1      39.997  29.429  26.291  1.00  0.00    -0.206 F 
ATOM     80  C   UNL A   1      38.301  29.310  27.909  1.00  0.00     0.040 A 
ATOM     81  C   UNL A   1      38.801  28.485  30.115  1.00  0.00     0.040 A 
ATOM     82  F   UNL A   1      40.987  27.821  30.650  1.00  0.00    -0.206 F 
ATOM     83  C   UNL A   1      37.881  28.994  29.201  1.00  0.00     0.006 A 
ENDBRANCH  55  76
BRANCH  67  84
ATOM     84  C   UNL A   1      46.270  32.616  28.765  1.00  0.00     0.057 A 
ATOM     85  C   UNL A   1      46.702  32.891  30.065  1.00  0.00     0.134 A 
ATOM     86  C   UNL A   1      46.138  33.694  27.879  1.00  0.00     0.134 A 
ATOM     87  F   UNL A   1      46.839  31.903  30.961  1.00  0.00    -0.206 F 
ATOM     88  C   UNL A   1      46.988  34.195  30.474  1.00  0.00     0.040 A 
ATOM     89  C   UNL A   1      46.445  34.998  28.268  1.00  0.00     0.040 A 
ATOM     90  F   UNL A   1      45.740  33.493  26.614  1.00  0.00    -0.206 F 
ATOM     91  C   UNL A   1      46.869  35.251  29.571  1.00  0.00     0.006 A 
ENDBRANCH  67  84
ENDBRANCH  41  42
ENDBRANCH  34  36
ENDBRANCH  33  34
ENDBRANCH  32  33
ENDBRANCH  31  32
ENDBRANCH  30  31
ENDBRANCH  29  30
ENDBRANCH  28  29
ENDBRANCH  27  28
ENDBRANCH   1  27
TORSDOF 26
ENDMDL
