MODEL 1
REMARK VINA RESULT:      -7.8      0.000      0.000
REMARK SMILES CCOc1cc2c(cc1OCC)[C@@H](C(=O)OCCOCCOCCOCCOC(=O)c1ccc(-c3c4nc(c(-c5c(F)cccc5F)c5ccc([nH]5)c(-c5c(F)cccc5F)c5nc(c(-c6c(F)cccc6F)c6ccc3[nH]6)C=C5)C=C4)cc1)[C@H](c1ccc(F)cc1Cl)N(C)C2=O
REMARK SMILES IDX 22 1 21 2 20 3 19 4 18 5 17 6 16 7 14 8 15 9 13 10 4 11 5 12
REMARK SMILES IDX 9 13 6 14 8 15 7 16 96 17 94 18 97 19 85 20 95 21 3 22 2 23
REMARK SMILES IDX 1 24 10 25 11 26 12 27 86 28 87 29 92 30 88 31 91 32 93 33
REMARK SMILES IDX 89 34 90 35 23 36 24 37 25 38 26 39 27 40 28 41 29 42 30 43
REMARK SMILES IDX 31 44 32 45 84 46 33 47 83 48 34 49 35 50 36 51 77 52 37 53
REMARK SMILES IDX 82 54 76 55 78 56 38 57 81 58 75 59 74 60 39 62 65 63 48 64
REMARK SMILES IDX 64 65 49 66 52 67 63 68 79 69 50 70 51 71 62 73 80 74 53 75
REMARK SMILES IDX 40 76 41 77 46 78 42 79 43 80 45 81 47 82 44 83 66 84 67 85
REMARK SMILES IDX 72 86 68 87 69 88 71 89 73 90 70 91 54 92 55 93 60 94 56 95
REMARK SMILES IDX 57 96 59 97 61 98 58 99
REMARK H PARENT 78 61 52 72
REMARK Flexibility Score: inf
ROOT
ATOM      1  O   UNL A   1      47.784  27.617  28.074  1.00  0.00    -0.377 OA
ENDROOT
BRANCH   1   2
ATOM      2  C   UNL A   1      48.778  28.616  27.997  1.00  0.00     0.188 C 
BRANCH   2   3
ATOM      3  C   UNL A   1      48.357  30.024  27.558  1.00  0.00     0.188 C 
BRANCH   3   4
ATOM      4  O   UNL A   1      47.281  30.672  28.196  1.00  0.00    -0.376 OA
BRANCH   4   5
ATOM      5  C   UNL A   1      45.937  30.586  27.755  1.00  0.00     0.202 C 
BRANCH   5   6
ATOM      6  C   UNL A   1      45.352  31.214  26.479  1.00  0.00     0.261 C 
BRANCH   6   7
ATOM      7  O   UNL A   1      45.806  32.519  26.094  1.00  0.00    -0.463 OA
BRANCH   7   8
ATOM      8  C   UNL A   1      44.860  33.312  25.547  1.00  0.00     0.316 C 
ATOM      9  O   UNL A   1      44.384  33.127  24.425  1.00  0.00    -0.251 OA
BRANCH   8  10
ATOM     10  C   UNL A   1      44.500  34.571  26.330  1.00  0.00     0.157 C 
ATOM     11  C   UNL A   1      48.229  35.985  27.860  1.00  0.00     0.161 A 
ATOM     12  C   UNL A   1      47.348  35.255  28.673  1.00  0.00     0.064 A 
ATOM     13  C   UNL A   1      47.883  36.274  26.529  1.00  0.00     0.161 A 
ATOM     14  C   UNL A   1      46.164  34.759  28.164  1.00  0.00     0.048 A 
ATOM     15  C   UNL A   1      46.652  35.835  26.050  1.00  0.00     0.056 A 
ATOM     16  C   UNL A   1      45.796  35.096  26.865  1.00  0.00    -0.015 A 
ATOM     17  C   UNL A   1      45.297  33.872  28.995  1.00  0.00     0.254 C 
ATOM     18  N   UNL A   1      43.959  33.809  28.620  1.00  0.00    -0.333 N 
ATOM     19  O   UNL A   1      45.777  33.254  29.938  1.00  0.00    -0.269 OA
ATOM     20  C   UNL A   1      43.463  34.604  27.500  1.00  0.00     0.135 C 
ATOM     21  C   UNL A   1      43.039  32.972  29.375  1.00  0.00     0.147 C 
BRANCH  11  22
ATOM     22  O   UNL A   1      49.375  36.479  28.423  1.00  0.00    -0.490 OA
BRANCH  22  23
ATOM     23  C   UNL A   1      50.164  35.490  29.099  1.00  0.00     0.226 C 
ATOM     24  C   UNL A   1      51.651  35.630  28.803  1.00  0.00     0.049 C 
ENDBRANCH  22  23
ENDBRANCH  11  22
BRANCH  13  25
ATOM     25  O   UNL A   1      48.570  36.933  25.554  1.00  0.00    -0.490 OA
BRANCH  25  26
ATOM     26  C   UNL A   1      49.313  36.216  24.583  1.00  0.00     0.226 C 
ATOM     27  C   UNL A   1      50.099  35.103  25.246  1.00  0.00     0.049 C 
ENDBRANCH  25  26
ENDBRANCH  13  25
BRANCH  20  28
ATOM     28  C   UNL A   1      43.082  36.084  27.853  1.00  0.00    -0.005 A 
ATOM     29  C   UNL A   1      42.559  36.859  26.780  1.00  0.00     0.010 A 
ATOM     30  C   UNL A   1      43.237  36.761  29.088  1.00  0.00     0.049 A 
ATOM     31  C   UNL A   1      42.299  38.228  26.902  1.00  0.00     0.040 A 
ATOM     32  C   UNL A   1      42.962  38.136  29.203  1.00  0.00     0.060 A 
ATOM     33  Cl  UNL A   1      43.738  36.059  30.582  1.00  0.00    -0.084 Cl
ATOM     34  C   UNL A   1      42.515  38.856  28.113  1.00  0.00     0.124 A 
ATOM     35  F   UNL A   1      42.276  40.168  28.237  1.00  0.00    -0.207 F 
ENDBRANCH  20  28
ENDBRANCH   8  10
ENDBRANCH   7   8
ENDBRANCH   6   7
ENDBRANCH   5   6
ENDBRANCH   4   5
ENDBRANCH   3   4
ENDBRANCH   2   3
ENDBRANCH   1   2
BRANCH   1  36
ATOM     36  C   UNL A   1      47.135  27.159  26.893  1.00  0.00     0.188 C 
BRANCH  36  37
ATOM     37  C   UNL A   1      47.537  25.819  26.251  1.00  0.00     0.188 C 
BRANCH  37  38
ATOM     38  O   UNL A   1      46.708  25.412  25.177  1.00  0.00    -0.376 OA
BRANCH  38  39
ATOM     39  C   UNL A   1      46.816  24.079  24.699  1.00  0.00     0.202 C 
BRANCH  39  40
ATOM     40  C   UNL A   1      45.531  23.370  24.238  1.00  0.00     0.261 C 
BRANCH  40  41
ATOM     41  O   UNL A   1      44.286  23.930  24.687  1.00  0.00    -0.460 OA
BRANCH  41  42
ATOM     42  C   UNL A   1      43.699  23.397  25.776  1.00  0.00     0.338 C 
ATOM     43  O   UNL A   1      43.790  22.248  26.181  1.00  0.00    -0.246 OA
BRANCH  42  44
ATOM     44  C   UNL A   1      43.054  24.490  26.526  1.00  0.00     0.060 A 
ATOM     45  C   UNL A   1      43.671  25.748  26.568  1.00  0.00     0.016 A 
ATOM     46  C   UNL A   1      41.859  24.265  27.213  1.00  0.00     0.016 A 
ATOM     47  C   UNL A   1      43.121  26.771  27.339  1.00  0.00     0.010 A 
ATOM     48  C   UNL A   1      41.320  25.283  28.001  1.00  0.00     0.010 A 
ATOM     49  C   UNL A   1      41.972  26.526  28.102  1.00  0.00    -0.014 A 
BRANCH  49  50
ATOM     50  C   UNL A   1      41.582  27.480  29.168  1.00  0.00     0.031 A 
ATOM     51  C   UNL A   1      42.348  27.450  30.463  1.00  0.00     0.074 A 
ATOM     52  C   UNL A   1      40.586  28.365  28.992  1.00  0.00     0.049 A 
ATOM     53  N   UNL A   1      42.151  28.125  31.565  1.00  0.00    -0.248 NA
ATOM     54  C   UNL A   1      43.496  26.528  30.519  1.00  0.00     0.031 C 
ATOM     55  C   UNL A   1      39.803  28.529  27.771  1.00  0.00     0.029 A 
ATOM     56  N   UNL A   1      40.057  29.289  29.860  1.00  0.00    -0.354 N 
ATOM     57  C   UNL A   1      43.136  27.700  32.448  1.00  0.00     0.074 A 
ATOM     58  C   UNL A   1      43.913  26.690  31.765  1.00  0.00     0.031 C 
ATOM     59  C   UNL A   1      38.879  29.486  27.971  1.00  0.00     0.029 A 
ATOM     60  C   UNL A   1      38.982  29.972  29.346  1.00  0.00     0.049 A 
ATOM     61  H   UNL A   1      40.415  29.446  30.764  1.00  0.00     0.167 HD
ATOM     62  C   UNL A   1      43.377  28.119  33.713  1.00  0.00     0.037 A 
ATOM     63  C   UNL A   1      38.159  30.864  29.933  1.00  0.00     0.037 A 
ATOM     64  C   UNL A   1      42.600  29.122  34.390  1.00  0.00     0.049 A 
ATOM     65  C   UNL A   1      38.394  31.252  31.372  1.00  0.00     0.074 A 
ATOM     66  C   UNL A   1      42.768  29.625  35.668  1.00  0.00     0.029 A 
ATOM     67  N   UNL A   1      41.500  29.769  33.848  1.00  0.00    -0.354 N 
ATOM     68  N   UNL A   1      39.337  30.859  32.194  1.00  0.00    -0.248 NA
ATOM     69  C   UNL A   1      37.447  32.209  31.963  1.00  0.00     0.031 C 
ATOM     70  C   UNL A   1      41.735  30.532  35.920  1.00  0.00     0.029 A 
ATOM     71  C   UNL A   1      40.963  30.646  34.775  1.00  0.00     0.049 A 
ATOM     72  H   UNL A   1      41.153  29.626  32.937  1.00  0.00     0.167 HD
ATOM     73  C   UNL A   1      39.119  31.546  33.383  1.00  0.00     0.074 A 
ATOM     74  C   UNL A   1      37.961  32.389  33.172  1.00  0.00     0.031 C 
ATOM     75  C   UNL A   1      39.817  31.489  34.545  1.00  0.00     0.037 A 
BRANCH  62  76
ATOM     76  C   UNL A   1      44.506  27.465  34.455  1.00  0.00     0.057 A 
ATOM     77  C   UNL A   1      45.801  28.000  34.465  1.00  0.00     0.134 A 
ATOM     78  C   UNL A   1      44.287  26.294  35.193  1.00  0.00     0.134 A 
ATOM     79  F   UNL A   1      46.084  29.110  33.766  1.00  0.00    -0.206 F 
ATOM     80  C   UNL A   1      46.843  27.380  35.159  1.00  0.00     0.040 A 
ATOM     81  C   UNL A   1      45.312  25.682  35.916  1.00  0.00     0.040 A 
ATOM     82  F   UNL A   1      43.071  25.729  35.231  1.00  0.00    -0.206 F 
ATOM     83  C   UNL A   1      46.597  26.222  35.893  1.00  0.00     0.006 A 
ENDBRANCH  62  76
BRANCH  63  84
ATOM     84  C   UNL A   1      37.020  31.440  29.174  1.00  0.00     0.057 A 
ATOM     85  C   UNL A   1      37.064  32.749  28.679  1.00  0.00     0.134 A 
ATOM     86  C   UNL A   1      35.845  30.710  28.956  1.00  0.00     0.134 A 
ATOM     87  F   UNL A   1      38.149  33.511  28.879  1.00  0.00    -0.206 F 
ATOM     88  C   UNL A   1      35.975  33.317  28.013  1.00  0.00     0.040 A 
ATOM     89  C   UNL A   1      34.762  31.253  28.265  1.00  0.00     0.040 A 
ATOM     90  F   UNL A   1      35.736  29.453  29.409  1.00  0.00    -0.206 F 
ATOM     91  C   UNL A   1      34.821  32.565  27.799  1.00  0.00     0.006 A 
ENDBRANCH  63  84
BRANCH  75  92
ATOM     92  C   UNL A   1      39.386  32.400  35.661  1.00  0.00     0.057 A 
ATOM     93  C   UNL A   1      39.886  33.701  35.798  1.00  0.00     0.134 A 
ATOM     94  C   UNL A   1      38.416  31.981  36.582  1.00  0.00     0.134 A 
ATOM     95  F   UNL A   1      40.824  34.162  34.956  1.00  0.00    -0.206 F 
ATOM     96  C   UNL A   1      39.458  34.542  36.827  1.00  0.00     0.040 A 
ATOM     97  C   UNL A   1      37.956  32.825  37.594  1.00  0.00     0.040 A 
ATOM     98  F   UNL A   1      37.884  30.752  36.502  1.00  0.00    -0.206 F 
ATOM     99  C   UNL A   1      38.483  34.107  37.723  1.00  0.00     0.006 A 
ENDBRANCH  75  92
ENDBRANCH  49  50
ENDBRANCH  42  44
ENDBRANCH  41  42
ENDBRANCH  40  41
ENDBRANCH  39  40
ENDBRANCH  38  39
ENDBRANCH  37  38
ENDBRANCH  36  37
ENDBRANCH   1  36
TORSDOF 25
ENDMDL
MODEL 2
REMARK VINA RESULT:      -7.6      4.422      9.341
REMARK SMILES CCOc1cc2c(cc1OCC)[C@@H](C(=O)OCCOCCOCCOCCOC(=O)c1ccc(-c3c4nc(c(-c5c(F)cccc5F)c5ccc([nH]5)c(-c5c(F)cccc5F)c5nc(c(-c6c(F)cccc6F)c6ccc3[nH]6)C=C5)C=C4)cc1)[C@H](c1ccc(F)cc1Cl)N(C)C2=O
REMARK SMILES IDX 22 1 21 2 20 3 19 4 18 5 17 6 16 7 14 8 15 9 13 10 4 11 5 12
REMARK SMILES IDX 9 13 6 14 8 15 7 16 96 17 94 18 97 19 85 20 95 21 3 22 2 23
REMARK SMILES IDX 1 24 10 25 11 26 12 27 86 28 87 29 92 30 88 31 91 32 93 33
REMARK SMILES IDX 89 34 90 35 23 36 24 37 25 38 26 39 27 40 28 41 29 42 30 43
REMARK SMILES IDX 31 44 32 45 84 46 33 47 83 48 34 49 35 50 36 51 77 52 37 53
REMARK SMILES IDX 82 54 76 55 78 56 38 57 81 58 75 59 74 60 39 62 65 63 48 64
REMARK SMILES IDX 64 65 49 66 52 67 63 68 79 69 50 70 51 71 62 73 80 74 53 75
REMARK SMILES IDX 40 76 41 77 46 78 42 79 43 80 45 81 47 82 44 83 66 84 67 85
REMARK SMILES IDX 72 86 68 87 69 88 71 89 73 90 70 91 54 92 55 93 60 94 56 95
REMARK SMILES IDX 57 96 59 97 61 98 58 99
REMARK H PARENT 78 61 52 72
REMARK Flexibility Score: inf
ROOT
ATOM      1  O   UNL A   1      53.015  27.676  31.395  1.00  0.00    -0.377 OA
ENDROOT
BRANCH   1   2
ATOM      2  C   UNL A   1      52.931  27.262  30.049  1.00  0.00     0.188 C 
BRANCH   2   3
ATOM      3  C   UNL A   1      51.539  26.990  29.462  1.00  0.00     0.188 C 
BRANCH   3   4
ATOM      4  O   UNL A   1      51.391  26.118  28.366  1.00  0.00    -0.376 OA
BRANCH   4   5
ATOM      5  C   UNL A   1      50.826  26.502  27.125  1.00  0.00     0.202 C 
BRANCH   5   6
ATOM      6  C   UNL A   1      50.099  25.585  26.128  1.00  0.00     0.261 C 
BRANCH   6   7
ATOM      7  O   UNL A   1      49.259  26.189  25.136  1.00  0.00    -0.463 OA
BRANCH   7   8
ATOM      8  C   UNL A   1      48.024  25.651  25.031  1.00  0.00     0.316 C 
ATOM      9  O   UNL A   1      47.458  25.456  23.954  1.00  0.00    -0.251 OA
BRANCH   8  10
ATOM     10  C   UNL A   1      47.274  25.425  26.340  1.00  0.00     0.157 C 
ATOM     11  C   UNL A   1      44.187  22.646  25.344  1.00  0.00     0.161 A 
ATOM     12  C   UNL A   1      43.913  24.019  25.449  1.00  0.00     0.064 A 
ATOM     13  C   UNL A   1      45.486  22.168  25.583  1.00  0.00     0.161 A 
ATOM     14  C   UNL A   1      44.921  24.921  25.726  1.00  0.00     0.048 A 
ATOM     15  C   UNL A   1      46.477  23.078  25.937  1.00  0.00     0.056 A 
ATOM     16  C   UNL A   1      46.193  24.440  26.020  1.00  0.00    -0.015 A 
ATOM     17  C   UNL A   1      44.649  26.389  25.704  1.00  0.00     0.254 C 
ATOM     18  N   UNL A   1      45.533  27.180  26.430  1.00  0.00    -0.333 N 
ATOM     19  O   UNL A   1      43.695  26.826  25.070  1.00  0.00    -0.269 OA
ATOM     20  C   UNL A   1      46.627  26.573  27.183  1.00  0.00     0.135 C 
ATOM     21  C   UNL A   1      45.343  28.623  26.468  1.00  0.00     0.147 C 
BRANCH  11  22
ATOM     22  O   UNL A   1      43.146  21.793  25.097  1.00  0.00    -0.490 OA
BRANCH  22  23
ATOM     23  C   UNL A   1      42.614  21.169  26.275  1.00  0.00     0.226 C 
ATOM     24  C   UNL A   1      41.489  21.976  26.906  1.00  0.00     0.049 C 
ENDBRANCH  22  23
ENDBRANCH  11  22
BRANCH  13  25
ATOM     25  O   UNL A   1      45.995  20.905  25.519  1.00  0.00    -0.490 OA
BRANCH  25  26
ATOM     26  C   UNL A   1      46.194  20.268  24.269  1.00  0.00     0.226 C 
ATOM     27  C   UNL A   1      45.165  19.172  24.072  1.00  0.00     0.049 C 
ENDBRANCH  25  26
ENDBRANCH  13  25
BRANCH  20  28
ATOM     28  C   UNL A   1      46.241  26.052  28.612  1.00  0.00    -0.005 A 
ATOM     29  C   UNL A   1      45.358  24.938  28.645  1.00  0.00     0.010 A 
ATOM     30  C   UNL A   1      46.621  26.580  29.871  1.00  0.00     0.049 A 
ATOM     31  C   UNL A   1      44.817  24.445  29.837  1.00  0.00     0.040 A 
ATOM     32  C   UNL A   1      46.080  26.070  31.065  1.00  0.00     0.060 A 
ATOM     33  Cl  UNL A   1      47.758  27.847  30.147  1.00  0.00    -0.084 Cl
ATOM     34  C   UNL A   1      45.177  25.025  31.037  1.00  0.00     0.124 A 
ATOM     35  F   UNL A   1      44.660  24.565  32.184  1.00  0.00    -0.207 F 
ENDBRANCH  20  28
ENDBRANCH   8  10
ENDBRANCH   7   8
ENDBRANCH   6   7
ENDBRANCH   5   6
ENDBRANCH   4   5
ENDBRANCH   3   4
ENDBRANCH   2   3
ENDBRANCH   1   2
BRANCH   1  36
ATOM     36  C   UNL A   1      51.833  27.831  32.173  1.00  0.00     0.188 C 
BRANCH  36  37
ATOM     37  C   UNL A   1      51.911  28.369  33.613  1.00  0.00     0.188 C 
BRANCH  37  38
ATOM     38  O   UNL A   1      50.715  28.223  34.359  1.00  0.00    -0.376 OA
BRANCH  38  39
ATOM     39  C   UNL A   1      50.380  29.218  35.313  1.00  0.00     0.202 C 
BRANCH  39  40
ATOM     40  C   UNL A   1      49.682  28.773  36.609  1.00  0.00     0.261 C 
BRANCH  40  41
ATOM     41  O   UNL A   1      48.271  29.031  36.706  1.00  0.00    -0.460 OA
BRANCH  41  42
ATOM     42  C   UNL A   1      47.431  27.981  36.786  1.00  0.00     0.338 C 
ATOM     43  O   UNL A   1      47.468  27.061  37.589  1.00  0.00    -0.246 OA
BRANCH  42  44
ATOM     44  C   UNL A   1      46.322  28.212  35.842  1.00  0.00     0.060 A 
ATOM     45  C   UNL A   1      46.572  28.908  34.651  1.00  0.00     0.016 A 
ATOM     46  C   UNL A   1      45.033  27.771  36.148  1.00  0.00     0.016 A 
ATOM     47  C   UNL A   1      45.522  29.209  33.784  1.00  0.00     0.010 A 
ATOM     48  C   UNL A   1      43.979  28.090  35.290  1.00  0.00     0.010 A 
ATOM     49  C   UNL A   1      44.213  28.848  34.128  1.00  0.00    -0.014 A 
BRANCH  49  50
ATOM     50  C   UNL A   1      43.071  29.449  33.397  1.00  0.00     0.031 A 
ATOM     51  C   UNL A   1      42.458  30.708  33.950  1.00  0.00     0.074 A 
ATOM     52  C   UNL A   1      42.596  28.908  32.261  1.00  0.00     0.049 A 
ATOM     53  N   UNL A   1      41.411  31.376  33.540  1.00  0.00    -0.248 NA
ATOM     54  C   UNL A   1      43.120  31.290  35.130  1.00  0.00     0.031 C 
ATOM     55  C   UNL A   1      43.132  27.724  31.598  1.00  0.00     0.029 A 
ATOM     56  N   UNL A   1      41.537  29.288  31.473  1.00  0.00    -0.354 N 
ATOM     57  C   UNL A   1      41.281  32.446  34.418  1.00  0.00     0.074 A 
ATOM     58  C   UNL A   1      42.336  32.323  35.398  1.00  0.00     0.031 C 
ATOM     59  C   UNL A   1      42.389  27.461  30.508  1.00  0.00     0.029 A 
ATOM     60  C   UNL A   1      41.303  28.437  30.423  1.00  0.00     0.049 A 
ATOM     61  H   UNL A   1      40.999  30.094  31.646  1.00  0.00     0.167 HD
ATOM     62  C   UNL A   1      40.368  33.445  34.404  1.00  0.00     0.037 A 
ATOM     63  C   UNL A   1      40.305  28.431  29.516  1.00  0.00     0.037 A 
ATOM     64  C   UNL A   1      39.317  33.562  33.428  1.00  0.00     0.049 A 
ATOM     65  C   UNL A   1      39.248  29.505  29.571  1.00  0.00     0.074 A 
ATOM     66  C   UNL A   1      38.347  34.543  33.321  1.00  0.00     0.029 A 
ATOM     67  N   UNL A   1      39.093  32.663  32.397  1.00  0.00    -0.354 N 
ATOM     68  N   UNL A   1      39.140  30.522  30.393  1.00  0.00    -0.248 NA
ATOM     69  C   UNL A   1      38.173  29.429  28.572  1.00  0.00     0.031 C 
ATOM     70  C   UNL A   1      37.500  34.204  32.261  1.00  0.00     0.029 A 
ATOM     71  C   UNL A   1      37.984  33.050  31.664  1.00  0.00     0.049 A 
ATOM     72  H   UNL A   1      39.642  31.866  32.213  1.00  0.00     0.167 HD
ATOM     73  C   UNL A   1      38.011  31.224  29.988  1.00  0.00     0.074 A 
ATOM     74  C   UNL A   1      37.474  30.524  28.841  1.00  0.00     0.031 C 
ATOM     75  C   UNL A   1      37.468  32.350  30.515  1.00  0.00     0.037 A 
BRANCH  62  76
ATOM     76  C   UNL A   1      40.445  34.469  35.499  1.00  0.00     0.057 A 
ATOM     77  C   UNL A   1      41.265  35.601  35.404  1.00  0.00     0.134 A 
ATOM     78  C   UNL A   1      39.668  34.331  36.657  1.00  0.00     0.134 A 
ATOM     79  F   UNL A   1      42.048  35.786  34.331  1.00  0.00    -0.206 F 
ATOM     80  C   UNL A   1      41.329  36.545  36.432  1.00  0.00     0.040 A 
ATOM     81  C   UNL A   1      39.700  35.283  37.677  1.00  0.00     0.040 A 
ATOM     82  F   UNL A   1      38.858  33.273  36.813  1.00  0.00    -0.206 F 
ATOM     83  C   UNL A   1      40.539  36.391  37.569  1.00  0.00     0.006 A 
ENDBRANCH  62  76
BRANCH  63  84
ATOM     84  C   UNL A   1      40.239  27.362  28.486  1.00  0.00     0.057 A 
ATOM     85  C   UNL A   1      40.877  27.504  27.247  1.00  0.00     0.134 A 
ATOM     86  C   UNL A   1      39.506  26.188  28.699  1.00  0.00     0.134 A 
ATOM     87  F   UNL A   1      41.571  28.618  26.969  1.00  0.00    -0.206 F 
ATOM     88  C   UNL A   1      40.772  26.529  26.253  1.00  0.00     0.040 A 
ATOM     89  C   UNL A   1      39.419  25.191  27.727  1.00  0.00     0.040 A 
ATOM     90  F   UNL A   1      38.867  25.992  29.862  1.00  0.00    -0.206 F 
ATOM     91  C   UNL A   1      40.046  25.364  26.495  1.00  0.00     0.006 A 
ENDBRANCH  63  84
BRANCH  75  92
ATOM     92  C   UNL A   1      36.264  32.930  29.827  1.00  0.00     0.057 A 
ATOM     93  C   UNL A   1      36.368  33.676  28.646  1.00  0.00     0.134 A 
ATOM     94  C   UNL A   1      34.978  32.694  30.330  1.00  0.00     0.134 A 
ATOM     95  F   UNL A   1      37.570  33.948  28.114  1.00  0.00    -0.206 F 
ATOM     96  C   UNL A   1      35.237  34.188  28.006  1.00  0.00     0.040 A 
ATOM     97  C   UNL A   1      33.839  33.173  29.681  1.00  0.00     0.040 A 
ATOM     98  F   UNL A   1      34.805  31.977  31.450  1.00  0.00    -0.206 F 
ATOM     99  C   UNL A   1      33.968  33.929  28.519  1.00  0.00     0.006 A 
ENDBRANCH  75  92
ENDBRANCH  49  50
ENDBRANCH  42  44
ENDBRANCH  41  42
ENDBRANCH  40  41
ENDBRANCH  39  40
ENDBRANCH  38  39
ENDBRANCH  37  38
ENDBRANCH  36  37
ENDBRANCH   1  36
TORSDOF 25
ENDMDL
MODEL 3
REMARK VINA RESULT:      -7.3      3.238      8.683
REMARK SMILES CCOc1cc2c(cc1OCC)[C@@H](C(=O)OCCOCCOCCOCCOC(=O)c1ccc(-c3c4nc(c(-c5c(F)cccc5F)c5ccc([nH]5)c(-c5c(F)cccc5F)c5nc(c(-c6c(F)cccc6F)c6ccc3[nH]6)C=C5)C=C4)cc1)[C@H](c1ccc(F)cc1Cl)N(C)C2=O
REMARK SMILES IDX 22 1 21 2 20 3 19 4 18 5 17 6 16 7 14 8 15 9 13 10 4 11 5 12
REMARK SMILES IDX 9 13 6 14 8 15 7 16 96 17 94 18 97 19 85 20 95 21 3 22 2 23
REMARK SMILES IDX 1 24 10 25 11 26 12 27 86 28 87 29 92 30 88 31 91 32 93 33
REMARK SMILES IDX 89 34 90 35 23 36 24 37 25 38 26 39 27 40 28 41 29 42 30 43
REMARK SMILES IDX 31 44 32 45 84 46 33 47 83 48 34 49 35 50 36 51 77 52 37 53
REMARK SMILES IDX 82 54 76 55 78 56 38 57 81 58 75 59 74 60 39 62 65 63 48 64
REMARK SMILES IDX 64 65 49 66 52 67 63 68 79 69 50 70 51 71 62 73 80 74 53 75
REMARK SMILES IDX 40 76 41 77 46 78 42 79 43 80 45 81 47 82 44 83 66 84 67 85
REMARK SMILES IDX 72 86 68 87 69 88 71 89 73 90 70 91 54 92 55 93 60 94 56 95
REMARK SMILES IDX 57 96 59 97 61 98 58 99
REMARK H PARENT 78 61 52 72
REMARK Flexibility Score: inf
ROOT
ATOM      1  O   UNL A   1      53.015  26.699  33.414  1.00  0.00    -0.377 OA
ENDROOT
BRANCH   1   2
ATOM      2  C   UNL A   1      52.591  25.373  33.181  1.00  0.00     0.188 C 
BRANCH   2   3
ATOM      3  C   UNL A   1      51.885  25.063  31.855  1.00  0.00     0.188 C 
BRANCH   3   4
ATOM      4  O   UNL A   1      50.578  24.536  31.854  1.00  0.00    -0.376 OA
BRANCH   4   5
ATOM      5  C   UNL A   1      49.434  25.273  31.461  1.00  0.00     0.202 C 
BRANCH   5   6
ATOM      6  C   UNL A   1      49.039  25.648  30.022  1.00  0.00     0.261 C 
BRANCH   6   7
ATOM      7  O   UNL A   1      47.656  25.903  29.742  1.00  0.00    -0.463 OA
BRANCH   7   8
ATOM      8  C   UNL A   1      47.193  25.340  28.605  1.00  0.00     0.316 C 
ATOM      9  O   UNL A   1      47.784  24.442  28.002  1.00  0.00    -0.251 OA
BRANCH   8  10
ATOM     10  C   UNL A   1      45.948  25.979  27.995  1.00  0.00     0.157 C 
ATOM     11  C   UNL A   1      44.230  22.897  25.587  1.00  0.00     0.161 A 
ATOM     12  C   UNL A   1      45.007  23.912  25.010  1.00  0.00     0.064 A 
ATOM     13  C   UNL A   1      43.994  22.893  26.972  1.00  0.00     0.161 A 
ATOM     14  C   UNL A   1      45.600  24.882  25.795  1.00  0.00     0.048 A 
ATOM     15  C   UNL A   1      44.534  23.919  27.743  1.00  0.00     0.056 A 
ATOM     16  C   UNL A   1      45.318  24.910  27.156  1.00  0.00    -0.015 A 
ATOM     17  C   UNL A   1      46.533  25.878  25.189  1.00  0.00     0.254 C 
ATOM     18  N   UNL A   1      46.703  27.060  25.903  1.00  0.00    -0.333 N 
ATOM     19  O   UNL A   1      47.095  25.627  24.129  1.00  0.00    -0.269 OA
ATOM     20  C   UNL A   1      45.970  27.290  27.145  1.00  0.00     0.135 C 
ATOM     21  C   UNL A   1      47.592  28.091  25.386  1.00  0.00     0.147 C 
BRANCH  11  22
ATOM     22  O   UNL A   1      43.641  21.979  24.761  1.00  0.00    -0.490 OA
BRANCH  22  23
ATOM     23  C   UNL A   1      44.298  20.704  24.744  1.00  0.00     0.226 C 
ATOM     24  C   UNL A   1      43.426  19.592  25.309  1.00  0.00     0.049 C 
ENDBRANCH  22  23
ENDBRANCH  11  22
BRANCH  13  25
ATOM     25  O   UNL A   1      43.305  22.016  27.756  1.00  0.00    -0.490 OA
BRANCH  25  26
ATOM     26  C   UNL A   1      42.008  22.334  28.228  1.00  0.00     0.226 C 
ATOM     27  C   UNL A   1      41.009  21.303  27.740  1.00  0.00     0.049 C 
ENDBRANCH  25  26
ENDBRANCH  13  25
BRANCH  20  28
ATOM     28  C   UNL A   1      44.515  27.849  26.963  1.00  0.00    -0.005 A 
ATOM     29  C   UNL A   1      43.476  26.878  26.963  1.00  0.00     0.010 A 
ATOM     30  C   UNL A   1      44.110  29.190  26.751  1.00  0.00     0.049 A 
ATOM     31  C   UNL A   1      42.146  27.203  26.680  1.00  0.00     0.040 A 
ATOM     32  C   UNL A   1      42.767  29.509  26.477  1.00  0.00     0.060 A 
ATOM     33  Cl  UNL A   1      45.123  30.586  26.809  1.00  0.00    -0.084 Cl
ATOM     34  C   UNL A   1      41.807  28.518  26.428  1.00  0.00     0.124 A 
ATOM     35  F   UNL A   1      40.537  28.838  26.148  1.00  0.00    -0.207 F 
ENDBRANCH  20  28
ENDBRANCH   8  10
ENDBRANCH   7   8
ENDBRANCH   6   7
ENDBRANCH   5   6
ENDBRANCH   4   5
ENDBRANCH   3   4
ENDBRANCH   2   3
ENDBRANCH   1   2
BRANCH   1  36
ATOM     36  C   UNL A   1      53.354  27.545  32.321  1.00  0.00     0.188 C 
BRANCH  36  37
ATOM     37  C   UNL A   1      54.774  27.522  31.726  1.00  0.00     0.188 C 
BRANCH  37  38
ATOM     38  O   UNL A   1      54.834  27.817  30.342  1.00  0.00    -0.376 OA
BRANCH  38  39
ATOM     39  C   UNL A   1      53.834  27.286  29.486  1.00  0.00     0.202 C 
BRANCH  39  40
ATOM     40  C   UNL A   1      52.993  28.271  28.658  1.00  0.00     0.261 C 
BRANCH  40  41
ATOM     41  O   UNL A   1      52.506  29.440  29.340  1.00  0.00    -0.460 OA
BRANCH  41  42
ATOM     42  C   UNL A   1      52.347  30.575  28.634  1.00  0.00     0.338 C 
ATOM     43  O   UNL A   1      53.143  31.086  27.861  1.00  0.00    -0.246 OA
BRANCH  42  44
ATOM     44  C   UNL A   1      50.953  31.025  28.804  1.00  0.00     0.060 A 
ATOM     45  C   UNL A   1      50.590  31.695  29.980  1.00  0.00     0.016 A 
ATOM     46  C   UNL A   1      50.001  30.758  27.818  1.00  0.00     0.016 A 
ATOM     47  C   UNL A   1      49.260  32.055  30.196  1.00  0.00     0.010 A 
ATOM     48  C   UNL A   1      48.667  31.100  28.044  1.00  0.00     0.010 A 
ATOM     49  C   UNL A   1      48.284  31.711  29.252  1.00  0.00    -0.014 A 
BRANCH  49  50
ATOM     50  C   UNL A   1      46.849  31.783  29.621  1.00  0.00     0.031 A 
ATOM     51  C   UNL A   1      46.224  30.582  30.278  1.00  0.00     0.074 A 
ATOM     52  C   UNL A   1      46.118  32.888  29.398  1.00  0.00     0.049 A 
ATOM     53  N   UNL A   1      44.980  30.371  30.622  1.00  0.00    -0.248 NA
ATOM     54  C   UNL A   1      47.131  29.463  30.588  1.00  0.00     0.031 C 
ATOM     55  C   UNL A   1      46.617  34.131  28.817  1.00  0.00     0.029 A 
ATOM     56  N   UNL A   1      44.786  33.132  29.627  1.00  0.00    -0.354 N 
ATOM     57  C   UNL A   1      44.952  29.096  31.173  1.00  0.00     0.074 A 
ATOM     58  C   UNL A   1      46.296  28.569  31.093  1.00  0.00     0.031 C 
ATOM     59  C   UNL A   1      45.599  35.005  28.719  1.00  0.00     0.029 A 
ATOM     60  C   UNL A   1      44.372  34.367  29.194  1.00  0.00     0.049 A 
ATOM     61  H   UNL A   1      44.187  32.482  30.061  1.00  0.00     0.167 HD
ATOM     62  C   UNL A   1      43.902  28.427  31.705  1.00  0.00     0.037 A 
ATOM     63  C   UNL A   1      43.136  34.905  29.157  1.00  0.00     0.037 A 
ATOM     64  C   UNL A   1      42.566  28.954  31.780  1.00  0.00     0.049 A 
ATOM     65  C   UNL A   1      41.966  34.107  29.676  1.00  0.00     0.074 A 
ATOM     66  C   UNL A   1      41.434  28.360  32.310  1.00  0.00     0.029 A 
ATOM     67  N   UNL A   1      42.180  30.197  31.303  1.00  0.00    -0.354 N 
ATOM     68  N   UNL A   1      41.950  32.909  30.211  1.00  0.00    -0.248 NA
ATOM     69  C   UNL A   1      40.641  34.738  29.586  1.00  0.00     0.031 C 
ATOM     70  C   UNL A   1      40.351  29.218  32.098  1.00  0.00     0.029 A 
ATOM     71  C   UNL A   1      40.821  30.377  31.500  1.00  0.00     0.049 A 
ATOM     72  H   UNL A   1      42.783  30.854  30.885  1.00  0.00     0.167 HD
ATOM     73  C   UNL A   1      40.625  32.660  30.552  1.00  0.00     0.074 A 
ATOM     74  C   UNL A   1      39.869  33.835  30.174  1.00  0.00     0.031 C 
ATOM     75  C   UNL A   1      40.083  31.559  31.130  1.00  0.00     0.037 A 
BRANCH  62  76
ATOM     76  C   UNL A   1      44.154  27.037  32.213  1.00  0.00     0.057 A 
ATOM     77  C   UNL A   1      44.132  25.919  31.368  1.00  0.00     0.134 A 
ATOM     78  C   UNL A   1      44.446  26.816  33.566  1.00  0.00     0.134 A 
ATOM     79  F   UNL A   1      43.842  26.057  30.066  1.00  0.00    -0.206 F 
ATOM     80  C   UNL A   1      44.366  24.631  31.855  1.00  0.00     0.040 A 
ATOM     81  C   UNL A   1      44.712  25.538  34.058  1.00  0.00     0.040 A 
ATOM     82  F   UNL A   1      44.486  27.841  34.430  1.00  0.00    -0.206 F 
ATOM     83  C   UNL A   1      44.665  24.439  33.202  1.00  0.00     0.006 A 
ENDBRANCH  62  76
BRANCH  63  84
ATOM     84  C   UNL A   1      42.929  36.262  28.591  1.00  0.00     0.057 A 
ATOM     85  C   UNL A   1      42.483  36.442  27.276  1.00  0.00     0.134 A 
ATOM     86  C   UNL A   1      43.206  37.414  29.337  1.00  0.00     0.134 A 
ATOM     87  F   UNL A   1      42.228  35.379  26.498  1.00  0.00    -0.206 F 
ATOM     88  C   UNL A   1      42.340  37.714  26.718  1.00  0.00     0.040 A 
ATOM     89  C   UNL A   1      43.037  38.692  28.804  1.00  0.00     0.040 A 
ATOM     90  F   UNL A   1      43.642  37.312  30.602  1.00  0.00    -0.206 F 
ATOM     91  C   UNL A   1      42.612  38.845  27.486  1.00  0.00     0.006 A 
ENDBRANCH  63  84
BRANCH  75  92
ATOM     92  C   UNL A   1      38.613  31.590  31.443  1.00  0.00     0.057 A 
ATOM     93  C   UNL A   1      37.647  31.149  30.530  1.00  0.00     0.134 A 
ATOM     94  C   UNL A   1      38.165  32.022  32.699  1.00  0.00     0.134 A 
ATOM     95  F   UNL A   1      38.006  30.732  29.306  1.00  0.00    -0.206 F 
ATOM     96  C   UNL A   1      36.287  31.163  30.845  1.00  0.00     0.040 A 
ATOM     97  C   UNL A   1      36.811  32.009  33.036  1.00  0.00     0.040 A 
ATOM     98  F   UNL A   1      39.037  32.445  33.626  1.00  0.00    -0.206 F 
ATOM     99  C   UNL A   1      35.866  31.585  32.105  1.00  0.00     0.006 A 
ENDBRANCH  75  92
ENDBRANCH  49  50
ENDBRANCH  42  44
ENDBRANCH  41  42
ENDBRANCH  40  41
ENDBRANCH  39  40
ENDBRANCH  38  39
ENDBRANCH  37  38
ENDBRANCH  36  37
ENDBRANCH   1  36
TORSDOF 25
ENDMDL
