MODEL 1
REMARK VINA RESULT:     -10.1      0.000      0.000
REMARK SMILES C[C@@H](CC(=O)OCCOCCOCCOCCOC(=O)c1ccc(-c2c3nc(c(-c4c(F)cccc4F)c4ccc([nH]4)c(-c4c(F)cccc4F)c4nc(c(-c5c(F)cccc5F)c5ccc2[nH]5)C=C4)C=C3)cc1)NC(=O)[C@@H]1CCCN(C(N)=O)C1
REMARK SMILES IDX 11 1 10 2 9 3 8 4 7 5 6 6 4 7 5 8 3 9 2 10 1 11 75 12 76 13
REMARK SMILES IDX 77 15 78 16 79 17 86 18 80 19 82 20 81 21 83 22 84 23 85 24
REMARK SMILES IDX 12 27 13 28 14 29 15 30 16 31 17 32 18 33 19 34 20 35 21 36
REMARK SMILES IDX 22 37 74 38 23 39 73 40 24 41 25 42 26 43 67 44 27 45 72 46
REMARK SMILES IDX 66 47 68 48 28 49 71 50 65 51 64 52 29 54 55 55 38 56 54 57
REMARK SMILES IDX 39 58 42 59 53 60 69 61 40 62 41 63 52 65 70 66 43 67 30 68
REMARK SMILES IDX 31 69 36 70 32 71 33 72 35 73 37 74 34 75 56 76 57 77 62 78
REMARK SMILES IDX 58 79 59 80 61 81 63 82 60 83 44 84 45 85 50 86 46 87 47 88
REMARK SMILES IDX 49 89 51 90 48 91
REMARK H PARENT 75 14 84 25 84 26 68 53 42 64
REMARK Flexibility Score: inf
ROOT
ATOM      1  C   UNL A   1      42.625  19.122  25.437  1.00  0.00     0.188 C 
ENDROOT
BRANCH   1   2
ATOM      2  C   UNL A   1      42.065  20.092  26.473  1.00  0.00     0.188 C 
BRANCH   2   3
ATOM      3  O   UNL A   1      41.207  21.151  26.086  1.00  0.00    -0.376 OA
BRANCH   3   4
ATOM      4  C   UNL A   1      39.849  21.186  26.504  1.00  0.00     0.202 C 
BRANCH   4   5
ATOM      5  C   UNL A   1      38.738  21.571  25.507  1.00  0.00     0.261 C 
BRANCH   5   6
ATOM      6  O   UNL A   1      37.878  22.661  25.925  1.00  0.00    -0.463 OA
BRANCH   6   7
ATOM      7  C   UNL A   1      36.564  22.558  25.641  1.00  0.00     0.307 C 
ATOM      8  O   UNL A   1      36.122  21.906  24.697  1.00  0.00    -0.252 OA
BRANCH   7   9
ATOM      9  C   UNL A   1      35.606  23.302  26.568  1.00  0.00     0.147 C 
BRANCH   9  10
ATOM     10  C   UNL A   1      34.126  23.633  26.280  1.00  0.00     0.090 C 
ATOM     11  C   UNL A   1      33.113  22.576  26.700  1.00  0.00     0.031 C 
BRANCH  10  12
ATOM     12  N   UNL A   1      33.855  24.065  24.899  1.00  0.00    -0.353 N 
ATOM     13  C   UNL A   1      33.842  25.232  24.206  1.00  0.00     0.225 C 
ATOM     14  H   UNL A   1      33.620  23.302  24.323  1.00  0.00     0.163 HD
ATOM     15  O   UNL A   1      33.860  25.104  22.972  1.00  0.00    -0.275 OA
BRANCH  13  16
ATOM     16  C   UNL A   1      33.855  26.648  24.807  1.00  0.00     0.098 C 
ATOM     17  C   UNL A   1      33.074  26.932  26.085  1.00  0.00     0.017 C 
ATOM     18  C   UNL A   1      33.294  27.618  23.732  1.00  0.00     0.134 C 
ATOM     19  C   UNL A   1      31.592  26.635  25.881  1.00  0.00     0.022 C 
ATOM     20  N   UNL A   1      31.842  27.438  23.537  1.00  0.00    -0.324 N 
ATOM     21  C   UNL A   1      31.019  27.480  24.748  1.00  0.00     0.121 C 
BRANCH  20  22
ATOM     22  C   UNL A   1      31.189  27.337  22.330  1.00  0.00     0.314 C 
ATOM     23  N   UNL A   1      31.619  26.399  21.461  1.00  0.00    -0.351 N 
ATOM     24  O   UNL A   1      30.259  28.063  21.986  1.00  0.00    -0.249 OA
ATOM     25  H   UNL A   1      32.363  25.803  21.708  1.00  0.00     0.161 HD
ATOM     26  H   UNL A   1      31.189  26.310  20.580  1.00  0.00     0.161 HD
ENDBRANCH  20  22
ENDBRANCH  13  16
ENDBRANCH  10  12
ENDBRANCH   9  10
ENDBRANCH   7   9
ENDBRANCH   6   7
ENDBRANCH   5   6
ENDBRANCH   4   5
ENDBRANCH   3   4
ENDBRANCH   2   3
ENDBRANCH   1   2
BRANCH   1  27
ATOM     27  O   UNL A   1      43.933  18.633  25.670  1.00  0.00    -0.377 OA
BRANCH  27  28
ATOM     28  C   UNL A   1      44.963  18.943  24.740  1.00  0.00     0.188 C 
BRANCH  28  29
ATOM     29  C   UNL A   1      46.311  19.404  25.299  1.00  0.00     0.188 C 
BRANCH  29  30
ATOM     30  O   UNL A   1      46.697  20.670  24.804  1.00  0.00    -0.376 OA
BRANCH  30  31
ATOM     31  C   UNL A   1      46.018  21.858  25.180  1.00  0.00     0.202 C 
BRANCH  31  32
ATOM     32  C   UNL A   1      45.922  23.129  24.313  1.00  0.00     0.261 C 
BRANCH  32  33
ATOM     33  O   UNL A   1      45.001  24.159  24.686  1.00  0.00    -0.460 OA
BRANCH  33  34
ATOM     34  C   UNL A   1      43.688  23.891  24.669  1.00  0.00     0.338 C 
ATOM     35  O   UNL A   1      43.138  22.921  24.163  1.00  0.00    -0.246 OA
BRANCH  34  36
ATOM     36  C   UNL A   1      43.020  24.882  25.538  1.00  0.00     0.060 A 
ATOM     37  C   UNL A   1      43.667  26.097  25.797  1.00  0.00     0.016 A 
ATOM     38  C   UNL A   1      41.779  24.606  26.120  1.00  0.00     0.016 A 
ATOM     39  C   UNL A   1      43.109  27.008  26.693  1.00  0.00     0.010 A 
ATOM     40  C   UNL A   1      41.227  25.514  27.030  1.00  0.00     0.010 A 
ATOM     41  C   UNL A   1      41.917  26.696  27.358  1.00  0.00    -0.014 A 
BRANCH  41  42
ATOM     42  C   UNL A   1      41.520  27.497  28.543  1.00  0.00     0.031 A 
ATOM     43  C   UNL A   1      42.335  27.363  29.804  1.00  0.00     0.074 A 
ATOM     44  C   UNL A   1      40.497  28.369  28.491  1.00  0.00     0.049 A 
ATOM     45  N   UNL A   1      42.185  27.958  30.960  1.00  0.00    -0.248 NA
ATOM     46  C   UNL A   1      43.474  26.434  29.748  1.00  0.00     0.031 C 
ATOM     47  C   UNL A   1      39.663  28.624  27.319  1.00  0.00     0.029 A 
ATOM     48  N   UNL A   1      39.990  29.202  29.456  1.00  0.00    -0.354 N 
ATOM     49  C   UNL A   1      43.205  27.469  31.768  1.00  0.00     0.074 A 
ATOM     50  C   UNL A   1      43.943  26.505  30.984  1.00  0.00     0.031 C 
ATOM     51  C   UNL A   1      38.740  29.550  27.637  1.00  0.00     0.029 A 
ATOM     52  C   UNL A   1      38.902  29.928  29.041  1.00  0.00     0.049 A 
ATOM     53  H   UNL A   1      40.371  29.273  30.362  1.00  0.00     0.167 HD
ATOM     54  C   UNL A   1      43.509  27.804  33.045  1.00  0.00     0.037 A 
ATOM     55  C   UNL A   1      38.117  30.786  29.722  1.00  0.00     0.037 A 
ATOM     56  C   UNL A   1      42.770  28.761  33.825  1.00  0.00     0.049 A 
ATOM     57  C   UNL A   1      38.426  31.082  31.167  1.00  0.00     0.074 A 
ATOM     58  C   UNL A   1      43.003  29.176  35.125  1.00  0.00     0.029 A 
ATOM     59  N   UNL A   1      41.649  29.445  33.381  1.00  0.00    -0.354 N 
ATOM     60  N   UNL A   1      39.406  30.635  31.915  1.00  0.00    -0.248 NA
ATOM     61  C   UNL A   1      37.521  32.010  31.860  1.00  0.00     0.031 C 
ATOM     62  C   UNL A   1      41.987  30.068  35.486  1.00  0.00     0.029 A 
ATOM     63  C   UNL A   1      41.162  30.260  34.390  1.00  0.00     0.049 A 
ATOM     64  H   UNL A   1      41.257  29.363  32.482  1.00  0.00     0.167 HD
ATOM     65  C   UNL A   1      39.257  31.252  33.152  1.00  0.00     0.074 A 
ATOM     66  C   UNL A   1      38.100  32.117  33.048  1.00  0.00     0.031 C 
ATOM     67  C   UNL A   1      40.012  31.120  34.271  1.00  0.00     0.037 A 
BRANCH  54  68
ATOM     68  C   UNL A   1      44.673  27.102  33.685  1.00  0.00     0.057 A 
ATOM     69  C   UNL A   1      44.550  25.832  34.265  1.00  0.00     0.134 A 
ATOM     70  C   UNL A   1      45.940  27.697  33.703  1.00  0.00     0.134 A 
ATOM     71  F   UNL A   1      43.360  25.211  34.297  1.00  0.00    -0.206 F 
ATOM     72  C   UNL A   1      45.638  25.192  34.862  1.00  0.00     0.040 A 
ATOM     73  C   UNL A   1      47.042  27.055  34.269  1.00  0.00     0.040 A 
ATOM     74  F   UNL A   1      46.131  28.910  33.162  1.00  0.00    -0.206 F 
ATOM     75  C   UNL A   1      46.891  25.802  34.858  1.00  0.00     0.006 A 
ENDBRANCH  54  68
BRANCH  55  76
ATOM     76  C   UNL A   1      36.951  31.423  29.054  1.00  0.00     0.057 A 
ATOM     77  C   UNL A   1      35.786  30.699  28.778  1.00  0.00     0.134 A 
ATOM     78  C   UNL A   1      36.989  32.761  28.646  1.00  0.00     0.134 A 
ATOM     79  F   UNL A   1      35.697  29.405  29.120  1.00  0.00    -0.206 F 
ATOM     80  C   UNL A   1      34.709  31.275  28.102  1.00  0.00     0.040 A 
ATOM     81  C   UNL A   1      35.909  33.360  27.995  1.00  0.00     0.040 A 
ATOM     82  F   UNL A   1      38.075  33.512  28.880  1.00  0.00    -0.206 F 
ATOM     83  C   UNL A   1      34.767  32.612  27.713  1.00  0.00     0.006 A 
ENDBRANCH  55  76
BRANCH  67  84
ATOM     84  C   UNL A   1      39.640  31.964  35.459  1.00  0.00     0.057 A 
ATOM     85  C   UNL A   1      38.722  31.533  36.424  1.00  0.00     0.134 A 
ATOM     86  C   UNL A   1      40.238  33.218  35.653  1.00  0.00     0.134 A 
ATOM     87  F   UNL A   1      38.106  30.347  36.295  1.00  0.00    -0.206 F 
ATOM     88  C   UNL A   1      38.386  32.330  37.520  1.00  0.00     0.040 A 
ATOM     89  C   UNL A   1      39.935  34.009  36.762  1.00  0.00     0.040 A 
ATOM     90  F   UNL A   1      41.136  33.689  34.776  1.00  0.00    -0.206 F 
ATOM     91  C   UNL A   1      38.998  33.569  37.694  1.00  0.00     0.006 A 
ENDBRANCH  67  84
ENDBRANCH  41  42
ENDBRANCH  34  36
ENDBRANCH  33  34
ENDBRANCH  32  33
ENDBRANCH  31  32
ENDBRANCH  30  31
ENDBRANCH  29  30
ENDBRANCH  28  29
ENDBRANCH  27  28
ENDBRANCH   1  27
TORSDOF 24
ENDMDL
MODEL 2
REMARK VINA RESULT:      -9.5      4.970     10.280
REMARK SMILES C[C@@H](CC(=O)OCCOCCOCCOCCOC(=O)c1ccc(-c2c3nc(c(-c4c(F)cccc4F)c4ccc([nH]4)c(-c4c(F)cccc4F)c4nc(c(-c5c(F)cccc5F)c5ccc2[nH]5)C=C4)C=C3)cc1)NC(=O)[C@@H]1CCCN(C(N)=O)C1
REMARK SMILES IDX 11 1 10 2 9 3 8 4 7 5 6 6 4 7 5 8 3 9 2 10 1 11 75 12 76 13
REMARK SMILES IDX 77 15 78 16 79 17 86 18 80 19 82 20 81 21 83 22 84 23 85 24
REMARK SMILES IDX 12 27 13 28 14 29 15 30 16 31 17 32 18 33 19 34 20 35 21 36
REMARK SMILES IDX 22 37 74 38 23 39 73 40 24 41 25 42 26 43 67 44 27 45 72 46
REMARK SMILES IDX 66 47 68 48 28 49 71 50 65 51 64 52 29 54 55 55 38 56 54 57
REMARK SMILES IDX 39 58 42 59 53 60 69 61 40 62 41 63 52 65 70 66 43 67 30 68
REMARK SMILES IDX 31 69 36 70 32 71 33 72 35 73 37 74 34 75 56 76 57 77 62 78
REMARK SMILES IDX 58 79 59 80 61 81 63 82 60 83 44 84 45 85 50 86 46 87 47 88
REMARK SMILES IDX 49 89 51 90 48 91
REMARK H PARENT 75 14 84 25 84 26 68 53 42 64
REMARK Flexibility Score: inf
ROOT
ATOM      1  C   UNL A   1      32.755  30.610  27.230  1.00  0.00     0.188 C 
ENDROOT
BRANCH   1   2
ATOM      2  C   UNL A   1      31.844  30.555  26.007  1.00  0.00     0.188 C 
BRANCH   2   3
ATOM      3  O   UNL A   1      31.666  29.346  25.288  1.00  0.00    -0.376 OA
BRANCH   3   4
ATOM      4  C   UNL A   1      30.626  29.209  24.329  1.00  0.00     0.202 C 
BRANCH   4   5
ATOM      5  C   UNL A   1      30.958  29.150  22.826  1.00  0.00     0.261 C 
BRANCH   5   6
ATOM      6  O   UNL A   1      31.587  27.924  22.375  1.00  0.00    -0.463 OA
BRANCH   6   7
ATOM      7  C   UNL A   1      32.935  27.877  22.387  1.00  0.00     0.307 C 
ATOM      8  O   UNL A   1      33.646  28.848  22.641  1.00  0.00    -0.252 OA
BRANCH   7   9
ATOM      9  C   UNL A   1      33.574  26.528  22.068  1.00  0.00     0.147 C 
BRANCH   9  10
ATOM     10  C   UNL A   1      32.881  25.323  21.397  1.00  0.00     0.090 C 
ATOM     11  C   UNL A   1      32.641  25.442  19.898  1.00  0.00     0.031 C 
BRANCH  10  12
ATOM     12  N   UNL A   1      31.649  24.876  22.067  1.00  0.00    -0.353 N 
ATOM     13  C   UNL A   1      31.320  24.163  23.175  1.00  0.00     0.225 C 
ATOM     14  H   UNL A   1      30.847  25.177  21.582  1.00  0.00     0.163 HD
ATOM     15  O   UNL A   1      30.142  24.287  23.542  1.00  0.00    -0.275 OA
BRANCH  13  16
ATOM     16  C   UNL A   1      32.271  23.285  24.007  1.00  0.00     0.098 C 
ATOM     17  C   UNL A   1      31.696  22.201  24.913  1.00  0.00     0.017 C 
ATOM     18  C   UNL A   1      33.093  24.227  24.927  1.00  0.00     0.134 C 
ATOM     19  C   UNL A   1      30.761  22.814  25.950  1.00  0.00     0.022 C 
ATOM     20  N   UNL A   1      32.264  24.799  26.006  1.00  0.00    -0.324 N 
ATOM     21  C   UNL A   1      31.497  23.841  26.805  1.00  0.00     0.121 C 
BRANCH  20  22
ATOM     22  C   UNL A   1      32.227  26.119  26.391  1.00  0.00     0.314 C 
ATOM     23  N   UNL A   1      33.129  26.958  25.841  1.00  0.00    -0.351 N 
ATOM     24  O   UNL A   1      31.440  26.575  27.218  1.00  0.00    -0.249 OA
ATOM     25  H   UNL A   1      33.771  26.622  25.175  1.00  0.00     0.161 HD
ATOM     26  H   UNL A   1      33.144  27.906  26.105  1.00  0.00     0.161 HD
ENDBRANCH  20  22
ENDBRANCH  13  16
ENDBRANCH  10  12
ENDBRANCH   9  10
ENDBRANCH   7   9
ENDBRANCH   6   7
ENDBRANCH   5   6
ENDBRANCH   4   5
ENDBRANCH   3   4
ENDBRANCH   2   3
ENDBRANCH   1   2
BRANCH   1  27
ATOM     27  O   UNL A   1      33.656  31.699  27.298  1.00  0.00    -0.377 OA
BRANCH  27  28
ATOM     28  C   UNL A   1      33.155  32.991  27.618  1.00  0.00     0.188 C 
BRANCH  28  29
ATOM     29  C   UNL A   1      33.994  33.869  28.551  1.00  0.00     0.188 C 
BRANCH  29  30
ATOM     30  O   UNL A   1      34.031  33.371  29.873  1.00  0.00    -0.376 OA
BRANCH  30  31
ATOM     31  C   UNL A   1      34.276  34.217  30.984  1.00  0.00     0.202 C 
BRANCH  31  32
ATOM     32  C   UNL A   1      34.512  33.729  32.428  1.00  0.00     0.261 C 
BRANCH  32  33
ATOM     33  O   UNL A   1      35.027  32.411  32.642  1.00  0.00    -0.460 OA
BRANCH  33  34
ATOM     34  C   UNL A   1      36.197  32.270  33.282  1.00  0.00     0.338 C 
ATOM     35  O   UNL A   1      36.456  32.603  34.432  1.00  0.00    -0.246 OA
BRANCH  34  36
ATOM     36  C   UNL A   1      37.083  31.464  32.416  1.00  0.00     0.060 A 
ATOM     37  C   UNL A   1      37.996  30.588  33.014  1.00  0.00     0.016 A 
ATOM     38  C   UNL A   1      37.035  31.592  31.024  1.00  0.00     0.016 A 
ATOM     39  C   UNL A   1      38.912  29.891  32.227  1.00  0.00     0.010 A 
ATOM     40  C   UNL A   1      37.965  30.905  30.237  1.00  0.00     0.010 A 
ATOM     41  C   UNL A   1      38.940  30.090  30.841  1.00  0.00    -0.014 A 
BRANCH  41  42
ATOM     42  C   UNL A   1      40.118  29.624  30.067  1.00  0.00     0.031 A 
ATOM     43  C   UNL A   1      41.258  30.585  29.850  1.00  0.00     0.074 A 
ATOM     44  C   UNL A   1      40.206  28.360  29.616  1.00  0.00     0.049 A 
ATOM     45  N   UNL A   1      42.387  30.408  29.212  1.00  0.00    -0.248 NA
ATOM     46  C   UNL A   1      41.101  31.926  30.435  1.00  0.00     0.031 C 
ATOM     47  C   UNL A   1      39.194  27.323  29.803  1.00  0.00     0.029 A 
ATOM     48  N   UNL A   1      41.203  27.737  28.907  1.00  0.00    -0.354 N 
ATOM     49  C   UNL A   1      43.069  31.614  29.314  1.00  0.00     0.074 A 
ATOM     50  C   UNL A   1      42.214  32.525  30.041  1.00  0.00     0.031 C 
ATOM     51  C   UNL A   1      39.619  26.191  29.215  1.00  0.00     0.029 A 
ATOM     52  C   UNL A   1      40.918  26.433  28.587  1.00  0.00     0.049 A 
ATOM     53  H   UNL A   1      42.043  28.183  28.652  1.00  0.00     0.167 HD
ATOM     54  C   UNL A   1      44.303  31.933  28.854  1.00  0.00     0.037 A 
ATOM     55  C   UNL A   1      41.619  25.544  27.856  1.00  0.00     0.037 A 
ATOM     56  C   UNL A   1      45.151  31.025  28.126  1.00  0.00     0.049 A 
ATOM     57  C   UNL A   1      42.955  25.947  27.286  1.00  0.00     0.074 A 
ATOM     58  C   UNL A   1      46.422  31.248  27.625  1.00  0.00     0.029 A 
ATOM     59  N   UNL A   1      44.809  29.726  27.787  1.00  0.00    -0.354 N 
ATOM     60  N   UNL A   1      43.602  27.081  27.408  1.00  0.00    -0.248 NA
ATOM     61  C   UNL A   1      43.662  24.939  26.482  1.00  0.00     0.031 C 
ATOM     62  C   UNL A   1      46.825  30.102  26.932  1.00  0.00     0.029 A 
ATOM     63  C   UNL A   1      45.834  29.142  27.059  1.00  0.00     0.049 A 
ATOM     64  H   UNL A   1      43.963  29.283  28.027  1.00  0.00     0.167 HD
ATOM     65  C   UNL A   1      44.804  26.912  26.729  1.00  0.00     0.074 A 
ATOM     66  C   UNL A   1      44.800  25.560  26.208  1.00  0.00     0.031 C 
ATOM     67  C   UNL A   1      45.820  27.793  26.553  1.00  0.00     0.037 A 
BRANCH  54  68
ATOM     68  C   UNL A   1      44.793  33.332  29.099  1.00  0.00     0.057 A 
ATOM     69  C   UNL A   1      44.562  34.372  28.189  1.00  0.00     0.134 A 
ATOM     70  C   UNL A   1      45.486  33.647  30.274  1.00  0.00     0.134 A 
ATOM     71  F   UNL A   1      43.918  34.136  27.035  1.00  0.00    -0.206 F 
ATOM     72  C   UNL A   1      45.028  35.667  28.425  1.00  0.00     0.040 A 
ATOM     73  C   UNL A   1      45.929  34.943  30.536  1.00  0.00     0.040 A 
ATOM     74  F   UNL A   1      45.737  32.701  31.192  1.00  0.00    -0.206 F 
ATOM     75  C   UNL A   1      45.707  35.957  29.607  1.00  0.00     0.006 A 
ENDBRANCH  54  68
BRANCH  55  76
ATOM     76  C   UNL A   1      41.071  24.185  27.607  1.00  0.00     0.057 A 
ATOM     77  C   UNL A   1      41.569  23.064  28.281  1.00  0.00     0.134 A 
ATOM     78  C   UNL A   1      40.061  23.970  26.662  1.00  0.00     0.134 A 
ATOM     79  F   UNL A   1      42.556  23.200  29.179  1.00  0.00    -0.206 F 
ATOM     80  C   UNL A   1      41.099  21.778  28.011  1.00  0.00     0.040 A 
ATOM     81  C   UNL A   1      39.559  22.693  26.402  1.00  0.00     0.040 A 
ATOM     82  F   UNL A   1      39.539  25.000  25.980  1.00  0.00    -0.206 F 
ATOM     83  C   UNL A   1      40.086  21.591  27.072  1.00  0.00     0.006 A 
ENDBRANCH  55  76
BRANCH  67  84
ATOM     84  C   UNL A   1      47.034  27.309  25.810  1.00  0.00     0.057 A 
ATOM     85  C   UNL A   1      48.056  26.586  26.437  1.00  0.00     0.134 A 
ATOM     86  C   UNL A   1      47.165  27.548  24.434  1.00  0.00     0.134 A 
ATOM     87  F   UNL A   1      47.999  26.331  27.754  1.00  0.00    -0.206 F 
ATOM     88  C   UNL A   1      49.179  26.146  25.733  1.00  0.00     0.040 A 
ATOM     89  C   UNL A   1      48.266  27.085  23.713  1.00  0.00     0.040 A 
ATOM     90  F   UNL A   1      46.219  28.223  23.765  1.00  0.00    -0.206 F 
ATOM     91  C   UNL A   1      49.282  26.390  24.365  1.00  0.00     0.006 A 
ENDBRANCH  67  84
ENDBRANCH  41  42
ENDBRANCH  34  36
ENDBRANCH  33  34
ENDBRANCH  32  33
ENDBRANCH  31  32
ENDBRANCH  30  31
ENDBRANCH  29  30
ENDBRANCH  28  29
ENDBRANCH  27  28
ENDBRANCH   1  27
TORSDOF 24
ENDMDL
MODEL 3
REMARK VINA RESULT:      -9.3      4.493      9.695
REMARK SMILES C[C@@H](CC(=O)OCCOCCOCCOCCOC(=O)c1ccc(-c2c3nc(c(-c4c(F)cccc4F)c4ccc([nH]4)c(-c4c(F)cccc4F)c4nc(c(-c5c(F)cccc5F)c5ccc2[nH]5)C=C4)C=C3)cc1)NC(=O)[C@@H]1CCCN(C(N)=O)C1
REMARK SMILES IDX 11 1 10 2 9 3 8 4 7 5 6 6 4 7 5 8 3 9 2 10 1 11 75 12 76 13
REMARK SMILES IDX 77 15 78 16 79 17 86 18 80 19 82 20 81 21 83 22 84 23 85 24
REMARK SMILES IDX 12 27 13 28 14 29 15 30 16 31 17 32 18 33 19 34 20 35 21 36
REMARK SMILES IDX 22 37 74 38 23 39 73 40 24 41 25 42 26 43 67 44 27 45 72 46
REMARK SMILES IDX 66 47 68 48 28 49 71 50 65 51 64 52 29 54 55 55 38 56 54 57
REMARK SMILES IDX 39 58 42 59 53 60 69 61 40 62 41 63 52 65 70 66 43 67 30 68
REMARK SMILES IDX 31 69 36 70 32 71 33 72 35 73 37 74 34 75 56 76 57 77 62 78
REMARK SMILES IDX 58 79 59 80 61 81 63 82 60 83 44 84 45 85 50 86 46 87 47 88
REMARK SMILES IDX 49 89 51 90 48 91
REMARK H PARENT 75 14 84 25 84 26 68 53 42 64
REMARK Flexibility Score: inf
ROOT
ATOM      1  C   UNL A   1      34.964  30.849  27.608  1.00  0.00     0.188 C 
ENDROOT
BRANCH   1   2
ATOM      2  C   UNL A   1      33.618  30.460  27.001  1.00  0.00     0.188 C 
BRANCH   2   3
ATOM      3  O   UNL A   1      33.551  29.598  25.878  1.00  0.00    -0.376 OA
BRANCH   3   4
ATOM      4  C   UNL A   1      33.072  28.265  26.003  1.00  0.00     0.202 C 
BRANCH   4   5
ATOM      5  C   UNL A   1      31.596  28.000  26.357  1.00  0.00     0.261 C 
BRANCH   5   6
ATOM      6  O   UNL A   1      30.807  27.377  25.312  1.00  0.00    -0.463 OA
BRANCH   6   7
ATOM      7  C   UNL A   1      30.719  28.024  24.132  1.00  0.00     0.307 C 
ATOM      8  O   UNL A   1      30.526  29.235  24.033  1.00  0.00    -0.252 OA
BRANCH   7   9
ATOM      9  C   UNL A   1      30.879  27.174  22.874  1.00  0.00     0.147 C 
BRANCH   9  10
ATOM     10  C   UNL A   1      31.858  25.996  22.684  1.00  0.00     0.090 C 
ATOM     11  C   UNL A   1      32.305  25.726  21.253  1.00  0.00     0.031 C 
BRANCH  10  12
ATOM     12  N   UNL A   1      31.433  24.739  23.321  1.00  0.00    -0.353 N 
ATOM     13  C   UNL A   1      31.764  24.021  24.424  1.00  0.00     0.225 C 
ATOM     14  H   UNL A   1      30.713  24.303  22.810  1.00  0.00     0.163 HD
ATOM     15  O   UNL A   1      30.931  23.163  24.755  1.00  0.00    -0.275 OA
BRANCH  13  16
ATOM     16  C   UNL A   1      33.021  24.211  25.291  1.00  0.00     0.098 C 
ATOM     17  C   UNL A   1      34.348  24.562  24.628  1.00  0.00     0.017 C 
ATOM     18  C   UNL A   1      33.260  22.886  26.064  1.00  0.00     0.134 C 
ATOM     19  C   UNL A   1      34.750  23.478  23.633  1.00  0.00     0.022 C 
ATOM     20  N   UNL A   1      33.728  21.807  25.171  1.00  0.00    -0.324 N 
ATOM     21  C   UNL A   1      34.881  22.126  24.327  1.00  0.00     0.121 C 
BRANCH  20  22
ATOM     22  C   UNL A   1      33.251  20.517  25.134  1.00  0.00     0.314 C 
ATOM     23  N   UNL A   1      34.145  19.524  24.954  1.00  0.00    -0.351 N 
ATOM     24  O   UNL A   1      32.063  20.218  25.232  1.00  0.00    -0.249 OA
ATOM     25  H   UNL A   1      35.103  19.732  24.872  1.00  0.00     0.161 HD
ATOM     26  H   UNL A   1      33.839  18.589  24.903  1.00  0.00     0.161 HD
ENDBRANCH  20  22
ENDBRANCH  13  16
ENDBRANCH  10  12
ENDBRANCH   9  10
ENDBRANCH   7   9
ENDBRANCH   6   7
ENDBRANCH   5   6
ENDBRANCH   4   5
ENDBRANCH   3   4
ENDBRANCH   2   3
ENDBRANCH   1   2
BRANCH   1  27
ATOM     27  O   UNL A   1      34.960  31.207  28.977  1.00  0.00    -0.377 OA
BRANCH  27  28
ATOM     28  C   UNL A   1      34.703  32.559  29.337  1.00  0.00     0.188 C 
BRANCH  28  29
ATOM     29  C   UNL A   1      35.289  33.656  28.444  1.00  0.00     0.188 C 
BRANCH  29  30
ATOM     30  O   UNL A   1      34.293  34.500  27.901  1.00  0.00    -0.376 OA
BRANCH  30  31
ATOM     31  C   UNL A   1      34.033  35.789  28.433  1.00  0.00     0.202 C 
BRANCH  31  32
ATOM     32  C   UNL A   1      32.988  36.097  29.524  1.00  0.00     0.261 C 
BRANCH  32  33
ATOM     33  O   UNL A   1      32.771  35.145  30.570  1.00  0.00    -0.460 OA
BRANCH  33  34
ATOM     34  C   UNL A   1      32.789  35.566  31.843  1.00  0.00     0.338 C 
ATOM     35  O   UNL A   1      31.919  36.203  32.423  1.00  0.00    -0.246 OA
BRANCH  34  36
ATOM     36  C   UNL A   1      33.972  34.965  32.493  1.00  0.00     0.060 A 
ATOM     37  C   UNL A   1      35.219  35.580  32.326  1.00  0.00     0.016 A 
ATOM     38  C   UNL A   1      33.860  33.786  33.237  1.00  0.00     0.016 A 
ATOM     39  C   UNL A   1      36.367  34.980  32.842  1.00  0.00     0.010 A 
ATOM     40  C   UNL A   1      35.014  33.178  33.741  1.00  0.00     0.010 A 
ATOM     41  C   UNL A   1      36.278  33.747  33.501  1.00  0.00    -0.014 A 
BRANCH  41  42
ATOM     42  C   UNL A   1      37.516  32.963  33.736  1.00  0.00     0.031 A 
ATOM     43  C   UNL A   1      38.296  33.217  35.000  1.00  0.00     0.074 A 
ATOM     44  C   UNL A   1      37.913  32.004  32.880  1.00  0.00     0.049 A 
ATOM     45  N   UNL A   1      39.402  32.658  35.423  1.00  0.00    -0.248 NA
ATOM     46  C   UNL A   1      37.752  34.239  35.908  1.00  0.00     0.031 C 
ATOM     47  C   UNL A   1      37.220  31.631  31.649  1.00  0.00     0.029 A 
ATOM     48  N   UNL A   1      39.001  31.169  32.924  1.00  0.00    -0.354 N 
ATOM     49  C   UNL A   1      39.686  33.265  36.641  1.00  0.00     0.074 A 
ATOM     50  C   UNL A   1      38.661  34.258  36.871  1.00  0.00     0.031 C 
ATOM     51  C   UNL A   1      37.906  30.642  31.048  1.00  0.00     0.029 A 
ATOM     52  C   UNL A   1      39.099  30.335  31.838  1.00  0.00     0.049 A 
ATOM     53  H   UNL A   1      39.651  31.167  33.665  1.00  0.00     0.167 HD
ATOM     54  C   UNL A   1      40.703  33.010  37.499  1.00  0.00     0.037 A 
ATOM     55  C   UNL A   1      40.052  29.441  31.511  1.00  0.00     0.037 A 
ATOM     56  C   UNL A   1      41.726  32.024  37.266  1.00  0.00     0.049 A 
ATOM     57  C   UNL A   1      41.218  29.230  32.443  1.00  0.00     0.074 A 
ATOM     58  C   UNL A   1      42.794  31.683  38.077  1.00  0.00     0.029 A 
ATOM     59  N   UNL A   1      41.813  31.228  36.134  1.00  0.00    -0.354 N 
ATOM     60  N   UNL A   1      41.466  29.791  33.603  1.00  0.00    -0.248 NA
ATOM     61  C   UNL A   1      42.235  28.256  32.022  1.00  0.00     0.031 C 
ATOM     62  C   UNL A   1      43.559  30.721  37.409  1.00  0.00     0.029 A 
ATOM     63  C   UNL A   1      42.932  30.415  36.213  1.00  0.00     0.049 A 
ATOM     64  H   UNL A   1      41.174  31.240  35.386  1.00  0.00     0.167 HD
ATOM     65  C   UNL A   1      42.643  29.212  34.064  1.00  0.00     0.074 A 
ATOM     66  C   UNL A   1      43.053  28.247  33.065  1.00  0.00     0.031 C 
ATOM     67  C   UNL A   1      43.323  29.454  35.213  1.00  0.00     0.037 A 
BRANCH  54  68
ATOM     68  C   UNL A   1      40.774  33.835  38.752  1.00  0.00     0.057 A 
ATOM     69  C   UNL A   1      41.568  34.987  38.842  1.00  0.00     0.134 A 
ATOM     70  C   UNL A   1      40.021  33.484  39.879  1.00  0.00     0.134 A 
ATOM     71  F   UNL A   1      42.327  35.372  37.805  1.00  0.00    -0.206 F 
ATOM     72  C   UNL A   1      41.630  35.742  40.014  1.00  0.00     0.040 A 
ATOM     73  C   UNL A   1      40.050  34.247  41.046  1.00  0.00     0.040 A 
ATOM     74  F   UNL A   1      39.235  32.395  39.861  1.00  0.00    -0.206 F 
ATOM     75  C   UNL A   1      40.863  35.377  41.119  1.00  0.00     0.006 A 
ENDBRANCH  54  68
BRANCH  55  76
ATOM     76  C   UNL A   1      39.958  28.679  30.238  1.00  0.00     0.057 A 
ATOM     77  C   UNL A   1      40.564  29.143  29.066  1.00  0.00     0.134 A 
ATOM     78  C   UNL A   1      39.229  27.486  30.157  1.00  0.00     0.134 A 
ATOM     79  F   UNL A   1      41.256  30.292  29.072  1.00  0.00    -0.206 F 
ATOM     80  C   UNL A   1      40.433  28.462  27.854  1.00  0.00     0.040 A 
ATOM     81  C   UNL A   1      39.113  26.778  28.959  1.00  0.00     0.040 A 
ATOM     82  F   UNL A   1      38.623  26.986  31.243  1.00  0.00    -0.206 F 
ATOM     83  C   UNL A   1      39.709  27.272  27.801  1.00  0.00     0.006 A 
ENDBRANCH  55  76
BRANCH  67  84
ATOM     84  C   UNL A   1      44.553  28.629  35.475  1.00  0.00     0.057 A 
ATOM     85  C   UNL A   1      44.501  27.405  36.153  1.00  0.00     0.134 A 
ATOM     86  C   UNL A   1      45.806  29.057  35.014  1.00  0.00     0.134 A 
ATOM     87  F   UNL A   1      43.335  26.941  36.630  1.00  0.00    -0.206 F 
ATOM     88  C   UNL A   1      45.653  26.652  36.391  1.00  0.00     0.040 A 
ATOM     89  C   UNL A   1      46.959  28.298  35.216  1.00  0.00     0.040 A 
ATOM     90  F   UNL A   1      45.929  30.214  34.346  1.00  0.00    -0.206 F 
ATOM     91  C   UNL A   1      46.885  27.095  35.916  1.00  0.00     0.006 A 
ENDBRANCH  67  84
ENDBRANCH  41  42
ENDBRANCH  34  36
ENDBRANCH  33  34
ENDBRANCH  32  33
ENDBRANCH  31  32
ENDBRANCH  30  31
ENDBRANCH  29  30
ENDBRANCH  28  29
ENDBRANCH  27  28
ENDBRANCH   1  27
TORSDOF 24
ENDMDL
