MODEL 1
REMARK VINA RESULT:     -10.5      0.000      0.000
REMARK SMILES COc1ccc(NC(=O)c2cnn3c2N=C(C(=O)OCCOCCOCCOCCOC(=O)c2ccc(-c4c5nc(c(-c6c(F)cccc6F)c6ccc([nH]6)c(-c6c(F)cccc6F)c6nc(c(-c7c(F)cccc7F)c7ccc4[nH]7)C=C6)C=C5)cc2)C[C@@H]3c2ccc(OC)cc2)cc1
REMARK SMILES IDX 24 1 23 2 22 3 21 4 20 5 19 6 17 7 18 8 16 9 10 10 11 11
REMARK SMILES IDX 14 12 12 13 13 14 15 15 89 16 88 17 8 18 7 19 9 21 6 22 3 23
REMARK SMILES IDX 4 24 99 25 5 26 98 27 2 28 1 29 90 30 91 31 97 32 92 33
REMARK SMILES IDX 96 34 93 35 94 36 95 37 25 38 26 39 27 40 28 41 29 42 30 43
REMARK SMILES IDX 31 44 32 45 33 46 34 47 35 48 87 49 36 50 86 51 37 52 38 53
REMARK SMILES IDX 39 54 80 55 40 56 85 57 79 58 81 59 41 60 84 61 78 62 77 63
REMARK SMILES IDX 42 65 68 66 51 67 67 68 52 69 55 70 66 71 82 72 53 73 54 74
REMARK SMILES IDX 65 76 83 77 56 78 43 79 44 80 49 81 45 82 46 83 48 84 50 85
REMARK SMILES IDX 47 86 69 87 70 88 75 89 71 90 72 91 74 92 76 93 73 94 57 95
REMARK SMILES IDX 58 96 63 97 59 98 60 99 62 100 64 101 61 102
REMARK H PARENT 7 20 81 64 55 75
REMARK Flexibility Score: inf
ROOT
ATOM      1  C   UNL A   1      36.553  24.094  26.145  1.00  0.00     0.188 C 
ENDROOT
BRANCH   1   2
ATOM      2  C   UNL A   1      35.191  24.325  25.466  1.00  0.00     0.188 C 
BRANCH   2   3
ATOM      3  O   UNL A   1      35.104  24.767  24.109  1.00  0.00    -0.376 OA
BRANCH   3   4
ATOM      4  C   UNL A   1      34.138  25.751  23.779  1.00  0.00     0.202 C 
BRANCH   4   5
ATOM      5  C   UNL A   1      33.617  25.545  22.351  1.00  0.00     0.261 C 
BRANCH   5   6
ATOM      6  O   UNL A   1      32.435  24.720  22.313  1.00  0.00    -0.459 OA
BRANCH   6   7
ATOM      7  C   UNL A   1      32.643  23.406  22.087  1.00  0.00     0.352 C 
ATOM      8  O   UNL A   1      32.779  22.843  21.017  1.00  0.00    -0.245 OA
BRANCH   7   9
ATOM      9  C   UNL A   1      32.670  22.637  23.410  1.00  0.00     0.130 C 
ATOM     10  C   UNL A   1      31.262  22.582  26.744  1.00  0.00     0.104 A 
ATOM     11  C   UNL A   1      32.161  22.169  27.752  1.00  0.00     0.151 A 
ATOM     12  C   UNL A   1      31.981  22.446  25.565  1.00  0.00     0.164 A 
ATOM     13  N   UNL A   1      33.274  21.624  27.249  1.00  0.00    -0.178 NA
ATOM     14  N   UNL A   1      33.057  21.667  25.915  1.00  0.00    -0.239 N 
ATOM     15  N   UNL A   1      31.806  22.961  24.324  1.00  0.00    -0.225 NA
ATOM     16  C   UNL A   1      33.954  21.016  24.957  1.00  0.00     0.146 C 
ATOM     17  C   UNL A   1      33.679  21.520  23.523  1.00  0.00     0.096 C 
BRANCH  10  18
ATOM     18  C   UNL A   1      29.913  23.074  26.907  1.00  0.00     0.261 C 
ATOM     19  N   UNL A   1      29.674  24.431  26.757  1.00  0.00    -0.322 N 
ATOM     20  H   UNL A   1      28.796  24.734  27.084  1.00  0.00     0.170 HD
ATOM     21  O   UNL A   1      28.976  22.322  27.165  1.00  0.00    -0.269 OA
BRANCH  19  22
ATOM     22  C   UNL A   1      30.483  25.447  26.213  1.00  0.00     0.041 A 
ATOM     23  C   UNL A   1      31.801  27.714  25.247  1.00  0.00     0.119 A 
ATOM     24  C   UNL A   1      32.294  27.050  26.355  1.00  0.00     0.048 A 
ATOM     25  C   UNL A   1      30.792  27.124  24.493  1.00  0.00     0.048 A 
ATOM     26  C   UNL A   1      31.644  25.916  26.827  1.00  0.00     0.030 A 
ATOM     27  C   UNL A   1      30.118  26.000  24.984  1.00  0.00     0.030 A 
BRANCH  23  28
ATOM     28  O   UNL A   1      32.250  28.952  24.880  1.00  0.00    -0.497 OA
ATOM     29  C   UNL A   1      31.174  29.851  24.576  1.00  0.00     0.278 C 
ENDBRANCH  23  28
ENDBRANCH  19  22
ENDBRANCH  10  18
BRANCH  16  30
ATOM     30  C   UNL A   1      33.934  19.469  25.019  1.00  0.00    -0.023 A 
ATOM     31  C   UNL A   1      34.974  18.656  24.540  1.00  0.00     0.010 A 
ATOM     32  C   UNL A   1      32.811  18.800  25.547  1.00  0.00     0.010 A 
ATOM     33  C   UNL A   1      34.933  17.260  24.668  1.00  0.00     0.047 A 
ATOM     34  C   UNL A   1      32.772  17.401  25.679  1.00  0.00     0.047 A 
ATOM     35  C   UNL A   1      33.846  16.624  25.259  1.00  0.00     0.118 A 
BRANCH  35  36
ATOM     36  O   UNL A   1      33.962  15.268  25.362  1.00  0.00    -0.497 OA
ATOM     37  C   UNL A   1      32.759  14.515  25.442  1.00  0.00     0.278 C 
ENDBRANCH  35  36
ENDBRANCH  16  30
ENDBRANCH   7   9
ENDBRANCH   6   7
ENDBRANCH   5   6
ENDBRANCH   4   5
ENDBRANCH   3   4
ENDBRANCH   2   3
ENDBRANCH   1   2
BRANCH   1  38
ATOM     38  O   UNL A   1      37.577  23.564  25.314  1.00  0.00    -0.377 OA
BRANCH  38  39
ATOM     39  C   UNL A   1      38.514  22.690  25.933  1.00  0.00     0.188 C 
BRANCH  39  40
ATOM     40  C   UNL A   1      38.508  21.245  25.424  1.00  0.00     0.188 C 
BRANCH  40  41
ATOM     41  O   UNL A   1      39.525  20.354  25.871  1.00  0.00    -0.376 OA
BRANCH  41  42
ATOM     42  C   UNL A   1      40.584  20.824  26.692  1.00  0.00     0.202 C 
BRANCH  42  43
ATOM     43  C   UNL A   1      41.916  20.098  26.653  1.00  0.00     0.261 C 
BRANCH  43  44
ATOM     44  O   UNL A   1      42.541  20.328  25.392  1.00  0.00    -0.460 OA
BRANCH  44  45
ATOM     45  C   UNL A   1      43.860  20.584  25.425  1.00  0.00     0.338 C 
ATOM     46  O   UNL A   1      44.770  19.772  25.386  1.00  0.00    -0.246 OA
BRANCH  45  47
ATOM     47  C   UNL A   1      44.053  22.031  25.586  1.00  0.00     0.060 A 
ATOM     48  C   UNL A   1      44.716  22.446  26.735  1.00  0.00     0.016 A 
ATOM     49  C   UNL A   1      43.457  22.959  24.716  1.00  0.00     0.016 A 
ATOM     50  C   UNL A   1      44.628  23.773  27.096  1.00  0.00     0.010 A 
ATOM     51  C   UNL A   1      43.431  24.300  25.038  1.00  0.00     0.010 A 
ATOM     52  C   UNL A   1      43.924  24.672  26.278  1.00  0.00    -0.014 A 
BRANCH  52  53
ATOM     53  C   UNL A   1      43.644  25.974  26.849  1.00  0.00     0.031 A 
ATOM     54  C   UNL A   1      44.691  26.994  26.638  1.00  0.00     0.074 A 
ATOM     55  C   UNL A   1      42.559  26.228  27.603  1.00  0.00     0.049 A 
ATOM     56  N   UNL A   1      45.518  27.460  27.514  1.00  0.00    -0.248 NA
ATOM     57  C   UNL A   1      44.924  27.454  25.265  1.00  0.00     0.031 C 
ATOM     58  C   UNL A   1      41.318  25.462  27.737  1.00  0.00     0.029 A 
ATOM     59  N   UNL A   1      42.344  27.312  28.393  1.00  0.00    -0.354 N 
ATOM     60  C   UNL A   1      46.279  28.407  26.845  1.00  0.00     0.074 A 
ATOM     61  C   UNL A   1      45.955  28.280  25.444  1.00  0.00     0.031 C 
ATOM     62  C   UNL A   1      40.405  26.216  28.392  1.00  0.00     0.029 A 
ATOM     63  C   UNL A   1      41.045  27.438  28.846  1.00  0.00     0.049 A 
ATOM     64  H   UNL A   1      43.055  27.954  28.624  1.00  0.00     0.167 HD
ATOM     65  C   UNL A   1      46.975  29.360  27.516  1.00  0.00     0.037 A 
ATOM     66  C   UNL A   1      40.530  28.511  29.489  1.00  0.00     0.037 A 
ATOM     67  C   UNL A   1      47.212  28.995  28.887  1.00  0.00     0.049 A 
ATOM     68  C   UNL A   1      41.658  29.266  30.091  1.00  0.00     0.074 A 
ATOM     69  C   UNL A   1      47.848  27.937  29.511  1.00  0.00     0.029 A 
ATOM     70  N   UNL A   1      46.472  29.604  29.870  1.00  0.00    -0.354 N 
ATOM     71  N   UNL A   1      42.358  28.849  31.110  1.00  0.00    -0.248 NA
ATOM     72  C   UNL A   1      42.284  30.312  29.295  1.00  0.00     0.031 C 
ATOM     73  C   UNL A   1      47.080  27.679  30.685  1.00  0.00     0.029 A 
ATOM     74  C   UNL A   1      46.042  28.610  30.713  1.00  0.00     0.049 A 
ATOM     75  H   UNL A   1      46.285  30.568  29.954  1.00  0.00     0.167 HD
ATOM     76  C   UNL A   1      43.655  29.265  30.847  1.00  0.00     0.074 A 
ATOM     77  C   UNL A   1      43.529  30.245  29.772  1.00  0.00     0.031 C 
ATOM     78  C   UNL A   1      44.736  28.583  31.328  1.00  0.00     0.037 A 
BRANCH  65  79
ATOM     79  C   UNL A   1      47.147  30.761  27.001  1.00  0.00     0.057 A 
ATOM     80  C   UNL A   1      48.415  31.362  27.025  1.00  0.00     0.134 A 
ATOM     81  C   UNL A   1      46.067  31.631  26.747  1.00  0.00     0.134 A 
ATOM     82  F   UNL A   1      49.513  30.641  27.291  1.00  0.00    -0.206 F 
ATOM     83  C   UNL A   1      48.588  32.741  26.857  1.00  0.00     0.040 A 
ATOM     84  C   UNL A   1      46.234  32.998  26.524  1.00  0.00     0.040 A 
ATOM     85  F   UNL A   1      44.792  31.222  26.799  1.00  0.00    -0.206 F 
ATOM     86  C   UNL A   1      47.496  33.563  26.607  1.00  0.00     0.006 A 
ENDBRANCH  65  79
BRANCH  66  87
ATOM     87  C   UNL A   1      39.168  29.068  29.357  1.00  0.00     0.057 A 
ATOM     88  C   UNL A   1      38.644  29.409  28.103  1.00  0.00     0.134 A 
ATOM     89  C   UNL A   1      38.250  29.036  30.423  1.00  0.00     0.134 A 
ATOM     90  F   UNL A   1      39.433  29.424  27.018  1.00  0.00    -0.206 F 
ATOM     91  C   UNL A   1      37.283  29.680  27.915  1.00  0.00     0.040 A 
ATOM     92  C   UNL A   1      36.892  29.316  30.252  1.00  0.00     0.040 A 
ATOM     93  F   UNL A   1      38.618  28.642  31.650  1.00  0.00    -0.206 F 
ATOM     94  C   UNL A   1      36.401  29.626  28.990  1.00  0.00     0.006 A 
ENDBRANCH  66  87
BRANCH  78  95
ATOM     95  C   UNL A   1      44.496  27.525  32.367  1.00  0.00     0.057 A 
ATOM     96  C   UNL A   1      44.209  26.186  32.062  1.00  0.00     0.134 A 
ATOM     97  C   UNL A   1      44.709  27.836  33.716  1.00  0.00     0.134 A 
ATOM     98  F   UNL A   1      44.098  25.773  30.792  1.00  0.00    -0.206 F 
ATOM     99  C   UNL A   1      44.087  25.214  33.060  1.00  0.00     0.040 A 
ATOM    100  C   UNL A   1      44.623  26.867  34.718  1.00  0.00     0.040 A 
ATOM    101  F   UNL A   1      45.049  29.084  34.077  1.00  0.00    -0.206 F 
ATOM    102  C   UNL A   1      44.299  25.553  34.394  1.00  0.00     0.006 A 
ENDBRANCH  78  95
ENDBRANCH  52  53
ENDBRANCH  45  47
ENDBRANCH  44  45
ENDBRANCH  43  44
ENDBRANCH  42  43
ENDBRANCH  41  42
ENDBRANCH  40  41
ENDBRANCH  39  40
ENDBRANCH  38  39
ENDBRANCH   1  38
TORSDOF 25
ENDMDL
MODEL 2
REMARK VINA RESULT:     -10.0      4.559      9.717
REMARK SMILES COc1ccc(NC(=O)c2cnn3c2N=C(C(=O)OCCOCCOCCOCCOC(=O)c2ccc(-c4c5nc(c(-c6c(F)cccc6F)c6ccc([nH]6)c(-c6c(F)cccc6F)c6nc(c(-c7c(F)cccc7F)c7ccc4[nH]7)C=C6)C=C5)cc2)C[C@@H]3c2ccc(OC)cc2)cc1
REMARK SMILES IDX 24 1 23 2 22 3 21 4 20 5 19 6 17 7 18 8 16 9 10 10 11 11
REMARK SMILES IDX 14 12 12 13 13 14 15 15 89 16 88 17 8 18 7 19 9 21 6 22 3 23
REMARK SMILES IDX 4 24 99 25 5 26 98 27 2 28 1 29 90 30 91 31 97 32 92 33
REMARK SMILES IDX 96 34 93 35 94 36 95 37 25 38 26 39 27 40 28 41 29 42 30 43
REMARK SMILES IDX 31 44 32 45 33 46 34 47 35 48 87 49 36 50 86 51 37 52 38 53
REMARK SMILES IDX 39 54 80 55 40 56 85 57 79 58 81 59 41 60 84 61 78 62 77 63
REMARK SMILES IDX 42 65 68 66 51 67 67 68 52 69 55 70 66 71 82 72 53 73 54 74
REMARK SMILES IDX 65 76 83 77 56 78 43 79 44 80 49 81 45 82 46 83 48 84 50 85
REMARK SMILES IDX 47 86 69 87 70 88 75 89 71 90 72 91 74 92 76 93 73 94 57 95
REMARK SMILES IDX 58 96 63 97 59 98 60 99 62 100 64 101 61 102
REMARK H PARENT 7 20 81 64 55 75
REMARK Flexibility Score: inf
ROOT
ATOM      1  C   UNL A   1      31.576  25.040  25.020  1.00  0.00     0.188 C 
ENDROOT
BRANCH   1   2
ATOM      2  C   UNL A   1      32.767  24.835  25.973  1.00  0.00     0.188 C 
BRANCH   2   3
ATOM      3  O   UNL A   1      33.793  23.882  25.685  1.00  0.00    -0.376 OA
BRANCH   3   4
ATOM      4  C   UNL A   1      34.050  23.554  24.330  1.00  0.00     0.202 C 
BRANCH   4   5
ATOM      5  C   UNL A   1      35.080  22.420  24.230  1.00  0.00     0.261 C 
BRANCH   5   6
ATOM      6  O   UNL A   1      36.108  22.524  25.235  1.00  0.00    -0.459 OA
BRANCH   6   7
ATOM      7  C   UNL A   1      37.100  21.614  25.158  1.00  0.00     0.352 C 
ATOM      8  O   UNL A   1      37.066  20.511  24.645  1.00  0.00    -0.245 OA
BRANCH   7   9
ATOM      9  C   UNL A   1      38.359  22.140  25.851  1.00  0.00     0.130 C 
ATOM     10  C   UNL A   1      41.766  21.261  26.700  1.00  0.00     0.104 A 
ATOM     11  C   UNL A   1      42.203  21.752  27.950  1.00  0.00     0.151 A 
ATOM     12  C   UNL A   1      40.488  21.782  26.553  1.00  0.00     0.164 A 
ATOM     13  N   UNL A   1      41.370  22.668  28.457  1.00  0.00    -0.178 NA
ATOM     14  N   UNL A   1      40.419  22.775  27.501  1.00  0.00    -0.239 N 
ATOM     15  N   UNL A   1      39.449  21.441  25.754  1.00  0.00    -0.225 NA
ATOM     16  C   UNL A   1      39.373  23.799  27.551  1.00  0.00     0.146 C 
ATOM     17  C   UNL A   1      38.238  23.468  26.557  1.00  0.00     0.096 C 
BRANCH  10  18
ATOM     18  C   UNL A   1      42.472  20.380  25.798  1.00  0.00     0.261 C 
ATOM     19  N   UNL A   1      43.500  20.897  25.026  1.00  0.00    -0.322 N 
ATOM     20  H   UNL A   1      43.796  20.315  24.289  1.00  0.00     0.170 HD
ATOM     21  O   UNL A   1      42.191  19.187  25.706  1.00  0.00    -0.269 OA
BRANCH  19  22
ATOM     22  C   UNL A   1      44.189  22.121  25.124  1.00  0.00     0.041 A 
ATOM     23  C   UNL A   1      45.324  24.624  25.633  1.00  0.00     0.119 A 
ATOM     24  C   UNL A   1      46.057  23.475  25.865  1.00  0.00     0.048 A 
ATOM     25  C   UNL A   1      44.120  24.535  24.942  1.00  0.00     0.048 A 
ATOM     26  C   UNL A   1      45.495  22.231  25.600  1.00  0.00     0.030 A 
ATOM     27  C   UNL A   1      43.540  23.284  24.704  1.00  0.00     0.030 A 
BRANCH  23  28
ATOM     28  O   UNL A   1      45.725  25.849  26.089  1.00  0.00    -0.497 OA
ATOM     29  C   UNL A   1      45.835  26.812  25.031  1.00  0.00     0.278 C 
ENDBRANCH  23  28
ENDBRANCH  19  22
ENDBRANCH  10  18
BRANCH  16  30
ATOM     30  C   UNL A   1      39.891  25.244  27.349  1.00  0.00    -0.023 A 
ATOM     31  C   UNL A   1      39.510  26.329  28.155  1.00  0.00     0.010 A 
ATOM     32  C   UNL A   1      40.769  25.536  26.284  1.00  0.00     0.010 A 
ATOM     33  C   UNL A   1      40.047  27.610  27.965  1.00  0.00     0.047 A 
ATOM     34  C   UNL A   1      41.311  26.819  26.096  1.00  0.00     0.047 A 
ATOM     35  C   UNL A   1      40.969  27.859  26.953  1.00  0.00     0.118 A 
BRANCH  35  36
ATOM     36  O   UNL A   1      41.447  29.137  26.914  1.00  0.00    -0.497 OA
ATOM     37  C   UNL A   1      42.670  29.356  26.224  1.00  0.00     0.278 C 
ENDBRANCH  35  36
ENDBRANCH  16  30
ENDBRANCH   7   9
ENDBRANCH   6   7
ENDBRANCH   5   6
ENDBRANCH   4   5
ENDBRANCH   3   4
ENDBRANCH   2   3
ENDBRANCH   1   2
BRANCH   1  38
ATOM     38  O   UNL A   1      31.734  26.061  24.044  1.00  0.00    -0.377 OA
BRANCH  38  39
ATOM     39  C   UNL A   1      31.932  27.383  24.529  1.00  0.00     0.188 C 
BRANCH  39  40
ATOM     40  C   UNL A   1      33.326  27.975  24.289  1.00  0.00     0.188 C 
BRANCH  40  41
ATOM     41  O   UNL A   1      33.925  28.761  25.313  1.00  0.00    -0.376 OA
BRANCH  41  42
ATOM     42  C   UNL A   1      33.267  28.944  26.558  1.00  0.00     0.202 C 
BRANCH  42  43
ATOM     43  C   UNL A   1      33.001  30.357  27.044  1.00  0.00     0.261 C 
BRANCH  43  44
ATOM     44  O   UNL A   1      34.191  30.889  27.620  1.00  0.00    -0.460 OA
BRANCH  44  45
ATOM     45  C   UNL A   1      34.074  32.090  28.213  1.00  0.00     0.338 C 
ATOM     46  O   UNL A   1      33.354  33.014  27.871  1.00  0.00    -0.246 OA
BRANCH  45  47
ATOM     47  C   UNL A   1      35.021  32.153  29.334  1.00  0.00     0.060 A 
ATOM     48  C   UNL A   1      34.937  33.270  30.157  1.00  0.00     0.016 A 
ATOM     49  C   UNL A   1      36.066  31.225  29.474  1.00  0.00     0.016 A 
ATOM     50  C   UNL A   1      35.993  33.542  30.999  1.00  0.00     0.010 A 
ATOM     51  C   UNL A   1      37.090  31.457  30.369  1.00  0.00     0.010 A 
ATOM     52  C   UNL A   1      37.092  32.668  31.042  1.00  0.00    -0.014 A 
BRANCH  52  53
ATOM     53  C   UNL A   1      38.269  33.151  31.735  1.00  0.00     0.031 A 
ATOM     54  C   UNL A   1      39.352  33.654  30.866  1.00  0.00     0.074 A 
ATOM     55  C   UNL A   1      38.422  33.066  33.069  1.00  0.00     0.049 A 
ATOM     56  N   UNL A   1      40.481  33.081  30.611  1.00  0.00    -0.248 NA
ATOM     57  C   UNL A   1      39.093  34.874  30.095  1.00  0.00     0.031 C 
ATOM     58  C   UNL A   1      37.418  32.834  34.109  1.00  0.00     0.029 A 
ATOM     59  N   UNL A   1      39.571  33.236  33.776  1.00  0.00    -0.354 N 
ATOM     60  C   UNL A   1      41.161  33.951  29.772  1.00  0.00     0.074 A 
ATOM     61  C   UNL A   1      40.221  34.977  29.392  1.00  0.00     0.031 C 
ATOM     62  C   UNL A   1      37.969  33.088  35.318  1.00  0.00     0.029 A 
ATOM     63  C   UNL A   1      39.387  33.349  35.140  1.00  0.00     0.049 A 
ATOM     64  H   UNL A   1      40.458  33.274  33.351  1.00  0.00     0.167 HD
ATOM     65  C   UNL A   1      42.507  33.869  29.606  1.00  0.00     0.037 A 
ATOM     66  C   UNL A   1      40.334  33.701  36.041  1.00  0.00     0.037 A 
ATOM     67  C   UNL A   1      43.022  32.579  29.978  1.00  0.00     0.049 A 
ATOM     68  C   UNL A   1      41.662  33.425  35.438  1.00  0.00     0.074 A 
ATOM     69  C   UNL A   1      42.783  31.283  29.557  1.00  0.00     0.029 A 
ATOM     70  N   UNL A   1      43.700  32.456  31.166  1.00  0.00    -0.354 N 
ATOM     71  N   UNL A   1      42.140  32.228  35.233  1.00  0.00    -0.248 NA
ATOM     72  C   UNL A   1      42.299  34.486  34.671  1.00  0.00     0.031 C 
ATOM     73  C   UNL A   1      42.885  30.484  30.734  1.00  0.00     0.029 A 
ATOM     74  C   UNL A   1      43.203  31.339  31.789  1.00  0.00     0.049 A 
ATOM     75  H   UNL A   1      44.405  33.053  31.506  1.00  0.00     0.167 HD
ATOM     76  C   UNL A   1      42.833  32.319  34.035  1.00  0.00     0.074 A 
ATOM     77  C   UNL A   1      42.982  33.751  33.790  1.00  0.00     0.031 C 
ATOM     78  C   UNL A   1      42.983  31.239  33.212  1.00  0.00     0.037 A 
BRANCH  65  79
ATOM     79  C   UNL A   1      43.381  35.076  29.418  1.00  0.00     0.057 A 
ATOM     80  C   UNL A   1      43.460  36.045  30.431  1.00  0.00     0.134 A 
ATOM     81  C   UNL A   1      43.922  35.454  28.172  1.00  0.00     0.134 A 
ATOM     82  F   UNL A   1      42.948  35.812  31.647  1.00  0.00    -0.206 F 
ATOM     83  C   UNL A   1      43.995  37.319  30.202  1.00  0.00     0.040 A 
ATOM     84  C   UNL A   1      44.506  36.701  27.949  1.00  0.00     0.040 A 
ATOM     85  F   UNL A   1      43.824  34.677  27.085  1.00  0.00    -0.206 F 
ATOM     86  C   UNL A   1      44.518  37.650  28.958  1.00  0.00     0.006 A 
ENDBRANCH  65  79
BRANCH  66  87
ATOM     87  C   UNL A   1      40.156  34.527  37.253  1.00  0.00     0.057 A 
ATOM     88  C   UNL A   1      40.024  35.919  37.166  1.00  0.00     0.134 A 
ATOM     89  C   UNL A   1      39.849  33.953  38.500  1.00  0.00     0.134 A 
ATOM     90  F   UNL A   1      40.251  36.553  36.006  1.00  0.00    -0.206 F 
ATOM     91  C   UNL A   1      39.590  36.693  38.250  1.00  0.00     0.040 A 
ATOM     92  C   UNL A   1      39.428  34.714  39.593  1.00  0.00     0.040 A 
ATOM     93  F   UNL A   1      39.859  32.624  38.678  1.00  0.00    -0.206 F 
ATOM     94  C   UNL A   1      39.283  36.090  39.466  1.00  0.00     0.006 A 
ENDBRANCH  66  87
BRANCH  78  95
ATOM     95  C   UNL A   1      42.612  29.887  33.750  1.00  0.00     0.057 A 
ATOM     96  C   UNL A   1      41.361  29.286  33.549  1.00  0.00     0.134 A 
ATOM     97  C   UNL A   1      43.599  29.105  34.363  1.00  0.00     0.134 A 
ATOM     98  F   UNL A   1      40.389  29.917  32.874  1.00  0.00    -0.206 F 
ATOM     99  C   UNL A   1      41.090  27.985  33.985  1.00  0.00     0.040 A 
ATOM    100  C   UNL A   1      43.351  27.793  34.773  1.00  0.00     0.040 A 
ATOM    101  F   UNL A   1      44.839  29.591  34.533  1.00  0.00    -0.206 F 
ATOM    102  C   UNL A   1      42.089  27.232  34.596  1.00  0.00     0.006 A 
ENDBRANCH  78  95
ENDBRANCH  52  53
ENDBRANCH  45  47
ENDBRANCH  44  45
ENDBRANCH  43  44
ENDBRANCH  42  43
ENDBRANCH  41  42
ENDBRANCH  40  41
ENDBRANCH  39  40
ENDBRANCH  38  39
ENDBRANCH   1  38
TORSDOF 25
ENDMDL
MODEL 3
REMARK VINA RESULT:      -9.7      4.931     10.903
REMARK SMILES COc1ccc(NC(=O)c2cnn3c2N=C(C(=O)OCCOCCOCCOCCOC(=O)c2ccc(-c4c5nc(c(-c6c(F)cccc6F)c6ccc([nH]6)c(-c6c(F)cccc6F)c6nc(c(-c7c(F)cccc7F)c7ccc4[nH]7)C=C6)C=C5)cc2)C[C@@H]3c2ccc(OC)cc2)cc1
REMARK SMILES IDX 24 1 23 2 22 3 21 4 20 5 19 6 17 7 18 8 16 9 10 10 11 11
REMARK SMILES IDX 14 12 12 13 13 14 15 15 89 16 88 17 8 18 7 19 9 21 6 22 3 23
REMARK SMILES IDX 4 24 99 25 5 26 98 27 2 28 1 29 90 30 91 31 97 32 92 33
REMARK SMILES IDX 96 34 93 35 94 36 95 37 25 38 26 39 27 40 28 41 29 42 30 43
REMARK SMILES IDX 31 44 32 45 33 46 34 47 35 48 87 49 36 50 86 51 37 52 38 53
REMARK SMILES IDX 39 54 80 55 40 56 85 57 79 58 81 59 41 60 84 61 78 62 77 63
REMARK SMILES IDX 42 65 68 66 51 67 67 68 52 69 55 70 66 71 82 72 53 73 54 74
REMARK SMILES IDX 65 76 83 77 56 78 43 79 44 80 49 81 45 82 46 83 48 84 50 85
REMARK SMILES IDX 47 86 69 87 70 88 75 89 71 90 72 91 74 92 76 93 73 94 57 95
REMARK SMILES IDX 58 96 63 97 59 98 60 99 62 100 64 101 61 102
REMARK H PARENT 7 20 81 64 55 75
REMARK Flexibility Score: inf
ROOT
ATOM      1  C   UNL A   1      32.381  26.548  25.321  1.00  0.00     0.188 C 
ENDROOT
BRANCH   1   2
ATOM      2  C   UNL A   1      33.614  25.713  25.712  1.00  0.00     0.188 C 
BRANCH   2   3
ATOM      3  O   UNL A   1      34.499  25.187  24.720  1.00  0.00    -0.376 OA
BRANCH   3   4
ATOM      4  C   UNL A   1      34.040  24.126  23.899  1.00  0.00     0.202 C 
BRANCH   4   5
ATOM      5  C   UNL A   1      34.834  22.842  24.175  1.00  0.00     0.261 C 
BRANCH   5   6
ATOM      6  O   UNL A   1      36.071  23.101  24.868  1.00  0.00    -0.459 OA
BRANCH   6   7
ATOM      7  C   UNL A   1      36.878  22.036  25.050  1.00  0.00     0.352 C 
ATOM      8  O   UNL A   1      36.669  20.878  24.743  1.00  0.00    -0.245 OA
BRANCH   7   9
ATOM      9  C   UNL A   1      38.170  22.461  25.752  1.00  0.00     0.130 C 
ATOM     10  C   UNL A   1      41.440  21.270  26.747  1.00  0.00     0.104 A 
ATOM     11  C   UNL A   1      41.897  21.780  27.983  1.00  0.00     0.151 A 
ATOM     12  C   UNL A   1      40.230  21.916  26.535  1.00  0.00     0.164 A 
ATOM     13  N   UNL A   1      41.156  22.806  28.416  1.00  0.00    -0.178 NA
ATOM     14  N   UNL A   1      40.246  22.961  27.428  1.00  0.00    -0.239 N 
ATOM     15  N   UNL A   1      39.179  21.645  25.724  1.00  0.00    -0.225 NA
ATOM     16  C   UNL A   1      39.317  24.093  27.393  1.00  0.00     0.146 C 
ATOM     17  C   UNL A   1      38.177  23.832  26.384  1.00  0.00     0.096 C 
BRANCH  10  18
ATOM     18  C   UNL A   1      42.067  20.270  25.914  1.00  0.00     0.261 C 
ATOM     19  N   UNL A   1      43.175  20.627  25.161  1.00  0.00    -0.322 N 
ATOM     20  H   UNL A   1      43.425  19.979  24.463  1.00  0.00     0.170 HD
ATOM     21  O   UNL A   1      41.651  19.114  25.865  1.00  0.00    -0.269 OA
BRANCH  19  22
ATOM     22  C   UNL A   1      43.999  21.766  25.231  1.00  0.00     0.041 A 
ATOM     23  C   UNL A   1      45.393  24.150  25.662  1.00  0.00     0.119 A 
ATOM     24  C   UNL A   1      45.965  22.943  26.020  1.00  0.00     0.048 A 
ATOM     25  C   UNL A   1      44.235  24.153  24.891  1.00  0.00     0.048 A 
ATOM     26  C   UNL A   1      45.274  21.758  25.794  1.00  0.00     0.030 A 
ATOM     27  C   UNL A   1      43.525  22.963  24.691  1.00  0.00     0.030 A 
BRANCH  23  28
ATOM     28  O   UNL A   1      45.909  25.350  26.067  1.00  0.00    -0.497 OA
ATOM     29  C   UNL A   1      46.565  26.047  24.999  1.00  0.00     0.278 C 
ENDBRANCH  23  28
ENDBRANCH  19  22
ENDBRANCH  10  18
BRANCH  16  30
ATOM     30  C   UNL A   1      39.993  25.461  27.132  1.00  0.00    -0.023 A 
ATOM     31  C   UNL A   1      40.975  25.671  26.150  1.00  0.00     0.010 A 
ATOM     32  C   UNL A   1      39.657  26.576  27.927  1.00  0.00     0.010 A 
ATOM     33  C   UNL A   1      41.520  26.942  25.916  1.00  0.00     0.047 A 
ATOM     34  C   UNL A   1      40.200  27.851  27.690  1.00  0.00     0.047 A 
ATOM     35  C   UNL A   1      41.120  28.044  26.664  1.00  0.00     0.118 A 
BRANCH  35  36
ATOM     36  O   UNL A   1      41.694  29.226  26.296  1.00  0.00    -0.497 OA
ATOM     37  C   UNL A   1      43.012  29.484  26.763  1.00  0.00     0.278 C 
ENDBRANCH  35  36
ENDBRANCH  16  30
ENDBRANCH   7   9
ENDBRANCH   6   7
ENDBRANCH   5   6
ENDBRANCH   4   5
ENDBRANCH   3   4
ENDBRANCH   2   3
ENDBRANCH   1   2
BRANCH   1  38
ATOM     38  O   UNL A   1      32.588  27.951  25.227  1.00  0.00    -0.377 OA
BRANCH  38  39
ATOM     39  C   UNL A   1      32.171  28.735  26.339  1.00  0.00     0.188 C 
BRANCH  39  40
ATOM     40  C   UNL A   1      32.051  30.241  26.079  1.00  0.00     0.188 C 
BRANCH  40  41
ATOM     41  O   UNL A   1      32.597  31.148  27.031  1.00  0.00    -0.376 OA
BRANCH  41  42
ATOM     42  C   UNL A   1      32.177  32.504  27.057  1.00  0.00     0.202 C 
BRANCH  42  43
ATOM     43  C   UNL A   1      32.985  33.504  27.863  1.00  0.00     0.261 C 
BRANCH  43  44
ATOM     44  O   UNL A   1      33.829  32.803  28.773  1.00  0.00    -0.460 OA
BRANCH  44  45
ATOM     45  C   UNL A   1      35.147  33.042  28.660  1.00  0.00     0.338 C 
ATOM     46  O   UNL A   1      35.776  33.241  27.633  1.00  0.00    -0.246 OA
BRANCH  45  47
ATOM     47  C   UNL A   1      35.754  32.962  29.995  1.00  0.00     0.060 A 
ATOM     48  C   UNL A   1      36.819  33.820  30.247  1.00  0.00     0.016 A 
ATOM     49  C   UNL A   1      35.394  31.962  30.914  1.00  0.00     0.016 A 
ATOM     50  C   UNL A   1      37.623  33.559  31.334  1.00  0.00     0.010 A 
ATOM     51  C   UNL A   1      36.156  31.745  32.043  1.00  0.00     0.010 A 
ATOM     52  C   UNL A   1      37.324  32.478  32.180  1.00  0.00    -0.014 A 
BRANCH  52  53
ATOM     53  C   UNL A   1      38.351  32.103  33.130  1.00  0.00     0.031 A 
ATOM     54  C   UNL A   1      38.367  32.884  34.384  1.00  0.00     0.074 A 
ATOM     55  C   UNL A   1      39.292  31.178  32.867  1.00  0.00     0.049 A 
ATOM     56  N   UNL A   1      39.224  33.783  34.734  1.00  0.00    -0.248 NA
ATOM     57  C   UNL A   1      37.227  32.731  35.293  1.00  0.00     0.031 C 
ATOM     58  C   UNL A   1      39.321  30.150  31.825  1.00  0.00     0.029 A 
ATOM     59  N   UNL A   1      40.436  30.950  33.564  1.00  0.00    -0.354 N 
ATOM     60  C   UNL A   1      38.832  34.203  35.997  1.00  0.00     0.074 A 
ATOM     61  C   UNL A   1      37.538  33.613  36.243  1.00  0.00     0.031 C 
ATOM     62  C   UNL A   1      40.323  29.280  32.093  1.00  0.00     0.029 A 
ATOM     63  C   UNL A   1      41.083  29.777  33.227  1.00  0.00     0.049 A 
ATOM     64  H   UNL A   1      40.775  31.569  34.251  1.00  0.00     0.167 HD
ATOM     65  C   UNL A   1      39.690  34.848  36.828  1.00  0.00     0.037 A 
ATOM     66  C   UNL A   1      42.130  29.231  33.888  1.00  0.00     0.037 A 
ATOM     67  C   UNL A   1      40.795  35.435  36.118  1.00  0.00     0.049 A 
ATOM     68  C   UNL A   1      42.794  30.311  34.661  1.00  0.00     0.074 A 
ATOM     69  C   UNL A   1      40.908  36.367  35.102  1.00  0.00     0.029 A 
ATOM     70  N   UNL A   1      42.024  34.828  36.193  1.00  0.00    -0.354 N 
ATOM     71  N   UNL A   1      43.488  31.276  34.125  1.00  0.00    -0.248 NA
ATOM     72  C   UNL A   1      42.337  30.557  36.022  1.00  0.00     0.031 C 
ATOM     73  C   UNL A   1      42.012  35.927  34.313  1.00  0.00     0.029 A 
ATOM     74  C   UNL A   1      42.514  34.772  34.912  1.00  0.00     0.049 A 
ATOM     75  H   UNL A   1      42.469  34.496  37.007  1.00  0.00     0.167 HD
ATOM     76  C   UNL A   1      43.208  32.392  34.901  1.00  0.00     0.074 A 
ATOM     77  C   UNL A   1      42.578  31.867  36.109  1.00  0.00     0.031 C 
ATOM     78  C   UNL A   1      43.259  33.654  34.381  1.00  0.00     0.037 A 
BRANCH  65  79
ATOM     79  C   UNL A   1      39.684  34.656  38.318  1.00  0.00     0.057 A 
ATOM     80  C   UNL A   1      39.868  33.373  38.856  1.00  0.00     0.134 A 
ATOM     81  C   UNL A   1      39.226  35.635  39.224  1.00  0.00     0.134 A 
ATOM     82  F   UNL A   1      40.268  32.353  38.083  1.00  0.00    -0.206 F 
ATOM     83  C   UNL A   1      39.569  33.076  40.191  1.00  0.00     0.040 A 
ATOM     84  C   UNL A   1      38.976  35.362  40.569  1.00  0.00     0.040 A 
ATOM     85  F   UNL A   1      38.904  36.875  38.833  1.00  0.00    -0.206 F 
ATOM     86  C   UNL A   1      39.120  34.071  41.051  1.00  0.00     0.006 A 
ENDBRANCH  65  79
BRANCH  66  87
ATOM     87  C   UNL A   1      42.399  27.796  34.115  1.00  0.00     0.057 A 
ATOM     88  C   UNL A   1      43.364  27.113  33.363  1.00  0.00     0.134 A 
ATOM     89  C   UNL A   1      41.906  27.123  35.248  1.00  0.00     0.134 A 
ATOM     90  F   UNL A   1      43.925  27.691  32.291  1.00  0.00    -0.206 F 
ATOM     91  C   UNL A   1      43.828  25.844  33.729  1.00  0.00     0.040 A 
ATOM     92  C   UNL A   1      42.350  25.851  35.617  1.00  0.00     0.040 A 
ATOM     93  F   UNL A   1      41.042  27.710  36.089  1.00  0.00    -0.206 F 
ATOM     94  C   UNL A   1      43.327  25.212  34.864  1.00  0.00     0.006 A 
ENDBRANCH  66  87
BRANCH  78  95
ATOM     95  C   UNL A   1      43.880  33.834  33.026  1.00  0.00     0.057 A 
ATOM     96  C   UNL A   1      43.202  33.592  31.821  1.00  0.00     0.134 A 
ATOM     97  C   UNL A   1      45.153  34.410  32.932  1.00  0.00     0.134 A 
ATOM     98  F   UNL A   1      41.939  33.145  31.814  1.00  0.00    -0.206 F 
ATOM     99  C   UNL A   1      43.788  33.864  30.580  1.00  0.00     0.040 A 
ATOM    100  C   UNL A   1      45.734  34.717  31.699  1.00  0.00     0.040 A 
ATOM    101  F   UNL A   1      45.836  34.727  34.044  1.00  0.00    -0.206 F 
ATOM    102  C   UNL A   1      45.057  34.433  30.517  1.00  0.00     0.006 A 
ENDBRANCH  78  95
ENDBRANCH  52  53
ENDBRANCH  45  47
ENDBRANCH  44  45
ENDBRANCH  43  44
ENDBRANCH  42  43
ENDBRANCH  41  42
ENDBRANCH  40  41
ENDBRANCH  39  40
ENDBRANCH  38  39
ENDBRANCH   1  38
TORSDOF 25
ENDMDL
