MODEL 1
REMARK VINA RESULT:     -11.8      0.000      0.000
REMARK SMILES Cc1ccc(-c2cc3cccnc3n2CCC(=O)OCCOCCOCCOCCOC(=O)c2ccc(-c3c4nc(c(-c5c(F)cccc5F)c5ccc([nH]5)c(-c5c(F)cccc5F)c5nc(c(-c6c(F)cccc6F)c6ccc3[nH]6)C=C5)C=C4)cc2)cn1
REMARK SMILES IDX 24 1 23 2 22 3 21 4 20 5 19 6 17 7 18 8 16 9 15 10 14 11
REMARK SMILES IDX 6 12 7 13 8 14 13 15 9 16 12 17 10 18 11 19 5 20 1 21 2 22
REMARK SMILES IDX 3 23 89 24 4 25 88 26 25 27 26 28 27 29 28 30 29 31 30 32
REMARK SMILES IDX 31 33 32 34 33 35 34 36 35 37 87 38 36 39 86 40 37 41 38 42
REMARK SMILES IDX 39 43 80 44 40 45 85 46 79 47 81 48 41 49 84 50 78 51 77 52
REMARK SMILES IDX 42 54 68 55 51 56 67 57 52 58 55 59 66 60 82 61 53 62 54 63
REMARK SMILES IDX 65 65 83 66 56 67 43 68 44 69 49 70 45 71 46 72 48 73 50 74
REMARK SMILES IDX 47 75 69 76 70 77 75 78 71 79 72 80 74 81 76 82 73 83 57 84
REMARK SMILES IDX 58 85 63 86 59 87 60 88 62 89 64 90 61 91
REMARK H PARENT 81 53 55 64
REMARK Flexibility Score: inf
ROOT
ATOM      1  C   UNL A   1      33.591  35.133  29.745  1.00  0.00     0.188 C 
ENDROOT
BRANCH   1   2
ATOM      2  C   UNL A   1      33.232  34.407  28.449  1.00  0.00     0.188 C 
BRANCH   2   3
ATOM      3  O   UNL A   1      33.941  33.027  28.418  1.00  0.00    -0.376 OA
BRANCH   3   4
ATOM      4  C   UNL A   1      34.036  31.199  27.619  1.00  0.00     0.202 C 
BRANCH   4   5
ATOM      5  C   UNL A   1      32.989  30.357  26.490  1.00  0.00     0.261 C 
BRANCH   5   6
ATOM      6  O   UNL A   1      31.737  29.721  26.888  1.00  0.00    -0.463 OA
BRANCH   6   7
ATOM      7  C   UNL A   1      31.646  28.368  26.874  1.00  0.00     0.307 C 
ATOM      8  O   UNL A   1      30.919  27.731  27.630  1.00  0.00    -0.252 OA
BRANCH   7   9
ATOM      9  C   UNL A   1      32.423  27.678  25.742  1.00  0.00     0.144 C 
BRANCH   9  10
ATOM     10  C   UNL A   1      32.009  27.818  24.268  1.00  0.00     0.136 C 
BRANCH  10  11
ATOM     11  N   UNL A   1      30.618  27.573  23.972  1.00  0.00    -0.325 N 
ATOM     12  C   UNL A   1      29.974  26.367  24.128  1.00  0.00     0.052 A 
ATOM     13  C   UNL A   1      28.626  26.614  23.905  1.00  0.00     0.039 A 
ATOM     14  C   UNL A   1      28.473  27.945  23.474  1.00  0.00     0.020 A 
ATOM     15  C   UNL A   1      29.744  28.508  23.461  1.00  0.00     0.140 A 
ATOM     16  C   UNL A   1      27.383  28.737  23.088  1.00  0.00     0.013 A 
ATOM     17  N   UNL A   1      30.058  29.756  23.055  1.00  0.00    -0.238 NA
ATOM     18  C   UNL A   1      27.658  30.028  22.653  1.00  0.00     0.021 A 
ATOM     19  C   UNL A   1      28.979  30.462  22.639  1.00  0.00     0.113 A 
BRANCH  12  20
ATOM     20  C   UNL A   1      30.547  25.098  24.594  1.00  0.00     0.017 A 
ATOM     21  C   UNL A   1      32.931  20.767  25.393  1.00  0.00     0.066 C 
ATOM     22  C   UNL A   1      31.941  21.873  25.199  1.00  0.00     0.037 A 
ATOM     23  C   UNL A   1      31.294  22.777  26.607  1.00  0.00     0.024 A 
ATOM     24  N   UNL A   1      31.856  22.485  23.572  1.00  0.00    -0.261 NA
ATOM     25  C   UNL A   1      30.580  24.422  26.307  1.00  0.00     0.014 A 
ATOM     26  C   UNL A   1      31.203  24.077  23.285  1.00  0.00     0.121 A 
ENDBRANCH  12  20
ENDBRANCH  10  11
ENDBRANCH   9  10
ENDBRANCH   7   9
ENDBRANCH   6   7
ENDBRANCH   5   6
ENDBRANCH   4   5
ENDBRANCH   3   4
ENDBRANCH   2   3
ENDBRANCH   1   2
BRANCH   1  27
ATOM     27  O   UNL A   1      32.605  35.130  30.767  1.00  0.00    -0.377 OA
BRANCH  27  28
ATOM     28  C   UNL A   1      32.863  35.819  31.979  1.00  0.00     0.188 C 
BRANCH  28  29
ATOM     29  C   UNL A   1      34.274  35.709  32.562  1.00  0.00     0.188 C 
BRANCH  29  30
ATOM     30  O   UNL A   1      34.614  34.741  33.546  1.00  0.00    -0.376 OA
BRANCH  30  31
ATOM     31  C   UNL A   1      34.366  33.355  33.368  1.00  0.00     0.202 C 
BRANCH  31  32
ATOM     32  C   UNL A   1      34.847  32.610  32.115  1.00  0.00     0.261 C 
BRANCH  32  33
ATOM     33  O   UNL A   1      36.205  32.204  32.196  1.00  0.00    -0.460 OA
BRANCH  33  34
ATOM     34  C   UNL A   1      36.421  30.963  31.715  1.00  0.00     0.338 C 
ATOM     35  O   UNL A   1      36.539  29.945  32.383  1.00  0.00    -0.246 OA
BRANCH  34  36
ATOM     36  C   UNL A   1      36.497  31.001  30.214  1.00  0.00     0.060 A 
ATOM     37  C   UNL A   1      36.420  29.702  29.709  1.00  0.00     0.016 A 
ATOM     38  C   UNL A   1      37.526  31.850  29.812  1.00  0.00     0.016 A 
ATOM     39  C   UNL A   1      37.625  29.081  29.501  1.00  0.00     0.010 A 
ATOM     40  C   UNL A   1      38.746  31.252  29.636  1.00  0.00     0.010 A 
ATOM     41  C   UNL A   1      38.782  29.859  29.622  1.00  0.00    -0.014 A 
BRANCH  41  42
ATOM     42  C   UNL A   1      40.043  29.166  29.635  1.00  0.00     0.031 A 
ATOM     43  C   UNL A   1      40.550  29.023  31.007  1.00  0.00     0.074 A 
ATOM     44  C   UNL A   1      40.635  28.689  28.527  1.00  0.00     0.049 A 
ATOM     45  N   UNL A   1      41.510  29.686  31.556  1.00  0.00    -0.248 NA
ATOM     46  C   UNL A   1      39.735  28.236  31.945  1.00  0.00     0.031 C 
ATOM     47  C   UNL A   1      40.099  28.568  27.170  1.00  0.00     0.029 A 
ATOM     48  N   UNL A   1      41.866  28.123  28.423  1.00  0.00    -0.354 N 
ATOM     49  C   UNL A   1      41.559  29.225  32.863  1.00  0.00     0.074 A 
ATOM     50  C   UNL A   1      40.319  28.540  33.102  1.00  0.00     0.031 C 
ATOM     51  C   UNL A   1      40.912  27.764  26.443  1.00  0.00     0.029 A 
ATOM     52  C   UNL A   1      42.082  27.431  27.239  1.00  0.00     0.049 A 
ATOM     53  H   UNL A   1      42.549  28.197  29.128  1.00  0.00     0.167 HD
ATOM     54  C   UNL A   1      42.743  29.172  33.526  1.00  0.00     0.037 A 
ATOM     55  C   UNL A   1      43.118  26.584  27.008  1.00  0.00     0.037 A 
ATOM     56  C   UNL A   1      43.720  30.042  32.911  1.00  0.00     0.049 A 
ATOM     57  C   UNL A   1      44.179  26.899  28.004  1.00  0.00     0.074 A 
ATOM     58  C   UNL A   1      43.793  31.399  32.660  1.00  0.00     0.029 A 
ATOM     59  N   UNL A   1      44.668  29.462  32.103  1.00  0.00    -0.354 N 
ATOM     60  N   UNL A   1      44.881  27.998  27.988  1.00  0.00    -0.248 NA
ATOM     61  C   UNL A   1      44.122  26.218  29.291  1.00  0.00     0.031 C 
ATOM     62  C   UNL A   1      44.448  31.513  31.398  1.00  0.00     0.029 A 
ATOM     63  C   UNL A   1      44.786  30.228  30.973  1.00  0.00     0.049 A 
ATOM     64  H   UNL A   1      45.174  28.641  32.302  1.00  0.00     0.167 HD
ATOM     65  C   UNL A   1      44.984  28.375  29.320  1.00  0.00     0.074 A 
ATOM     66  C   UNL A   1      44.565  27.200  30.082  1.00  0.00     0.031 C 
ATOM     67  C   UNL A   1      45.112  29.688  29.673  1.00  0.00     0.037 A 
BRANCH  54  68
ATOM     68  C   UNL A   1      43.133  28.014  34.415  1.00  0.00     0.057 A 
ATOM     69  C   UNL A   1      43.520  26.734  33.959  1.00  0.00     0.134 A 
ATOM     70  C   UNL A   1      43.440  28.282  35.758  1.00  0.00     0.134 A 
ATOM     71  F   UNL A   1      43.346  26.317  32.700  1.00  0.00    -0.206 F 
ATOM     72  C   UNL A   1      44.211  25.822  34.755  1.00  0.00     0.040 A 
ATOM     73  C   UNL A   1      44.177  27.394  36.549  1.00  0.00     0.040 A 
ATOM     74  F   UNL A   1      43.113  29.457  36.317  1.00  0.00    -0.206 F 
ATOM     75  C   UNL A   1      44.580  26.165  36.042  1.00  0.00     0.006 A 
ENDBRANCH  54  68
BRANCH  55  76
ATOM     76  C   UNL A   1      43.123  25.329  26.223  1.00  0.00     0.057 A 
ATOM     77  C   UNL A   1      42.353  24.219  26.612  1.00  0.00     0.134 A 
ATOM     78  C   UNL A   1      44.088  25.091  25.234  1.00  0.00     0.134 A 
ATOM     79  F   UNL A   1      41.459  24.308  27.607  1.00  0.00    -0.206 F 
ATOM     80  C   UNL A   1      42.538  22.946  26.060  1.00  0.00     0.040 A 
ATOM     81  C   UNL A   1      44.288  23.820  24.676  1.00  0.00     0.040 A 
ATOM     82  F   UNL A   1      44.905  26.075  24.830  1.00  0.00    -0.206 F 
ATOM     83  C   UNL A   1      43.517  22.740  25.097  1.00  0.00     0.006 A 
ENDBRANCH  55  76
BRANCH  67  84
ATOM     84  C   UNL A   1      45.384  30.677  28.573  1.00  0.00     0.057 A 
ATOM     85  C   UNL A   1      46.695  31.123  28.375  1.00  0.00     0.134 A 
ATOM     86  C   UNL A   1      44.383  31.287  27.800  1.00  0.00     0.134 A 
ATOM     87  F   UNL A   1      47.696  30.628  29.119  1.00  0.00    -0.206 F 
ATOM     88  C   UNL A   1      47.002  32.116  27.443  1.00  0.00     0.040 A 
ATOM     89  C   UNL A   1      44.682  32.259  26.840  1.00  0.00     0.040 A 
ATOM     90  F   UNL A   1      43.090  30.996  27.991  1.00  0.00    -0.206 F 
ATOM     91  C   UNL A   1      45.996  32.679  26.662  1.00  0.00     0.006 A 
ENDBRANCH  67  84
ENDBRANCH  41  42
ENDBRANCH  34  36
ENDBRANCH  33  34
ENDBRANCH  32  33
ENDBRANCH  31  32
ENDBRANCH  30  31
ENDBRANCH  29  30
ENDBRANCH  28  29
ENDBRANCH  27  28
ENDBRANCH   1  27
TORSDOF 23
ENDMDL
MODEL 2
REMARK VINA RESULT:     -11.6      1.961      6.531
REMARK SMILES Cc1ccc(-c2cc3cccnc3n2CCC(=O)OCCOCCOCCOCCOC(=O)c2ccc(-c3c4nc(c(-c5c(F)cccc5F)c5ccc([nH]5)c(-c5c(F)cccc5F)c5nc(c(-c6c(F)cccc6F)c6ccc3[nH]6)C=C5)C=C4)cc2)cn1
REMARK SMILES IDX 24 1 23 2 22 3 21 4 20 5 19 6 17 7 18 8 16 9 15 10 14 11
REMARK SMILES IDX 6 12 7 13 8 14 13 15 9 16 12 17 10 18 11 19 5 20 1 21 2 22
REMARK SMILES IDX 3 23 89 24 4 25 88 26 25 27 26 28 27 29 28 30 29 31 30 32
REMARK SMILES IDX 31 33 32 34 33 35 34 36 35 37 87 38 36 39 86 40 37 41 38 42
REMARK SMILES IDX 39 43 80 44 40 45 85 46 79 47 81 48 41 49 84 50 78 51 77 52
REMARK SMILES IDX 42 54 68 55 51 56 67 57 52 58 55 59 66 60 82 61 53 62 54 63
REMARK SMILES IDX 65 65 83 66 56 67 43 68 44 69 49 70 45 71 46 72 48 73 50 74
REMARK SMILES IDX 47 75 69 76 70 77 75 78 71 79 72 80 74 81 76 82 73 83 57 84
REMARK SMILES IDX 58 85 63 86 59 87 60 88 62 89 64 90 61 91
REMARK H PARENT 81 53 55 64
REMARK Flexibility Score: inf
ROOT
ATOM      1  C   UNL A   1      33.249  34.701  29.389  1.00  0.00     0.188 C 
ENDROOT
BRANCH   1   2
ATOM      2  C   UNL A   1      33.557  34.057  28.037  1.00  0.00     0.188 C 
BRANCH   2   3
ATOM      3  O   UNL A   1      32.237  33.562  27.389  1.00  0.00    -0.376 OA
BRANCH   3   4
ATOM      4  C   UNL A   1      31.234  32.051  26.552  1.00  0.00     0.202 C 
BRANCH   4   5
ATOM      5  C   UNL A   1      31.726  30.432  26.088  1.00  0.00     0.261 C 
BRANCH   5   6
ATOM      6  O   UNL A   1      31.876  29.340  27.045  1.00  0.00    -0.463 OA
BRANCH   6   7
ATOM      7  C   UNL A   1      32.930  28.493  26.927  1.00  0.00     0.307 C 
ATOM      8  O   UNL A   1      33.990  28.645  27.525  1.00  0.00    -0.252 OA
BRANCH   7   9
ATOM      9  C   UNL A   1      32.658  27.236  26.086  1.00  0.00     0.144 C 
BRANCH   9  10
ATOM     10  C   UNL A   1      31.352  26.435  26.218  1.00  0.00     0.136 C 
BRANCH  10  11
ATOM     11  N   UNL A   1      31.172  25.355  25.278  1.00  0.00    -0.325 N 
ATOM     12  C   UNL A   1      30.474  25.440  24.096  1.00  0.00     0.052 A 
ATOM     13  C   UNL A   1      30.698  24.245  23.424  1.00  0.00     0.039 A 
ATOM     14  C   UNL A   1      31.418  23.379  24.267  1.00  0.00     0.020 A 
ATOM     15  C   UNL A   1      31.648  24.073  25.450  1.00  0.00     0.140 A 
ATOM     16  C   UNL A   1      31.902  22.068  24.152  1.00  0.00     0.013 A 
ATOM     17  N   UNL A   1      32.258  23.588  26.551  1.00  0.00    -0.238 NA
ATOM     18  C   UNL A   1      32.530  21.523  25.265  1.00  0.00     0.021 A 
ATOM     19  C   UNL A   1      32.657  22.301  26.410  1.00  0.00     0.113 A 
BRANCH  12  20
ATOM     20  C   UNL A   1      29.762  26.606  23.556  1.00  0.00     0.017 A 
ATOM     21  C   UNL A   1      28.029  30.640  21.150  1.00  0.00     0.066 C 
ATOM     22  C   UNL A   1      28.529  29.636  22.141  1.00  0.00     0.037 A 
ATOM     23  C   UNL A   1      27.379  28.629  23.080  1.00  0.00     0.024 A 
ATOM     24  N   UNL A   1      30.208  29.216  21.954  1.00  0.00    -0.261 NA
ATOM     25  C   UNL A   1      28.000  27.082  23.807  1.00  0.00     0.014 A 
ATOM     26  C   UNL A   1      30.799  27.717  22.620  1.00  0.00     0.121 A 
ENDBRANCH  12  20
ENDBRANCH  10  11
ENDBRANCH   9  10
ENDBRANCH   7   9
ENDBRANCH   6   7
ENDBRANCH   5   6
ENDBRANCH   4   5
ENDBRANCH   3   4
ENDBRANCH   2   3
ENDBRANCH   1   2
BRANCH   1  27
ATOM     27  O   UNL A   1      33.933  34.168  30.513  1.00  0.00    -0.377 OA
BRANCH  27  28
ATOM     28  C   UNL A   1      34.752  33.023  30.347  1.00  0.00     0.188 C 
BRANCH  28  29
ATOM     29  C   UNL A   1      35.094  32.217  31.603  1.00  0.00     0.188 C 
BRANCH  29  30
ATOM     30  O   UNL A   1      36.249  32.487  32.385  1.00  0.00    -0.376 OA
BRANCH  30  31
ATOM     31  C   UNL A   1      37.114  31.460  32.846  1.00  0.00     0.202 C 
BRANCH  31  32
ATOM     32  C   UNL A   1      38.343  31.027  32.035  1.00  0.00     0.261 C 
BRANCH  32  33
ATOM     33  O   UNL A   1      38.070  29.963  31.135  1.00  0.00    -0.460 OA
BRANCH  33  34
ATOM     34  C   UNL A   1      38.128  30.331  29.840  1.00  0.00     0.338 C 
ATOM     35  O   UNL A   1      38.320  31.465  29.423  1.00  0.00    -0.246 OA
BRANCH  34  36
ATOM     36  C   UNL A   1      37.923  29.131  28.957  1.00  0.00     0.060 A 
ATOM     37  C   UNL A   1      38.342  27.980  29.628  1.00  0.00     0.016 A 
ATOM     38  C   UNL A   1      38.387  29.402  27.672  1.00  0.00     0.016 A 
ATOM     39  C   UNL A   1      39.642  27.609  29.400  1.00  0.00     0.010 A 
ATOM     40  C   UNL A   1      39.697  29.071  27.439  1.00  0.00     0.010 A 
ATOM     41  C   UNL A   1      40.340  28.285  28.393  1.00  0.00    -0.014 A 
BRANCH  41  42
ATOM     42  C   UNL A   1      41.759  28.061  28.312  1.00  0.00     0.031 A 
ATOM     43  C   UNL A   1      42.053  26.784  27.645  1.00  0.00     0.074 A 
ATOM     44  C   UNL A   1      42.672  28.939  28.761  1.00  0.00     0.049 A 
ATOM     45  N   UNL A   1      42.444  25.688  28.199  1.00  0.00    -0.248 NA
ATOM     46  C   UNL A   1      41.620  26.644  26.247  1.00  0.00     0.031 C 
ATOM     47  C   UNL A   1      42.487  30.320  29.209  1.00  0.00     0.029 A 
ATOM     48  N   UNL A   1      44.019  28.771  28.830  1.00  0.00    -0.354 N 
ATOM     49  C   UNL A   1      42.522  24.772  27.160  1.00  0.00     0.074 A 
ATOM     50  C   UNL A   1      41.784  25.336  26.063  1.00  0.00     0.031 C 
ATOM     51  C   UNL A   1      43.695  30.928  29.283  1.00  0.00     0.029 A 
ATOM     52  C   UNL A   1      44.735  29.946  29.021  1.00  0.00     0.049 A 
ATOM     53  H   UNL A   1      44.452  27.891  28.752  1.00  0.00     0.167 HD
ATOM     54  C   UNL A   1      43.450  23.782  27.188  1.00  0.00     0.037 A 
ATOM     55  C   UNL A   1      46.079  30.073  28.876  1.00  0.00     0.037 A 
ATOM     56  C   UNL A   1      43.928  23.559  28.534  1.00  0.00     0.049 A 
ATOM     57  C   UNL A   1      46.665  28.707  28.959  1.00  0.00     0.074 A 
ATOM     58  C   UNL A   1      43.337  23.192  29.728  1.00  0.00     0.029 A 
ATOM     59  N   UNL A   1      45.149  24.090  28.871  1.00  0.00    -0.354 N 
ATOM     60  N   UNL A   1      46.703  28.003  30.057  1.00  0.00    -0.248 NA
ATOM     61  C   UNL A   1      46.768  27.938  27.725  1.00  0.00     0.031 C 
ATOM     62  C   UNL A   1      44.026  23.935  30.732  1.00  0.00     0.029 A 
ATOM     63  C   UNL A   1      45.031  24.672  30.106  1.00  0.00     0.049 A 
ATOM     64  H   UNL A   1      45.966  24.059  28.322  1.00  0.00     0.167 HD
ATOM     65  C   UNL A   1      46.395  26.708  29.661  1.00  0.00     0.074 A 
ATOM     66  C   UNL A   1      46.523  26.714  28.205  1.00  0.00     0.031 C 
ATOM     67  C   UNL A   1      45.780  25.837  30.515  1.00  0.00     0.037 A 
BRANCH  54  68
ATOM     68  C   UNL A   1      44.235  23.360  25.968  1.00  0.00     0.057 A 
ATOM     69  C   UNL A   1      45.162  24.172  25.278  1.00  0.00     0.134 A 
ATOM     70  C   UNL A   1      44.304  21.992  25.663  1.00  0.00     0.134 A 
ATOM     71  F   UNL A   1      45.271  25.491  25.468  1.00  0.00    -0.206 F 
ATOM     72  C   UNL A   1      46.120  23.656  24.405  1.00  0.00     0.040 A 
ATOM     73  C   UNL A   1      45.293  21.460  24.829  1.00  0.00     0.040 A 
ATOM     74  F   UNL A   1      43.468  21.115  26.241  1.00  0.00    -0.206 F 
ATOM     75  C   UNL A   1      46.216  22.291  24.210  1.00  0.00     0.006 A 
ENDBRANCH  54  68
BRANCH  55  76
ATOM     76  C   UNL A   1      46.842  31.226  28.346  1.00  0.00     0.057 A 
ATOM     77  C   UNL A   1      47.521  32.111  29.201  1.00  0.00     0.134 A 
ATOM     78  C   UNL A   1      46.697  31.647  27.016  1.00  0.00     0.134 A 
ATOM     79  F   UNL A   1      47.646  31.851  30.511  1.00  0.00    -0.206 F 
ATOM     80  C   UNL A   1      48.016  33.345  28.765  1.00  0.00     0.040 A 
ATOM     81  C   UNL A   1      47.184  32.883  26.567  1.00  0.00     0.040 A 
ATOM     82  F   UNL A   1      46.022  30.895  26.134  1.00  0.00    -0.206 F 
ATOM     83  C   UNL A   1      47.838  33.740  27.447  1.00  0.00     0.006 A 
ENDBRANCH  55  76
BRANCH  67  84
ATOM     84  C   UNL A   1      45.675  26.244  31.960  1.00  0.00     0.057 A 
ATOM     85  C   UNL A   1      46.681  25.849  32.847  1.00  0.00     0.134 A 
ATOM     86  C   UNL A   1      44.560  26.893  32.513  1.00  0.00     0.134 A 
ATOM     87  F   UNL A   1      47.750  25.171  32.399  1.00  0.00    -0.206 F 
ATOM     88  C   UNL A   1      46.595  26.101  34.218  1.00  0.00     0.040 A 
ATOM     89  C   UNL A   1      44.477  27.181  33.879  1.00  0.00     0.040 A 
ATOM     90  F   UNL A   1      43.505  27.219  31.757  1.00  0.00    -0.206 F 
ATOM     91  C   UNL A   1      45.496  26.781  34.736  1.00  0.00     0.006 A 
ENDBRANCH  67  84
ENDBRANCH  41  42
ENDBRANCH  34  36
ENDBRANCH  33  34
ENDBRANCH  32  33
ENDBRANCH  31  32
ENDBRANCH  30  31
ENDBRANCH  29  30
ENDBRANCH  28  29
ENDBRANCH  27  28
ENDBRANCH   1  27
TORSDOF 23
ENDMDL
MODEL 3
REMARK VINA RESULT:     -11.4      2.023      5.944
REMARK SMILES Cc1ccc(-c2cc3cccnc3n2CCC(=O)OCCOCCOCCOCCOC(=O)c2ccc(-c3c4nc(c(-c5c(F)cccc5F)c5ccc([nH]5)c(-c5c(F)cccc5F)c5nc(c(-c6c(F)cccc6F)c6ccc3[nH]6)C=C5)C=C4)cc2)cn1
REMARK SMILES IDX 24 1 23 2 22 3 21 4 20 5 19 6 17 7 18 8 16 9 15 10 14 11
REMARK SMILES IDX 6 12 7 13 8 14 13 15 9 16 12 17 10 18 11 19 5 20 1 21 2 22
REMARK SMILES IDX 3 23 89 24 4 25 88 26 25 27 26 28 27 29 28 30 29 31 30 32
REMARK SMILES IDX 31 33 32 34 33 35 34 36 35 37 87 38 36 39 86 40 37 41 38 42
REMARK SMILES IDX 39 43 80 44 40 45 85 46 79 47 81 48 41 49 84 50 78 51 77 52
REMARK SMILES IDX 42 54 68 55 51 56 67 57 52 58 55 59 66 60 82 61 53 62 54 63
REMARK SMILES IDX 65 65 83 66 56 67 43 68 44 69 49 70 45 71 46 72 48 73 50 74
REMARK SMILES IDX 47 75 69 76 70 77 75 78 71 79 72 80 74 81 76 82 73 83 57 84
REMARK SMILES IDX 58 85 63 86 59 87 60 88 62 89 64 90 61 91
REMARK H PARENT 81 53 55 64
REMARK Flexibility Score: inf
ROOT
ATOM      1  C   UNL A   1      35.562  33.955  28.924  1.00  0.00     0.188 C 
ENDROOT
BRANCH   1   2
ATOM      2  C   UNL A   1      34.206  33.765  28.247  1.00  0.00     0.188 C 
BRANCH   2   3
ATOM      3  O   UNL A   1      33.959  32.252  28.002  1.00  0.00    -0.376 OA
BRANCH   3   4
ATOM      4  C   UNL A   1      34.749  30.449  27.663  1.00  0.00     0.202 C 
BRANCH   4   5
ATOM      5  C   UNL A   1      34.036  28.940  27.123  1.00  0.00     0.261 C 
BRANCH   5   6
ATOM      6  O   UNL A   1      33.992  28.535  25.721  1.00  0.00    -0.463 OA
BRANCH   6   7
ATOM      7  C   UNL A   1      33.117  29.143  24.882  1.00  0.00     0.307 C 
ATOM      8  O   UNL A   1      32.203  29.866  25.265  1.00  0.00    -0.252 OA
BRANCH   7   9
ATOM      9  C   UNL A   1      33.431  28.974  23.387  1.00  0.00     0.144 C 
BRANCH   9  10
ATOM     10  C   UNL A   1      32.683  27.958  22.508  1.00  0.00     0.136 C 
BRANCH  10  11
ATOM     11  N   UNL A   1      31.313  27.689  22.872  1.00  0.00    -0.325 N 
ATOM     12  C   UNL A   1      30.881  26.591  23.579  1.00  0.00     0.052 A 
ATOM     13  C   UNL A   1      29.540  26.813  23.863  1.00  0.00     0.039 A 
ATOM     14  C   UNL A   1      29.124  27.984  23.202  1.00  0.00     0.020 A 
ATOM     15  C   UNL A   1      30.237  28.481  22.533  1.00  0.00     0.140 A 
ATOM     16  C   UNL A   1      27.912  28.679  23.097  1.00  0.00     0.013 A 
ATOM     17  N   UNL A   1      30.265  29.563  21.728  1.00  0.00    -0.238 NA
ATOM     18  C   UNL A   1      27.889  29.796  22.271  1.00  0.00     0.021 A 
ATOM     19  C   UNL A   1      29.057  30.168  21.615  1.00  0.00     0.113 A 
BRANCH  12  20
ATOM     20  C   UNL A   1      31.690  25.474  24.085  1.00  0.00     0.017 A 
ATOM     21  C   UNL A   1      34.550  21.455  24.943  1.00  0.00     0.066 C 
ATOM     22  C   UNL A   1      33.471  22.491  24.879  1.00  0.00     0.037 A 
ATOM     23  C   UNL A   1      33.327  23.739  26.160  1.00  0.00     0.024 A 
ATOM     24  N   UNL A   1      32.733  22.664  23.313  1.00  0.00    -0.261 NA
ATOM     25  C   UNL A   1      32.418  25.263  25.764  1.00  0.00     0.014 A 
ATOM     26  C   UNL A   1      31.891  24.139  22.918  1.00  0.00     0.121 A 
ENDBRANCH  12  20
ENDBRANCH  10  11
ENDBRANCH   9  10
ENDBRANCH   7   9
ENDBRANCH   6   7
ENDBRANCH   5   6
ENDBRANCH   4   5
ENDBRANCH   3   4
ENDBRANCH   2   3
ENDBRANCH   1   2
BRANCH   1  27
ATOM     27  O   UNL A   1      35.734  33.325  30.184  1.00  0.00    -0.377 OA
BRANCH  27  28
ATOM     28  C   UNL A   1      34.978  33.779  31.295  1.00  0.00     0.188 C 
BRANCH  28  29
ATOM     29  C   UNL A   1      34.902  32.857  32.515  1.00  0.00     0.188 C 
BRANCH  29  30
ATOM     30  O   UNL A   1      35.609  31.626  32.580  1.00  0.00    -0.376 OA
BRANCH  30  31
ATOM     31  C   UNL A   1      36.980  31.553  32.943  1.00  0.00     0.202 C 
BRANCH  31  32
ATOM     32  C   UNL A   1      38.068  31.254  31.902  1.00  0.00     0.261 C 
BRANCH  32  33
ATOM     33  O   UNL A   1      37.699  30.232  30.989  1.00  0.00    -0.460 OA
BRANCH  33  34
ATOM     34  C   UNL A   1      38.214  30.406  29.755  1.00  0.00     0.338 C 
ATOM     35  O   UNL A   1      38.785  31.409  29.350  1.00  0.00    -0.246 OA
BRANCH  34  36
ATOM     36  C   UNL A   1      37.989  29.171  28.927  1.00  0.00     0.060 A 
ATOM     37  C   UNL A   1      38.393  28.045  29.647  1.00  0.00     0.016 A 
ATOM     38  C   UNL A   1      38.453  29.377  27.630  1.00  0.00     0.016 A 
ATOM     39  C   UNL A   1      39.687  27.646  29.434  1.00  0.00     0.010 A 
ATOM     40  C   UNL A   1      39.757  29.018  27.409  1.00  0.00     0.010 A 
ATOM     41  C   UNL A   1      40.392  28.266  28.395  1.00  0.00    -0.014 A 
BRANCH  41  42
ATOM     42  C   UNL A   1      41.807  28.018  28.321  1.00  0.00     0.031 A 
ATOM     43  C   UNL A   1      42.083  26.745  27.638  1.00  0.00     0.074 A 
ATOM     44  C   UNL A   1      42.733  28.873  28.789  1.00  0.00     0.049 A 
ATOM     45  N   UNL A   1      42.451  25.635  28.179  1.00  0.00    -0.248 NA
ATOM     46  C   UNL A   1      41.658  26.633  26.235  1.00  0.00     0.031 C 
ATOM     47  C   UNL A   1      42.568  30.250  29.256  1.00  0.00     0.029 A 
ATOM     48  N   UNL A   1      44.076  28.680  28.866  1.00  0.00    -0.354 N 
ATOM     49  C   UNL A   1      42.520  24.733  27.128  1.00  0.00     0.074 A 
ATOM     50  C   UNL A   1      41.800  25.325  26.034  1.00  0.00     0.031 C 
ATOM     51  C   UNL A   1      43.786  30.836  29.347  1.00  0.00     0.029 A 
ATOM     52  C   UNL A   1      44.810  29.839  29.079  1.00  0.00     0.049 A 
ATOM     53  H   UNL A   1      44.494  27.793  28.778  1.00  0.00     0.167 HD
ATOM     54  C   UNL A   1      43.431  23.726  27.148  1.00  0.00     0.037 A 
ATOM     55  C   UNL A   1      46.157  29.944  28.944  1.00  0.00     0.037 A 
ATOM     56  C   UNL A   1      43.895  23.475  28.494  1.00  0.00     0.049 A 
ATOM     57  C   UNL A   1      46.719  28.567  29.012  1.00  0.00     0.074 A 
ATOM     58  C   UNL A   1      43.289  23.102  29.678  1.00  0.00     0.029 A 
ATOM     59  N   UNL A   1      45.123  23.980  28.846  1.00  0.00    -0.354 N 
ATOM     60  N   UNL A   1      46.737  27.847  30.100  1.00  0.00    -0.248 NA
ATOM     61  C   UNL A   1      46.817  27.814  27.768  1.00  0.00     0.031 C 
ATOM     62  C   UNL A   1      43.984  23.818  30.697  1.00  0.00     0.029 A 
ATOM     63  C   UNL A   1      45.006  24.546  30.089  1.00  0.00     0.049 A 
ATOM     64  H   UNL A   1      45.943  23.942  28.303  1.00  0.00     0.167 HD
ATOM     65  C   UNL A   1      46.409  26.564  29.683  1.00  0.00     0.074 A 
ATOM     66  C   UNL A   1      46.547  26.589  28.228  1.00  0.00     0.031 C 
ATOM     67  C   UNL A   1      45.772  25.692  30.520  1.00  0.00     0.037 A 
BRANCH  54  68
ATOM     68  C   UNL A   1      44.217  23.308  25.927  1.00  0.00     0.057 A 
ATOM     69  C   UNL A   1      45.155  24.117  25.248  1.00  0.00     0.134 A 
ATOM     70  C   UNL A   1      44.274  21.941  25.610  1.00  0.00     0.134 A 
ATOM     71  F   UNL A   1      45.276  25.433  25.451  1.00  0.00    -0.206 F 
ATOM     72  C   UNL A   1      46.112  23.600  24.375  1.00  0.00     0.040 A 
ATOM     73  C   UNL A   1      45.261  21.408  24.775  1.00  0.00     0.040 A 
ATOM     74  F   UNL A   1      43.428  21.068  26.177  1.00  0.00    -0.206 F 
ATOM     75  C   UNL A   1      46.196  22.236  24.167  1.00  0.00     0.006 A 
ENDBRANCH  54  68
BRANCH  55  76
ATOM     76  C   UNL A   1      46.944  31.091  28.437  1.00  0.00     0.057 A 
ATOM     77  C   UNL A   1      47.512  32.035  29.310  1.00  0.00     0.134 A 
ATOM     78  C   UNL A   1      46.927  31.443  27.079  1.00  0.00     0.134 A 
ATOM     79  F   UNL A   1      47.508  31.842  30.637  1.00  0.00    -0.206 F 
ATOM     80  C   UNL A   1      48.022  33.259  28.864  1.00  0.00     0.040 A 
ATOM     81  C   UNL A   1      47.430  32.669  26.619  1.00  0.00     0.040 A 
ATOM     82  F   UNL A   1      46.363  30.631  26.172  1.00  0.00    -0.206 F 
ATOM     83  C   UNL A   1      47.971  33.586  27.516  1.00  0.00     0.006 A 
ENDBRANCH  55  76
BRANCH  67  84
ATOM     84  C   UNL A   1      45.664  26.079  31.970  1.00  0.00     0.057 A 
ATOM     85  C   UNL A   1      44.567  26.840  32.386  1.00  0.00     0.134 A 
ATOM     86  C   UNL A   1      46.665  25.835  32.924  1.00  0.00     0.134 A 
ATOM     87  F   UNL A   1      43.600  27.163  31.513  1.00  0.00    -0.206 F 
ATOM     88  C   UNL A   1      44.456  27.321  33.691  1.00  0.00     0.040 A 
ATOM     89  C   UNL A   1      46.551  26.283  34.244  1.00  0.00     0.040 A 
ATOM     90  F   UNL A   1      47.797  25.203  32.591  1.00  0.00    -0.206 F 
ATOM     91  C   UNL A   1      45.445  27.033  34.629  1.00  0.00     0.006 A 
ENDBRANCH  67  84
ENDBRANCH  41  42
ENDBRANCH  34  36
ENDBRANCH  33  34
ENDBRANCH  32  33
ENDBRANCH  31  32
ENDBRANCH  30  31
ENDBRANCH  29  30
ENDBRANCH  28  29
ENDBRANCH  27  28
ENDBRANCH   1  27
TORSDOF 23
ENDMDL
