MODEL 1
REMARK VINA RESULT:     -10.3      0.000      0.000
REMARK SMILES COc1ccc2c(c1)c(CC(=O)OCCOCCOCCOCCOC(=O)c1ccc(-c3c4nc(c(-c5c(F)cccc5F)c5ccc([nH]5)c(-c5c(F)cccc5F)c5nc(c(-c6c(F)cccc6F)c6ccc3[nH]6)C=C5)C=C4)cc1)c(C)n2Cc1ccn(C(F)F)c(=O)c1
REMARK SMILES IDX 18 1 17 2 16 3 15 4 14 5 13 6 11 7 12 8 10 9 9 10 3 11 4 12
REMARK SMILES IDX 8 13 5 14 7 15 6 16 84 17 82 18 83 19 2 20 1 21 85 22 86 23
REMARK SMILES IDX 87 24 95 25 88 26 93 27 89 28 94 29 90 30 91 31 92 32 19 33
REMARK SMILES IDX 20 34 21 35 22 36 23 37 24 38 25 39 26 40 27 41 28 42 29 43
REMARK SMILES IDX 81 44 30 45 80 46 31 47 32 48 33 49 74 50 34 51 79 52 73 53
REMARK SMILES IDX 75 54 35 55 78 56 72 57 71 58 36 60 62 61 45 62 61 63 46 64
REMARK SMILES IDX 49 65 60 66 76 67 47 68 48 69 59 71 77 72 50 73 37 74 38 75
REMARK SMILES IDX 43 76 39 77 40 78 42 79 44 80 41 81 63 82 64 83 69 84 65 85
REMARK SMILES IDX 66 86 68 87 70 88 67 89 51 90 52 91 57 92 53 93 54 94 56 95
REMARK SMILES IDX 58 96 55 97
REMARK H PARENT 75 59 49 70
REMARK Flexibility Score: inf
ROOT
ATOM      1  C   UNL A   1      42.515  18.703  26.135  1.00  0.00     0.188 C 
ENDROOT
BRANCH   1   2
ATOM      2  C   UNL A   1      41.732  19.737  26.938  1.00  0.00     0.188 C 
BRANCH   2   3
ATOM      3  O   UNL A   1      41.014  20.697  26.158  1.00  0.00    -0.376 OA
BRANCH   3   4
ATOM      4  C   UNL A   1      39.820  21.201  26.744  1.00  0.00     0.202 C 
BRANCH   4   5
ATOM      5  C   UNL A   1      38.965  22.017  25.753  1.00  0.00     0.261 C 
BRANCH   5   6
ATOM      6  O   UNL A   1      37.540  21.834  25.934  1.00  0.00    -0.463 OA
BRANCH   6   7
ATOM      7  C   UNL A   1      36.819  22.961  26.170  1.00  0.00     0.310 C 
ATOM      8  O   UNL A   1      37.303  24.091  26.113  1.00  0.00    -0.252 OA
BRANCH   7   9
ATOM      9  C   UNL A   1      35.327  22.757  26.429  1.00  0.00     0.160 C 
BRANCH   9  10
ATOM     10  C   UNL A   1      34.374  22.583  25.267  1.00  0.00    -0.008 A 
ATOM     11  C   UNL A   1      33.415  18.957  24.443  1.00  0.00     0.119 A 
ATOM     12  C   UNL A   1      32.417  19.270  23.531  1.00  0.00     0.048 A 
ATOM     13  C   UNL A   1      34.202  19.981  24.984  1.00  0.00     0.057 A 
ATOM     14  C   UNL A   1      32.172  20.605  23.164  1.00  0.00     0.031 A 
ATOM     15  C   UNL A   1      33.907  21.341  24.718  1.00  0.00     0.007 A 
ATOM     16  C   UNL A   1      32.934  21.633  23.760  1.00  0.00     0.049 A 
ATOM     17  N   UNL A   1      32.971  23.009  23.551  1.00  0.00    -0.340 N 
ATOM     18  C   UNL A   1      33.953  23.558  24.372  1.00  0.00     0.020 A 
ATOM     19  C   UNL A   1      34.497  24.936  24.247  1.00  0.00     0.065 C 
BRANCH  11  20
ATOM     20  O   UNL A   1      33.719  17.707  24.908  1.00  0.00    -0.497 OA
ATOM     21  C   UNL A   1      34.406  16.822  24.030  1.00  0.00     0.278 C 
ENDBRANCH  11  20
BRANCH  17  22
ATOM     22  C   UNL A   1      32.296  23.676  22.422  1.00  0.00     0.158 C 
BRANCH  22  23
ATOM     23  C   UNL A   1      31.570  24.971  22.724  1.00  0.00    -0.021 A 
ATOM     24  C   UNL A   1      31.851  26.141  21.916  1.00  0.00     0.024 A 
ATOM     25  C   UNL A   1      30.557  25.053  23.610  1.00  0.00     0.077 A 
ATOM     26  C   UNL A   1      31.217  27.300  22.119  1.00  0.00     0.095 A 
ATOM     27  C   UNL A   1      29.788  26.324  23.805  1.00  0.00     0.255 A 
ATOM     28  N   UNL A   1      30.223  27.412  23.066  1.00  0.00    -0.258 N 
ATOM     29  O   UNL A   1      28.837  26.318  24.580  1.00  0.00    -0.269 OA
BRANCH  28  30
ATOM     30  C   UNL A   1      29.518  28.660  23.221  1.00  0.00     0.451 C 
ATOM     31  F   UNL A   1      30.260  29.543  23.932  1.00  0.00    -0.185 F 
ATOM     32  F   UNL A   1      29.226  29.222  22.024  1.00  0.00    -0.185 F 
ENDBRANCH  28  30
ENDBRANCH  22  23
ENDBRANCH  17  22
ENDBRANCH   9  10
ENDBRANCH   7   9
ENDBRANCH   6   7
ENDBRANCH   5   6
ENDBRANCH   4   5
ENDBRANCH   3   4
ENDBRANCH   2   3
ENDBRANCH   1   2
BRANCH   1  33
ATOM     33  O   UNL A   1      43.152  19.061  24.938  1.00  0.00    -0.377 OA
BRANCH  33  34
ATOM     34  C   UNL A   1      44.541  19.209  24.937  1.00  0.00     0.188 C 
BRANCH  34  35
ATOM     35  C   UNL A   1      44.972  20.670  24.806  1.00  0.00     0.188 C 
BRANCH  35  36
ATOM     36  O   UNL A   1      44.190  21.741  25.343  1.00  0.00    -0.376 OA
BRANCH  36  37
ATOM     37  C   UNL A   1      43.769  22.824  24.519  1.00  0.00     0.202 C 
BRANCH  37  38
ATOM     38  C   UNL A   1      43.379  24.093  25.299  1.00  0.00     0.261 C 
BRANCH  38  39
ATOM     39  O   UNL A   1      42.098  23.980  25.928  1.00  0.00    -0.460 OA
BRANCH  39  40
ATOM     40  C   UNL A   1      42.062  24.075  27.281  1.00  0.00     0.338 C 
ATOM     41  O   UNL A   1      42.222  23.192  28.104  1.00  0.00    -0.246 OA
BRANCH  40  42
ATOM     42  C   UNL A   1      42.147  25.519  27.561  1.00  0.00     0.060 A 
ATOM     43  C   UNL A   1      42.932  26.000  28.616  1.00  0.00     0.016 A 
ATOM     44  C   UNL A   1      41.158  26.315  26.969  1.00  0.00     0.016 A 
ATOM     45  C   UNL A   1      42.621  27.242  29.165  1.00  0.00     0.010 A 
ATOM     46  C   UNL A   1      40.842  27.546  27.533  1.00  0.00     0.010 A 
ATOM     47  C   UNL A   1      41.537  27.986  28.664  1.00  0.00    -0.014 A 
BRANCH  47  48
ATOM     48  C   UNL A   1      41.321  29.331  29.201  1.00  0.00     0.031 A 
ATOM     49  C   UNL A   1      42.465  30.244  28.933  1.00  0.00     0.074 A 
ATOM     50  C   UNL A   1      40.175  29.839  29.702  1.00  0.00     0.049 A 
ATOM     51  N   UNL A   1      43.153  30.947  29.770  1.00  0.00    -0.248 NA
ATOM     52  C   UNL A   1      42.948  30.302  27.543  1.00  0.00     0.031 C 
ATOM     53  C   UNL A   1      38.850  29.224  29.732  1.00  0.00     0.029 A 
ATOM     54  N   UNL A   1      39.944  31.100  30.189  1.00  0.00    -0.354 N 
ATOM     55  C   UNL A   1      44.060  31.658  28.992  1.00  0.00     0.074 A 
ATOM     56  C   UNL A   1      43.985  31.124  27.658  1.00  0.00     0.031 C 
ATOM     57  C   UNL A   1      37.928  30.173  30.018  1.00  0.00     0.029 A 
ATOM     58  C   UNL A   1      38.599  31.443  30.261  1.00  0.00     0.049 A 
ATOM     59  H   UNL A   1      40.667  31.709  30.463  1.00  0.00     0.167 HD
ATOM     60  C   UNL A   1      44.668  32.792  29.428  1.00  0.00     0.037 A 
ATOM     61  C   UNL A   1      38.075  32.687  30.417  1.00  0.00     0.037 A 
ATOM     62  C   UNL A   1      44.680  32.899  30.859  1.00  0.00     0.049 A 
ATOM     63  C   UNL A   1      39.148  33.590  30.903  1.00  0.00     0.074 A 
ATOM     64  C   UNL A   1      45.118  32.085  31.888  1.00  0.00     0.029 A 
ATOM     65  N   UNL A   1      43.902  33.857  31.460  1.00  0.00    -0.354 N 
ATOM     66  N   UNL A   1      39.617  33.607  32.117  1.00  0.00    -0.248 NA
ATOM     67  C   UNL A   1      39.966  34.271  29.909  1.00  0.00     0.031 C 
ATOM     68  C   UNL A   1      44.194  32.297  32.952  1.00  0.00     0.029 A 
ATOM     69  C   UNL A   1      43.266  33.234  32.502  1.00  0.00     0.049 A 
ATOM     70  H   UNL A   1      43.819  34.801  31.195  1.00  0.00     0.167 HD
ATOM     71  C   UNL A   1      40.959  33.920  31.970  1.00  0.00     0.074 A 
ATOM     72  C   UNL A   1      41.090  34.427  30.610  1.00  0.00     0.031 C 
ATOM     73  C   UNL A   1      41.893  33.479  32.862  1.00  0.00     0.037 A 
BRANCH  60  74
ATOM     74  C   UNL A   1      44.956  33.945  28.508  1.00  0.00     0.057 A 
ATOM     75  C   UNL A   1      46.235  34.211  27.972  1.00  0.00     0.134 A 
ATOM     76  C   UNL A   1      43.899  34.659  27.926  1.00  0.00     0.134 A 
ATOM     77  F   UNL A   1      47.320  33.511  28.334  1.00  0.00    -0.206 F 
ATOM     78  C   UNL A   1      46.453  35.142  26.957  1.00  0.00     0.040 A 
ATOM     79  C   UNL A   1      44.098  35.551  26.866  1.00  0.00     0.040 A 
ATOM     80  F   UNL A   1      42.633  34.452  28.320  1.00  0.00    -0.206 F 
ATOM     81  C   UNL A   1      45.377  35.798  26.381  1.00  0.00     0.006 A 
ENDBRANCH  60  74
BRANCH  61  82
ATOM     82  C   UNL A   1      36.754  33.222  30.001  1.00  0.00     0.057 A 
ATOM     83  C   UNL A   1      35.668  33.306  30.888  1.00  0.00     0.134 A 
ATOM     84  C   UNL A   1      36.451  33.454  28.648  1.00  0.00     0.134 A 
ATOM     85  F   UNL A   1      35.808  33.007  32.187  1.00  0.00    -0.206 F 
ATOM     86  C   UNL A   1      34.370  33.616  30.466  1.00  0.00     0.040 A 
ATOM     87  C   UNL A   1      35.152  33.747  28.209  1.00  0.00     0.040 A 
ATOM     88  F   UNL A   1      37.399  33.348  27.705  1.00  0.00    -0.206 F 
ATOM     89  C   UNL A   1      34.105  33.827  29.120  1.00  0.00     0.006 A 
ENDBRANCH  61  82
BRANCH  73  90
ATOM     90  C   UNL A   1      41.419  32.938  34.179  1.00  0.00     0.057 A 
ATOM     91  C   UNL A   1      41.648  33.694  35.336  1.00  0.00     0.134 A 
ATOM     92  C   UNL A   1      40.864  31.662  34.352  1.00  0.00     0.134 A 
ATOM     93  F   UNL A   1      42.234  34.900  35.254  1.00  0.00    -0.206 F 
ATOM     94  C   UNL A   1      41.317  33.217  36.606  1.00  0.00     0.040 A 
ATOM     95  C   UNL A   1      40.492  31.190  35.615  1.00  0.00     0.040 A 
ATOM     96  F   UNL A   1      40.717  30.818  33.319  1.00  0.00    -0.206 F 
ATOM     97  C   UNL A   1      40.722  31.967  36.746  1.00  0.00     0.006 A 
ENDBRANCH  73  90
ENDBRANCH  47  48
ENDBRANCH  40  42
ENDBRANCH  39  40
ENDBRANCH  38  39
ENDBRANCH  37  38
ENDBRANCH  36  37
ENDBRANCH  35  36
ENDBRANCH  34  35
ENDBRANCH  33  34
ENDBRANCH   1  33
TORSDOF 25
ENDMDL
MODEL 2
REMARK VINA RESULT:     -10.2      4.529      9.604
REMARK SMILES COc1ccc2c(c1)c(CC(=O)OCCOCCOCCOCCOC(=O)c1ccc(-c3c4nc(c(-c5c(F)cccc5F)c5ccc([nH]5)c(-c5c(F)cccc5F)c5nc(c(-c6c(F)cccc6F)c6ccc3[nH]6)C=C5)C=C4)cc1)c(C)n2Cc1ccn(C(F)F)c(=O)c1
REMARK SMILES IDX 18 1 17 2 16 3 15 4 14 5 13 6 11 7 12 8 10 9 9 10 3 11 4 12
REMARK SMILES IDX 8 13 5 14 7 15 6 16 84 17 82 18 83 19 2 20 1 21 85 22 86 23
REMARK SMILES IDX 87 24 95 25 88 26 93 27 89 28 94 29 90 30 91 31 92 32 19 33
REMARK SMILES IDX 20 34 21 35 22 36 23 37 24 38 25 39 26 40 27 41 28 42 29 43
REMARK SMILES IDX 81 44 30 45 80 46 31 47 32 48 33 49 74 50 34 51 79 52 73 53
REMARK SMILES IDX 75 54 35 55 78 56 72 57 71 58 36 60 62 61 45 62 61 63 46 64
REMARK SMILES IDX 49 65 60 66 76 67 47 68 48 69 59 71 77 72 50 73 37 74 38 75
REMARK SMILES IDX 43 76 39 77 40 78 42 79 44 80 41 81 63 82 64 83 69 84 65 85
REMARK SMILES IDX 66 86 68 87 70 88 67 89 51 90 52 91 57 92 53 93 54 94 56 95
REMARK SMILES IDX 58 96 55 97
REMARK H PARENT 75 59 49 70
REMARK Flexibility Score: inf
ROOT
ATOM      1  C   UNL A   1      31.766  24.844  26.305  1.00  0.00     0.188 C 
ENDROOT
BRANCH   1   2
ATOM      2  C   UNL A   1      31.747  23.533  27.084  1.00  0.00     0.188 C 
BRANCH   2   3
ATOM      3  O   UNL A   1      32.783  22.607  26.744  1.00  0.00    -0.376 OA
BRANCH   3   4
ATOM      4  C   UNL A   1      33.948  22.656  27.558  1.00  0.00     0.202 C 
BRANCH   4   5
ATOM      5  C   UNL A   1      35.041  23.579  26.984  1.00  0.00     0.261 C 
BRANCH   5   6
ATOM      6  O   UNL A   1      36.243  22.873  26.590  1.00  0.00    -0.463 OA
BRANCH   6   7
ATOM      7  C   UNL A   1      36.996  23.467  25.628  1.00  0.00     0.310 C 
ATOM      8  O   UNL A   1      38.001  24.131  25.878  1.00  0.00    -0.252 OA
BRANCH   7   9
ATOM      9  C   UNL A   1      36.574  23.191  24.186  1.00  0.00     0.160 C 
BRANCH   9  10
ATOM     10  C   UNL A   1      35.134  22.848  23.870  1.00  0.00    -0.008 A 
ATOM     11  C   UNL A   1      32.892  25.823  22.938  1.00  0.00     0.119 A 
ATOM     12  C   UNL A   1      31.803  25.066  22.531  1.00  0.00     0.048 A 
ATOM     13  C   UNL A   1      34.001  25.185  23.510  1.00  0.00     0.057 A 
ATOM     14  C   UNL A   1      31.809  23.666  22.664  1.00  0.00     0.031 A 
ATOM     15  C   UNL A   1      34.082  23.772  23.554  1.00  0.00     0.007 A 
ATOM     16  C   UNL A   1      32.955  23.031  23.188  1.00  0.00     0.049 A 
ATOM     17  N   UNL A   1      33.227  21.701  23.499  1.00  0.00    -0.340 N 
ATOM     18  C   UNL A   1      34.504  21.623  24.048  1.00  0.00     0.020 A 
ATOM     19  C   UNL A   1      35.055  20.441  24.762  1.00  0.00     0.065 C 
BRANCH  11  20
ATOM     20  O   UNL A   1      33.019  27.180  22.823  1.00  0.00    -0.497 OA
ATOM     21  C   UNL A   1      31.841  27.937  22.571  1.00  0.00     0.278 C 
ENDBRANCH  11  20
BRANCH  17  22
ATOM     22  C   UNL A   1      32.195  20.648  23.522  1.00  0.00     0.158 C 
BRANCH  22  23
ATOM     23  C   UNL A   1      32.642  19.257  23.923  1.00  0.00    -0.021 A 
ATOM     24  C   UNL A   1      32.242  18.734  25.214  1.00  0.00     0.024 A 
ATOM     25  C   UNL A   1      33.265  18.415  23.075  1.00  0.00     0.077 A 
ATOM     26  C   UNL A   1      32.581  17.502  25.606  1.00  0.00     0.095 A 
ATOM     27  C   UNL A   1      33.596  17.008  23.469  1.00  0.00     0.255 A 
ATOM     28  N   UNL A   1      33.275  16.654  24.770  1.00  0.00    -0.258 N 
ATOM     29  O   UNL A   1      34.108  16.272  22.632  1.00  0.00    -0.269 OA
BRANCH  28  30
ATOM     30  C   UNL A   1      33.576  15.312  25.200  1.00  0.00     0.451 C 
ATOM     31  F   UNL A   1      34.899  15.180  25.464  1.00  0.00    -0.185 F 
ATOM     32  F   UNL A   1      32.887  14.977  26.316  1.00  0.00    -0.185 F 
ENDBRANCH  28  30
ENDBRANCH  22  23
ENDBRANCH  17  22
ENDBRANCH   9  10
ENDBRANCH   7   9
ENDBRANCH   6   7
ENDBRANCH   5   6
ENDBRANCH   4   5
ENDBRANCH   3   4
ENDBRANCH   2   3
ENDBRANCH   1   2
BRANCH   1  33
ATOM     33  O   UNL A   1      31.595  26.070  26.965  1.00  0.00    -0.377 OA
BRANCH  33  34
ATOM     34  C   UNL A   1      31.241  27.192  26.212  1.00  0.00     0.188 C 
BRANCH  34  35
ATOM     35  C   UNL A   1      32.316  28.278  26.244  1.00  0.00     0.188 C 
BRANCH  35  36
ATOM     36  O   UNL A   1      33.122  28.512  27.402  1.00  0.00    -0.376 OA
BRANCH  36  37
ATOM     37  C   UNL A   1      34.480  28.921  27.279  1.00  0.00     0.202 C 
BRANCH  37  38
ATOM     38  C   UNL A   1      34.745  30.369  27.731  1.00  0.00     0.261 C 
BRANCH  38  39
ATOM     39  O   UNL A   1      36.137  30.639  27.925  1.00  0.00    -0.460 OA
BRANCH  39  40
ATOM     40  C   UNL A   1      36.515  31.092  29.146  1.00  0.00     0.338 C 
ATOM     41  O   UNL A   1      35.868  31.751  29.940  1.00  0.00    -0.246 OA
BRANCH  40  42
ATOM     42  C   UNL A   1      37.732  30.328  29.474  1.00  0.00     0.060 A 
ATOM     43  C   UNL A   1      39.002  30.876  29.258  1.00  0.00     0.016 A 
ATOM     44  C   UNL A   1      37.557  28.951  29.662  1.00  0.00     0.016 A 
ATOM     45  C   UNL A   1      40.082  30.011  29.095  1.00  0.00     0.010 A 
ATOM     46  C   UNL A   1      38.635  28.092  29.480  1.00  0.00     0.010 A 
ATOM     47  C   UNL A   1      39.887  28.618  29.144  1.00  0.00    -0.014 A 
BRANCH  47  48
ATOM     48  C   UNL A   1      41.069  27.757  29.077  1.00  0.00     0.031 A 
ATOM     49  C   UNL A   1      41.928  27.870  30.286  1.00  0.00     0.074 A 
ATOM     50  C   UNL A   1      41.326  26.787  28.174  1.00  0.00     0.049 A 
ATOM     51  N   UNL A   1      43.188  28.145  30.362  1.00  0.00    -0.248 NA
ATOM     52  C   UNL A   1      41.251  27.736  31.588  1.00  0.00     0.031 C 
ATOM     53  C   UNL A   1      40.453  26.281  27.117  1.00  0.00     0.029 A 
ATOM     54  N   UNL A   1      42.413  25.954  28.104  1.00  0.00    -0.354 N 
ATOM     55  C   UNL A   1      43.498  28.069  31.716  1.00  0.00     0.074 A 
ATOM     56  C   UNL A   1      42.254  27.953  32.431  1.00  0.00     0.031 C 
ATOM     57  C   UNL A   1      40.954  25.112  26.652  1.00  0.00     0.029 A 
ATOM     58  C   UNL A   1      42.213  24.822  27.324  1.00  0.00     0.049 A 
ATOM     59  H   UNL A   1      43.261  26.142  28.567  1.00  0.00     0.167 HD
ATOM     60  C   UNL A   1      44.766  27.884  32.167  1.00  0.00     0.037 A 
ATOM     61  C   UNL A   1      42.973  23.696  27.298  1.00  0.00     0.037 A 
ATOM     62  C   UNL A   1      45.758  28.264  31.202  1.00  0.00     0.049 A 
ATOM     63  C   UNL A   1      44.282  23.999  27.929  1.00  0.00     0.074 A 
ATOM     64  C   UNL A   1      46.019  29.416  30.482  1.00  0.00     0.029 A 
ATOM     65  N   UNL A   1      46.517  27.286  30.609  1.00  0.00    -0.354 N 
ATOM     66  N   UNL A   1      45.237  24.687  27.374  1.00  0.00    -0.248 NA
ATOM     67  C   UNL A   1      44.401  23.813  29.369  1.00  0.00     0.031 C 
ATOM     68  C   UNL A   1      46.513  28.967  29.224  1.00  0.00     0.029 A 
ATOM     69  C   UNL A   1      46.532  27.575  29.269  1.00  0.00     0.049 A 
ATOM     70  H   UNL A   1      46.961  26.530  31.057  1.00  0.00     0.167 HD
ATOM     71  C   UNL A   1      45.835  25.366  28.424  1.00  0.00     0.074 A 
ATOM     72  C   UNL A   1      45.357  24.706  29.632  1.00  0.00     0.031 C 
ATOM     73  C   UNL A   1      46.439  26.576  28.235  1.00  0.00     0.037 A 
BRANCH  60  74
ATOM     74  C   UNL A   1      45.066  27.046  33.379  1.00  0.00     0.057 A 
ATOM     75  C   UNL A   1      44.781  25.666  33.460  1.00  0.00     0.134 A 
ATOM     76  C   UNL A   1      45.892  27.552  34.393  1.00  0.00     0.134 A 
ATOM     77  F   UNL A   1      44.117  25.017  32.493  1.00  0.00    -0.206 F 
ATOM     78  C   UNL A   1      45.253  24.854  34.491  1.00  0.00     0.040 A 
ATOM     79  C   UNL A   1      46.420  26.734  35.399  1.00  0.00     0.040 A 
ATOM     80  F   UNL A   1      46.270  28.839  34.392  1.00  0.00    -0.206 F 
ATOM     81  C   UNL A   1      46.099  25.383  35.452  1.00  0.00     0.006 A 
ENDBRANCH  60  74
BRANCH  61  82
ATOM     82  C   UNL A   1      42.600  22.304  26.940  1.00  0.00     0.057 A 
ATOM     83  C   UNL A   1      41.680  21.558  27.697  1.00  0.00     0.134 A 
ATOM     84  C   UNL A   1      43.315  21.580  25.971  1.00  0.00     0.134 A 
ATOM     85  F   UNL A   1      41.011  22.112  28.719  1.00  0.00    -0.206 F 
ATOM     86  C   UNL A   1      41.470  20.190  27.496  1.00  0.00     0.040 A 
ATOM     87  C   UNL A   1      43.128  20.205  25.772  1.00  0.00     0.040 A 
ATOM     88  F   UNL A   1      44.258  22.178  25.227  1.00  0.00    -0.206 F 
ATOM     89  C   UNL A   1      42.203  19.505  26.537  1.00  0.00     0.006 A 
ENDBRANCH  61  82
BRANCH  73  90
ATOM     90  C   UNL A   1      46.743  27.008  26.830  1.00  0.00     0.057 A 
ATOM     91  C   UNL A   1      45.719  27.585  26.070  1.00  0.00     0.134 A 
ATOM     92  C   UNL A   1      47.960  26.763  26.178  1.00  0.00     0.134 A 
ATOM     93  F   UNL A   1      44.506  27.793  26.610  1.00  0.00    -0.206 F 
ATOM     94  C   UNL A   1      45.901  27.930  24.729  1.00  0.00     0.040 A 
ATOM     95  C   UNL A   1      48.167  27.140  24.848  1.00  0.00     0.040 A 
ATOM     96  F   UNL A   1      48.960  26.107  26.787  1.00  0.00    -0.206 F 
ATOM     97  C   UNL A   1      47.134  27.722  24.119  1.00  0.00     0.006 A 
ENDBRANCH  73  90
ENDBRANCH  47  48
ENDBRANCH  40  42
ENDBRANCH  39  40
ENDBRANCH  38  39
ENDBRANCH  37  38
ENDBRANCH  36  37
ENDBRANCH  35  36
ENDBRANCH  34  35
ENDBRANCH  33  34
ENDBRANCH   1  33
TORSDOF 25
ENDMDL
MODEL 3
REMARK VINA RESULT:     -10.1      2.747      4.638
REMARK SMILES COc1ccc2c(c1)c(CC(=O)OCCOCCOCCOCCOC(=O)c1ccc(-c3c4nc(c(-c5c(F)cccc5F)c5ccc([nH]5)c(-c5c(F)cccc5F)c5nc(c(-c6c(F)cccc6F)c6ccc3[nH]6)C=C5)C=C4)cc1)c(C)n2Cc1ccn(C(F)F)c(=O)c1
REMARK SMILES IDX 18 1 17 2 16 3 15 4 14 5 13 6 11 7 12 8 10 9 9 10 3 11 4 12
REMARK SMILES IDX 8 13 5 14 7 15 6 16 84 17 82 18 83 19 2 20 1 21 85 22 86 23
REMARK SMILES IDX 87 24 95 25 88 26 93 27 89 28 94 29 90 30 91 31 92 32 19 33
REMARK SMILES IDX 20 34 21 35 22 36 23 37 24 38 25 39 26 40 27 41 28 42 29 43
REMARK SMILES IDX 81 44 30 45 80 46 31 47 32 48 33 49 74 50 34 51 79 52 73 53
REMARK SMILES IDX 75 54 35 55 78 56 72 57 71 58 36 60 62 61 45 62 61 63 46 64
REMARK SMILES IDX 49 65 60 66 76 67 47 68 48 69 59 71 77 72 50 73 37 74 38 75
REMARK SMILES IDX 43 76 39 77 40 78 42 79 44 80 41 81 63 82 64 83 69 84 65 85
REMARK SMILES IDX 66 86 68 87 70 88 67 89 51 90 52 91 57 92 53 93 54 94 56 95
REMARK SMILES IDX 58 96 55 97
REMARK H PARENT 75 59 49 70
REMARK Flexibility Score: inf
ROOT
ATOM      1  C   UNL A   1      42.183  19.231  26.017  1.00  0.00     0.188 C 
ENDROOT
BRANCH   1   2
ATOM      2  C   UNL A   1      42.015  20.109  27.253  1.00  0.00     0.188 C 
BRANCH   2   3
ATOM      3  O   UNL A   1      41.606  21.455  26.993  1.00  0.00    -0.376 OA
BRANCH   3   4
ATOM      4  C   UNL A   1      40.253  21.762  27.309  1.00  0.00     0.202 C 
BRANCH   4   5
ATOM      5  C   UNL A   1      39.625  22.772  26.328  1.00  0.00     0.261 C 
BRANCH   5   6
ATOM      6  O   UNL A   1      38.422  22.282  25.688  1.00  0.00    -0.463 OA
BRANCH   6   7
ATOM      7  C   UNL A   1      37.441  23.198  25.478  1.00  0.00     0.310 C 
ATOM      8  O   UNL A   1      37.135  24.053  26.308  1.00  0.00    -0.252 OA
BRANCH   7   9
ATOM      9  C   UNL A   1      36.784  23.168  24.099  1.00  0.00     0.160 C 
BRANCH   9  10
ATOM     10  C   UNL A   1      35.312  22.843  23.969  1.00  0.00    -0.008 A 
ATOM     11  C   UNL A   1      33.091  25.708  22.701  1.00  0.00     0.119 A 
ATOM     12  C   UNL A   1      31.947  24.943  22.527  1.00  0.00     0.048 A 
ATOM     13  C   UNL A   1      34.225  25.130  23.286  1.00  0.00     0.057 A 
ATOM     14  C   UNL A   1      31.920  23.590  22.909  1.00  0.00     0.031 A 
ATOM     15  C   UNL A   1      34.265  23.745  23.578  1.00  0.00     0.007 A 
ATOM     16  C   UNL A   1      33.088  23.005  23.444  1.00  0.00     0.049 A 
ATOM     17  N   UNL A   1      33.344  21.739  23.966  1.00  0.00    -0.340 N 
ATOM     18  C   UNL A   1      34.661  21.700  24.415  1.00  0.00     0.020 A 
ATOM     19  C   UNL A   1      35.235  20.639  25.284  1.00  0.00     0.065 C 
BRANCH  11  20
ATOM     20  O   UNL A   1      33.250  27.016  22.333  1.00  0.00    -0.497 OA
ATOM     21  C   UNL A   1      34.092  27.834  23.139  1.00  0.00     0.278 C 
ENDBRANCH  11  20
BRANCH  17  22
ATOM     22  C   UNL A   1      32.285  20.756  24.263  1.00  0.00     0.158 C 
BRANCH  22  23
ATOM     23  C   UNL A   1      32.711  19.309  24.404  1.00  0.00    -0.021 A 
ATOM     24  C   UNL A   1      32.392  18.598  25.626  1.00  0.00     0.024 A 
ATOM     25  C   UNL A   1      33.238  18.598  23.388  1.00  0.00     0.077 A 
ATOM     26  C   UNL A   1      32.716  17.312  25.792  1.00  0.00     0.095 A 
ATOM     27  C   UNL A   1      33.547  17.139  23.529  1.00  0.00     0.255 A 
ATOM     28  N   UNL A   1      33.314  16.592  24.780  1.00  0.00    -0.258 N 
ATOM     29  O   UNL A   1      33.967  16.533  22.549  1.00  0.00    -0.269 OA
BRANCH  28  30
ATOM     30  C   UNL A   1      33.599  15.191  24.970  1.00  0.00     0.451 C 
ATOM     31  F   UNL A   1      34.844  15.021  25.476  1.00  0.00    -0.185 F 
ATOM     32  F   UNL A   1      32.716  14.611  25.817  1.00  0.00    -0.185 F 
ENDBRANCH  28  30
ENDBRANCH  22  23
ENDBRANCH  17  22
ENDBRANCH   9  10
ENDBRANCH   7   9
ENDBRANCH   6   7
ENDBRANCH   5   6
ENDBRANCH   4   5
ENDBRANCH   3   4
ENDBRANCH   2   3
ENDBRANCH   1   2
BRANCH   1  33
ATOM     33  O   UNL A   1      43.061  19.605  24.990  1.00  0.00    -0.377 OA
BRANCH  33  34
ATOM     34  C   UNL A   1      44.151  18.777  24.706  1.00  0.00     0.188 C 
BRANCH  34  35
ATOM     35  C   UNL A   1      45.481  19.529  24.746  1.00  0.00     0.188 C 
BRANCH  35  36
ATOM     36  O   UNL A   1      45.689  20.739  24.011  1.00  0.00    -0.376 OA
BRANCH  36  37
ATOM     37  C   UNL A   1      46.121  21.928  24.664  1.00  0.00     0.202 C 
BRANCH  37  38
ATOM     38  C   UNL A   1      45.265  22.325  25.880  1.00  0.00     0.261 C 
BRANCH  38  39
ATOM     39  O   UNL A   1      44.749  23.656  25.779  1.00  0.00    -0.460 OA
BRANCH  39  40
ATOM     40  C   UNL A   1      43.500  23.798  25.270  1.00  0.00     0.338 C 
ATOM     41  O   UNL A   1      42.934  23.097  24.451  1.00  0.00    -0.246 OA
BRANCH  40  42
ATOM     42  C   UNL A   1      42.832  24.757  26.167  1.00  0.00     0.060 A 
ATOM     43  C   UNL A   1      41.882  25.660  25.673  1.00  0.00     0.016 A 
ATOM     44  C   UNL A   1      43.439  24.951  27.415  1.00  0.00     0.016 A 
ATOM     45  C   UNL A   1      41.648  26.835  26.383  1.00  0.00     0.010 A 
ATOM     46  C   UNL A   1      43.214  26.135  28.109  1.00  0.00     0.010 A 
ATOM     47  C   UNL A   1      42.359  27.100  27.567  1.00  0.00    -0.014 A 
BRANCH  47  48
ATOM     48  C   UNL A   1      41.997  28.295  28.332  1.00  0.00     0.031 A 
ATOM     49  C   UNL A   1      42.968  29.407  28.152  1.00  0.00     0.074 A 
ATOM     50  C   UNL A   1      40.836  28.532  28.980  1.00  0.00     0.049 A 
ATOM     51  N   UNL A   1      43.616  30.072  29.051  1.00  0.00    -0.248 NA
ATOM     52  C   UNL A   1      43.317  29.755  26.764  1.00  0.00     0.031 C 
ATOM     53  C   UNL A   1      39.622  27.720  28.988  1.00  0.00     0.029 A 
ATOM     54  N   UNL A   1      40.466  29.650  29.683  1.00  0.00    -0.354 N 
ATOM     55  C   UNL A   1      44.340  31.028  28.348  1.00  0.00     0.074 A 
ATOM     56  C   UNL A   1      44.230  30.702  26.950  1.00  0.00     0.031 C 
ATOM     57  C   UNL A   1      38.600  28.456  29.483  1.00  0.00     0.029 A 
ATOM     58  C   UNL A   1      39.097  29.762  29.892  1.00  0.00     0.049 A 
ATOM     59  H   UNL A   1      41.114  30.315  30.010  1.00  0.00     0.167 HD
ATOM     60  C   UNL A   1      44.811  32.162  28.929  1.00  0.00     0.037 A 
ATOM     61  C   UNL A   1      38.413  30.869  30.284  1.00  0.00     0.037 A 
ATOM     62  C   UNL A   1      44.930  32.046  30.354  1.00  0.00     0.049 A 
ATOM     63  C   UNL A   1      39.381  31.843  30.848  1.00  0.00     0.074 A 
ATOM     64  C   UNL A   1      45.568  31.162  31.205  1.00  0.00     0.029 A 
ATOM     65  N   UNL A   1      44.075  32.765  31.152  1.00  0.00    -0.354 N 
ATOM     66  N   UNL A   1      39.944  31.745  32.017  1.00  0.00    -0.248 NA
ATOM     67  C   UNL A   1      40.002  32.790  29.933  1.00  0.00     0.031 C 
ATOM     68  C   UNL A   1      44.717  31.058  32.344  1.00  0.00     0.029 A 
ATOM     69  C   UNL A   1      43.628  31.896  32.113  1.00  0.00     0.049 A 
ATOM     70  H   UNL A   1      43.833  33.714  31.053  1.00  0.00     0.167 HD
ATOM     71  C   UNL A   1      41.208  32.284  31.843  1.00  0.00     0.074 A 
ATOM     72  C   UNL A   1      41.148  33.010  30.580  1.00  0.00     0.031 C 
ATOM     73  C   UNL A   1      42.269  31.862  32.591  1.00  0.00     0.037 A 
BRANCH  60  74
ATOM     74  C   UNL A   1      44.849  33.474  28.197  1.00  0.00     0.057 A 
ATOM     75  C   UNL A   1      43.752  34.359  28.130  1.00  0.00     0.134 A 
ATOM     76  C   UNL A   1      46.076  34.002  27.768  1.00  0.00     0.134 A 
ATOM     77  F   UNL A   1      42.548  34.041  28.627  1.00  0.00    -0.206 F 
ATOM     78  C   UNL A   1      43.856  35.661  27.640  1.00  0.00     0.040 A 
ATOM     79  C   UNL A   1      46.204  35.326  27.331  1.00  0.00     0.040 A 
ATOM     80  F   UNL A   1      47.198  33.270  27.832  1.00  0.00    -0.206 F 
ATOM     81  C   UNL A   1      45.092  36.158  27.263  1.00  0.00     0.006 A 
ENDBRANCH  60  74
BRANCH  61  82
ATOM     82  C   UNL A   1      36.997  31.248  30.044  1.00  0.00     0.057 A 
ATOM     83  C   UNL A   1      36.440  31.277  28.754  1.00  0.00     0.134 A 
ATOM     84  C   UNL A   1      36.210  31.820  31.057  1.00  0.00     0.134 A 
ATOM     85  F   UNL A   1      37.134  30.855  27.688  1.00  0.00    -0.206 F 
ATOM     86  C   UNL A   1      35.179  31.821  28.489  1.00  0.00     0.040 A 
ATOM     87  C   UNL A   1      34.953  32.386  30.802  1.00  0.00     0.040 A 
ATOM     88  F   UNL A   1      36.664  31.896  32.317  1.00  0.00    -0.206 F 
ATOM     89  C   UNL A   1      34.433  32.388  29.513  1.00  0.00     0.006 A 
ENDBRANCH  61  82
BRANCH  73  90
ATOM     90  C   UNL A   1      41.993  31.056  33.826  1.00  0.00     0.057 A 
ATOM     91  C   UNL A   1      42.119  31.678  35.075  1.00  0.00     0.134 A 
ATOM     92  C   UNL A   1      41.732  29.678  33.824  1.00  0.00     0.134 A 
ATOM     93  F   UNL A   1      42.430  32.983  35.156  1.00  0.00    -0.206 F 
ATOM     94  C   UNL A   1      41.966  30.971  36.269  1.00  0.00     0.040 A 
ATOM     95  C   UNL A   1      41.538  28.968  35.013  1.00  0.00     0.040 A 
ATOM     96  F   UNL A   1      41.712  28.973  32.684  1.00  0.00    -0.206 F 
ATOM     97  C   UNL A   1      41.658  29.614  36.240  1.00  0.00     0.006 A 
ENDBRANCH  73  90
ENDBRANCH  47  48
ENDBRANCH  40  42
ENDBRANCH  39  40
ENDBRANCH  38  39
ENDBRANCH  37  38
ENDBRANCH  36  37
ENDBRANCH  35  36
ENDBRANCH  34  35
ENDBRANCH  33  34
ENDBRANCH   1  33
TORSDOF 25
ENDMDL
