MODEL 1
REMARK VINA RESULT:     -10.6      0.000      0.000
REMARK SMILES C[C@@H](C(=O)OCCOCCOCCOCCOC(=O)c1ccc(-c2c3nc(c(-c4c(F)cccc4F)c4ccc([nH]4)c(-c4c(F)cccc4F)c4nc(c(-c5c(F)cccc5F)c5ccc2[nH]5)C=C4)C=C3)cc1)c1ccc(-c2ccccc2)c(F)c1
REMARK SMILES IDX 11 1 10 2 9 3 8 4 7 5 6 6 5 7 3 8 4 9 2 10 1 11 74 12 75 13
REMARK SMILES IDX 86 14 76 15 84 16 77 17 85 18 78 19 79 20 83 21 80 22 82 23
REMARK SMILES IDX 81 24 12 25 13 26 14 27 15 28 16 29 17 30 18 31 19 32 20 33
REMARK SMILES IDX 21 34 73 35 22 36 72 37 23 38 24 39 25 40 66 41 26 42 71 43
REMARK SMILES IDX 65 44 67 45 27 46 70 47 64 48 63 49 28 51 54 52 37 53 53 54
REMARK SMILES IDX 38 55 41 56 52 57 68 58 39 59 40 60 51 62 69 63 42 64 29 65
REMARK SMILES IDX 30 66 35 67 31 68 32 69 34 70 36 71 33 72 55 73 56 74 61 75
REMARK SMILES IDX 57 76 58 77 60 78 62 79 59 80 43 81 44 82 49 83 45 84 46 85
REMARK SMILES IDX 48 86 50 87 47 88
REMARK H PARENT 67 50 41 61
REMARK Flexibility Score: inf
ROOT
ATOM      1  O   UNL A   1      37.407  22.631  25.491  1.00  0.00    -0.377 OA
ENDROOT
BRANCH   1   2
ATOM      2  C   UNL A   1      36.123  22.328  24.984  1.00  0.00     0.188 C 
BRANCH   2   3
ATOM      3  C   UNL A   1      35.360  21.233  25.759  1.00  0.00     0.188 C 
BRANCH   3   4
ATOM      4  O   UNL A   1      34.050  21.483  26.242  1.00  0.00    -0.376 OA
BRANCH   4   5
ATOM      5  C   UNL A   1      32.921  21.075  25.485  1.00  0.00     0.202 C 
BRANCH   5   6
ATOM      6  C   UNL A   1      31.797  22.062  25.103  1.00  0.00     0.261 C 
BRANCH   6   7
ATOM      7  O   UNL A   1      31.845  23.380  25.684  1.00  0.00    -0.463 OA
BRANCH   7   8
ATOM      8  C   UNL A   1      32.661  24.282  25.083  1.00  0.00     0.313 C 
ATOM      9  O   UNL A   1      33.620  24.807  25.641  1.00  0.00    -0.252 OA
BRANCH   8  10
ATOM     10  C   UNL A   1      32.283  24.605  23.622  1.00  0.00     0.126 C 
ATOM     11  C   UNL A   1      33.354  24.486  22.530  1.00  0.00     0.025 C 
BRANCH  10  12
ATOM     12  C   UNL A   1      31.484  25.907  23.541  1.00  0.00    -0.031 A 
ATOM     13  C   UNL A   1      32.148  27.076  23.157  1.00  0.00     0.005 A 
ATOM     14  C   UNL A   1      30.097  25.984  23.738  1.00  0.00     0.044 A 
ATOM     15  C   UNL A   1      31.449  28.272  22.960  1.00  0.00     0.012 A 
ATOM     16  C   UNL A   1      29.400  27.177  23.513  1.00  0.00     0.131 A 
ATOM     17  C   UNL A   1      30.054  28.347  23.115  1.00  0.00     0.017 A 
ATOM     18  F   UNL A   1      28.065  27.162  23.669  1.00  0.00    -0.206 F 
BRANCH  17  19
ATOM     19  C   UNL A   1      29.348  29.617  22.872  1.00  0.00    -0.015 A 
ATOM     20  C   UNL A   1      28.631  29.823  21.678  1.00  0.00     0.009 A 
ATOM     21  C   UNL A   1      29.409  30.680  23.787  1.00  0.00     0.009 A 
ATOM     22  C   UNL A   1      28.034  31.053  21.392  1.00  0.00     0.001 A 
ATOM     23  C   UNL A   1      28.811  31.911  23.504  1.00  0.00     0.001 A 
ATOM     24  C   UNL A   1      28.133  32.100  22.302  1.00  0.00     0.000 A 
ENDBRANCH  17  19
ENDBRANCH  10  12
ENDBRANCH   8  10
ENDBRANCH   7   8
ENDBRANCH   6   7
ENDBRANCH   5   6
ENDBRANCH   4   5
ENDBRANCH   3   4
ENDBRANCH   2   3
ENDBRANCH   1   2
BRANCH   1  25
ATOM     25  C   UNL A   1      38.352  21.575  25.461  1.00  0.00     0.188 C 
BRANCH  25  26
ATOM     26  C   UNL A   1      39.583  21.689  26.380  1.00  0.00     0.188 C 
BRANCH  26  27
ATOM     27  O   UNL A   1      40.599  20.730  26.102  1.00  0.00    -0.376 OA
BRANCH  27  28
ATOM     28  C   UNL A   1      41.892  20.919  26.656  1.00  0.00     0.202 C 
BRANCH  28  29
ATOM     29  C   UNL A   1      42.974  21.509  25.735  1.00  0.00     0.261 C 
BRANCH  29  30
ATOM     30  O   UNL A   1      42.639  22.726  25.051  1.00  0.00    -0.460 OA
BRANCH  30  31
ATOM     31  C   UNL A   1      43.499  23.761  25.147  1.00  0.00     0.338 C 
ATOM     32  O   UNL A   1      44.519  23.934  24.501  1.00  0.00    -0.246 OA
BRANCH  31  33
ATOM     33  C   UNL A   1      42.885  24.775  26.031  1.00  0.00     0.060 A 
ATOM     34  C   UNL A   1      43.554  25.991  26.229  1.00  0.00     0.016 A 
ATOM     35  C   UNL A   1      41.650  24.540  26.640  1.00  0.00     0.016 A 
ATOM     36  C   UNL A   1      43.005  26.962  27.067  1.00  0.00     0.010 A 
ATOM     37  C   UNL A   1      41.116  25.502  27.502  1.00  0.00     0.010 A 
ATOM     38  C   UNL A   1      41.808  26.702  27.745  1.00  0.00    -0.014 A 
BRANCH  38  39
ATOM     39  C   UNL A   1      41.402  27.579  28.870  1.00  0.00     0.031 A 
ATOM     40  C   UNL A   1      42.158  27.464  30.165  1.00  0.00     0.074 A 
ATOM     41  C   UNL A   1      40.406  28.472  28.745  1.00  0.00     0.049 A 
ATOM     42  N   UNL A   1      41.965  28.079  31.302  1.00  0.00    -0.248 NA
ATOM     43  C   UNL A   1      43.290  26.521  30.175  1.00  0.00     0.031 C 
ATOM     44  C   UNL A   1      39.631  28.715  27.530  1.00  0.00     0.029 A 
ATOM     45  N   UNL A   1      39.872  29.340  29.666  1.00  0.00    -0.354 N 
ATOM     46  C   UNL A   1      42.940  27.591  32.164  1.00  0.00     0.074 A 
ATOM     47  C   UNL A   1      43.705  26.608  31.429  1.00  0.00     0.031 C 
ATOM     48  C   UNL A   1      38.711  29.664  27.784  1.00  0.00     0.029 A 
ATOM     49  C   UNL A   1      38.810  30.067  29.186  1.00  0.00     0.049 A 
ATOM     50  H   UNL A   1      40.218  29.432  30.583  1.00  0.00     0.167 HD
ATOM     51  C   UNL A   1      43.180  27.936  33.450  1.00  0.00     0.037 A 
ATOM     52  C   UNL A   1      37.998  30.937  29.818  1.00  0.00     0.037 A 
ATOM     53  C   UNL A   1      42.416  28.913  34.179  1.00  0.00     0.049 A 
ATOM     54  C   UNL A   1      38.231  31.241  31.277  1.00  0.00     0.074 A 
ATOM     55  C   UNL A   1      42.590  29.347  35.480  1.00  0.00     0.029 A 
ATOM     56  N   UNL A   1      41.322  29.598  33.671  1.00  0.00    -0.354 N 
ATOM     57  N   UNL A   1      39.170  30.795  32.078  1.00  0.00    -0.248 NA
ATOM     58  C   UNL A   1      37.291  32.171  31.920  1.00  0.00     0.031 C 
ATOM     59  C   UNL A   1      41.563  30.248  35.781  1.00  0.00     0.029 A 
ATOM     60  C   UNL A   1      40.791  30.427  34.644  1.00  0.00     0.049 A 
ATOM     61  H   UNL A   1      40.974  29.508  32.754  1.00  0.00     0.167 HD
ATOM     62  C   UNL A   1      38.955  31.417  33.304  1.00  0.00     0.074 A 
ATOM     63  C   UNL A   1      37.805  32.280  33.137  1.00  0.00     0.031 C 
ATOM     64  C   UNL A   1      39.651  31.289  34.461  1.00  0.00     0.037 A 
BRANCH  51  65
ATOM     65  C   UNL A   1      44.293  27.222  34.161  1.00  0.00     0.057 A 
ATOM     66  C   UNL A   1      44.062  26.107  34.978  1.00  0.00     0.134 A 
ATOM     67  C   UNL A   1      45.619  27.645  34.006  1.00  0.00     0.134 A 
ATOM     68  F   UNL A   1      42.814  25.660  35.184  1.00  0.00    -0.206 F 
ATOM     69  C   UNL A   1      45.108  25.454  35.635  1.00  0.00     0.040 A 
ATOM     70  C   UNL A   1      46.676  26.982  34.633  1.00  0.00     0.040 A 
ATOM     71  F   UNL A   1      45.912  28.704  33.237  1.00  0.00    -0.206 F 
ATOM     72  C   UNL A   1      46.419  25.887  35.456  1.00  0.00     0.006 A 
ENDBRANCH  51  65
BRANCH  52  73
ATOM     73  C   UNL A   1      36.872  31.578  29.088  1.00  0.00     0.057 A 
ATOM     74  C   UNL A   1      36.955  32.904  28.645  1.00  0.00     0.134 A 
ATOM     75  C   UNL A   1      35.675  30.894  28.847  1.00  0.00     0.134 A 
ATOM     76  F   UNL A   1      38.065  33.622  28.869  1.00  0.00    -0.206 F 
ATOM     77  C   UNL A   1      35.881  33.532  28.010  1.00  0.00     0.040 A 
ATOM     78  C   UNL A   1      34.604  31.500  28.187  1.00  0.00     0.040 A 
ATOM     79  F   UNL A   1      35.529  29.622  29.247  1.00  0.00    -0.206 F 
ATOM     80  C   UNL A   1      34.704  32.828  27.775  1.00  0.00     0.006 A 
ENDBRANCH  52  73
BRANCH  64  81
ATOM     81  C   UNL A   1      39.219  32.134  35.627  1.00  0.00     0.057 A 
ATOM     82  C   UNL A   1      38.362  31.651  36.623  1.00  0.00     0.134 A 
ATOM     83  C   UNL A   1      39.710  33.438  35.776  1.00  0.00     0.134 A 
ATOM     84  F   UNL A   1      37.848  30.414  36.537  1.00  0.00    -0.206 F 
ATOM     85  C   UNL A   1      37.987  32.442  37.711  1.00  0.00     0.040 A 
ATOM     86  C   UNL A   1      39.369  34.228  36.876  1.00  0.00     0.040 A 
ATOM     87  F   UNL A   1      40.546  33.961  34.866  1.00  0.00    -0.206 F 
ATOM     88  C   UNL A   1      38.498  33.732  37.843  1.00  0.00     0.006 A 
ENDBRANCH  64  81
ENDBRANCH  38  39
ENDBRANCH  31  33
ENDBRANCH  30  31
ENDBRANCH  29  30
ENDBRANCH  28  29
ENDBRANCH  27  28
ENDBRANCH  26  27
ENDBRANCH  25  26
ENDBRANCH   1  25
TORSDOF 22
ENDMDL
MODEL 2
REMARK VINA RESULT:     -10.3      1.515      2.270
REMARK SMILES C[C@@H](C(=O)OCCOCCOCCOCCOC(=O)c1ccc(-c2c3nc(c(-c4c(F)cccc4F)c4ccc([nH]4)c(-c4c(F)cccc4F)c4nc(c(-c5c(F)cccc5F)c5ccc2[nH]5)C=C4)C=C3)cc1)c1ccc(-c2ccccc2)c(F)c1
REMARK SMILES IDX 11 1 10 2 9 3 8 4 7 5 6 6 5 7 3 8 4 9 2 10 1 11 74 12 75 13
REMARK SMILES IDX 86 14 76 15 84 16 77 17 85 18 78 19 79 20 83 21 80 22 82 23
REMARK SMILES IDX 81 24 12 25 13 26 14 27 15 28 16 29 17 30 18 31 19 32 20 33
REMARK SMILES IDX 21 34 73 35 22 36 72 37 23 38 24 39 25 40 66 41 26 42 71 43
REMARK SMILES IDX 65 44 67 45 27 46 70 47 64 48 63 49 28 51 54 52 37 53 53 54
REMARK SMILES IDX 38 55 41 56 52 57 68 58 39 59 40 60 51 62 69 63 42 64 29 65
REMARK SMILES IDX 30 66 35 67 31 68 32 69 34 70 36 71 33 72 55 73 56 74 61 75
REMARK SMILES IDX 57 76 58 77 60 78 62 79 59 80 43 81 44 82 49 83 45 84 46 85
REMARK SMILES IDX 48 86 50 87 47 88
REMARK H PARENT 67 50 41 61
REMARK Flexibility Score: inf
ROOT
ATOM      1  O   UNL A   1      38.567  23.646  26.708  1.00  0.00    -0.377 OA
ENDROOT
BRANCH   1   2
ATOM      2  C   UNL A   1      37.290  23.456  26.133  1.00  0.00     0.188 C 
BRANCH   2   3
ATOM      3  C   UNL A   1      37.273  22.585  24.860  1.00  0.00     0.188 C 
BRANCH   3   4
ATOM      4  O   UNL A   1      36.743  21.269  24.903  1.00  0.00    -0.376 OA
BRANCH   4   5
ATOM      5  C   UNL A   1      35.339  21.065  24.870  1.00  0.00     0.202 C 
BRANCH   5   6
ATOM      6  C   UNL A   1      34.490  21.034  26.158  1.00  0.00     0.261 C 
BRANCH   6   7
ATOM      7  O   UNL A   1      33.142  21.539  26.078  1.00  0.00    -0.463 OA
BRANCH   7   8
ATOM      8  C   UNL A   1      32.343  20.996  25.125  1.00  0.00     0.313 C 
ATOM      9  O   UNL A   1      32.012  19.813  25.110  1.00  0.00    -0.252 OA
BRANCH   8  10
ATOM     10  C   UNL A   1      31.876  21.994  24.044  1.00  0.00     0.126 C 
ATOM     11  C   UNL A   1      32.466  21.894  22.631  1.00  0.00     0.025 C 
BRANCH  10  12
ATOM     12  C   UNL A   1      31.865  23.423  24.591  1.00  0.00    -0.031 A 
ATOM     13  C   UNL A   1      33.002  24.217  24.412  1.00  0.00     0.005 A 
ATOM     14  C   UNL A   1      30.743  24.022  25.184  1.00  0.00     0.044 A 
ATOM     15  C   UNL A   1      33.010  25.563  24.793  1.00  0.00     0.012 A 
ATOM     16  C   UNL A   1      30.749  25.376  25.538  1.00  0.00     0.131 A 
ATOM     17  C   UNL A   1      31.877  26.181  25.348  1.00  0.00     0.017 A 
ATOM     18  F   UNL A   1      29.620  25.894  26.050  1.00  0.00    -0.206 F 
BRANCH  17  19
ATOM     19  C   UNL A   1      31.913  27.608  25.712  1.00  0.00    -0.015 A 
ATOM     20  C   UNL A   1      32.358  28.013  26.984  1.00  0.00     0.009 A 
ATOM     21  C   UNL A   1      31.459  28.604  24.832  1.00  0.00     0.009 A 
ATOM     22  C   UNL A   1      32.312  29.353  27.377  1.00  0.00     0.001 A 
ATOM     23  C   UNL A   1      31.414  29.945  25.222  1.00  0.00     0.001 A 
ATOM     24  C   UNL A   1      31.831  30.318  26.497  1.00  0.00     0.000 A 
ENDBRANCH  17  19
ENDBRANCH  10  12
ENDBRANCH   8  10
ENDBRANCH   7   8
ENDBRANCH   6   7
ENDBRANCH   5   6
ENDBRANCH   4   5
ENDBRANCH   3   4
ENDBRANCH   2   3
ENDBRANCH   1   2
BRANCH   1  25
ATOM     25  C   UNL A   1      39.626  22.902  26.129  1.00  0.00     0.188 C 
BRANCH  25  26
ATOM     26  C   UNL A   1      40.103  21.639  26.870  1.00  0.00     0.188 C 
BRANCH  26  27
ATOM     27  O   UNL A   1      40.949  20.799  26.090  1.00  0.00    -0.376 OA
BRANCH  27  28
ATOM     28  C   UNL A   1      42.295  20.610  26.499  1.00  0.00     0.202 C 
BRANCH  28  29
ATOM     29  C   UNL A   1      43.372  21.446  25.787  1.00  0.00     0.261 C 
BRANCH  29  30
ATOM     30  O   UNL A   1      43.865  22.593  26.496  1.00  0.00    -0.460 OA
BRANCH  30  31
ATOM     31  C   UNL A   1      43.903  23.772  25.840  1.00  0.00     0.338 C 
ATOM     32  O   UNL A   1      44.257  23.965  24.690  1.00  0.00    -0.246 OA
BRANCH  31  33
ATOM     33  C   UNL A   1      43.236  24.781  26.692  1.00  0.00     0.060 A 
ATOM     34  C   UNL A   1      43.680  26.109  26.638  1.00  0.00     0.016 A 
ATOM     35  C   UNL A   1      42.168  24.426  27.519  1.00  0.00     0.016 A 
ATOM     36  C   UNL A   1      43.079  27.081  27.438  1.00  0.00     0.010 A 
ATOM     37  C   UNL A   1      41.586  25.395  28.342  1.00  0.00     0.010 A 
ATOM     38  C   UNL A   1      42.062  26.718  28.329  1.00  0.00    -0.014 A 
BRANCH  38  39
ATOM     39  C   UNL A   1      41.658  27.663  29.398  1.00  0.00     0.031 A 
ATOM     40  C   UNL A   1      42.417  27.629  30.697  1.00  0.00     0.074 A 
ATOM     41  C   UNL A   1      40.662  28.547  29.220  1.00  0.00     0.049 A 
ATOM     42  N   UNL A   1      42.225  28.313  31.794  1.00  0.00    -0.248 NA
ATOM     43  C   UNL A   1      43.548  26.689  30.763  1.00  0.00     0.031 C 
ATOM     44  C   UNL A   1      39.884  28.714  27.994  1.00  0.00     0.029 A 
ATOM     45  N   UNL A   1      40.130  29.471  30.087  1.00  0.00    -0.354 N 
ATOM     46  C   UNL A   1      43.202  27.880  32.682  1.00  0.00     0.074 A 
ATOM     47  C   UNL A   1      43.966  26.854  32.009  1.00  0.00     0.031 C 
ATOM     48  C   UNL A   1      38.965  29.677  28.190  1.00  0.00     0.029 A 
ATOM     49  C   UNL A   1      39.066  30.166  29.564  1.00  0.00     0.049 A 
ATOM     50  H   UNL A   1      40.477  29.619  30.995  1.00  0.00     0.167 HD
ATOM     51  C   UNL A   1      43.445  28.304  33.944  1.00  0.00     0.037 A 
ATOM     52  C   UNL A   1      38.255  31.074  30.143  1.00  0.00     0.037 A 
ATOM     53  C   UNL A   1      42.682  29.324  34.612  1.00  0.00     0.049 A 
ATOM     54  C   UNL A   1      38.491  31.467  31.580  1.00  0.00     0.074 A 
ATOM     55  C   UNL A   1      42.858  29.839  35.884  1.00  0.00     0.029 A 
ATOM     56  N   UNL A   1      41.587  29.977  34.065  1.00  0.00    -0.354 N 
ATOM     57  N   UNL A   1      39.432  31.073  32.404  1.00  0.00    -0.248 NA
ATOM     58  C   UNL A   1      37.552  32.436  32.165  1.00  0.00     0.031 C 
ATOM     59  C   UNL A   1      41.832  30.756  36.130  1.00  0.00     0.029 A 
ATOM     60  C   UNL A   1      41.058  30.865  34.986  1.00  0.00     0.049 A 
ATOM     61  H   UNL A   1      41.237  29.830  33.156  1.00  0.00     0.167 HD
ATOM     62  C   UNL A   1      39.219  31.769  33.590  1.00  0.00     0.074 A 
ATOM     63  C   UNL A   1      38.068  32.620  33.372  1.00  0.00     0.031 C 
ATOM     64  C   UNL A   1      39.916  31.713  34.752  1.00  0.00     0.037 A 
BRANCH  51  65
ATOM     65  C   UNL A   1      44.559  27.636  34.696  1.00  0.00     0.057 A 
ATOM     66  C   UNL A   1      44.357  26.473  35.451  1.00  0.00     0.134 A 
ATOM     67  C   UNL A   1      45.859  28.153  34.644  1.00  0.00     0.134 A 
ATOM     68  F   UNL A   1      43.133  25.935  35.558  1.00  0.00    -0.206 F 
ATOM     69  C   UNL A   1      45.404  25.864  36.147  1.00  0.00     0.040 A 
ATOM     70  C   UNL A   1      46.919  27.536  35.310  1.00  0.00     0.040 A 
ATOM     71  F   UNL A   1      46.124  29.263  33.938  1.00  0.00    -0.206 F 
ATOM     72  C   UNL A   1      46.690  26.391  36.071  1.00  0.00     0.006 A 
ENDBRANCH  51  65
BRANCH  52  73
ATOM     73  C   UNL A   1      37.128  31.668  29.376  1.00  0.00     0.057 A 
ATOM     74  C   UNL A   1      37.216  32.957  28.836  1.00  0.00     0.134 A 
ATOM     75  C   UNL A   1      35.924  30.977  29.196  1.00  0.00     0.134 A 
ATOM     76  F   UNL A   1      38.333  33.681  28.998  1.00  0.00    -0.206 F 
ATOM     77  C   UNL A   1      36.142  33.545  28.165  1.00  0.00     0.040 A 
ATOM     78  C   UNL A   1      34.851  31.542  28.501  1.00  0.00     0.040 A 
ATOM     79  F   UNL A   1      35.772  29.740  29.689  1.00  0.00    -0.206 F 
ATOM     80  C   UNL A   1      34.957  32.834  27.992  1.00  0.00     0.006 A 
ENDBRANCH  52  73
BRANCH  64  81
ATOM     81  C   UNL A   1      39.487  32.629  35.863  1.00  0.00     0.057 A 
ATOM     82  C   UNL A   1      40.004  33.923  36.006  1.00  0.00     0.134 A 
ATOM     83  C   UNL A   1      38.505  32.224  36.777  1.00  0.00     0.134 A 
ATOM     84  F   UNL A   1      40.954  34.372  35.171  1.00  0.00    -0.206 F 
ATOM     85  C   UNL A   1      39.580  34.770  37.032  1.00  0.00     0.040 A 
ATOM     86  C   UNL A   1      38.049  33.073  37.787  1.00  0.00     0.040 A 
ATOM     87  F   UNL A   1      37.957  31.002  36.691  1.00  0.00    -0.206 F 
ATOM     88  C   UNL A   1      38.594  34.348  37.921  1.00  0.00     0.006 A 
ENDBRANCH  64  81
ENDBRANCH  38  39
ENDBRANCH  31  33
ENDBRANCH  30  31
ENDBRANCH  29  30
ENDBRANCH  28  29
ENDBRANCH  27  28
ENDBRANCH  26  27
ENDBRANCH  25  26
ENDBRANCH   1  25
TORSDOF 22
ENDMDL
MODEL 3
REMARK VINA RESULT:      -9.8      6.152     12.740
REMARK SMILES C[C@@H](C(=O)OCCOCCOCCOCCOC(=O)c1ccc(-c2c3nc(c(-c4c(F)cccc4F)c4ccc([nH]4)c(-c4c(F)cccc4F)c4nc(c(-c5c(F)cccc5F)c5ccc2[nH]5)C=C4)C=C3)cc1)c1ccc(-c2ccccc2)c(F)c1
REMARK SMILES IDX 11 1 10 2 9 3 8 4 7 5 6 6 5 7 3 8 4 9 2 10 1 11 74 12 75 13
REMARK SMILES IDX 86 14 76 15 84 16 77 17 85 18 78 19 79 20 83 21 80 22 82 23
REMARK SMILES IDX 81 24 12 25 13 26 14 27 15 28 16 29 17 30 18 31 19 32 20 33
REMARK SMILES IDX 21 34 73 35 22 36 72 37 23 38 24 39 25 40 66 41 26 42 71 43
REMARK SMILES IDX 65 44 67 45 27 46 70 47 64 48 63 49 28 51 54 52 37 53 53 54
REMARK SMILES IDX 38 55 41 56 52 57 68 58 39 59 40 60 51 62 69 63 42 64 29 65
REMARK SMILES IDX 30 66 35 67 31 68 32 69 34 70 36 71 33 72 55 73 56 74 61 75
REMARK SMILES IDX 57 76 58 77 60 78 62 79 59 80 43 81 44 82 49 83 45 84 46 85
REMARK SMILES IDX 48 86 50 87 47 88
REMARK H PARENT 67 50 41 61
REMARK Flexibility Score: inf
ROOT
ATOM      1  O   UNL A   1      36.309  33.211  35.884  1.00  0.00    -0.377 OA
ENDROOT
BRANCH   1   2
ATOM      2  C   UNL A   1      36.972  33.544  37.087  1.00  0.00     0.188 C 
BRANCH   2   3
ATOM      3  C   UNL A   1      37.573  32.347  37.852  1.00  0.00     0.188 C 
BRANCH   3   4
ATOM      4  O   UNL A   1      38.909  31.939  37.602  1.00  0.00    -0.376 OA
BRANCH   4   5
ATOM      5  C   UNL A   1      39.925  32.909  37.403  1.00  0.00     0.202 C 
BRANCH   5   6
ATOM      6  C   UNL A   1      40.250  33.472  36.004  1.00  0.00     0.261 C 
BRANCH   6   7
ATOM      7  O   UNL A   1      39.886  32.670  34.863  1.00  0.00    -0.463 OA
BRANCH   7   8
ATOM      8  C   UNL A   1      40.516  32.949  33.694  1.00  0.00     0.313 C 
ATOM      9  O   UNL A   1      39.934  33.343  32.687  1.00  0.00    -0.252 OA
BRANCH   8  10
ATOM     10  C   UNL A   1      42.043  32.729  33.728  1.00  0.00     0.126 C 
ATOM     11  C   UNL A   1      42.963  33.785  33.104  1.00  0.00     0.025 C 
BRANCH  10  12
ATOM     12  C   UNL A   1      42.396  31.300  33.309  1.00  0.00    -0.031 A 
ATOM     13  C   UNL A   1      43.719  31.015  32.955  1.00  0.00     0.005 A 
ATOM     14  C   UNL A   1      41.490  30.230  33.347  1.00  0.00     0.044 A 
ATOM     15  C   UNL A   1      44.123  29.707  32.670  1.00  0.00     0.012 A 
ATOM     16  C   UNL A   1      41.908  28.919  33.087  1.00  0.00     0.131 A 
ATOM     17  C   UNL A   1      43.232  28.623  32.746  1.00  0.00     0.017 A 
ATOM     18  F   UNL A   1      40.997  27.938  33.195  1.00  0.00    -0.206 F 
BRANCH  17  19
ATOM     19  C   UNL A   1      43.701  27.255  32.465  1.00  0.00    -0.015 A 
ATOM     20  C   UNL A   1      44.234  26.454  33.493  1.00  0.00     0.009 A 
ATOM     21  C   UNL A   1      43.685  26.724  31.166  1.00  0.00     0.009 A 
ATOM     22  C   UNL A   1      44.767  25.191  33.226  1.00  0.00     0.001 A 
ATOM     23  C   UNL A   1      44.216  25.460  30.897  1.00  0.00     0.001 A 
ATOM     24  C   UNL A   1      44.766  24.698  31.925  1.00  0.00     0.000 A 
ENDBRANCH  17  19
ENDBRANCH  10  12
ENDBRANCH   8  10
ENDBRANCH   7   8
ENDBRANCH   6   7
ENDBRANCH   5   6
ENDBRANCH   4   5
ENDBRANCH   3   4
ENDBRANCH   2   3
ENDBRANCH   1   2
BRANCH   1  25
ATOM     25  C   UNL A   1      36.460  34.131  34.817  1.00  0.00     0.188 C 
BRANCH  25  26
ATOM     26  C   UNL A   1      35.186  34.784  34.249  1.00  0.00     0.188 C 
BRANCH  26  27
ATOM     27  O   UNL A   1      35.401  35.508  33.041  1.00  0.00    -0.376 OA
BRANCH  27  28
ATOM     28  C   UNL A   1      34.383  35.510  32.051  1.00  0.00     0.202 C 
BRANCH  28  29
ATOM     29  C   UNL A   1      34.316  34.298  31.106  1.00  0.00     0.261 C 
BRANCH  29  30
ATOM     30  O   UNL A   1      35.510  33.509  30.991  1.00  0.00    -0.460 OA
BRANCH  30  31
ATOM     31  C   UNL A   1      35.578  32.360  31.694  1.00  0.00     0.338 C 
ATOM     32  O   UNL A   1      34.790  31.963  32.536  1.00  0.00    -0.246 OA
BRANCH  31  33
ATOM     33  C   UNL A   1      36.671  31.546  31.120  1.00  0.00     0.060 A 
ATOM     34  C   UNL A   1      37.456  30.768  31.981  1.00  0.00     0.016 A 
ATOM     35  C   UNL A   1      36.905  31.530  29.743  1.00  0.00     0.016 A 
ATOM     36  C   UNL A   1      38.502  29.998  31.471  1.00  0.00     0.010 A 
ATOM     37  C   UNL A   1      37.971  30.782  29.237  1.00  0.00     0.010 A 
ATOM     38  C   UNL A   1      38.794  30.041  30.102  1.00  0.00    -0.014 A 
BRANCH  38  39
ATOM     39  C   UNL A   1      40.086  29.497  29.615  1.00  0.00     0.031 A 
ATOM     40  C   UNL A   1      41.264  30.430  29.545  1.00  0.00     0.074 A 
ATOM     41  C   UNL A   1      40.223  28.206  29.268  1.00  0.00     0.049 A 
ATOM     42  N   UNL A   1      42.477  30.210  29.109  1.00  0.00    -0.248 NA
ATOM     43  C   UNL A   1      41.038  31.801  30.032  1.00  0.00     0.031 C 
ATOM     44  C   UNL A   1      39.173  27.192  29.339  1.00  0.00     0.029 A 
ATOM     45  N   UNL A   1      41.312  27.531  28.774  1.00  0.00    -0.354 N 
ATOM     46  C   UNL A   1      43.154  31.415  29.260  1.00  0.00     0.074 A 
ATOM     47  C   UNL A   1      42.210  32.369  29.798  1.00  0.00     0.031 C 
ATOM     48  C   UNL A   1      39.668  26.023  28.894  1.00  0.00     0.029 A 
ATOM     49  C   UNL A   1      41.054  26.216  28.474  1.00  0.00     0.049 A 
ATOM     50  H   UNL A   1      42.193  27.951  28.648  1.00  0.00     0.167 HD
ATOM     51  C   UNL A   1      44.447  31.698  28.981  1.00  0.00     0.037 A 
ATOM     52  C   UNL A   1      41.845  25.286  27.901  1.00  0.00     0.037 A 
ATOM     53  C   UNL A   1      45.383  30.747  28.444  1.00  0.00     0.049 A 
ATOM     54  C   UNL A   1      43.257  25.650  27.518  1.00  0.00     0.074 A 
ATOM     55  C   UNL A   1      46.720  30.929  28.143  1.00  0.00     0.029 A 
ATOM     56  N   UNL A   1      45.073  29.435  28.115  1.00  0.00    -0.354 N 
ATOM     57  N   UNL A   1      43.898  26.783  27.687  1.00  0.00    -0.248 NA
ATOM     58  C   UNL A   1      44.058  24.603  26.866  1.00  0.00     0.031 C 
ATOM     59  C   UNL A   1      47.204  29.748  27.573  1.00  0.00     0.029 A 
ATOM     60  C   UNL A   1      46.187  28.807  27.583  1.00  0.00     0.049 A 
ATOM     61  H   UNL A   1      44.193  29.013  28.241  1.00  0.00     0.167 HD
ATOM     62  C   UNL A   1      45.182  26.574  27.196  1.00  0.00     0.074 A 
ATOM     63  C   UNL A   1      45.233  25.202  26.735  1.00  0.00     0.031 C 
ATOM     64  C   UNL A   1      46.226  27.437  27.137  1.00  0.00     0.037 A 
BRANCH  51  65
ATOM     65  C   UNL A   1      44.913  33.106  29.217  1.00  0.00     0.057 A 
ATOM     66  C   UNL A   1      44.651  34.140  28.309  1.00  0.00     0.134 A 
ATOM     67  C   UNL A   1      45.615  33.434  30.383  1.00  0.00     0.134 A 
ATOM     68  F   UNL A   1      43.998  33.892  27.163  1.00  0.00    -0.206 F 
ATOM     69  C   UNL A   1      45.092  35.445  28.542  1.00  0.00     0.040 A 
ATOM     70  C   UNL A   1      46.036  34.739  30.641  1.00  0.00     0.040 A 
ATOM     71  F   UNL A   1      45.899  32.492  31.296  1.00  0.00    -0.206 F 
ATOM     72  C   UNL A   1      45.780  35.748  29.714  1.00  0.00     0.006 A 
ENDBRANCH  51  65
BRANCH  52  73
ATOM     73  C   UNL A   1      41.322  23.920  27.635  1.00  0.00     0.057 A 
ATOM     74  C   UNL A   1      41.751  22.818  28.385  1.00  0.00     0.134 A 
ATOM     75  C   UNL A   1      40.410  23.676  26.601  1.00  0.00     0.134 A 
ATOM     76  F   UNL A   1      42.644  22.981  29.372  1.00  0.00    -0.206 F 
ATOM     77  C   UNL A   1      41.309  21.524  28.104  1.00  0.00     0.040 A 
ATOM     78  C   UNL A   1      39.938  22.391  26.327  1.00  0.00     0.040 A 
ATOM     79  F   UNL A   1      39.960  24.686  25.842  1.00  0.00    -0.206 F 
ATOM     80  C   UNL A   1      40.396  21.308  27.076  1.00  0.00     0.006 A 
ENDBRANCH  52  73
BRANCH  64  81
ATOM     81  C   UNL A   1      47.529  26.915  26.598  1.00  0.00     0.057 A 
ATOM     82  C   UNL A   1      48.509  26.355  27.428  1.00  0.00     0.134 A 
ATOM     83  C   UNL A   1      47.784  26.932  25.221  1.00  0.00     0.134 A 
ATOM     84  F   UNL A   1      48.333  26.316  28.758  1.00  0.00    -0.206 F 
ATOM     85  C   UNL A   1      49.706  25.856  26.910  1.00  0.00     0.040 A 
ATOM     86  C   UNL A   1      48.962  26.406  24.687  1.00  0.00     0.040 A 
ATOM     87  F   UNL A   1      46.883  27.442  24.366  1.00  0.00    -0.206 F 
ATOM     88  C   UNL A   1      49.931  25.873  25.535  1.00  0.00     0.006 A 
ENDBRANCH  64  81
ENDBRANCH  38  39
ENDBRANCH  31  33
ENDBRANCH  30  31
ENDBRANCH  29  30
ENDBRANCH  28  29
ENDBRANCH  27  28
ENDBRANCH  26  27
ENDBRANCH  25  26
ENDBRANCH   1  25
TORSDOF 22
ENDMDL
