MODEL 1
REMARK VINA RESULT:      -8.7      0.000      0.000
REMARK SMILES CCC[C@H]1CC[C@H](C(=O)OCCOCCOCCOCCOC(=O)c2ccc(-c3c4nc(c(-c5c(F)cccc5F)c5ccc([nH]5)c(-c5c(F)cccc5F)c5nc(c(-c6c(F)cccc6F)c6ccc3[nH]6)C=C5)C=C4)cc2)[C@H](Sc2ccncc2)C1
REMARK SMILES IDX 16 1 15 2 14 3 13 4 12 5 11 6 10 7 8 8 9 9 7 10 4 11 5 12
REMARK SMILES IDX 87 13 6 14 79 15 3 16 2 17 1 18 80 19 81 20 82 21 86 22
REMARK SMILES IDX 83 23 85 24 84 25 17 26 18 27 19 28 20 29 21 30 22 31 23 32
REMARK SMILES IDX 24 33 25 34 26 35 78 36 27 37 77 38 28 39 29 40 30 41 71 42
REMARK SMILES IDX 31 43 76 44 70 45 72 46 32 47 75 48 69 49 68 50 33 52 59 53
REMARK SMILES IDX 42 54 58 55 43 56 46 57 57 58 73 59 44 60 45 61 56 63 74 64
REMARK SMILES IDX 47 65 34 66 35 67 40 68 36 69 37 70 39 71 41 72 38 73 60 74
REMARK SMILES IDX 61 75 66 76 62 77 63 78 65 79 67 80 64 81 48 82 49 83 54 84
REMARK SMILES IDX 50 85 51 86 53 87 55 88 52 89
REMARK H PARENT 72 51 46 62
REMARK Flexibility Score: inf
ROOT
ATOM      1  O   UNL A   1      40.205  23.151  27.583  1.00  0.00    -0.377 OA
ENDROOT
BRANCH   1   2
ATOM      2  C   UNL A   1      39.372  23.414  26.458  1.00  0.00     0.188 C 
BRANCH   2   3
ATOM      3  C   UNL A   1      38.095  22.577  26.314  1.00  0.00     0.188 C 
BRANCH   3   4
ATOM      4  O   UNL A   1      36.968  23.318  25.865  1.00  0.00    -0.376 OA
BRANCH   4   5
ATOM      5  C   UNL A   1      35.703  22.689  25.963  1.00  0.00     0.202 C 
BRANCH   5   6
ATOM      6  C   UNL A   1      34.662  23.361  26.862  1.00  0.00     0.261 C 
BRANCH   6   7
ATOM      7  O   UNL A   1      33.292  22.930  26.906  1.00  0.00    -0.463 OA
BRANCH   7   8
ATOM      8  C   UNL A   1      32.227  23.705  26.643  1.00  0.00     0.310 C 
ATOM      9  O   UNL A   1      31.124  23.627  27.163  1.00  0.00    -0.252 OA
BRANCH   8  10
ATOM     10  C   UNL A   1      32.536  24.728  25.581  1.00  0.00     0.112 C 
ATOM     11  C   UNL A   1      30.291  25.466  23.699  1.00  0.00    -0.010 C 
ATOM     12  C   UNL A   1      30.949  24.095  23.651  1.00  0.00     0.004 C 
ATOM     13  C   UNL A   1      30.354  26.030  25.150  1.00  0.00     0.019 C 
ATOM     14  C   UNL A   1      32.383  24.117  24.176  1.00  0.00     0.017 C 
ATOM     15  C   UNL A   1      31.762  26.042  25.759  1.00  0.00     0.066 C 
BRANCH  11  16
ATOM     16  C   UNL A   1      30.708  26.462  22.576  1.00  0.00     0.003 C 
BRANCH  16  17
ATOM     17  C   UNL A   1      31.926  26.239  21.659  1.00  0.00    -0.003 C 
ATOM     18  C   UNL A   1      33.266  26.801  22.133  1.00  0.00     0.004 C 
ENDBRANCH  16  17
ENDBRANCH  11  16
BRANCH  15  19
ATOM     19  S   UNL A   1      31.846  26.874  27.450  1.00  0.00    -0.122 SA
BRANCH  19  20
ATOM     20  C   UNL A   1      32.559  28.508  27.245  1.00  0.00     0.011 A 
ATOM     21  C   UNL A   1      33.945  28.687  27.312  1.00  0.00     0.035 A 
ATOM     22  C   UNL A   1      31.783  29.601  26.871  1.00  0.00     0.035 A 
ATOM     23  C   UNL A   1      34.474  29.961  27.152  1.00  0.00     0.112 A 
ATOM     24  C   UNL A   1      32.408  30.829  26.679  1.00  0.00     0.112 A 
ATOM     25  N   UNL A   1      33.729  31.043  26.853  1.00  0.00    -0.265 NA
ENDBRANCH  19  20
ENDBRANCH  15  19
ENDBRANCH   8  10
ENDBRANCH   7   8
ENDBRANCH   6   7
ENDBRANCH   5   6
ENDBRANCH   4   5
ENDBRANCH   3   4
ENDBRANCH   2   3
ENDBRANCH   1   2
BRANCH   1  26
ATOM     26  C   UNL A   1      41.204  22.135  27.486  1.00  0.00     0.188 C 
BRANCH  26  27
ATOM     27  C   UNL A   1      41.485  21.448  26.133  1.00  0.00     0.188 C 
BRANCH  27  28
ATOM     28  O   UNL A   1      42.317  22.184  25.259  1.00  0.00    -0.376 OA
BRANCH  28  29
ATOM     29  C   UNL A   1      43.270  23.077  25.806  1.00  0.00     0.202 C 
BRANCH  29  30
ATOM     30  C   UNL A   1      43.285  24.534  25.319  1.00  0.00     0.261 C 
BRANCH  30  31
ATOM     31  O   UNL A   1      42.150  25.352  25.653  1.00  0.00    -0.460 OA
BRANCH  31  32
ATOM     32  C   UNL A   1      42.275  26.692  25.612  1.00  0.00     0.338 C 
ATOM     33  O   UNL A   1      42.255  27.411  24.625  1.00  0.00    -0.246 OA
BRANCH  32  34
ATOM     34  C   UNL A   1      42.238  27.182  27.006  1.00  0.00     0.060 A 
ATOM     35  C   UNL A   1      41.346  26.604  27.921  1.00  0.00     0.016 A 
ATOM     36  C   UNL A   1      43.085  28.218  27.404  1.00  0.00     0.016 A 
ATOM     37  C   UNL A   1      41.264  27.091  29.223  1.00  0.00     0.010 A 
ATOM     38  C   UNL A   1      42.981  28.728  28.698  1.00  0.00     0.010 A 
ATOM     39  C   UNL A   1      42.039  28.196  29.597  1.00  0.00    -0.014 A 
BRANCH  39  40
ATOM     40  C   UNL A   1      41.676  28.957  30.815  1.00  0.00     0.031 A 
ATOM     41  C   UNL A   1      40.483  29.871  30.736  1.00  0.00     0.074 A 
ATOM     42  C   UNL A   1      42.358  28.825  31.963  1.00  0.00     0.049 A 
ATOM     43  N   UNL A   1      40.003  30.695  31.631  1.00  0.00    -0.248 NA
ATOM     44  C   UNL A   1      39.733  29.853  29.469  1.00  0.00     0.031 C 
ATOM     45  C   UNL A   1      43.489  27.926  32.181  1.00  0.00     0.029 A 
ATOM     46  N   UNL A   1      42.197  29.465  33.167  1.00  0.00    -0.354 N 
ATOM     47  C   UNL A   1      38.904  31.300  31.031  1.00  0.00     0.074 A 
ATOM     48  C   UNL A   1      38.809  30.775  29.687  1.00  0.00     0.031 C 
ATOM     49  C   UNL A   1      43.931  28.081  33.441  1.00  0.00     0.029 A 
ATOM     50  C   UNL A   1      43.139  29.118  34.103  1.00  0.00     0.049 A 
ATOM     51  H   UNL A   1      41.474  30.110  33.342  1.00  0.00     0.167 HD
ATOM     52  C   UNL A   1      38.048  32.207  31.555  1.00  0.00     0.037 A 
ATOM     53  C   UNL A   1      43.348  29.605  35.342  1.00  0.00     0.037 A 
ATOM     54  C   UNL A   1      38.154  32.730  32.891  1.00  0.00     0.049 A 
ATOM     55  C   UNL A   1      42.438  30.683  35.874  1.00  0.00     0.074 A 
ATOM     56  C   UNL A   1      37.337  33.650  33.524  1.00  0.00     0.029 A 
ATOM     57  N   UNL A   1      39.146  32.384  33.796  1.00  0.00    -0.354 N 
ATOM     58  N   UNL A   1      41.397  31.245  35.306  1.00  0.00    -0.248 NA
ATOM     59  C   UNL A   1      42.732  31.194  37.221  1.00  0.00     0.031 C 
ATOM     60  C   UNL A   1      37.871  33.906  34.791  1.00  0.00     0.029 A 
ATOM     61  C   UNL A   1      38.979  33.093  34.973  1.00  0.00     0.049 A 
ATOM     62  H   UNL A   1      39.862  31.730  33.627  1.00  0.00     0.167 HD
ATOM     63  C   UNL A   1      40.891  32.146  36.238  1.00  0.00     0.074 A 
ATOM     64  C   UNL A   1      41.736  32.047  37.411  1.00  0.00     0.031 C 
ATOM     65  C   UNL A   1      39.823  32.976  36.136  1.00  0.00     0.037 A 
BRANCH  52  66
ATOM     66  C   UNL A   1      36.952  32.716  30.664  1.00  0.00     0.057 A 
ATOM     67  C   UNL A   1      37.160  33.747  29.739  1.00  0.00     0.134 A 
ATOM     68  C   UNL A   1      35.668  32.159  30.729  1.00  0.00     0.134 A 
ATOM     69  F   UNL A   1      38.361  34.338  29.638  1.00  0.00    -0.206 F 
ATOM     70  C   UNL A   1      36.126  34.227  28.933  1.00  0.00     0.040 A 
ATOM     71  C   UNL A   1      34.634  32.608  29.907  1.00  0.00     0.040 A 
ATOM     72  F   UNL A   1      35.398  31.167  31.591  1.00  0.00    -0.206 F 
ATOM     73  C   UNL A   1      34.859  33.651  29.012  1.00  0.00     0.006 A 
ENDBRANCH  52  66
BRANCH  53  74
ATOM     74  C   UNL A   1      44.474  29.092  36.165  1.00  0.00     0.057 A 
ATOM     75  C   UNL A   1      45.738  29.692  36.121  1.00  0.00     0.134 A 
ATOM     76  C   UNL A   1      44.321  27.977  36.999  1.00  0.00     0.134 A 
ATOM     77  F   UNL A   1      45.956  30.749  35.324  1.00  0.00    -0.206 F 
ATOM     78  C   UNL A   1      46.813  29.190  36.858  1.00  0.00     0.040 A 
ATOM     79  C   UNL A   1      45.380  27.483  37.762  1.00  0.00     0.040 A 
ATOM     80  F   UNL A   1      43.136  27.355  37.087  1.00  0.00    -0.206 F 
ATOM     81  C   UNL A   1      46.633  28.085  37.687  1.00  0.00     0.006 A 
ENDBRANCH  53  74
BRANCH  65  82
ATOM     82  C   UNL A   1      39.472  33.805  37.338  1.00  0.00     0.057 A 
ATOM     83  C   UNL A   1      38.665  33.317  38.373  1.00  0.00     0.134 A 
ATOM     84  C   UNL A   1      39.992  35.099  37.482  1.00  0.00     0.134 A 
ATOM     85  F   UNL A   1      38.127  32.090  38.295  1.00  0.00    -0.206 F 
ATOM     86  C   UNL A   1      38.364  34.095  39.493  1.00  0.00     0.040 A 
ATOM     87  C   UNL A   1      39.726  35.874  38.612  1.00  0.00     0.040 A 
ATOM     88  F   UNL A   1      40.784  35.625  36.535  1.00  0.00    -0.206 F 
ATOM     89  C   UNL A   1      38.903  35.375  39.618  1.00  0.00     0.006 A 
ENDBRANCH  65  82
ENDBRANCH  39  40
ENDBRANCH  32  34
ENDBRANCH  31  32
ENDBRANCH  30  31
ENDBRANCH  29  30
ENDBRANCH  28  29
ENDBRANCH  27  28
ENDBRANCH  26  27
ENDBRANCH   1  26
TORSDOF 24
ENDMDL
MODEL 2
REMARK VINA RESULT:      -8.6      1.382      6.280
REMARK SMILES CCC[C@H]1CC[C@H](C(=O)OCCOCCOCCOCCOC(=O)c2ccc(-c3c4nc(c(-c5c(F)cccc5F)c5ccc([nH]5)c(-c5c(F)cccc5F)c5nc(c(-c6c(F)cccc6F)c6ccc3[nH]6)C=C5)C=C4)cc2)[C@H](Sc2ccncc2)C1
REMARK SMILES IDX 16 1 15 2 14 3 13 4 12 5 11 6 10 7 8 8 9 9 7 10 4 11 5 12
REMARK SMILES IDX 87 13 6 14 79 15 3 16 2 17 1 18 80 19 81 20 82 21 86 22
REMARK SMILES IDX 83 23 85 24 84 25 17 26 18 27 19 28 20 29 21 30 22 31 23 32
REMARK SMILES IDX 24 33 25 34 26 35 78 36 27 37 77 38 28 39 29 40 30 41 71 42
REMARK SMILES IDX 31 43 76 44 70 45 72 46 32 47 75 48 69 49 68 50 33 52 59 53
REMARK SMILES IDX 42 54 58 55 43 56 46 57 57 58 73 59 44 60 45 61 56 63 74 64
REMARK SMILES IDX 47 65 34 66 35 67 40 68 36 69 37 70 39 71 41 72 38 73 60 74
REMARK SMILES IDX 61 75 66 76 62 77 63 78 65 79 67 80 64 81 48 82 49 83 54 84
REMARK SMILES IDX 50 85 51 86 53 87 55 88 52 89
REMARK H PARENT 72 51 46 62
REMARK Flexibility Score: inf
ROOT
ATOM      1  O   UNL A   1      38.224  22.493  25.742  1.00  0.00    -0.377 OA
ENDROOT
BRANCH   1   2
ATOM      2  C   UNL A   1      37.408  21.773  24.824  1.00  0.00     0.188 C 
BRANCH   2   3
ATOM      3  C   UNL A   1      36.225  20.983  25.398  1.00  0.00     0.188 C 
BRANCH   3   4
ATOM      4  O   UNL A   1      35.046  21.757  25.572  1.00  0.00    -0.376 OA
BRANCH   4   5
ATOM      5  C   UNL A   1      34.277  21.506  26.734  1.00  0.00     0.202 C 
BRANCH   5   6
ATOM      6  C   UNL A   1      33.527  22.695  27.341  1.00  0.00     0.261 C 
BRANCH   6   7
ATOM      7  O   UNL A   1      32.127  22.919  27.112  1.00  0.00    -0.463 OA
BRANCH   7   8
ATOM      8  C   UNL A   1      31.611  23.937  26.404  1.00  0.00     0.310 C 
ATOM      9  O   UNL A   1      30.723  24.696  26.762  1.00  0.00    -0.252 OA
BRANCH   8  10
ATOM     10  C   UNL A   1      32.260  24.055  25.049  1.00  0.00     0.112 C 
ATOM     11  C   UNL A   1      30.949  25.912  23.060  1.00  0.00    -0.010 C 
ATOM     12  C   UNL A   1      30.291  24.607  23.481  1.00  0.00     0.004 C 
ATOM     13  C   UNL A   1      31.828  26.459  24.226  1.00  0.00     0.019 C 
ATOM     14  C   UNL A   1      31.306  23.565  23.945  1.00  0.00     0.017 C 
ATOM     15  C   UNL A   1      32.845  25.448  24.772  1.00  0.00     0.066 C 
BRANCH  11  16
ATOM     16  C   UNL A   1      31.624  25.916  21.656  1.00  0.00     0.003 C 
BRANCH  16  17
ATOM     17  C   UNL A   1      32.977  25.239  21.369  1.00  0.00    -0.003 C 
ATOM     18  C   UNL A   1      33.002  24.164  20.283  1.00  0.00     0.004 C 
ENDBRANCH  16  17
ENDBRANCH  11  16
BRANCH  15  19
ATOM     19  S   UNL A   1      34.006  26.172  26.071  1.00  0.00    -0.122 SA
BRANCH  19  20
ATOM     20  C   UNL A   1      33.454  27.834  26.462  1.00  0.00     0.011 A 
ATOM     21  C   UNL A   1      32.117  28.074  26.796  1.00  0.00     0.035 A 
ATOM     22  C   UNL A   1      34.352  28.890  26.589  1.00  0.00     0.035 A 
ATOM     23  C   UNL A   1      31.713  29.368  27.094  1.00  0.00     0.112 A 
ATOM     24  C   UNL A   1      33.863  30.143  26.945  1.00  0.00     0.112 A 
ATOM     25  N   UNL A   1      32.558  30.415  27.158  1.00  0.00    -0.265 NA
ENDBRANCH  19  20
ENDBRANCH  15  19
ENDBRANCH   8  10
ENDBRANCH   7   8
ENDBRANCH   6   7
ENDBRANCH   5   6
ENDBRANCH   4   5
ENDBRANCH   3   4
ENDBRANCH   2   3
ENDBRANCH   1   2
BRANCH   1  26
ATOM     26  C   UNL A   1      39.190  21.783  26.519  1.00  0.00     0.188 C 
BRANCH  26  27
ATOM     27  C   UNL A   1      39.774  20.451  26.005  1.00  0.00     0.188 C 
BRANCH  27  28
ATOM     28  O   UNL A   1      41.165  20.474  25.754  1.00  0.00    -0.376 OA
BRANCH  28  29
ATOM     29  C   UNL A   1      42.055  20.681  26.835  1.00  0.00     0.202 C 
BRANCH  29  30
ATOM     30  C   UNL A   1      42.874  21.980  26.882  1.00  0.00     0.261 C 
BRANCH  30  31
ATOM     31  O   UNL A   1      42.404  23.083  26.086  1.00  0.00    -0.460 OA
BRANCH  31  32
ATOM     32  C   UNL A   1      43.187  24.171  25.950  1.00  0.00     0.338 C 
ATOM     33  O   UNL A   1      44.118  24.327  25.176  1.00  0.00    -0.246 OA
BRANCH  32  34
ATOM     34  C   UNL A   1      42.594  25.246  26.773  1.00  0.00     0.060 A 
ATOM     35  C   UNL A   1      43.189  26.516  26.791  1.00  0.00     0.016 A 
ATOM     36  C   UNL A   1      41.449  24.992  27.531  1.00  0.00     0.016 A 
ATOM     37  C   UNL A   1      42.671  27.523  27.602  1.00  0.00     0.010 A 
ATOM     38  C   UNL A   1      40.948  25.990  28.369  1.00  0.00     0.010 A 
ATOM     39  C   UNL A   1      41.585  27.242  28.440  1.00  0.00    -0.014 A 
BRANCH  39  40
ATOM     40  C   UNL A   1      41.289  28.152  29.571  1.00  0.00     0.031 A 
ATOM     41  C   UNL A   1      42.127  28.016  30.813  1.00  0.00     0.074 A 
ATOM     42  C   UNL A   1      40.331  29.089  29.496  1.00  0.00     0.049 A 
ATOM     43  N   UNL A   1      42.027  28.636  31.960  1.00  0.00    -0.248 NA
ATOM     44  C   UNL A   1      43.228  27.040  30.750  1.00  0.00     0.031 C 
ATOM     45  C   UNL A   1      39.498  29.360  28.326  1.00  0.00     0.029 A 
ATOM     46  N   UNL A   1      39.892  29.985  30.439  1.00  0.00    -0.354 N 
ATOM     47  C   UNL A   1      43.041  28.117  32.756  1.00  0.00     0.074 A 
ATOM     48  C   UNL A   1      43.724  27.110  31.975  1.00  0.00     0.031 C 
ATOM     49  C   UNL A   1      38.636  30.348  28.627  1.00  0.00     0.029 A 
ATOM     50  C   UNL A   1      38.833  30.749  30.019  1.00  0.00     0.049 A 
ATOM     51  H   UNL A   1      40.300  30.071  31.332  1.00  0.00     0.167 HD
ATOM     52  C   UNL A   1      43.378  28.455  34.022  1.00  0.00     0.037 A 
ATOM     53  C   UNL A   1      38.094  31.650  30.696  1.00  0.00     0.037 A 
ATOM     54  C   UNL A   1      42.689  29.453  34.796  1.00  0.00     0.049 A 
ATOM     55  C   UNL A   1      38.427  31.945  32.136  1.00  0.00     0.074 A 
ATOM     56  C   UNL A   1      42.952  29.876  36.086  1.00  0.00     0.029 A 
ATOM     57  N   UNL A   1      41.595  30.179  34.350  1.00  0.00    -0.354 N 
ATOM     58  N   UNL A   1      39.392  31.458  32.881  1.00  0.00    -0.248 NA
ATOM     59  C   UNL A   1      37.569  32.915  32.831  1.00  0.00     0.031 C 
ATOM     60  C   UNL A   1      41.977  30.813  36.443  1.00  0.00     0.029 A 
ATOM     61  C   UNL A   1      41.151  31.026  35.350  1.00  0.00     0.049 A 
ATOM     62  H   UNL A   1      41.193  30.102  33.453  1.00  0.00     0.167 HD
ATOM     63  C   UNL A   1      39.280  32.090  34.116  1.00  0.00     0.074 A 
ATOM     64  C   UNL A   1      38.158  33.001  34.015  1.00  0.00     0.031 C 
ATOM     65  C   UNL A   1      40.038  31.935  35.229  1.00  0.00     0.037 A 
BRANCH  52  66
ATOM     66  C   UNL A   1      44.516  27.707  34.656  1.00  0.00     0.057 A 
ATOM     67  C   UNL A   1      45.836  28.173  34.603  1.00  0.00     0.134 A 
ATOM     68  C   UNL A   1      44.284  26.504  35.335  1.00  0.00     0.134 A 
ATOM     69  F   UNL A   1      46.131  29.309  33.952  1.00  0.00    -0.206 F 
ATOM     70  C   UNL A   1      46.888  27.455  35.176  1.00  0.00     0.040 A 
ATOM     71  C   UNL A   1      45.322  25.793  35.939  1.00  0.00     0.040 A 
ATOM     72  F   UNL A   1      43.044  25.999  35.424  1.00  0.00    -0.206 F 
ATOM     73  C   UNL A   1      46.630  26.263  35.853  1.00  0.00     0.006 A 
ENDBRANCH  52  66
BRANCH  53  74
ATOM     74  C   UNL A   1      36.953  32.331  30.030  1.00  0.00     0.057 A 
ATOM     75  C   UNL A   1      35.676  31.758  30.011  1.00  0.00     0.134 A 
ATOM     76  C   UNL A   1      37.116  33.559  29.377  1.00  0.00     0.134 A 
ATOM     77  F   UNL A   1      35.460  30.572  30.598  1.00  0.00    -0.206 F 
ATOM     78  C   UNL A   1      34.608  32.370  29.350  1.00  0.00     0.040 A 
ATOM     79  C   UNL A   1      36.051  34.196  28.737  1.00  0.00     0.040 A 
ATOM     80  F   UNL A   1      38.314  34.162  29.357  1.00  0.00    -0.206 F 
ATOM     81  C   UNL A   1      34.794  33.597  28.716  1.00  0.00     0.006 A 
ENDBRANCH  53  74
BRANCH  65  82
ATOM     82  C   UNL A   1      39.717  32.803  36.413  1.00  0.00     0.057 A 
ATOM     83  C   UNL A   1      40.352  34.032  36.632  1.00  0.00     0.134 A 
ATOM     84  C   UNL A   1      38.720  32.422  37.322  1.00  0.00     0.134 A 
ATOM     85  F   UNL A   1      41.322  34.453  35.806  1.00  0.00    -0.206 F 
ATOM     86  C   UNL A   1      40.028  34.836  37.727  1.00  0.00     0.040 A 
ATOM     87  C   UNL A   1      38.365  33.232  38.401  1.00  0.00     0.040 A 
ATOM     88  F   UNL A   1      38.062  31.263  37.165  1.00  0.00    -0.206 F 
ATOM     89  C   UNL A   1      39.025  34.439  38.611  1.00  0.00     0.006 A 
ENDBRANCH  65  82
ENDBRANCH  39  40
ENDBRANCH  32  34
ENDBRANCH  31  32
ENDBRANCH  30  31
ENDBRANCH  29  30
ENDBRANCH  28  29
ENDBRANCH  27  28
ENDBRANCH  26  27
ENDBRANCH   1  26
TORSDOF 24
ENDMDL
MODEL 3
REMARK VINA RESULT:      -8.4      2.097      6.811
REMARK SMILES CCC[C@H]1CC[C@H](C(=O)OCCOCCOCCOCCOC(=O)c2ccc(-c3c4nc(c(-c5c(F)cccc5F)c5ccc([nH]5)c(-c5c(F)cccc5F)c5nc(c(-c6c(F)cccc6F)c6ccc3[nH]6)C=C5)C=C4)cc2)[C@H](Sc2ccncc2)C1
REMARK SMILES IDX 16 1 15 2 14 3 13 4 12 5 11 6 10 7 8 8 9 9 7 10 4 11 5 12
REMARK SMILES IDX 87 13 6 14 79 15 3 16 2 17 1 18 80 19 81 20 82 21 86 22
REMARK SMILES IDX 83 23 85 24 84 25 17 26 18 27 19 28 20 29 21 30 22 31 23 32
REMARK SMILES IDX 24 33 25 34 26 35 78 36 27 37 77 38 28 39 29 40 30 41 71 42
REMARK SMILES IDX 31 43 76 44 70 45 72 46 32 47 75 48 69 49 68 50 33 52 59 53
REMARK SMILES IDX 42 54 58 55 43 56 46 57 57 58 73 59 44 60 45 61 56 63 74 64
REMARK SMILES IDX 47 65 34 66 35 67 40 68 36 69 37 70 39 71 41 72 38 73 60 74
REMARK SMILES IDX 61 75 66 76 62 77 63 78 65 79 67 80 64 81 48 82 49 83 54 84
REMARK SMILES IDX 50 85 51 86 53 87 55 88 52 89
REMARK H PARENT 72 51 46 62
REMARK Flexibility Score: inf
ROOT
ATOM      1  O   UNL A   1      38.676  22.486  26.102  1.00  0.00    -0.377 OA
ENDROOT
BRANCH   1   2
ATOM      2  C   UNL A   1      37.914  21.885  25.060  1.00  0.00     0.188 C 
BRANCH   2   3
ATOM      3  C   UNL A   1      36.502  21.396  25.409  1.00  0.00     0.188 C 
BRANCH   3   4
ATOM      4  O   UNL A   1      35.541  21.636  24.390  1.00  0.00    -0.376 OA
BRANCH   4   5
ATOM      5  C   UNL A   1      35.684  22.826  23.638  1.00  0.00     0.202 C 
BRANCH   5   6
ATOM      6  C   UNL A   1      34.460  23.301  22.850  1.00  0.00     0.261 C 
BRANCH   6   7
ATOM      7  O   UNL A   1      34.223  24.688  22.562  1.00  0.00    -0.463 OA
BRANCH   7   8
ATOM      8  C   UNL A   1      33.037  25.309  22.668  1.00  0.00     0.310 C 
ATOM      9  O   UNL A   1      31.943  24.846  22.377  1.00  0.00    -0.252 OA
BRANCH   8  10
ATOM     10  C   UNL A   1      33.191  26.710  23.200  1.00  0.00     0.112 C 
ATOM     11  C   UNL A   1      30.665  28.146  24.027  1.00  0.00    -0.010 C 
ATOM     12  C   UNL A   1      30.966  27.846  22.567  1.00  0.00     0.004 C 
ATOM     13  C   UNL A   1      31.315  27.057  24.933  1.00  0.00     0.019 C 
ATOM     14  C   UNL A   1      32.463  27.719  22.293  1.00  0.00     0.017 C 
ATOM     15  C   UNL A   1      32.814  26.845  24.682  1.00  0.00     0.066 C 
BRANCH  11  16
ATOM     16  C   UNL A   1      30.894  29.618  24.484  1.00  0.00     0.003 C 
BRANCH  16  17
ATOM     17  C   UNL A   1      31.720  29.997  25.727  1.00  0.00    -0.003 C 
ATOM     18  C   UNL A   1      33.213  29.672  25.698  1.00  0.00     0.004 C 
ENDBRANCH  16  17
ENDBRANCH  11  16
BRANCH  15  19
ATOM     19  S   UNL A   1      33.619  25.641  25.892  1.00  0.00    -0.122 SA
BRANCH  19  20
ATOM     20  C   UNL A   1      32.666  24.120  25.898  1.00  0.00     0.011 A 
ATOM     21  C   UNL A   1      33.249  22.923  26.326  1.00  0.00     0.035 A 
ATOM     22  C   UNL A   1      31.301  24.113  25.624  1.00  0.00     0.035 A 
ATOM     23  C   UNL A   1      32.493  21.759  26.321  1.00  0.00     0.112 A 
ATOM     24  C   UNL A   1      30.612  22.907  25.696  1.00  0.00     0.112 A 
ATOM     25  N   UNL A   1      31.186  21.723  25.996  1.00  0.00    -0.265 NA
ENDBRANCH  19  20
ENDBRANCH  15  19
ENDBRANCH   8  10
ENDBRANCH   7   8
ENDBRANCH   6   7
ENDBRANCH   5   6
ENDBRANCH   4   5
ENDBRANCH   3   4
ENDBRANCH   2   3
ENDBRANCH   1   2
BRANCH   1  26
ATOM     26  C   UNL A   1      39.615  21.689  26.825  1.00  0.00     0.188 C 
BRANCH  26  27
ATOM     27  C   UNL A   1      40.090  20.337  26.254  1.00  0.00     0.188 C 
BRANCH  27  28
ATOM     28  O   UNL A   1      41.405  20.344  25.734  1.00  0.00    -0.376 OA
BRANCH  28  29
ATOM     29  C   UNL A   1      42.491  20.552  26.618  1.00  0.00     0.202 C 
BRANCH  29  30
ATOM     30  C   UNL A   1      43.134  21.946  26.688  1.00  0.00     0.261 C 
BRANCH  30  31
ATOM     31  O   UNL A   1      42.790  22.882  25.651  1.00  0.00    -0.460 OA
BRANCH  31  32
ATOM     32  C   UNL A   1      43.616  23.918  25.405  1.00  0.00     0.338 C 
ATOM     33  O   UNL A   1      44.487  23.989  24.553  1.00  0.00    -0.246 OA
BRANCH  32  34
ATOM     34  C   UNL A   1      43.149  25.057  26.224  1.00  0.00     0.060 A 
ATOM     35  C   UNL A   1      44.081  25.831  26.930  1.00  0.00     0.016 A 
ATOM     36  C   UNL A   1      41.787  25.354  26.293  1.00  0.00     0.016 A 
ATOM     37  C   UNL A   1      43.651  26.875  27.746  1.00  0.00     0.010 A 
ATOM     38  C   UNL A   1      41.352  26.378  27.135  1.00  0.00     0.010 A 
ATOM     39  C   UNL A   1      42.279  27.111  27.897  1.00  0.00    -0.014 A 
BRANCH  39  40
ATOM     40  C   UNL A   1      41.806  27.926  29.041  1.00  0.00     0.031 A 
ATOM     41  C   UNL A   1      42.562  27.814  30.337  1.00  0.00     0.074 A 
ATOM     42  C   UNL A   1      40.762  28.762  28.932  1.00  0.00     0.049 A 
ATOM     43  N   UNL A   1      42.313  28.361  31.498  1.00  0.00    -0.248 NA
ATOM     44  C   UNL A   1      43.763  26.961  30.317  1.00  0.00     0.031 C 
ATOM     45  C   UNL A   1      39.991  29.005  27.714  1.00  0.00     0.029 A 
ATOM     46  N   UNL A   1      40.163  29.559  29.876  1.00  0.00    -0.354 N 
ATOM     47  C   UNL A   1      43.317  27.910  32.347  1.00  0.00     0.074 A 
ATOM     48  C   UNL A   1      44.158  27.020  31.579  1.00  0.00     0.031 C 
ATOM     49  C   UNL A   1      39.009  29.882  27.989  1.00  0.00     0.029 A 
ATOM     50  C   UNL A   1      39.061  30.230  29.409  1.00  0.00     0.049 A 
ATOM     51  H   UNL A   1      40.493  29.640  30.801  1.00  0.00     0.167 HD
ATOM     52  C   UNL A   1      43.523  28.215  33.649  1.00  0.00     0.037 A 
ATOM     53  C   UNL A   1      38.183  31.013  30.065  1.00  0.00     0.037 A 
ATOM     54  C   UNL A   1      42.677  29.096  34.409  1.00  0.00     0.049 A 
ATOM     55  C   UNL A   1      38.377  31.267  31.538  1.00  0.00     0.074 A 
ATOM     56  C   UNL A   1      42.799  29.477  35.734  1.00  0.00     0.029 A 
ATOM     57  N   UNL A   1      41.547  29.726  33.912  1.00  0.00    -0.354 N 
ATOM     58  N   UNL A   1      39.332  30.845  32.334  1.00  0.00    -0.248 NA
ATOM     59  C   UNL A   1      37.372  32.107  32.206  1.00  0.00     0.031 C 
ATOM     60  C   UNL A   1      41.706  30.289  36.054  1.00  0.00     0.029 A 
ATOM     61  C   UNL A   1      40.943  30.471  34.910  1.00  0.00     0.049 A 
ATOM     62  H   UNL A   1      41.222  29.654  32.985  1.00  0.00     0.167 HD
ATOM     63  C   UNL A   1      39.064  31.398  33.582  1.00  0.00     0.074 A 
ATOM     64  C   UNL A   1      37.862  32.192  33.434  1.00  0.00     0.031 C 
ATOM     65  C   UNL A   1      39.752  31.265  34.743  1.00  0.00     0.037 A 
BRANCH  52  66
ATOM     66  C   UNL A   1      44.685  27.557  34.336  1.00  0.00     0.057 A 
ATOM     67  C   UNL A   1      45.955  28.147  34.383  1.00  0.00     0.134 A 
ATOM     68  C   UNL A   1      44.528  26.315  34.965  1.00  0.00     0.134 A 
ATOM     69  F   UNL A   1      46.180  29.327  33.784  1.00  0.00    -0.206 F 
ATOM     70  C   UNL A   1      47.033  27.513  35.005  1.00  0.00     0.040 A 
ATOM     71  C   UNL A   1      45.589  25.686  35.617  1.00  0.00     0.040 A 
ATOM     72  F   UNL A   1      43.339  25.694  34.959  1.00  0.00    -0.206 F 
ATOM     73  C   UNL A   1      46.848  26.280  35.630  1.00  0.00     0.006 A 
ENDBRANCH  52  66
BRANCH  53  74
ATOM     74  C   UNL A   1      37.027  31.606  29.343  1.00  0.00     0.057 A 
ATOM     75  C   UNL A   1      35.857  30.872  29.116  1.00  0.00     0.134 A 
ATOM     76  C   UNL A   1      37.072  32.913  28.841  1.00  0.00     0.134 A 
ATOM     77  F   UNL A   1      35.761  29.606  29.551  1.00  0.00    -0.206 F 
ATOM     78  C   UNL A   1      34.783  31.406  28.401  1.00  0.00     0.040 A 
ATOM     79  C   UNL A   1      35.995  33.469  28.149  1.00  0.00     0.040 A 
ATOM     80  F   UNL A   1      38.163  33.671  29.023  1.00  0.00    -0.206 F 
ATOM     81  C   UNL A   1      34.848  32.712  27.920  1.00  0.00     0.006 A 
ENDBRANCH  53  74
BRANCH  65  82
ATOM     82  C   UNL A   1      39.255  32.034  35.935  1.00  0.00     0.057 A 
ATOM     83  C   UNL A   1      39.732  33.311  36.251  1.00  0.00     0.134 A 
ATOM     84  C   UNL A   1      38.247  31.502  36.751  1.00  0.00     0.134 A 
ATOM     85  F   UNL A   1      40.703  33.876  35.518  1.00  0.00    -0.206 F 
ATOM     86  C   UNL A   1      39.245  34.020  37.352  1.00  0.00     0.040 A 
ATOM     87  C   UNL A   1      37.729  32.214  37.834  1.00  0.00     0.040 A 
ATOM     88  F   UNL A   1      37.735  30.288  36.498  1.00  0.00    -0.206 F 
ATOM     89  C   UNL A   1      38.234  33.474  38.142  1.00  0.00     0.006 A 
ENDBRANCH  65  82
ENDBRANCH  39  40
ENDBRANCH  32  34
ENDBRANCH  31  32
ENDBRANCH  30  31
ENDBRANCH  29  30
ENDBRANCH  28  29
ENDBRANCH  27  28
ENDBRANCH  26  27
ENDBRANCH   1  26
TORSDOF 24
ENDMDL
