MODEL 1
REMARK VINA RESULT:     -10.4      0.000      0.000
REMARK SMILES CCn1c(CC2CC[NH+](Cc3cn[nH]c3C(=O)OCCOCCOCCOCCOC(=O)c3ccc(-c4c5nc(c(-c6c(F)cccc6F)c6ccc([nH]6)c(-c6c(F)cccc6F)c6nc(c(-c7c(F)cccc7F)c7ccc4[nH]7)C=C6)C=C5)cc3)CC2)nn(C)c1=O
REMARK SMILES IDX 22 1 21 2 20 3 19 4 18 5 16 6 17 7 15 8 11 9 12 10 13 11
REMARK SMILES IDX 14 12 10 14 9 15 6 16 7 17 88 18 8 19 87 20 5 22 4 23 3 24
REMARK SMILES IDX 92 25 89 26 90 27 93 28 91 29 2 30 1 31 23 32 24 33 25 34
REMARK SMILES IDX 26 35 27 36 28 37 29 38 30 39 31 40 32 41 33 42 34 43 86 44
REMARK SMILES IDX 35 45 85 46 36 47 37 48 38 49 79 50 39 51 84 52 78 53 80 54
REMARK SMILES IDX 40 55 83 56 77 57 76 58 41 60 67 61 50 62 66 63 51 64 54 65
REMARK SMILES IDX 65 66 81 67 52 68 53 69 64 71 82 72 55 73 42 74 43 75 48 76
REMARK SMILES IDX 44 77 45 78 47 79 49 80 46 81 68 82 69 83 74 84 70 85 71 86
REMARK SMILES IDX 73 87 75 88 72 89 56 90 57 91 62 92 58 93 59 94 61 95 63 96
REMARK SMILES IDX 60 97
REMARK H PARENT 14 13 9 21 80 59 54 70
REMARK Flexibility Score: inf
ROOT
ATOM      1  C   UNL A   1      35.585  21.923  24.864  1.00  0.00     0.188 C 
ENDROOT
BRANCH   1   2
ATOM      2  O   UNL A   1      35.314  23.303  25.060  1.00  0.00    -0.376 OA
BRANCH   2   3
ATOM      3  C   UNL A   1      34.383  23.796  26.006  1.00  0.00     0.202 C 
BRANCH   3   4
ATOM      4  C   UNL A   1      33.204  22.976  26.562  1.00  0.00     0.261 C 
BRANCH   4   5
ATOM      5  O   UNL A   1      32.005  22.941  25.781  1.00  0.00    -0.459 OA
BRANCH   5   6
ATOM      6  C   UNL A   1      31.002  23.663  26.334  1.00  0.00     0.356 C 
ATOM      7  O   UNL A   1      30.412  23.361  27.356  1.00  0.00    -0.244 OA
BRANCH   6   8
ATOM      8  C   UNL A   1      30.800  24.923  25.668  1.00  0.00     0.152 A 
ATOM      9  C   UNL A   1      31.065  26.280  25.873  1.00  0.00     0.059 A 
ATOM     10  C   UNL A   1      30.770  26.827  24.596  1.00  0.00     0.145 A 
ATOM     11  N   UNL A   1      30.184  25.976  23.759  1.00  0.00    -0.183 NA
ATOM     12  N   UNL A   1      30.151  24.850  24.460  1.00  0.00    -0.271 N 
ATOM     13  H   UNL A   1      29.700  24.034  24.142  1.00  0.00     0.190 HD
BRANCH   9  14
ATOM     14  C   UNL A   1      31.704  27.021  27.026  1.00  0.00     0.303 C 
BRANCH  14  15
ATOM     15  N   UNL A   1      32.398  28.300  26.699  1.00  0.00    -0.331 N 
ATOM     16  C   UNL A   1      33.985  30.795  27.078  1.00  0.00     0.008 C 
ATOM     17  C   UNL A   1      32.472  30.816  26.837  1.00  0.00     0.065 C 
ATOM     18  C   UNL A   1      34.567  29.518  26.475  1.00  0.00     0.065 C 
ATOM     19  C   UNL A   1      31.767  29.512  27.221  1.00  0.00     0.262 C 
ATOM     20  C   UNL A   1      33.838  28.248  26.913  1.00  0.00     0.262 C 
ATOM     21  H   UNL A   1      32.269  28.389  25.691  1.00  0.00     0.348 HD
BRANCH  16  22
ATOM     22  C   UNL A   1      34.474  31.135  28.506  1.00  0.00     0.081 C 
BRANCH  22  23
ATOM     23  C   UNL A   1      34.289  32.510  29.114  1.00  0.00     0.133 A 
ATOM     24  N   UNL A   1      34.616  32.865  30.375  1.00  0.00    -0.279 N 
ATOM     25  C   UNL A   1      34.324  34.217  30.466  1.00  0.00     0.345 A 
ATOM     26  N   UNL A   1      33.870  33.498  28.369  1.00  0.00    -0.155 NA
ATOM     27  N   UNL A   1      33.885  34.585  29.202  1.00  0.00    -0.216 N 
ATOM     28  O   UNL A   1      34.447  34.926  31.453  1.00  0.00    -0.246 OA
ATOM     29  C   UNL A   1      33.489  35.907  28.793  1.00  0.00     0.179 C 
BRANCH  24  30
ATOM     30  C   UNL A   1      35.107  32.180  31.562  1.00  0.00     0.125 C 
ATOM     31  C   UNL A   1      36.453  31.491  31.478  1.00  0.00     0.028 C 
ENDBRANCH  24  30
ENDBRANCH  22  23
ENDBRANCH  16  22
ENDBRANCH  14  15
ENDBRANCH   9  14
ENDBRANCH   6   8
ENDBRANCH   5   6
ENDBRANCH   4   5
ENDBRANCH   3   4
ENDBRANCH   2   3
ENDBRANCH   1   2
BRANCH   1  32
ATOM     32  C   UNL A   1      36.733  21.191  25.578  1.00  0.00     0.188 C 
BRANCH  32  33
ATOM     33  O   UNL A   1      37.872  21.988  25.838  1.00  0.00    -0.377 OA
BRANCH  33  34
ATOM     34  C   UNL A   1      39.133  21.331  25.853  1.00  0.00     0.188 C 
BRANCH  34  35
ATOM     35  C   UNL A   1      40.123  21.631  27.010  1.00  0.00     0.188 C 
BRANCH  35  36
ATOM     36  O   UNL A   1      40.741  20.472  27.553  1.00  0.00    -0.376 OA
BRANCH  36  37
ATOM     37  C   UNL A   1      41.820  19.830  26.898  1.00  0.00     0.202 C 
BRANCH  37  38
ATOM     38  C   UNL A   1      42.681  20.665  25.956  1.00  0.00     0.261 C 
BRANCH  38  39
ATOM     39  O   UNL A   1      43.951  20.105  25.703  1.00  0.00    -0.460 OA
BRANCH  39  40
ATOM     40  C   UNL A   1      44.404  20.315  24.452  1.00  0.00     0.338 C 
ATOM     41  O   UNL A   1      44.358  19.548  23.510  1.00  0.00    -0.246 OA
BRANCH  40  42
ATOM     42  C   UNL A   1      45.071  21.622  24.434  1.00  0.00     0.060 A 
ATOM     43  C   UNL A   1      46.091  21.769  25.370  1.00  0.00     0.016 A 
ATOM     44  C   UNL A   1      44.315  22.696  23.946  1.00  0.00     0.016 A 
ATOM     45  C   UNL A   1      46.076  22.915  26.117  1.00  0.00     0.010 A 
ATOM     46  C   UNL A   1      44.271  23.818  24.714  1.00  0.00     0.010 A 
ATOM     47  C   UNL A   1      45.069  23.846  25.854  1.00  0.00    -0.014 A 
BRANCH  47  48
ATOM     48  C   UNL A   1      44.887  24.934  26.777  1.00  0.00     0.031 A 
ATOM     49  C   UNL A   1      46.042  25.851  26.745  1.00  0.00     0.074 A 
ATOM     50  C   UNL A   1      43.723  25.084  27.433  1.00  0.00     0.049 A 
ATOM     51  N   UNL A   1      46.893  26.082  27.687  1.00  0.00    -0.248 NA
ATOM     52  C   UNL A   1      46.433  26.394  25.430  1.00  0.00     0.031 C 
ATOM     53  C   UNL A   1      42.482  24.313  27.283  1.00  0.00     0.029 A 
ATOM     54  N   UNL A   1      43.370  26.056  28.312  1.00  0.00    -0.354 N 
ATOM     55  C   UNL A   1      47.783  26.997  27.139  1.00  0.00     0.074 A 
ATOM     56  C   UNL A   1      47.608  26.949  25.715  1.00  0.00     0.031 C 
ATOM     57  C   UNL A   1      41.463  24.988  27.862  1.00  0.00     0.029 A 
ATOM     58  C   UNL A   1      41.999  26.164  28.521  1.00  0.00     0.049 A 
ATOM     59  H   UNL A   1      44.028  26.636  28.762  1.00  0.00     0.167 HD
ATOM     60  C   UNL A   1      48.335  27.966  27.912  1.00  0.00     0.037 A 
ATOM     61  C   UNL A   1      41.389  27.227  29.103  1.00  0.00     0.037 A 
ATOM     62  C   UNL A   1      48.299  27.603  29.306  1.00  0.00     0.049 A 
ATOM     63  C   UNL A   1      42.440  27.968  29.856  1.00  0.00     0.074 A 
ATOM     64  C   UNL A   1      48.827  26.563  30.046  1.00  0.00     0.029 A 
ATOM     65  N   UNL A   1      47.306  28.152  30.079  1.00  0.00    -0.354 N 
ATOM     66  N   UNL A   1      43.054  27.481  30.901  1.00  0.00    -0.248 NA
ATOM     67  C   UNL A   1      43.158  29.017  29.145  1.00  0.00     0.031 C 
ATOM     68  C   UNL A   1      47.829  26.252  31.014  1.00  0.00     0.029 A 
ATOM     69  C   UNL A   1      46.775  27.154  30.856  1.00  0.00     0.049 A 
ATOM     70  H   UNL A   1      47.023  29.095  30.076  1.00  0.00     0.167 HD
ATOM     71  C   UNL A   1      44.382  27.854  30.743  1.00  0.00     0.074 A 
ATOM     72  C   UNL A   1      44.374  28.850  29.673  1.00  0.00     0.031 C 
ATOM     73  C   UNL A   1      45.394  27.110  31.281  1.00  0.00     0.037 A 
BRANCH  60  74
ATOM     74  C   UNL A   1      48.492  29.388  27.435  1.00  0.00     0.057 A 
ATOM     75  C   UNL A   1      49.752  29.994  27.532  1.00  0.00     0.134 A 
ATOM     76  C   UNL A   1      47.422  30.267  27.155  1.00  0.00     0.134 A 
ATOM     77  F   UNL A   1      50.844  29.268  27.815  1.00  0.00    -0.206 F 
ATOM     78  C   UNL A   1      49.923  31.380  27.427  1.00  0.00     0.040 A 
ATOM     79  C   UNL A   1      47.590  31.642  26.991  1.00  0.00     0.040 A 
ATOM     80  F   UNL A   1      46.144  29.875  27.124  1.00  0.00    -0.206 F 
ATOM     81  C   UNL A   1      48.840  32.208  27.160  1.00  0.00     0.006 A 
ENDBRANCH  60  74
BRANCH  61  82
ATOM     82  C   UNL A   1      40.091  27.841  28.734  1.00  0.00     0.057 A 
ATOM     83  C   UNL A   1      39.028  27.900  29.647  1.00  0.00     0.134 A 
ATOM     84  C   UNL A   1      39.945  28.621  27.572  1.00  0.00     0.134 A 
ATOM     85  F   UNL A   1      39.093  27.231  30.808  1.00  0.00    -0.206 F 
ATOM     86  C   UNL A   1      37.896  28.696  29.424  1.00  0.00     0.040 A 
ATOM     87  C   UNL A   1      38.818  29.414  27.334  1.00  0.00     0.040 A 
ATOM     88  F   UNL A   1      40.930  28.711  26.667  1.00  0.00    -0.206 F 
ATOM     89  C   UNL A   1      37.792  29.464  28.268  1.00  0.00     0.006 A 
ENDBRANCH  61  82
BRANCH  73  90
ATOM     90  C   UNL A   1      45.016  25.994  32.220  1.00  0.00     0.057 A 
ATOM     91  C   UNL A   1      44.700  26.186  33.574  1.00  0.00     0.134 A 
ATOM     92  C   UNL A   1      44.795  24.718  31.697  1.00  0.00     0.134 A 
ATOM     93  F   UNL A   1      44.787  27.396  34.139  1.00  0.00    -0.206 F 
ATOM     94  C   UNL A   1      44.217  25.148  34.377  1.00  0.00     0.040 A 
ATOM     95  C   UNL A   1      44.283  23.679  32.478  1.00  0.00     0.040 A 
ATOM     96  F   UNL A   1      45.018  24.475  30.396  1.00  0.00    -0.206 F 
ATOM     97  C   UNL A   1      43.998  23.889  33.825  1.00  0.00     0.006 A 
ENDBRANCH  73  90
ENDBRANCH  47  48
ENDBRANCH  40  42
ENDBRANCH  39  40
ENDBRANCH  38  39
ENDBRANCH  37  38
ENDBRANCH  36  37
ENDBRANCH  35  36
ENDBRANCH  34  35
ENDBRANCH  33  34
ENDBRANCH  32  33
ENDBRANCH   1  32
TORSDOF 25
ENDMDL
MODEL 2
REMARK VINA RESULT:      -9.5      2.820      8.536
REMARK SMILES CCn1c(CC2CC[NH+](Cc3cn[nH]c3C(=O)OCCOCCOCCOCCOC(=O)c3ccc(-c4c5nc(c(-c6c(F)cccc6F)c6ccc([nH]6)c(-c6c(F)cccc6F)c6nc(c(-c7c(F)cccc7F)c7ccc4[nH]7)C=C6)C=C5)cc3)CC2)nn(C)c1=O
REMARK SMILES IDX 22 1 21 2 20 3 19 4 18 5 16 6 17 7 15 8 11 9 12 10 13 11
REMARK SMILES IDX 14 12 10 14 9 15 6 16 7 17 88 18 8 19 87 20 5 22 4 23 3 24
REMARK SMILES IDX 92 25 89 26 90 27 93 28 91 29 2 30 1 31 23 32 24 33 25 34
REMARK SMILES IDX 26 35 27 36 28 37 29 38 30 39 31 40 32 41 33 42 34 43 86 44
REMARK SMILES IDX 35 45 85 46 36 47 37 48 38 49 79 50 39 51 84 52 78 53 80 54
REMARK SMILES IDX 40 55 83 56 77 57 76 58 41 60 67 61 50 62 66 63 51 64 54 65
REMARK SMILES IDX 65 66 81 67 52 68 53 69 64 71 82 72 55 73 42 74 43 75 48 76
REMARK SMILES IDX 44 77 45 78 47 79 49 80 46 81 68 82 69 83 74 84 70 85 71 86
REMARK SMILES IDX 73 87 75 88 72 89 56 90 57 91 62 92 58 93 59 94 61 95 63 96
REMARK SMILES IDX 60 97
REMARK H PARENT 14 13 9 21 80 59 54 70
REMARK Flexibility Score: inf
ROOT
ATOM      1  C   UNL A   1      33.511  29.429  26.077  1.00  0.00     0.188 C 
ENDROOT
BRANCH   1   2
ATOM      2  O   UNL A   1      33.046  28.309  25.338  1.00  0.00    -0.376 OA
BRANCH   2   3
ATOM      3  C   UNL A   1      33.816  27.144  25.106  1.00  0.00     0.202 C 
BRANCH   3   4
ATOM      4  C   UNL A   1      34.151  26.596  23.706  1.00  0.00     0.261 C 
BRANCH   4   5
ATOM      5  O   UNL A   1      33.283  25.592  23.172  1.00  0.00    -0.459 OA
BRANCH   5   6
ATOM      6  C   UNL A   1      32.564  26.034  22.113  1.00  0.00     0.356 C 
ATOM      7  O   UNL A   1      32.656  25.594  20.980  1.00  0.00    -0.244 OA
BRANCH   6   8
ATOM      8  C   UNL A   1      31.553  26.985  22.493  1.00  0.00     0.152 A 
ATOM      9  C   UNL A   1      30.290  27.002  23.093  1.00  0.00     0.059 A 
ATOM     10  C   UNL A   1      30.106  28.388  23.337  1.00  0.00     0.145 A 
ATOM     11  N   UNL A   1      31.020  29.169  22.771  1.00  0.00    -0.183 NA
ATOM     12  N   UNL A   1      31.845  28.296  22.207  1.00  0.00    -0.271 N 
ATOM     13  H   UNL A   1      32.599  28.564  21.633  1.00  0.00     0.190 HD
BRANCH   9  14
ATOM     14  C   UNL A   1      29.393  25.890  23.588  1.00  0.00     0.303 C 
BRANCH  14  15
ATOM     15  N   UNL A   1      29.956  24.991  24.636  1.00  0.00    -0.331 N 
ATOM     16  C   UNL A   1      31.969  23.554  26.300  1.00  0.00     0.008 C 
ATOM     17  C   UNL A   1      31.125  22.840  25.240  1.00  0.00     0.065 C 
ATOM     18  C   UNL A   1      31.219  24.794  26.782  1.00  0.00     0.065 C 
ATOM     19  C   UNL A   1      30.593  23.769  24.145  1.00  0.00     0.262 C 
ATOM     20  C   UNL A   1      30.735  25.695  25.647  1.00  0.00     0.262 C 
ATOM     21  H   UNL A   1      29.127  24.641  25.117  1.00  0.00     0.348 HD
BRANCH  16  22
ATOM     22  C   UNL A   1      33.466  23.771  25.978  1.00  0.00     0.081 C 
BRANCH  22  23
ATOM     23  C   UNL A   1      34.360  22.642  25.503  1.00  0.00     0.133 A 
ATOM     24  N   UNL A   1      35.678  22.743  25.229  1.00  0.00    -0.279 N 
ATOM     25  C   UNL A   1      36.082  21.461  24.888  1.00  0.00     0.345 A 
ATOM     26  N   UNL A   1      33.885  21.428  25.428  1.00  0.00    -0.155 NA
ATOM     27  N   UNL A   1      34.956  20.666  25.043  1.00  0.00    -0.216 N 
ATOM     28  O   UNL A   1      37.202  21.117  24.542  1.00  0.00    -0.246 OA
ATOM     29  C   UNL A   1      34.886  19.244  24.830  1.00  0.00     0.179 C 
BRANCH  24  30
ATOM     30  C   UNL A   1      36.655  23.819  25.164  1.00  0.00     0.125 C 
ATOM     31  C   UNL A   1      37.721  23.875  26.238  1.00  0.00     0.028 C 
ENDBRANCH  24  30
ENDBRANCH  22  23
ENDBRANCH  16  22
ENDBRANCH  14  15
ENDBRANCH   9  14
ENDBRANCH   6   8
ENDBRANCH   5   6
ENDBRANCH   4   5
ENDBRANCH   3   4
ENDBRANCH   2   3
ENDBRANCH   1   2
BRANCH   1  32
ATOM     32  C   UNL A   1      32.561  30.435  26.747  1.00  0.00     0.188 C 
BRANCH  32  33
ATOM     33  O   UNL A   1      33.133  31.174  27.807  1.00  0.00    -0.377 OA
BRANCH  33  34
ATOM     34  C   UNL A   1      34.383  31.805  27.557  1.00  0.00     0.188 C 
BRANCH  34  35
ATOM     35  C   UNL A   1      34.637  33.224  28.133  1.00  0.00     0.188 C 
BRANCH  35  36
ATOM     36  O   UNL A   1      35.661  33.269  29.118  1.00  0.00    -0.376 OA
BRANCH  36  37
ATOM     37  C   UNL A   1      35.465  32.745  30.419  1.00  0.00     0.202 C 
BRANCH  37  38
ATOM     38  C   UNL A   1      36.418  31.655  30.898  1.00  0.00     0.261 C 
BRANCH  38  39
ATOM     39  O   UNL A   1      36.908  30.834  29.860  1.00  0.00    -0.460 OA
BRANCH  39  40
ATOM     40  C   UNL A   1      38.252  30.799  29.775  1.00  0.00     0.338 C 
ATOM     41  O   UNL A   1      39.044  31.563  30.290  1.00  0.00    -0.246 OA
BRANCH  40  42
ATOM     42  C   UNL A   1      38.611  29.716  28.853  1.00  0.00     0.060 A 
ATOM     43  C   UNL A   1      38.393  28.433  29.348  1.00  0.00     0.016 A 
ATOM     44  C   UNL A   1      39.590  30.015  27.897  1.00  0.00     0.016 A 
ATOM     45  C   UNL A   1      39.416  27.537  29.199  1.00  0.00     0.010 A 
ATOM     46  C   UNL A   1      40.627  29.141  27.783  1.00  0.00     0.010 A 
ATOM     47  C   UNL A   1      40.566  27.974  28.537  1.00  0.00    -0.014 A 
BRANCH  47  48
ATOM     48  C   UNL A   1      41.736  27.138  28.581  1.00  0.00     0.031 A 
ATOM     49  C   UNL A   1      42.513  27.381  29.811  1.00  0.00     0.074 A 
ATOM     50  C   UNL A   1      41.934  26.193  27.646  1.00  0.00     0.049 A 
ATOM     51  N   UNL A   1      43.695  27.886  29.912  1.00  0.00    -0.248 NA
ATOM     52  C   UNL A   1      41.792  27.270  31.094  1.00  0.00     0.031 C 
ATOM     53  C   UNL A   1      41.038  25.782  26.556  1.00  0.00     0.029 A 
ATOM     54  N   UNL A   1      42.957  25.306  27.546  1.00  0.00    -0.354 N 
ATOM     55  C   UNL A   1      43.948  27.918  31.278  1.00  0.00     0.074 A 
ATOM     56  C   UNL A   1      42.683  27.779  31.940  1.00  0.00     0.031 C 
ATOM     57  C   UNL A   1      41.449  24.591  26.064  1.00  0.00     0.029 A 
ATOM     58  C   UNL A   1      42.692  24.222  26.716  1.00  0.00     0.049 A 
ATOM     59  H   UNL A   1      43.812  25.420  28.022  1.00  0.00     0.167 HD
ATOM     60  C   UNL A   1      45.202  27.702  31.750  1.00  0.00     0.037 A 
ATOM     61  C   UNL A   1      43.416  23.074  26.690  1.00  0.00     0.037 A 
ATOM     62  C   UNL A   1      46.192  27.960  30.734  1.00  0.00     0.049 A 
ATOM     63  C   UNL A   1      44.731  23.382  27.319  1.00  0.00     0.074 A 
ATOM     64  C   UNL A   1      46.546  29.070  29.992  1.00  0.00     0.029 A 
ATOM     65  N   UNL A   1      46.718  26.878  30.073  1.00  0.00    -0.354 N 
ATOM     66  N   UNL A   1      45.607  24.194  26.791  1.00  0.00    -0.248 NA
ATOM     67  C   UNL A   1      44.845  23.192  28.758  1.00  0.00     0.031 C 
ATOM     68  C   UNL A   1      46.864  28.565  28.698  1.00  0.00     0.029 A 
ATOM     69  C   UNL A   1      46.747  27.175  28.733  1.00  0.00     0.049 A 
ATOM     70  H   UNL A   1      47.020  26.037  30.486  1.00  0.00     0.167 HD
ATOM     71  C   UNL A   1      46.107  24.926  27.861  1.00  0.00     0.074 A 
ATOM     72  C   UNL A   1      45.642  24.222  29.055  1.00  0.00     0.031 C 
ATOM     73  C   UNL A   1      46.593  26.191  27.685  1.00  0.00     0.037 A 
BRANCH  60  74
ATOM     74  C   UNL A   1      45.472  26.855  32.966  1.00  0.00     0.057 A 
ATOM     75  C   UNL A   1      45.016  25.529  32.978  1.00  0.00     0.134 A 
ATOM     76  C   UNL A   1      45.901  27.353  34.218  1.00  0.00     0.134 A 
ATOM     77  F   UNL A   1      44.564  24.949  31.856  1.00  0.00    -0.206 F 
ATOM     78  C   UNL A   1      44.928  24.781  34.157  1.00  0.00     0.040 A 
ATOM     79  C   UNL A   1      45.871  26.596  35.388  1.00  0.00     0.040 A 
ATOM     80  F   UNL A   1      46.274  28.623  34.408  1.00  0.00    -0.206 F 
ATOM     81  C   UNL A   1      45.351  25.316  35.368  1.00  0.00     0.006 A 
ENDBRANCH  60  74
BRANCH  61  82
ATOM     82  C   UNL A   1      42.912  21.689  26.529  1.00  0.00     0.057 A 
ATOM     83  C   UNL A   1      43.510  20.798  25.626  1.00  0.00     0.134 A 
ATOM     84  C   UNL A   1      42.008  21.119  27.444  1.00  0.00     0.134 A 
ATOM     85  F   UNL A   1      44.424  21.236  24.746  1.00  0.00    -0.206 F 
ATOM     86  C   UNL A   1      43.235  19.423  25.640  1.00  0.00     0.040 A 
ATOM     87  C   UNL A   1      41.719  19.751  27.465  1.00  0.00     0.040 A 
ATOM     88  F   UNL A   1      41.440  21.856  28.409  1.00  0.00    -0.206 F 
ATOM     89  C   UNL A   1      42.342  18.894  26.568  1.00  0.00     0.006 A 
ENDBRANCH  61  82
BRANCH  73  90
ATOM     90  C   UNL A   1      46.760  26.685  26.272  1.00  0.00     0.057 A 
ATOM     91  C   UNL A   1      45.808  27.469  25.601  1.00  0.00     0.134 A 
ATOM     92  C   UNL A   1      47.992  26.512  25.638  1.00  0.00     0.134 A 
ATOM     93  F   UNL A   1      44.635  27.771  26.171  1.00  0.00    -0.206 F 
ATOM     94  C   UNL A   1      46.060  28.027  24.344  1.00  0.00     0.040 A 
ATOM     95  C   UNL A   1      48.271  27.089  24.396  1.00  0.00     0.040 A 
ATOM     96  F   UNL A   1      48.972  25.824  26.245  1.00  0.00    -0.206 F 
ATOM     97  C   UNL A   1      47.301  27.844  23.741  1.00  0.00     0.006 A 
ENDBRANCH  73  90
ENDBRANCH  47  48
ENDBRANCH  40  42
ENDBRANCH  39  40
ENDBRANCH  38  39
ENDBRANCH  37  38
ENDBRANCH  36  37
ENDBRANCH  35  36
ENDBRANCH  34  35
ENDBRANCH  33  34
ENDBRANCH  32  33
ENDBRANCH   1  32
TORSDOF 25
ENDMDL
MODEL 3
REMARK VINA RESULT:      -9.3      2.871      8.581
REMARK SMILES CCn1c(CC2CC[NH+](Cc3cn[nH]c3C(=O)OCCOCCOCCOCCOC(=O)c3ccc(-c4c5nc(c(-c6c(F)cccc6F)c6ccc([nH]6)c(-c6c(F)cccc6F)c6nc(c(-c7c(F)cccc7F)c7ccc4[nH]7)C=C6)C=C5)cc3)CC2)nn(C)c1=O
REMARK SMILES IDX 22 1 21 2 20 3 19 4 18 5 16 6 17 7 15 8 11 9 12 10 13 11
REMARK SMILES IDX 14 12 10 14 9 15 6 16 7 17 88 18 8 19 87 20 5 22 4 23 3 24
REMARK SMILES IDX 92 25 89 26 90 27 93 28 91 29 2 30 1 31 23 32 24 33 25 34
REMARK SMILES IDX 26 35 27 36 28 37 29 38 30 39 31 40 32 41 33 42 34 43 86 44
REMARK SMILES IDX 35 45 85 46 36 47 37 48 38 49 79 50 39 51 84 52 78 53 80 54
REMARK SMILES IDX 40 55 83 56 77 57 76 58 41 60 67 61 50 62 66 63 51 64 54 65
REMARK SMILES IDX 65 66 81 67 52 68 53 69 64 71 82 72 55 73 42 74 43 75 48 76
REMARK SMILES IDX 44 77 45 78 47 79 49 80 46 81 68 82 69 83 74 84 70 85 71 86
REMARK SMILES IDX 73 87 75 88 72 89 56 90 57 91 62 92 58 93 59 94 61 95 63 96
REMARK SMILES IDX 60 97
REMARK H PARENT 14 13 9 21 80 59 54 70
REMARK Flexibility Score: inf
ROOT
ATOM      1  C   UNL A   1      33.707  30.687  26.902  1.00  0.00     0.188 C 
ENDROOT
BRANCH   1   2
ATOM      2  O   UNL A   1      32.708  29.704  27.131  1.00  0.00    -0.376 OA
BRANCH   2   3
ATOM      3  C   UNL A   1      32.990  28.342  27.392  1.00  0.00     0.202 C 
BRANCH   3   4
ATOM      4  C   UNL A   1      33.167  27.274  26.298  1.00  0.00     0.261 C 
BRANCH   4   5
ATOM      5  O   UNL A   1      33.928  27.641  25.142  1.00  0.00    -0.459 OA
BRANCH   5   6
ATOM      6  C   UNL A   1      33.303  27.323  23.984  1.00  0.00     0.356 C 
ATOM      7  O   UNL A   1      33.686  26.472  23.201  1.00  0.00    -0.244 OA
BRANCH   6   8
ATOM      8  C   UNL A   1      32.037  27.991  23.840  1.00  0.00     0.152 A 
ATOM      9  C   UNL A   1      30.716  27.690  23.492  1.00  0.00     0.059 A 
ATOM     10  C   UNL A   1      30.041  28.881  23.867  1.00  0.00     0.145 A 
ATOM     11  N   UNL A   1      30.847  29.885  24.198  1.00  0.00    -0.183 NA
ATOM     12  N   UNL A   1      32.052  29.338  24.104  1.00  0.00    -0.271 N 
ATOM     13  H   UNL A   1      32.884  29.853  24.215  1.00  0.00     0.190 HD
BRANCH   9  14
ATOM     14  C   UNL A   1      30.059  26.404  23.046  1.00  0.00     0.303 C 
BRANCH  14  15
ATOM     15  N   UNL A   1      30.128  25.252  23.990  1.00  0.00    -0.331 N 
ATOM     16  C   UNL A   1      31.167  23.439  26.116  1.00  0.00     0.008 C 
ATOM     17  C   UNL A   1      31.162  23.045  24.636  1.00  0.00     0.065 C 
ATOM     18  C   UNL A   1      30.066  24.468  26.361  1.00  0.00     0.065 C 
ATOM     19  C   UNL A   1      31.138  24.240  23.679  1.00  0.00     0.262 C 
ATOM     20  C   UNL A   1      30.107  25.649  25.392  1.00  0.00     0.262 C 
ATOM     21  H   UNL A   1      29.250  24.759  23.827  1.00  0.00     0.348 HD
BRANCH  16  22
ATOM     22  C   UNL A   1      32.538  23.773  26.750  1.00  0.00     0.081 C 
BRANCH  22  23
ATOM     23  C   UNL A   1      33.832  23.182  26.228  1.00  0.00     0.133 A 
ATOM     24  N   UNL A   1      34.096  21.866  26.085  1.00  0.00    -0.279 N 
ATOM     25  C   UNL A   1      35.364  21.802  25.528  1.00  0.00     0.345 A 
ATOM     26  N   UNL A   1      34.769  23.972  25.775  1.00  0.00    -0.155 NA
ATOM     27  N   UNL A   1      35.745  23.121  25.327  1.00  0.00    -0.216 N 
ATOM     28  O   UNL A   1      35.994  20.790  25.261  1.00  0.00    -0.246 OA
ATOM     29  C   UNL A   1      36.982  23.567  24.743  1.00  0.00     0.179 C 
BRANCH  24  30
ATOM     30  C   UNL A   1      33.420  20.620  26.414  1.00  0.00     0.125 C 
ATOM     31  C   UNL A   1      32.801  19.828  25.282  1.00  0.00     0.028 C 
ENDBRANCH  24  30
ENDBRANCH  22  23
ENDBRANCH  16  22
ENDBRANCH  14  15
ENDBRANCH   9  14
ENDBRANCH   6   8
ENDBRANCH   5   6
ENDBRANCH   4   5
ENDBRANCH   3   4
ENDBRANCH   2   3
ENDBRANCH   1   2
BRANCH   1  32
ATOM     32  C   UNL A   1      34.174  31.666  27.992  1.00  0.00     0.188 C 
BRANCH  32  33
ATOM     33  O   UNL A   1      35.014  32.707  27.532  1.00  0.00    -0.377 OA
BRANCH  33  34
ATOM     34  C   UNL A   1      35.150  33.848  28.371  1.00  0.00     0.188 C 
BRANCH  34  35
ATOM     35  C   UNL A   1      36.169  33.801  29.541  1.00  0.00     0.188 C 
BRANCH  35  36
ATOM     36  O   UNL A   1      35.573  33.912  30.827  1.00  0.00    -0.376 OA
BRANCH  36  37
ATOM     37  C   UNL A   1      34.822  32.852  31.391  1.00  0.00     0.202 C 
BRANCH  37  38
ATOM     38  C   UNL A   1      35.451  32.065  32.536  1.00  0.00     0.261 C 
BRANCH  38  39
ATOM     39  O   UNL A   1      36.104  30.885  32.120  1.00  0.00    -0.460 OA
BRANCH  39  40
ATOM     40  C   UNL A   1      37.432  31.026  31.941  1.00  0.00     0.338 C 
ATOM     41  O   UNL A   1      38.133  31.949  32.306  1.00  0.00    -0.246 OA
BRANCH  40  42
ATOM     42  C   UNL A   1      37.893  29.897  31.125  1.00  0.00     0.060 A 
ATOM     43  C   UNL A   1      38.599  28.921  31.824  1.00  0.00     0.016 A 
ATOM     44  C   UNL A   1      38.084  30.156  29.762  1.00  0.00     0.016 A 
ATOM     45  C   UNL A   1      39.774  28.498  31.265  1.00  0.00     0.010 A 
ATOM     46  C   UNL A   1      39.272  29.769  29.222  1.00  0.00     0.010 A 
ATOM     47  C   UNL A   1      40.141  29.050  30.036  1.00  0.00    -0.014 A 
BRANCH  47  48
ATOM     48  C   UNL A   1      41.472  28.806  29.550  1.00  0.00     0.031 A 
ATOM     49  C   UNL A   1      41.596  27.438  29.011  1.00  0.00     0.074 A 
ATOM     50  C   UNL A   1      42.375  29.801  29.507  1.00  0.00     0.049 A 
ATOM     51  N   UNL A   1      42.311  26.469  29.472  1.00  0.00    -0.248 NA
ATOM     52  C   UNL A   1      40.622  27.033  27.978  1.00  0.00     0.031 C 
ATOM     53  C   UNL A   1      42.183  31.225  29.813  1.00  0.00     0.029 A 
ATOM     54  N   UNL A   1      43.656  29.759  29.059  1.00  0.00    -0.354 N 
ATOM     55  C   UNL A   1      42.052  25.405  28.618  1.00  0.00     0.074 A 
ATOM     56  C   UNL A   1      40.847  25.724  27.906  1.00  0.00     0.031 C 
ATOM     57  C   UNL A   1      43.226  31.933  29.323  1.00  0.00     0.029 A 
ATOM     58  C   UNL A   1      44.204  31.008  28.783  1.00  0.00     0.049 A 
ATOM     59  H   UNL A   1      44.154  28.917  28.939  1.00  0.00     0.167 HD
ATOM     60  C   UNL A   1      43.030  24.515  28.312  1.00  0.00     0.037 A 
ATOM     61  C   UNL A   1      45.331  31.211  28.055  1.00  0.00     0.037 A 
ATOM     62  C   UNL A   1      44.069  24.521  29.310  1.00  0.00     0.049 A 
ATOM     63  C   UNL A   1      46.071  29.918  28.036  1.00  0.00     0.074 A 
ATOM     64  C   UNL A   1      44.107  24.259  30.665  1.00  0.00     0.029 A 
ATOM     65  N   UNL A   1      45.215  25.224  29.027  1.00  0.00    -0.354 N 
ATOM     66  N   UNL A   1      46.603  29.379  29.100  1.00  0.00    -0.248 NA
ATOM     67  C   UNL A   1      45.772  28.993  26.952  1.00  0.00     0.031 C 
ATOM     68  C   UNL A   1      45.029  25.205  31.201  1.00  0.00     0.029 A 
ATOM     69  C   UNL A   1      45.550  25.950  30.142  1.00  0.00     0.049 A 
ATOM     70  H   UNL A   1      45.708  25.210  28.176  1.00  0.00     0.167 HD
ATOM     71  C   UNL A   1      46.329  28.022  28.990  1.00  0.00     0.074 A 
ATOM     72  C   UNL A   1      45.866  27.837  27.616  1.00  0.00     0.031 C 
ATOM     73  C   UNL A   1      46.217  27.232  30.099  1.00  0.00     0.037 A 
BRANCH  60  74
ATOM     74  C   UNL A   1      43.232  23.986  26.915  1.00  0.00     0.057 A 
ATOM     75  C   UNL A   1      43.234  22.599  26.714  1.00  0.00     0.134 A 
ATOM     76  C   UNL A   1      43.701  24.752  25.823  1.00  0.00     0.134 A 
ATOM     77  F   UNL A   1      42.831  21.765  27.683  1.00  0.00    -0.206 F 
ATOM     78  C   UNL A   1      43.729  22.017  25.541  1.00  0.00     0.040 A 
ATOM     79  C   UNL A   1      44.143  24.184  24.629  1.00  0.00     0.040 A 
ATOM     80  F   UNL A   1      43.858  26.080  25.877  1.00  0.00    -0.206 F 
ATOM     81  C   UNL A   1      44.190  22.809  24.497  1.00  0.00     0.006 A 
ENDBRANCH  60  74
BRANCH  61  82
ATOM     82  C   UNL A   1      45.595  32.297  27.079  1.00  0.00     0.057 A 
ATOM     83  C   UNL A   1      44.662  32.623  26.085  1.00  0.00     0.134 A 
ATOM     84  C   UNL A   1      46.645  33.215  27.261  1.00  0.00     0.134 A 
ATOM     85  F   UNL A   1      43.597  31.837  25.869  1.00  0.00    -0.206 F 
ATOM     86  C   UNL A   1      44.761  33.799  25.326  1.00  0.00     0.040 A 
ATOM     87  C   UNL A   1      46.759  34.388  26.507  1.00  0.00     0.040 A 
ATOM     88  F   UNL A   1      47.550  33.053  28.237  1.00  0.00    -0.206 F 
ATOM     89  C   UNL A   1      45.808  34.690  25.542  1.00  0.00     0.006 A 
ENDBRANCH  61  82
BRANCH  73  90
ATOM     90  C   UNL A   1      46.601  27.833  31.426  1.00  0.00     0.057 A 
ATOM     91  C   UNL A   1      47.923  27.917  31.891  1.00  0.00     0.134 A 
ATOM     92  C   UNL A   1      45.629  28.503  32.171  1.00  0.00     0.134 A 
ATOM     93  F   UNL A   1      48.936  27.389  31.193  1.00  0.00    -0.206 F 
ATOM     94  C   UNL A   1      48.255  28.608  33.061  1.00  0.00     0.040 A 
ATOM     95  C   UNL A   1      45.949  29.223  33.324  1.00  0.00     0.040 A 
ATOM     96  F   UNL A   1      44.352  28.517  31.755  1.00  0.00    -0.206 F 
ATOM     97  C   UNL A   1      47.265  29.273  33.778  1.00  0.00     0.006 A 
ENDBRANCH  73  90
ENDBRANCH  47  48
ENDBRANCH  40  42
ENDBRANCH  39  40
ENDBRANCH  38  39
ENDBRANCH  37  38
ENDBRANCH  36  37
ENDBRANCH  35  36
ENDBRANCH  34  35
ENDBRANCH  33  34
ENDBRANCH  32  33
ENDBRANCH   1  32
TORSDOF 25
ENDMDL
