MODEL 1
REMARK VINA RESULT:     -11.7      0.000      0.000
REMARK SMILES COc1ccc(N2C(=O)N=C(OCCOCCOCCOCCOC(=O)c3ccc(-c4c5nc(c(-c6c(F)cccc6F)c6ccc([nH]6)c(-c6c(F)cccc6F)c6nc(c(-c7c(F)cccc7F)c7ccc4[nH]7)C=C6)C=C5)cc3)/C(=C\c3cc(Cl)c(OCC(=O)[O-])c(Cl)c3)C2=O)cc1
REMARK SMILES IDX 17 1 16 2 15 3 14 4 13 5 12 6 11 7 7 8 8 9 96 10 9 11 10 12
REMARK SMILES IDX 81 13 97 14 82 15 6 16 3 17 4 18 99 19 5 20 98 21 2 22 1 23
REMARK SMILES IDX 83 24 84 25 95 26 85 27 93 28 86 29 87 30 94 31 88 32 89 33
REMARK SMILES IDX 90 34 91 35 92 36 18 37 19 38 20 39 21 40 22 41 23 42 24 43
REMARK SMILES IDX 25 44 26 45 27 46 28 47 80 48 29 49 79 50 30 51 31 52 32 53
REMARK SMILES IDX 73 54 33 55 78 56 72 57 74 58 34 59 77 60 71 61 70 62 35 64
REMARK SMILES IDX 61 65 44 66 60 67 45 68 48 69 59 70 75 71 46 72 47 73 58 75
REMARK SMILES IDX 76 76 49 77 36 78 37 79 42 80 38 81 39 82 41 83 43 84 40 85
REMARK SMILES IDX 62 86 63 87 68 88 64 89 65 90 67 91 69 92 66 93 50 94 51 95
REMARK SMILES IDX 56 96 52 97 53 98 55 99 57 100 54 101
REMARK H PARENT 74 63 48 74
REMARK Flexibility Score: inf
ROOT
ATOM      1  C   UNL A   1      38.431  22.472  26.051  1.00  0.00     0.188 C 
ENDROOT
BRANCH   1   2
ATOM      2  C   UNL A   1      37.812  21.398  25.139  1.00  0.00     0.188 C 
BRANCH   2   3
ATOM      3  O   UNL A   1      36.598  21.697  24.460  1.00  0.00    -0.376 OA
BRANCH   3   4
ATOM      4  C   UNL A   1      36.375  23.062  24.137  1.00  0.00     0.201 C 
BRANCH   4   5
ATOM      5  C   UNL A   1      35.413  23.409  22.963  1.00  0.00     0.260 C 
BRANCH   5   6
ATOM      6  O   UNL A   1      34.024  23.134  23.223  1.00  0.00    -0.475 OA
BRANCH   6   7
ATOM      7  C   UNL A   1      33.267  24.142  22.768  1.00  0.00     0.231 C 
ATOM      8  N   UNL A   1      31.825  26.394  22.800  1.00  0.00    -0.226 N 
ATOM      9  C   UNL A   1      33.164  26.376  22.354  1.00  0.00     0.358 C 
ATOM     10  C   UNL A   1      31.068  25.232  23.050  1.00  0.00     0.272 C 
ATOM     11  O   UNL A   1      33.774  27.385  22.007  1.00  0.00    -0.245 OA
ATOM     12  N   UNL A   1      33.867  25.211  22.420  1.00  0.00    -0.156 NA
ATOM     13  C   UNL A   1      31.828  23.925  22.960  1.00  0.00     0.103 C 
ATOM     14  O   UNL A   1      29.870  25.218  23.337  1.00  0.00    -0.268 OA
ATOM     15  C   UNL A   1      31.251  22.730  23.302  1.00  0.00     0.027 C 
BRANCH   8  16
ATOM     16  C   UNL A   1      31.249  27.703  23.032  1.00  0.00     0.054 A 
ATOM     17  C   UNL A   1      29.938  30.152  23.628  1.00  0.00     0.119 A 
ATOM     18  C   UNL A   1      30.818  29.578  24.540  1.00  0.00     0.048 A 
ATOM     19  C   UNL A   1      29.711  29.510  22.411  1.00  0.00     0.048 A 
ATOM     20  C   UNL A   1      31.449  28.362  24.254  1.00  0.00     0.031 A 
ATOM     21  C   UNL A   1      30.374  28.299  22.107  1.00  0.00     0.031 A 
BRANCH  17  22
ATOM     22  O   UNL A   1      29.451  31.378  23.985  1.00  0.00    -0.497 OA
ATOM     23  C   UNL A   1      28.128  31.679  23.560  1.00  0.00     0.278 C 
ENDBRANCH  17  22
ENDBRANCH   8  16
BRANCH  15  24
ATOM     24  C   UNL A   1      31.935  21.438  23.683  1.00  0.00    -0.021 A 
ATOM     25  C   UNL A   1      32.401  21.161  24.969  1.00  0.00     0.032 A 
ATOM     26  C   UNL A   1      32.036  20.394  22.738  1.00  0.00     0.032 A 
ATOM     27  C   UNL A   1      32.818  19.854  25.321  1.00  0.00     0.085 A 
ATOM     28  C   UNL A   1      32.405  19.078  23.100  1.00  0.00     0.085 A 
ATOM     29  Cl  UNL A   1      33.438  19.612  26.920  1.00  0.00    -0.080 Cl
ATOM     30  C   UNL A   1      32.738  18.776  24.421  1.00  0.00     0.157 A 
ATOM     31  Cl  UNL A   1      32.454  17.892  21.842  1.00  0.00    -0.080 Cl
BRANCH  30  32
ATOM     32  O   UNL A   1      33.118  17.537  24.870  1.00  0.00    -0.485 OA
BRANCH  32  33
ATOM     33  C   UNL A   1      34.451  17.105  24.623  1.00  0.00     0.282 C 
BRANCH  33  34
ATOM     34  C   UNL A   1      35.037  15.857  25.277  1.00  0.00     0.079 C 
ATOM     35  O   UNL A   1      36.149  15.762  25.772  1.00  0.00    -0.546 OA
ATOM     36  O   UNL A   1      34.189  14.810  25.309  1.00  0.00    -0.546 OA
ENDBRANCH  33  34
ENDBRANCH  32  33
ENDBRANCH  30  32
ENDBRANCH  15  24
ENDBRANCH   6   7
ENDBRANCH   5   6
ENDBRANCH   4   5
ENDBRANCH   3   4
ENDBRANCH   2   3
ENDBRANCH   1   2
BRANCH   1  37
ATOM     37  O   UNL A   1      39.594  22.022  26.730  1.00  0.00    -0.377 OA
BRANCH  37  38
ATOM     38  C   UNL A   1      40.055  20.718  26.387  1.00  0.00     0.188 C 
BRANCH  38  39
ATOM     39  C   UNL A   1      41.063  19.988  27.329  1.00  0.00     0.188 C 
BRANCH  39  40
ATOM     40  O   UNL A   1      42.201  19.308  26.827  1.00  0.00    -0.376 OA
BRANCH  40  41
ATOM     41  C   UNL A   1      42.920  19.758  25.696  1.00  0.00     0.202 C 
BRANCH  41  42
ATOM     42  C   UNL A   1      43.672  21.103  25.651  1.00  0.00     0.261 C 
BRANCH  42  43
ATOM     43  O   UNL A   1      42.891  22.265  25.342  1.00  0.00    -0.460 OA
BRANCH  43  44
ATOM     44  C   UNL A   1      43.584  23.426  25.162  1.00  0.00     0.338 C 
ATOM     45  O   UNL A   1      44.428  23.639  24.324  1.00  0.00    -0.246 OA
BRANCH  44  46
ATOM     46  C   UNL A   1      42.955  24.497  25.991  1.00  0.00     0.060 A 
ATOM     47  C   UNL A   1      43.431  25.813  25.850  1.00  0.00     0.016 A 
ATOM     48  C   UNL A   1      41.881  24.237  26.844  1.00  0.00     0.016 A 
ATOM     49  C   UNL A   1      42.865  26.859  26.585  1.00  0.00     0.010 A 
ATOM     50  C   UNL A   1      41.341  25.276  27.610  1.00  0.00     0.010 A 
ATOM     51  C   UNL A   1      41.857  26.582  27.514  1.00  0.00    -0.014 A 
BRANCH  51  52
ATOM     52  C   UNL A   1      41.546  27.554  28.593  1.00  0.00     0.031 A 
ATOM     53  C   UNL A   1      42.384  27.481  29.841  1.00  0.00     0.074 A 
ATOM     54  C   UNL A   1      40.540  28.441  28.509  1.00  0.00     0.049 A 
ATOM     55  N   UNL A   1      42.220  28.075  30.994  1.00  0.00    -0.248 NA
ATOM     56  C   UNL A   1      43.562  26.600  29.779  1.00  0.00     0.031 C 
ATOM     57  C   UNL A   1      39.693  28.656  27.340  1.00  0.00     0.029 A 
ATOM     58  N   UNL A   1      40.047  29.316  29.448  1.00  0.00    -0.354 N 
ATOM     59  C   UNL A   1      43.257  27.621  31.798  1.00  0.00     0.074 A 
ATOM     60  C   UNL A   1      44.038  26.696  31.009  1.00  0.00     0.031 C 
ATOM     61  C   UNL A   1      38.770  29.589  27.636  1.00  0.00     0.029 A 
ATOM     62  C   UNL A   1      38.926  29.996  29.034  1.00  0.00     0.049 A 
ATOM     63  H   UNL A   1      40.459  29.444  30.334  1.00  0.00     0.167 HD
ATOM     64  C   UNL A   1      43.529  27.935  33.085  1.00  0.00     0.037 A 
ATOM     65  C   UNL A   1      38.100  30.811  29.723  1.00  0.00     0.037 A 
ATOM     66  C   UNL A   1      42.737  28.835  33.877  1.00  0.00     0.049 A 
ATOM     67  C   UNL A   1      38.368  31.079  31.186  1.00  0.00     0.074 A 
ATOM     68  C   UNL A   1      42.920  29.212  35.195  1.00  0.00     0.029 A 
ATOM     69  N   UNL A   1      41.600  29.489  33.425  1.00  0.00    -0.354 N 
ATOM     70  N   UNL A   1      39.346  30.643  31.943  1.00  0.00    -0.248 NA
ATOM     71  C   UNL A   1      37.408  31.941  31.895  1.00  0.00     0.031 C 
ATOM     72  C   UNL A   1      41.862  30.049  35.558  1.00  0.00     0.029 A 
ATOM     73  C   UNL A   1      41.060  30.250  34.446  1.00  0.00     0.049 A 
ATOM     74  H   UNL A   1      41.233  29.421  32.515  1.00  0.00     0.167 HD
ATOM     75  C   UNL A   1      39.144  31.209  33.199  1.00  0.00     0.074 A 
ATOM     76  C   UNL A   1      37.948  32.018  33.104  1.00  0.00     0.031 C 
ATOM     77  C   UNL A   1      39.885  31.075  34.326  1.00  0.00     0.037 A 
BRANCH  64  78
ATOM     78  C   UNL A   1      44.702  27.254  33.725  1.00  0.00     0.057 A 
ATOM     79  C   UNL A   1      44.561  26.083  34.481  1.00  0.00     0.134 A 
ATOM     80  C   UNL A   1      45.994  27.777  33.579  1.00  0.00     0.134 A 
ATOM     81  F   UNL A   1      43.348  25.543  34.679  1.00  0.00    -0.206 F 
ATOM     82  C   UNL A   1      45.658  25.472  35.092  1.00  0.00     0.040 A 
ATOM     83  C   UNL A   1      47.101  27.158  34.157  1.00  0.00     0.040 A 
ATOM     84  F   UNL A   1      46.198  28.896  32.869  1.00  0.00    -0.206 F 
ATOM     85  C   UNL A   1      46.934  26.007  34.924  1.00  0.00     0.006 A 
ENDBRANCH  64  78
BRANCH  65  86
ATOM     86  C   UNL A   1      36.911  31.414  29.059  1.00  0.00     0.057 A 
ATOM     87  C   UNL A   1      35.756  30.662  28.817  1.00  0.00     0.134 A 
ATOM     88  C   UNL A   1      36.917  32.742  28.612  1.00  0.00     0.134 A 
ATOM     89  F   UNL A   1      35.698  29.375  29.191  1.00  0.00    -0.206 F 
ATOM     90  C   UNL A   1      34.658  31.199  28.141  1.00  0.00     0.040 A 
ATOM     91  C   UNL A   1      35.815  33.301  27.961  1.00  0.00     0.040 A 
ATOM     92  F   UNL A   1      37.992  33.518  28.807  1.00  0.00    -0.206 F 
ATOM     93  C   UNL A   1      34.684  32.526  27.716  1.00  0.00     0.006 A 
ENDBRANCH  65  86
BRANCH  77  94
ATOM     94  C   UNL A   1      39.483  31.875  35.534  1.00  0.00     0.057 A 
ATOM     95  C   UNL A   1      39.969  33.165  35.776  1.00  0.00     0.134 A 
ATOM     96  C   UNL A   1      38.519  31.371  36.419  1.00  0.00     0.134 A 
ATOM     97  F   UNL A   1      40.899  33.703  34.972  1.00  0.00    -0.206 F 
ATOM     98  C   UNL A   1      39.522  33.919  36.862  1.00  0.00     0.040 A 
ATOM     99  C   UNL A   1      38.043  32.127  37.490  1.00  0.00     0.040 A 
ATOM    100  F   UNL A   1      38.001  30.147  36.237  1.00  0.00    -0.206 F 
ATOM    101  C   UNL A   1      38.548  33.405  37.716  1.00  0.00     0.006 A 
ENDBRANCH  77  94
ENDBRANCH  51  52
ENDBRANCH  44  46
ENDBRANCH  43  44
ENDBRANCH  42  43
ENDBRANCH  41  42
ENDBRANCH  40  41
ENDBRANCH  39  40
ENDBRANCH  38  39
ENDBRANCH  37  38
ENDBRANCH   1  37
TORSDOF 25
ENDMDL
MODEL 2
REMARK VINA RESULT:     -11.1      0.901      5.605
REMARK SMILES COc1ccc(N2C(=O)N=C(OCCOCCOCCOCCOC(=O)c3ccc(-c4c5nc(c(-c6c(F)cccc6F)c6ccc([nH]6)c(-c6c(F)cccc6F)c6nc(c(-c7c(F)cccc7F)c7ccc4[nH]7)C=C6)C=C5)cc3)/C(=C\c3cc(Cl)c(OCC(=O)[O-])c(Cl)c3)C2=O)cc1
REMARK SMILES IDX 17 1 16 2 15 3 14 4 13 5 12 6 11 7 7 8 8 9 96 10 9 11 10 12
REMARK SMILES IDX 81 13 97 14 82 15 6 16 3 17 4 18 99 19 5 20 98 21 2 22 1 23
REMARK SMILES IDX 83 24 84 25 95 26 85 27 93 28 86 29 87 30 94 31 88 32 89 33
REMARK SMILES IDX 90 34 91 35 92 36 18 37 19 38 20 39 21 40 22 41 23 42 24 43
REMARK SMILES IDX 25 44 26 45 27 46 28 47 80 48 29 49 79 50 30 51 31 52 32 53
REMARK SMILES IDX 73 54 33 55 78 56 72 57 74 58 34 59 77 60 71 61 70 62 35 64
REMARK SMILES IDX 61 65 44 66 60 67 45 68 48 69 59 70 75 71 46 72 47 73 58 75
REMARK SMILES IDX 76 76 49 77 36 78 37 79 42 80 38 81 39 82 41 83 43 84 40 85
REMARK SMILES IDX 62 86 63 87 68 88 64 89 65 90 67 91 69 92 66 93 50 94 51 95
REMARK SMILES IDX 56 96 52 97 53 98 55 99 57 100 54 101
REMARK H PARENT 74 63 48 74
REMARK Flexibility Score: inf
ROOT
ATOM      1  C   UNL A   1      38.612  21.003  25.450  1.00  0.00     0.188 C 
ENDROOT
BRANCH   1   2
ATOM      2  C   UNL A   1      37.190  20.598  25.024  1.00  0.00     0.188 C 
BRANCH   2   3
ATOM      3  O   UNL A   1      36.198  21.611  24.910  1.00  0.00    -0.376 OA
BRANCH   3   4
ATOM      4  C   UNL A   1      36.405  22.588  23.899  1.00  0.00     0.201 C 
BRANCH   4   5
ATOM      5  C   UNL A   1      35.309  23.667  23.661  1.00  0.00     0.260 C 
BRANCH   5   6
ATOM      6  O   UNL A   1      34.054  23.152  23.177  1.00  0.00    -0.475 OA
BRANCH   6   7
ATOM      7  C   UNL A   1      33.284  24.161  22.745  1.00  0.00     0.231 C 
ATOM      8  N   UNL A   1      31.856  26.421  22.818  1.00  0.00    -0.226 N 
ATOM      9  C   UNL A   1      33.176  26.392  22.319  1.00  0.00     0.358 C 
ATOM     10  C   UNL A   1      31.104  25.265  23.108  1.00  0.00     0.272 C 
ATOM     11  O   UNL A   1      33.776  27.395  21.939  1.00  0.00    -0.245 OA
ATOM     12  N   UNL A   1      33.875  25.224  22.365  1.00  0.00    -0.156 NA
ATOM     13  C   UNL A   1      31.853  23.953  22.997  1.00  0.00     0.103 C 
ATOM     14  O   UNL A   1      29.918  25.260  23.443  1.00  0.00    -0.268 OA
ATOM     15  C   UNL A   1      31.284  22.764  23.371  1.00  0.00     0.027 C 
BRANCH   8  16
ATOM     16  C   UNL A   1      31.297  27.735  23.063  1.00  0.00     0.054 A 
ATOM     17  C   UNL A   1      30.032  30.197  23.704  1.00  0.00     0.119 A 
ATOM     18  C   UNL A   1      30.993  29.651  24.550  1.00  0.00     0.048 A 
ATOM     19  C   UNL A   1      29.700  29.520  22.531  1.00  0.00     0.048 A 
ATOM     20  C   UNL A   1      31.602  28.429  24.244  1.00  0.00     0.031 A 
ATOM     21  C   UNL A   1      30.340  28.302  22.204  1.00  0.00     0.031 A 
BRANCH  17  22
ATOM     22  O   UNL A   1      29.572  31.432  24.067  1.00  0.00    -0.497 OA
ATOM     23  C   UNL A   1      28.379  31.872  23.434  1.00  0.00     0.278 C 
ENDBRANCH  17  22
ENDBRANCH   8  16
BRANCH  15  24
ATOM     24  C   UNL A   1      31.976  21.472  23.735  1.00  0.00    -0.021 A 
ATOM     25  C   UNL A   1      32.444  21.179  25.018  1.00  0.00     0.032 A 
ATOM     26  C   UNL A   1      32.085  20.441  22.775  1.00  0.00     0.032 A 
ATOM     27  C   UNL A   1      32.869  19.870  25.351  1.00  0.00     0.085 A 
ATOM     28  C   UNL A   1      32.462  19.122  23.119  1.00  0.00     0.085 A 
ATOM     29  Cl  UNL A   1      33.491  19.610  26.946  1.00  0.00    -0.080 Cl
ATOM     30  C   UNL A   1      32.797  18.805  24.435  1.00  0.00     0.157 A 
ATOM     31  Cl  UNL A   1      32.519  17.955  21.845  1.00  0.00    -0.080 Cl
BRANCH  30  32
ATOM     32  O   UNL A   1      33.185  17.562  24.867  1.00  0.00    -0.485 OA
BRANCH  32  33
ATOM     33  C   UNL A   1      34.563  17.218  24.794  1.00  0.00     0.282 C 
BRANCH  33  34
ATOM     34  C   UNL A   1      35.092  15.868  25.271  1.00  0.00     0.079 C 
ATOM     35  O   UNL A   1      36.223  15.644  25.674  1.00  0.00    -0.546 OA
ATOM     36  O   UNL A   1      34.171  14.884  25.252  1.00  0.00    -0.546 OA
ENDBRANCH  33  34
ENDBRANCH  32  33
ENDBRANCH  30  32
ENDBRANCH  15  24
ENDBRANCH   6   7
ENDBRANCH   5   6
ENDBRANCH   4   5
ENDBRANCH   3   4
ENDBRANCH   2   3
ENDBRANCH   1   2
BRANCH   1  37
ATOM     37  O   UNL A   1      39.510  19.905  25.506  1.00  0.00    -0.377 OA
BRANCH  37  38
ATOM     38  C   UNL A   1      40.632  20.055  26.372  1.00  0.00     0.188 C 
BRANCH  38  39
ATOM     39  C   UNL A   1      42.051  19.647  25.866  1.00  0.00     0.188 C 
BRANCH  39  40
ATOM     40  O   UNL A   1      43.165  20.516  25.977  1.00  0.00    -0.376 OA
BRANCH  40  41
ATOM     41  C   UNL A   1      43.046  21.922  25.889  1.00  0.00     0.202 C 
BRANCH  41  42
ATOM     42  C   UNL A   1      43.446  22.728  24.636  1.00  0.00     0.261 C 
BRANCH  42  43
ATOM     43  O   UNL A   1      43.107  24.121  24.635  1.00  0.00    -0.460 OA
BRANCH  43  44
ATOM     44  C   UNL A   1      44.001  24.958  25.236  1.00  0.00     0.338 C 
ATOM     45  O   UNL A   1      45.126  25.197  24.866  1.00  0.00    -0.246 OA
BRANCH  44  46
ATOM     46  C   UNL A   1      43.290  25.752  26.283  1.00  0.00     0.060 A 
ATOM     47  C   UNL A   1      43.691  27.084  26.494  1.00  0.00     0.016 A 
ATOM     48  C   UNL A   1      42.214  25.230  27.003  1.00  0.00     0.016 A 
ATOM     49  C   UNL A   1      43.047  27.880  27.447  1.00  0.00     0.010 A 
ATOM     50  C   UNL A   1      41.596  26.013  27.985  1.00  0.00     0.010 A 
ATOM     51  C   UNL A   1      42.036  27.326  28.239  1.00  0.00    -0.014 A 
BRANCH  51  52
ATOM     52  C   UNL A   1      41.644  27.976  29.514  1.00  0.00     0.031 A 
ATOM     53  C   UNL A   1      40.439  28.878  29.480  1.00  0.00     0.074 A 
ATOM     54  C   UNL A   1      42.337  27.824  30.656  1.00  0.00     0.049 A 
ATOM     55  N   UNL A   1      39.986  29.702  30.388  1.00  0.00    -0.248 NA
ATOM     56  C   UNL A   1      39.647  28.854  28.238  1.00  0.00     0.031 C 
ATOM     57  C   UNL A   1      43.482  26.939  30.840  1.00  0.00     0.029 A 
ATOM     58  N   UNL A   1      42.184  28.438  31.876  1.00  0.00    -0.354 N 
ATOM     59  C   UNL A   1      38.875  30.310  29.818  1.00  0.00     0.074 A 
ATOM     60  C   UNL A   1      38.727  29.770  28.485  1.00  0.00     0.031 C 
ATOM     61  C   UNL A   1      43.944  27.080  32.097  1.00  0.00     0.029 A 
ATOM     62  C   UNL A   1      43.161  28.107  32.786  1.00  0.00     0.049 A 
ATOM     63  H   UNL A   1      41.445  29.056  32.079  1.00  0.00     0.167 HD
ATOM     64  C   UNL A   1      38.055  31.245  30.350  1.00  0.00     0.037 A 
ATOM     65  C   UNL A   1      43.416  28.614  34.010  1.00  0.00     0.037 A 
ATOM     66  C   UNL A   1      38.218  31.800  31.665  1.00  0.00     0.049 A 
ATOM     67  C   UNL A   1      42.545  29.724  34.553  1.00  0.00     0.074 A 
ATOM     68  C   UNL A   1      37.450  32.761  32.295  1.00  0.00     0.029 A 
ATOM     69  N   UNL A   1      39.230  31.451  32.547  1.00  0.00    -0.354 N 
ATOM     70  N   UNL A   1      41.499  30.298  34.008  1.00  0.00    -0.248 NA
ATOM     71  C   UNL A   1      42.897  30.266  35.875  1.00  0.00     0.031 C 
ATOM     72  C   UNL A   1      38.030  33.036  33.537  1.00  0.00     0.029 A 
ATOM     73  C   UNL A   1      39.117  32.193  33.708  1.00  0.00     0.049 A 
ATOM     74  H   UNL A   1      39.924  30.775  32.373  1.00  0.00     0.167 HD
ATOM     75  C   UNL A   1      41.047  31.234  34.934  1.00  0.00     0.074 A 
ATOM     76  C   UNL A   1      41.933  31.153  36.075  1.00  0.00     0.031 C 
ATOM     77  C   UNL A   1      39.990  32.079  34.849  1.00  0.00     0.037 A 
BRANCH  64  78
ATOM     78  C   UNL A   1      36.947  31.760  29.482  1.00  0.00     0.057 A 
ATOM     79  C   UNL A   1      35.755  31.048  29.294  1.00  0.00     0.134 A 
ATOM     80  C   UNL A   1      37.073  32.992  28.826  1.00  0.00     0.134 A 
ATOM     81  F   UNL A   1      35.579  29.852  29.876  1.00  0.00    -0.206 F 
ATOM     82  C   UNL A   1      34.741  31.528  28.463  1.00  0.00     0.040 A 
ATOM     83  C   UNL A   1      36.055  33.497  28.018  1.00  0.00     0.040 A 
ATOM     84  F   UNL A   1      38.189  33.724  28.962  1.00  0.00    -0.206 F 
ATOM     85  C   UNL A   1      34.888  32.761  27.828  1.00  0.00     0.006 A 
ENDBRANCH  64  78
BRANCH  65  86
ATOM     86  C   UNL A   1      44.568  28.112  34.808  1.00  0.00     0.057 A 
ATOM     87  C   UNL A   1      44.434  27.013  35.665  1.00  0.00     0.134 A 
ATOM     88  C   UNL A   1      45.819  28.742  34.767  1.00  0.00     0.134 A 
ATOM     89  F   UNL A   1      43.254  26.384  35.776  1.00  0.00    -0.206 F 
ATOM     90  C   UNL A   1      45.491  26.570  36.464  1.00  0.00     0.040 A 
ATOM     91  C   UNL A   1      46.893  28.292  35.537  1.00  0.00     0.040 A 
ATOM     92  F   UNL A   1      46.017  29.802  33.970  1.00  0.00    -0.206 F 
ATOM     93  C   UNL A   1      46.728  27.209  36.396  1.00  0.00     0.006 A 
ENDBRANCH  65  86
BRANCH  77  94
ATOM     94  C   UNL A   1      39.674  32.935  36.044  1.00  0.00     0.057 A 
ATOM     95  C   UNL A   1      40.220  34.211  36.218  1.00  0.00     0.134 A 
ATOM     96  C   UNL A   1      38.733  32.500  36.988  1.00  0.00     0.134 A 
ATOM     97  F   UNL A   1      41.131  34.684  35.355  1.00  0.00    -0.206 F 
ATOM     98  C   UNL A   1      39.852  35.020  37.295  1.00  0.00     0.040 A 
ATOM     99  C   UNL A   1      38.336  33.310  38.052  1.00  0.00     0.040 A 
ATOM    100  F   UNL A   1      38.160  31.292  36.873  1.00  0.00    -0.206 F 
ATOM    101  C   UNL A   1      38.898  34.574  38.209  1.00  0.00     0.006 A 
ENDBRANCH  77  94
ENDBRANCH  51  52
ENDBRANCH  44  46
ENDBRANCH  43  44
ENDBRANCH  42  43
ENDBRANCH  41  42
ENDBRANCH  40  41
ENDBRANCH  39  40
ENDBRANCH  38  39
ENDBRANCH  37  38
ENDBRANCH   1  37
TORSDOF 25
ENDMDL
MODEL 3
REMARK VINA RESULT:     -10.4      5.987      9.406
REMARK SMILES COc1ccc(N2C(=O)N=C(OCCOCCOCCOCCOC(=O)c3ccc(-c4c5nc(c(-c6c(F)cccc6F)c6ccc([nH]6)c(-c6c(F)cccc6F)c6nc(c(-c7c(F)cccc7F)c7ccc4[nH]7)C=C6)C=C5)cc3)/C(=C\c3cc(Cl)c(OCC(=O)[O-])c(Cl)c3)C2=O)cc1
REMARK SMILES IDX 17 1 16 2 15 3 14 4 13 5 12 6 11 7 7 8 8 9 96 10 9 11 10 12
REMARK SMILES IDX 81 13 97 14 82 15 6 16 3 17 4 18 99 19 5 20 98 21 2 22 1 23
REMARK SMILES IDX 83 24 84 25 95 26 85 27 93 28 86 29 87 30 94 31 88 32 89 33
REMARK SMILES IDX 90 34 91 35 92 36 18 37 19 38 20 39 21 40 22 41 23 42 24 43
REMARK SMILES IDX 25 44 26 45 27 46 28 47 80 48 29 49 79 50 30 51 31 52 32 53
REMARK SMILES IDX 73 54 33 55 78 56 72 57 74 58 34 59 77 60 71 61 70 62 35 64
REMARK SMILES IDX 61 65 44 66 60 67 45 68 48 69 59 70 75 71 46 72 47 73 58 75
REMARK SMILES IDX 76 76 49 77 36 78 37 79 42 80 38 81 39 82 41 83 43 84 40 85
REMARK SMILES IDX 62 86 63 87 68 88 64 89 65 90 67 91 69 92 66 93 50 94 51 95
REMARK SMILES IDX 56 96 52 97 53 98 55 99 57 100 54 101
REMARK H PARENT 74 63 48 74
REMARK Flexibility Score: inf
ROOT
ATOM      1  C   UNL A   1      37.690  20.693  25.125  1.00  0.00     0.188 C 
ENDROOT
BRANCH   1   2
ATOM      2  C   UNL A   1      37.159  21.837  24.243  1.00  0.00     0.188 C 
BRANCH   2   3
ATOM      3  O   UNL A   1      35.841  22.321  24.474  1.00  0.00    -0.376 OA
BRANCH   3   4
ATOM      4  C   UNL A   1      35.691  23.731  24.557  1.00  0.00     0.201 C 
BRANCH   4   5
ATOM      5  C   UNL A   1      34.813  24.457  23.496  1.00  0.00     0.260 C 
BRANCH   5   6
ATOM      6  O   UNL A   1      33.461  23.970  23.400  1.00  0.00    -0.475 OA
BRANCH   6   7
ATOM      7  C   UNL A   1      32.649  24.957  22.996  1.00  0.00     0.231 C 
ATOM      8  N   UNL A   1      31.126  27.151  23.132  1.00  0.00    -0.226 N 
ATOM      9  C   UNL A   1      32.446  27.192  22.633  1.00  0.00     0.358 C 
ATOM     10  C   UNL A   1      30.424  25.956  23.389  1.00  0.00     0.272 C 
ATOM     11  O   UNL A   1      33.002  28.230  22.282  1.00  0.00    -0.245 OA
ATOM     12  N   UNL A   1      33.194  26.054  22.647  1.00  0.00    -0.156 NA
ATOM     13  C   UNL A   1      31.228  24.681  23.241  1.00  0.00     0.103 C 
ATOM     14  O   UNL A   1      29.240  25.891  23.723  1.00  0.00    -0.268 OA
ATOM     15  C   UNL A   1      30.711  23.459  23.581  1.00  0.00     0.027 C 
BRANCH   8  16
ATOM     16  C   UNL A   1      30.512  28.432  23.414  1.00  0.00     0.054 A 
ATOM     17  C   UNL A   1      29.461  31.046  23.785  1.00  0.00     0.119 A 
ATOM     18  C   UNL A   1      29.001  30.236  22.751  1.00  0.00     0.048 A 
ATOM     19  C   UNL A   1      30.445  30.554  24.643  1.00  0.00     0.048 A 
ATOM     20  C   UNL A   1      29.533  28.956  22.557  1.00  0.00     0.031 A 
ATOM     21  C   UNL A   1      30.958  29.249  24.469  1.00  0.00     0.031 A 
BRANCH  17  22
ATOM     22  O   UNL A   1      28.808  32.238  23.923  1.00  0.00    -0.497 OA
ATOM     23  C   UNL A   1      29.223  33.289  23.060  1.00  0.00     0.278 C 
ENDBRANCH  17  22
ENDBRANCH   8  16
BRANCH  15  24
ATOM     24  C   UNL A   1      31.457  22.187  23.908  1.00  0.00    -0.021 A 
ATOM     25  C   UNL A   1      31.629  21.137  23.004  1.00  0.00     0.032 A 
ATOM     26  C   UNL A   1      32.115  22.061  25.152  1.00  0.00     0.032 A 
ATOM     27  C   UNL A   1      32.529  20.081  23.285  1.00  0.00     0.085 A 
ATOM     28  C   UNL A   1      33.051  21.033  25.413  1.00  0.00     0.085 A 
ATOM     29  Cl  UNL A   1      32.635  18.789  22.137  1.00  0.00    -0.080 Cl
ATOM     30  C   UNL A   1      33.320  20.062  24.448  1.00  0.00     0.157 A 
ATOM     31  Cl  UNL A   1      33.804  21.022  26.969  1.00  0.00    -0.080 Cl
BRANCH  30  32
ATOM     32  O   UNL A   1      34.200  19.022  24.608  1.00  0.00    -0.485 OA
BRANCH  32  33
ATOM     33  C   UNL A   1      33.678  17.728  24.888  1.00  0.00     0.282 C 
BRANCH  33  34
ATOM     34  C   UNL A   1      34.383  16.451  24.440  1.00  0.00     0.079 C 
ATOM     35  O   UNL A   1      35.072  15.728  25.143  1.00  0.00    -0.546 OA
ATOM     36  O   UNL A   1      34.158  16.129  23.150  1.00  0.00    -0.546 OA
ENDBRANCH  33  34
ENDBRANCH  32  33
ENDBRANCH  30  32
ENDBRANCH  15  24
ENDBRANCH   6   7
ENDBRANCH   5   6
ENDBRANCH   4   5
ENDBRANCH   3   4
ENDBRANCH   2   3
ENDBRANCH   1   2
BRANCH   1  37
ATOM     37  O   UNL A   1      38.917  21.010  25.766  1.00  0.00    -0.377 OA
BRANCH  37  38
ATOM     38  C   UNL A   1      39.904  19.982  25.773  1.00  0.00     0.188 C 
BRANCH  38  39
ATOM     39  C   UNL A   1      40.933  19.915  26.944  1.00  0.00     0.188 C 
BRANCH  39  40
ATOM     40  O   UNL A   1      42.283  19.537  26.736  1.00  0.00    -0.376 OA
BRANCH  40  41
ATOM     41  C   UNL A   1      43.096  20.132  25.743  1.00  0.00     0.202 C 
BRANCH  41  42
ATOM     42  C   UNL A   1      43.630  21.576  25.839  1.00  0.00     0.261 C 
BRANCH  42  43
ATOM     43  O   UNL A   1      42.859  22.589  25.181  1.00  0.00    -0.460 OA
BRANCH  43  44
ATOM     44  C   UNL A   1      42.178  23.448  25.993  1.00  0.00     0.338 C 
ATOM     45  O   UNL A   1      41.171  23.206  26.615  1.00  0.00    -0.246 OA
BRANCH  44  46
ATOM     46  C   UNL A   1      43.012  24.667  26.215  1.00  0.00     0.060 A 
ATOM     47  C   UNL A   1      43.362  25.447  25.098  1.00  0.00     0.016 A 
ATOM     48  C   UNL A   1      43.395  25.077  27.494  1.00  0.00     0.016 A 
ATOM     49  C   UNL A   1      44.124  26.610  25.250  1.00  0.00     0.010 A 
ATOM     50  C   UNL A   1      44.192  26.218  27.642  1.00  0.00     0.010 A 
ATOM     51  C   UNL A   1      44.593  26.966  26.519  1.00  0.00    -0.014 A 
BRANCH  51  52
ATOM     52  C   UNL A   1      45.730  27.910  26.659  1.00  0.00     0.031 A 
ATOM     53  C   UNL A   1      45.395  29.373  26.768  1.00  0.00     0.074 A 
ATOM     54  C   UNL A   1      47.014  27.513  26.648  1.00  0.00     0.049 A 
ATOM     55  N   UNL A   1      46.180  30.416  26.718  1.00  0.00    -0.248 NA
ATOM     56  C   UNL A   1      43.969  29.699  26.941  1.00  0.00     0.031 C 
ATOM     57  C   UNL A   1      47.474  26.129  26.607  1.00  0.00     0.029 A 
ATOM     58  N   UNL A   1      48.172  28.254  26.645  1.00  0.00    -0.354 N 
ATOM     59  C   UNL A   1      45.343  31.519  26.828  1.00  0.00     0.074 A 
ATOM     60  C   UNL A   1      43.991  31.021  26.937  1.00  0.00     0.031 C 
ATOM     61  C   UNL A   1      48.819  26.118  26.564  1.00  0.00     0.029 A 
ATOM     62  C   UNL A   1      49.312  27.496  26.516  1.00  0.00     0.049 A 
ATOM     63  H   UNL A   1      48.184  29.235  26.729  1.00  0.00     0.167 HD
ATOM     64  C   UNL A   1      45.668  32.832  26.827  1.00  0.00     0.037 A 
ATOM     65  C   UNL A   1      50.594  27.877  26.334  1.00  0.00     0.037 A 
ATOM     66  C   UNL A   1      47.010  33.326  26.693  1.00  0.00     0.049 A 
ATOM     67  C   UNL A   1      50.927  29.348  26.242  1.00  0.00     0.074 A 
ATOM     68  C   UNL A   1      47.446  34.639  26.667  1.00  0.00     0.029 A 
ATOM     69  N   UNL A   1      48.134  32.526  26.547  1.00  0.00    -0.354 N 
ATOM     70  N   UNL A   1      50.131  30.386  26.342  1.00  0.00    -0.248 NA
ATOM     71  C   UNL A   1      52.335  29.702  25.999  1.00  0.00     0.031 C 
ATOM     72  C   UNL A   1      48.826  34.633  26.449  1.00  0.00     0.029 A 
ATOM     73  C   UNL A   1      49.259  33.317  26.411  1.00  0.00     0.049 A 
ATOM     74  H   UNL A   1      48.129  31.542  26.543  1.00  0.00     0.167 HD
ATOM     75  C   UNL A   1      50.945  31.509  26.216  1.00  0.00     0.074 A 
ATOM     76  C   UNL A   1      52.296  31.026  26.031  1.00  0.00     0.031 C 
ATOM     77  C   UNL A   1      50.603  32.821  26.258  1.00  0.00     0.037 A 
BRANCH  64  78
ATOM     78  C   UNL A   1      44.542  33.818  26.918  1.00  0.00     0.057 A 
ATOM     79  C   UNL A   1      43.889  34.310  25.781  1.00  0.00     0.134 A 
ATOM     80  C   UNL A   1      44.103  34.280  28.166  1.00  0.00     0.134 A 
ATOM     81  F   UNL A   1      44.276  33.925  24.555  1.00  0.00    -0.206 F 
ATOM     82  C   UNL A   1      42.859  35.247  25.878  1.00  0.00     0.040 A 
ATOM     83  C   UNL A   1      43.054  35.192  28.278  1.00  0.00     0.040 A 
ATOM     84  F   UNL A   1      44.686  33.851  29.295  1.00  0.00    -0.206 F 
ATOM     85  C   UNL A   1      42.434  35.684  27.132  1.00  0.00     0.006 A 
ENDBRANCH  64  78
BRANCH  65  86
ATOM     86  C   UNL A   1      51.669  26.857  26.185  1.00  0.00     0.057 A 
ATOM     87  C   UNL A   1      52.447  26.460  27.278  1.00  0.00     0.134 A 
ATOM     88  C   UNL A   1      51.972  26.288  24.942  1.00  0.00     0.134 A 
ATOM     89  F   UNL A   1      52.229  26.990  28.491  1.00  0.00    -0.206 F 
ATOM     90  C   UNL A   1      53.498  25.549  27.140  1.00  0.00     0.040 A 
ATOM     91  C   UNL A   1      53.000  25.355  24.793  1.00  0.00     0.040 A 
ATOM     92  F   UNL A   1      51.269  26.626  23.851  1.00  0.00    -0.206 F 
ATOM     93  C   UNL A   1      53.773  24.990  25.893  1.00  0.00     0.006 A 
ENDBRANCH  65  86
BRANCH  77  94
ATOM     94  C   UNL A   1      51.706  33.839  26.179  1.00  0.00     0.057 A 
ATOM     95  C   UNL A   1      52.158  34.363  24.962  1.00  0.00     0.134 A 
ATOM     96  C   UNL A   1      52.260  34.366  27.355  1.00  0.00     0.134 A 
ATOM     97  F   UNL A   1      51.676  33.897  23.800  1.00  0.00    -0.206 F 
ATOM     98  C   UNL A   1      53.129  35.365  24.917  1.00  0.00     0.040 A 
ATOM     99  C   UNL A   1      53.209  35.387  27.323  1.00  0.00     0.040 A 
ATOM    100  F   UNL A   1      51.861  33.918  28.555  1.00  0.00    -0.206 F 
ATOM    101  C   UNL A   1      53.648  35.888  26.100  1.00  0.00     0.006 A 
ENDBRANCH  77  94
ENDBRANCH  51  52
ENDBRANCH  44  46
ENDBRANCH  43  44
ENDBRANCH  42  43
ENDBRANCH  41  42
ENDBRANCH  40  41
ENDBRANCH  39  40
ENDBRANCH  38  39
ENDBRANCH  37  38
ENDBRANCH   1  37
TORSDOF 25
ENDMDL
