MODEL 1
REMARK VINA RESULT:      -9.2      0.000      0.000
REMARK SMILES C[C@H](CCO)S[C@H]1CC[C@]([NH2+]C2CC2)(C(=O)OCCOCCOCCOCCOC(=O)c2ccc(-c3c4nc(c(-c5c(F)cccc5F)c5ccc([nH]5)c(-c5c(F)cccc5F)c5nc(c(-c6c(F)cccc6F)c6ccc3[nH]6)C=C5)C=C4)cc2)C1
REMARK SMILES IDX 21 1 20 2 19 3 18 4 17 5 15 6 16 7 10 8 7 9 8 10 86 11 9 12
REMARK SMILES IDX 6 13 2 14 1 15 3 16 4 17 5 18 11 20 12 23 13 24 14 25 22 26
REMARK SMILES IDX 23 27 24 28 25 29 26 30 27 31 28 32 29 33 30 34 31 35 32 36
REMARK SMILES IDX 33 37 85 38 34 39 84 40 35 41 36 42 37 43 78 44 38 45 83 46
REMARK SMILES IDX 77 47 79 48 39 49 82 50 76 51 75 52 40 54 66 55 49 56 65 57
REMARK SMILES IDX 50 58 53 59 64 60 80 61 51 62 52 63 63 65 81 66 54 67 41 68
REMARK SMILES IDX 42 69 47 70 43 71 44 72 46 73 48 74 45 75 67 76 68 77 73 78
REMARK SMILES IDX 69 79 70 80 72 81 74 82 71 83 55 84 56 85 61 86 57 87 58 88
REMARK SMILES IDX 60 89 62 90 59 91
REMARK H PARENT 5 19 11 21 11 22 79 53 53 64
REMARK Flexibility Score: inf
ROOT
ATOM      1  C   UNL A   1      31.650  27.697  23.014  1.00  0.00     0.188 C 
ENDROOT
BRANCH   1   2
ATOM      2  O   UNL A   1      30.578  27.427  23.912  1.00  0.00    -0.376 OA
BRANCH   2   3
ATOM      3  C   UNL A   1      30.371  26.124  24.435  1.00  0.00     0.202 C 
BRANCH   3   4
ATOM      4  C   UNL A   1      31.385  24.990  24.197  1.00  0.00     0.261 C 
BRANCH   4   5
ATOM      5  O   UNL A   1      31.504  24.015  25.239  1.00  0.00    -0.459 OA
BRANCH   5   6
ATOM      6  C   UNL A   1      32.771  23.792  25.695  1.00  0.00     0.368 C 
ATOM      7  O   UNL A   1      33.378  24.571  26.421  1.00  0.00    -0.245 OA
BRANCH   6   8
ATOM      8  C   UNL A   1      33.385  22.480  25.105  1.00  0.00     0.195 C 
ATOM      9  C   UNL A   1      32.582  20.163  25.395  1.00  0.00     0.054 C 
ATOM     10  C   UNL A   1      33.275  20.616  26.669  1.00  0.00     0.022 C 
ATOM     11  C   UNL A   1      32.242  21.510  24.720  1.00  0.00     0.095 C 
ATOM     12  C   UNL A   1      34.122  21.819  26.283  1.00  0.00     0.082 C 
BRANCH   9  13
ATOM     13  S   UNL A   1      33.389  19.103  24.125  1.00  0.00    -0.155 SA
BRANCH  13  14
ATOM     14  C   UNL A   1      33.493  17.359  24.691  1.00  0.00     0.046 C 
ATOM     15  C   UNL A   1      34.049  16.542  23.529  1.00  0.00     0.019 C 
BRANCH  14  16
ATOM     16  C   UNL A   1      32.349  16.607  25.410  1.00  0.00     0.042 C 
BRANCH  16  17
ATOM     17  C   UNL A   1      32.580  15.128  25.746  1.00  0.00     0.157 C 
BRANCH  17  18
ATOM     18  O   UNL A   1      31.870  14.715  26.903  1.00  0.00    -0.396 OA
ATOM     19  H   UNL A   1      31.850  15.441  27.546  1.00  0.00     0.210 HD
ENDBRANCH  17  18
ENDBRANCH  16  17
ENDBRANCH  14  16
ENDBRANCH  13  14
ENDBRANCH   9  13
BRANCH   8  20
ATOM     20  N   UNL A   1      34.333  22.799  24.008  1.00  0.00    -0.330 N 
ATOM     21  H   UNL A   1      34.306  23.812  23.892  1.00  0.00     0.347 HD
ATOM     22  H   UNL A   1      33.992  22.204  23.252  1.00  0.00     0.347 HD
BRANCH  20  23
ATOM     23  C   UNL A   1      35.743  22.432  24.071  1.00  0.00     0.183 C 
ATOM     24  C   UNL A   1      36.717  22.900  23.028  1.00  0.00     0.071 C 
ATOM     25  C   UNL A   1      36.796  23.447  24.422  1.00  0.00     0.071 C 
ENDBRANCH  20  23
ENDBRANCH   8  20
ENDBRANCH   6   8
ENDBRANCH   5   6
ENDBRANCH   4   5
ENDBRANCH   3   4
ENDBRANCH   2   3
ENDBRANCH   1   2
BRANCH   1  26
ATOM     26  C   UNL A   1      32.824  28.599  23.427  1.00  0.00     0.188 C 
BRANCH  26  27
ATOM     27  O   UNL A   1      33.336  28.358  24.721  1.00  0.00    -0.377 OA
BRANCH  27  28
ATOM     28  C   UNL A   1      33.234  29.459  25.608  1.00  0.00     0.188 C 
BRANCH  28  29
ATOM     29  C   UNL A   1      31.834  30.092  25.771  1.00  0.00     0.188 C 
BRANCH  29  30
ATOM     30  O   UNL A   1      31.669  30.896  26.933  1.00  0.00    -0.376 OA
BRANCH  30  31
ATOM     31  C   UNL A   1      31.656  32.313  26.819  1.00  0.00     0.202 C 
BRANCH  31  32
ATOM     32  C   UNL A   1      32.688  33.141  27.611  1.00  0.00     0.261 C 
BRANCH  32  33
ATOM     33  O   UNL A   1      32.386  34.530  27.807  1.00  0.00    -0.460 OA
BRANCH  33  34
ATOM     34  C   UNL A   1      32.956  35.145  28.867  1.00  0.00     0.338 C 
ATOM     35  O   UNL A   1      32.497  36.056  29.519  1.00  0.00    -0.246 OA
BRANCH  34  36
ATOM     36  C   UNL A   1      34.162  34.368  29.239  1.00  0.00     0.060 A 
ATOM     37  C   UNL A   1      34.048  33.408  30.255  1.00  0.00     0.016 A 
ATOM     38  C   UNL A   1      35.381  34.564  28.585  1.00  0.00     0.016 A 
ATOM     39  C   UNL A   1      35.162  32.667  30.646  1.00  0.00     0.010 A 
ATOM     40  C   UNL A   1      36.506  33.845  29.003  1.00  0.00     0.010 A 
ATOM     41  C   UNL A   1      36.407  32.921  30.059  1.00  0.00    -0.014 A 
BRANCH  41  42
ATOM     42  C   UNL A   1      37.631  32.398  30.711  1.00  0.00     0.031 A 
ATOM     43  C   UNL A   1      38.290  31.189  30.107  1.00  0.00     0.074 A 
ATOM     44  C   UNL A   1      38.171  33.000  31.785  1.00  0.00     0.049 A 
ATOM     45  N   UNL A   1      39.338  30.521  30.511  1.00  0.00    -0.248 NA
ATOM     46  C   UNL A   1      37.679  30.661  28.874  1.00  0.00     0.031 C 
ATOM     47  C   UNL A   1      37.658  34.207  32.428  1.00  0.00     0.029 A 
ATOM     48  N   UNL A   1      39.275  32.662  32.528  1.00  0.00    -0.354 N 
ATOM     49  C   UNL A   1      39.505  29.492  29.593  1.00  0.00     0.074 A 
ATOM     50  C   UNL A   1      38.436  29.604  28.627  1.00  0.00     0.031 C 
ATOM     51  C   UNL A   1      38.439  34.501  33.483  1.00  0.00     0.029 A 
ATOM     52  C   UNL A   1      39.481  33.483  33.609  1.00  0.00     0.049 A 
ATOM     53  H   UNL A   1      39.863  31.904  32.307  1.00  0.00     0.167 HD
ATOM     54  C   UNL A   1      40.468  28.542  29.555  1.00  0.00     0.037 A 
ATOM     55  C   UNL A   1      40.392  33.402  34.599  1.00  0.00     0.037 A 
ATOM     56  C   UNL A   1      41.529  28.431  30.520  1.00  0.00     0.049 A 
ATOM     57  C   UNL A   1      41.404  32.282  34.582  1.00  0.00     0.074 A 
ATOM     58  C   UNL A   1      42.564  27.514  30.560  1.00  0.00     0.029 A 
ATOM     59  N   UNL A   1      41.683  29.259  31.622  1.00  0.00    -0.354 N 
ATOM     60  N   UNL A   1      41.571  31.328  33.698  1.00  0.00    -0.248 NA
ATOM     61  C   UNL A   1      42.355  32.232  35.702  1.00  0.00     0.031 C 
ATOM     62  C   UNL A   1      43.307  27.748  31.721  1.00  0.00     0.029 A 
ATOM     63  C   UNL A   1      42.777  28.853  32.368  1.00  0.00     0.049 A 
ATOM     64  H   UNL A   1      41.101  30.022  31.842  1.00  0.00     0.167 HD
ATOM     65  C   UNL A   1      42.663  30.586  34.137  1.00  0.00     0.074 A 
ATOM     66  C   UNL A   1      43.127  31.210  35.358  1.00  0.00     0.031 C 
ATOM     67  C   UNL A   1      43.232  29.489  33.578  1.00  0.00     0.037 A 
BRANCH  54  68
ATOM     68  C   UNL A   1      40.391  27.523  28.456  1.00  0.00     0.057 A 
ATOM     69  C   UNL A   1      39.628  26.354  28.575  1.00  0.00     0.134 A 
ATOM     70  C   UNL A   1      41.072  27.728  27.249  1.00  0.00     0.134 A 
ATOM     71  F   UNL A   1      38.965  26.086  29.711  1.00  0.00    -0.206 F 
ATOM     72  C   UNL A   1      39.563  25.416  27.543  1.00  0.00     0.040 A 
ATOM     73  C   UNL A   1      40.991  26.813  26.199  1.00  0.00     0.040 A 
ATOM     74  F   UNL A   1      41.820  28.826  27.068  1.00  0.00    -0.206 F 
ATOM     75  C   UNL A   1      40.240  25.650  26.346  1.00  0.00     0.006 A 
ENDBRANCH  54  68
BRANCH  55  76
ATOM     76  C   UNL A   1      40.380  34.389  35.709  1.00  0.00     0.057 A 
ATOM     77  C   UNL A   1      39.632  34.171  36.872  1.00  0.00     0.134 A 
ATOM     78  C   UNL A   1      41.090  35.593  35.618  1.00  0.00     0.134 A 
ATOM     79  F   UNL A   1      38.910  33.050  37.010  1.00  0.00    -0.206 F 
ATOM     80  C   UNL A   1      39.572  35.122  37.893  1.00  0.00     0.040 A 
ATOM     81  C   UNL A   1      41.063  36.540  36.644  1.00  0.00     0.040 A 
ATOM     82  F   UNL A   1      41.825  35.867  34.530  1.00  0.00    -0.206 F 
ATOM     83  C   UNL A   1      40.293  36.309  37.782  1.00  0.00     0.006 A 
ENDBRANCH  55  76
BRANCH  67  84
ATOM     84  C   UNL A   1      44.445  28.916  34.255  1.00  0.00     0.057 A 
ATOM     85  C   UNL A   1      45.740  29.377  33.978  1.00  0.00     0.134 A 
ATOM     86  C   UNL A   1      44.311  27.922  35.234  1.00  0.00     0.134 A 
ATOM     87  F   UNL A   1      45.941  30.320  33.046  1.00  0.00    -0.206 F 
ATOM     88  C   UNL A   1      46.856  28.850  34.631  1.00  0.00     0.040 A 
ATOM     89  C   UNL A   1      45.415  27.411  35.915  1.00  0.00     0.040 A 
ATOM     90  F   UNL A   1      43.099  27.445  35.558  1.00  0.00    -0.206 F 
ATOM     91  C   UNL A   1      46.695  27.870  35.608  1.00  0.00     0.006 A 
ENDBRANCH  67  84
ENDBRANCH  41  42
ENDBRANCH  34  36
ENDBRANCH  33  34
ENDBRANCH  32  33
ENDBRANCH  31  32
ENDBRANCH  30  31
ENDBRANCH  29  30
ENDBRANCH  28  29
ENDBRANCH  27  28
ENDBRANCH  26  27
ENDBRANCH   1  26
TORSDOF 27
ENDMDL
MODEL 2
REMARK VINA RESULT:      -8.3      7.606     13.220
REMARK SMILES C[C@H](CCO)S[C@H]1CC[C@]([NH2+]C2CC2)(C(=O)OCCOCCOCCOCCOC(=O)c2ccc(-c3c4nc(c(-c5c(F)cccc5F)c5ccc([nH]5)c(-c5c(F)cccc5F)c5nc(c(-c6c(F)cccc6F)c6ccc3[nH]6)C=C5)C=C4)cc2)C1
REMARK SMILES IDX 21 1 20 2 19 3 18 4 17 5 15 6 16 7 10 8 7 9 8 10 86 11 9 12
REMARK SMILES IDX 6 13 2 14 1 15 3 16 4 17 5 18 11 20 12 23 13 24 14 25 22 26
REMARK SMILES IDX 23 27 24 28 25 29 26 30 27 31 28 32 29 33 30 34 31 35 32 36
REMARK SMILES IDX 33 37 85 38 34 39 84 40 35 41 36 42 37 43 78 44 38 45 83 46
REMARK SMILES IDX 77 47 79 48 39 49 82 50 76 51 75 52 40 54 66 55 49 56 65 57
REMARK SMILES IDX 50 58 53 59 64 60 80 61 51 62 52 63 63 65 81 66 54 67 41 68
REMARK SMILES IDX 42 69 47 70 43 71 44 72 46 73 48 74 45 75 67 76 68 77 73 78
REMARK SMILES IDX 69 79 70 80 72 81 74 82 71 83 55 84 56 85 61 86 57 87 58 88
REMARK SMILES IDX 60 89 62 90 59 91
REMARK H PARENT 5 19 11 21 11 22 79 53 53 64
REMARK Flexibility Score: inf
ROOT
ATOM      1  C   UNL A   1      39.206  28.896  29.921  1.00  0.00     0.188 C 
ENDROOT
BRANCH   1   2
ATOM      2  O   UNL A   1      38.097  28.318  30.604  1.00  0.00    -0.376 OA
BRANCH   2   3
ATOM      3  C   UNL A   1      38.009  28.353  32.020  1.00  0.00     0.202 C 
BRANCH   3   4
ATOM      4  C   UNL A   1      38.531  29.554  32.830  1.00  0.00     0.261 C 
BRANCH   4   5
ATOM      5  O   UNL A   1      37.678  30.704  32.882  1.00  0.00    -0.459 OA
BRANCH   5   6
ATOM      6  C   UNL A   1      37.811  31.583  31.847  1.00  0.00     0.368 C 
ATOM      7  O   UNL A   1      38.884  32.061  31.496  1.00  0.00    -0.245 OA
BRANCH   6   8
ATOM      8  C   UNL A   1      36.428  31.983  31.234  1.00  0.00     0.195 C 
ATOM      9  C   UNL A   1      35.486  34.249  30.962  1.00  0.00     0.054 C 
ATOM     10  C   UNL A   1      35.385  33.836  32.421  1.00  0.00     0.022 C 
ATOM     11  C   UNL A   1      36.586  33.301  30.437  1.00  0.00     0.095 C 
ATOM     12  C   UNL A   1      35.539  32.323  32.443  1.00  0.00     0.082 C 
BRANCH   9  13
ATOM     13  S   UNL A   1      34.075  34.156  29.784  1.00  0.00    -0.155 SA
BRANCH  13  14
ATOM     14  C   UNL A   1      32.923  35.566  30.023  1.00  0.00     0.046 C 
ATOM     15  C   UNL A   1      33.308  36.638  29.008  1.00  0.00     0.019 C 
BRANCH  14  16
ATOM     16  C   UNL A   1      32.581  36.189  31.396  1.00  0.00     0.042 C 
BRANCH  16  17
ATOM     17  C   UNL A   1      33.566  37.217  31.969  1.00  0.00     0.157 C 
BRANCH  17  18
ATOM     18  O   UNL A   1      33.499  37.306  33.383  1.00  0.00    -0.396 OA
ATOM     19  H   UNL A   1      33.131  38.167  33.636  1.00  0.00     0.210 HD
ENDBRANCH  17  18
ENDBRANCH  16  17
ENDBRANCH  14  16
ENDBRANCH  13  14
ENDBRANCH   9  13
BRANCH   8  20
ATOM     20  N   UNL A   1      35.855  30.850  30.465  1.00  0.00    -0.330 N 
ATOM     21  H   UNL A   1      34.925  30.686  30.848  1.00  0.00     0.347 HD
ATOM     22  H   UNL A   1      36.572  30.132  30.577  1.00  0.00     0.347 HD
BRANCH  20  23
ATOM     23  C   UNL A   1      35.698  30.898  29.016  1.00  0.00     0.183 C 
ATOM     24  C   UNL A   1      36.865  30.671  28.098  1.00  0.00     0.071 C 
ATOM     25  C   UNL A   1      35.772  29.648  28.183  1.00  0.00     0.071 C 
ENDBRANCH  20  23
ENDBRANCH   8  20
ENDBRANCH   6   8
ENDBRANCH   5   6
ENDBRANCH   4   5
ENDBRANCH   3   4
ENDBRANCH   2   3
ENDBRANCH   1   2
BRANCH   1  26
ATOM     26  C   UNL A   1      40.590  28.228  29.944  1.00  0.00     0.188 C 
BRANCH  26  27
ATOM     27  O   UNL A   1      40.959  27.579  28.745  1.00  0.00    -0.377 OA
BRANCH  27  28
ATOM     28  C   UNL A   1      40.494  26.245  28.631  1.00  0.00     0.188 C 
BRANCH  28  29
ATOM     29  C   UNL A   1      39.346  25.992  27.628  1.00  0.00     0.188 C 
BRANCH  29  30
ATOM     30  O   UNL A   1      38.765  24.696  27.692  1.00  0.00    -0.376 OA
BRANCH  30  31
ATOM     31  C   UNL A   1      39.084  23.725  26.703  1.00  0.00     0.202 C 
BRANCH  31  32
ATOM     32  C   UNL A   1      40.401  22.933  26.823  1.00  0.00     0.261 C 
BRANCH  32  33
ATOM     33  O   UNL A   1      41.531  23.449  26.106  1.00  0.00    -0.460 OA
BRANCH  33  34
ATOM     34  C   UNL A   1      42.759  23.153  26.586  1.00  0.00     0.338 C 
ATOM     35  O   UNL A   1      43.220  22.053  26.792  1.00  0.00    -0.246 OA
BRANCH  34  36
ATOM     36  C   UNL A   1      43.541  24.412  26.620  1.00  0.00     0.060 A 
ATOM     37  C   UNL A   1      43.848  25.038  25.403  1.00  0.00     0.016 A 
ATOM     38  C   UNL A   1      43.947  24.980  27.829  1.00  0.00     0.016 A 
ATOM     39  C   UNL A   1      44.594  26.214  25.390  1.00  0.00     0.010 A 
ATOM     40  C   UNL A   1      44.727  26.142  27.813  1.00  0.00     0.010 A 
ATOM     41  C   UNL A   1      45.083  26.741  26.592  1.00  0.00    -0.014 A 
BRANCH  41  42
ATOM     42  C   UNL A   1      46.152  27.767  26.547  1.00  0.00     0.031 A 
ATOM     43  C   UNL A   1      45.746  29.213  26.626  1.00  0.00     0.074 A 
ATOM     44  C   UNL A   1      47.451  27.430  26.480  1.00  0.00     0.049 A 
ATOM     45  N   UNL A   1      46.483  30.290  26.565  1.00  0.00    -0.248 NA
ATOM     46  C   UNL A   1      44.307  29.477  26.796  1.00  0.00     0.031 C 
ATOM     47  C   UNL A   1      47.974  26.066  26.454  1.00  0.00     0.029 A 
ATOM     48  N   UNL A   1      48.570  28.223  26.414  1.00  0.00    -0.354 N 
ATOM     49  C   UNL A   1      45.600  31.356  26.678  1.00  0.00     0.074 A 
ATOM     50  C   UNL A   1      44.270  30.799  26.782  1.00  0.00     0.031 C 
ATOM     51  C   UNL A   1      49.315  26.116  26.360  1.00  0.00     0.029 A 
ATOM     52  C   UNL A   1      49.739  27.513  26.284  1.00  0.00     0.049 A 
ATOM     53  H   UNL A   1      48.539  29.206  26.456  1.00  0.00     0.167 HD
ATOM     54  C   UNL A   1      45.874  32.681  26.700  1.00  0.00     0.037 A 
ATOM     55  C   UNL A   1      51.001  27.948  26.096  1.00  0.00     0.037 A 
ATOM     56  C   UNL A   1      47.198  33.233  26.593  1.00  0.00     0.049 A 
ATOM     57  C   UNL A   1      51.271  29.431  26.038  1.00  0.00     0.074 A 
ATOM     58  C   UNL A   1      47.583  34.561  26.621  1.00  0.00     0.029 A 
ATOM     59  N   UNL A   1      48.353  32.483  26.424  1.00  0.00    -0.354 N 
ATOM     60  N   UNL A   1      50.435  30.433  26.170  1.00  0.00    -0.248 NA
ATOM     61  C   UNL A   1      52.664  29.842  25.806  1.00  0.00     0.031 C 
ATOM     62  C   UNL A   1      48.963  34.618  26.407  1.00  0.00     0.029 A 
ATOM     63  C   UNL A   1      49.449  33.324  26.314  1.00  0.00     0.049 A 
ATOM     64  H   UNL A   1      48.389  31.500  26.389  1.00  0.00     0.167 HD
ATOM     65  C   UNL A   1      51.203  31.588  26.070  1.00  0.00     0.074 A 
ATOM     66  C   UNL A   1      52.573  31.163  25.881  1.00  0.00     0.031 C 
ATOM     67  C   UNL A   1      50.809  32.885  26.133  1.00  0.00     0.037 A 
BRANCH  54  68
ATOM     68  C   UNL A   1      44.712  33.626  26.803  1.00  0.00     0.057 A 
ATOM     69  C   UNL A   1      44.031  34.098  25.673  1.00  0.00     0.134 A 
ATOM     70  C   UNL A   1      44.251  34.051  28.056  1.00  0.00     0.134 A 
ATOM     71  F   UNL A   1      44.431  33.745  24.441  1.00  0.00    -0.206 F 
ATOM     72  C   UNL A   1      42.950  34.973  25.784  1.00  0.00     0.040 A 
ATOM     73  C   UNL A   1      43.153  34.902  28.182  1.00  0.00     0.040 A 
ATOM     74  F   UNL A   1      44.857  33.637  29.179  1.00  0.00    -0.206 F 
ATOM     75  C   UNL A   1      42.503  35.371  27.043  1.00  0.00     0.006 A 
ENDBRANCH  54  68
BRANCH  55  76
ATOM     76  C   UNL A   1      52.109  26.973  25.920  1.00  0.00     0.057 A 
ATOM     77  C   UNL A   1      52.401  26.418  24.669  1.00  0.00     0.134 A 
ATOM     78  C   UNL A   1      52.880  26.546  27.009  1.00  0.00     0.134 A 
ATOM     79  F   UNL A   1      51.683  26.765  23.592  1.00  0.00    -0.206 F 
ATOM     80  C   UNL A   1      53.403  25.458  24.510  1.00  0.00     0.040 A 
ATOM     81  C   UNL A   1      53.905  25.610  26.859  1.00  0.00     0.040 A 
ATOM     82  F   UNL A   1      52.651  27.037  28.236  1.00  0.00    -0.206 F 
ATOM     83  C   UNL A   1      54.162  25.056  25.607  1.00  0.00     0.006 A 
ENDBRANCH  55  76
BRANCH  67  84
ATOM     84  C   UNL A   1      51.876  33.939  26.039  1.00  0.00     0.057 A 
ATOM     85  C   UNL A   1      52.296  34.468  24.812  1.00  0.00     0.134 A 
ATOM     86  C   UNL A   1      52.457  34.467  27.201  1.00  0.00     0.134 A 
ATOM     87  F   UNL A   1      51.787  34.002  23.661  1.00  0.00    -0.206 F 
ATOM     88  C   UNL A   1      53.273  35.463  24.742  1.00  0.00     0.040 A 
ATOM     89  C   UNL A   1      53.411  35.483  27.145  1.00  0.00     0.040 A 
ATOM     90  F   UNL A   1      52.092  34.016  28.411  1.00  0.00    -0.206 F 
ATOM     91  C   UNL A   1      53.827  35.979  25.911  1.00  0.00     0.006 A 
ENDBRANCH  67  84
ENDBRANCH  41  42
ENDBRANCH  34  36
ENDBRANCH  33  34
ENDBRANCH  32  33
ENDBRANCH  31  32
ENDBRANCH  30  31
ENDBRANCH  29  30
ENDBRANCH  28  29
ENDBRANCH  27  28
ENDBRANCH  26  27
ENDBRANCH   1  26
TORSDOF 27
ENDMDL
MODEL 3
REMARK VINA RESULT:      -8.1      7.524     13.271
REMARK SMILES C[C@H](CCO)S[C@H]1CC[C@]([NH2+]C2CC2)(C(=O)OCCOCCOCCOCCOC(=O)c2ccc(-c3c4nc(c(-c5c(F)cccc5F)c5ccc([nH]5)c(-c5c(F)cccc5F)c5nc(c(-c6c(F)cccc6F)c6ccc3[nH]6)C=C5)C=C4)cc2)C1
REMARK SMILES IDX 21 1 20 2 19 3 18 4 17 5 15 6 16 7 10 8 7 9 8 10 86 11 9 12
REMARK SMILES IDX 6 13 2 14 1 15 3 16 4 17 5 18 11 20 12 23 13 24 14 25 22 26
REMARK SMILES IDX 23 27 24 28 25 29 26 30 27 31 28 32 29 33 30 34 31 35 32 36
REMARK SMILES IDX 33 37 85 38 34 39 84 40 35 41 36 42 37 43 78 44 38 45 83 46
REMARK SMILES IDX 77 47 79 48 39 49 82 50 76 51 75 52 40 54 66 55 49 56 65 57
REMARK SMILES IDX 50 58 53 59 64 60 80 61 51 62 52 63 63 65 81 66 54 67 41 68
REMARK SMILES IDX 42 69 47 70 43 71 44 72 46 73 48 74 45 75 67 76 68 77 73 78
REMARK SMILES IDX 69 79 70 80 72 81 74 82 71 83 55 84 56 85 61 86 57 87 58 88
REMARK SMILES IDX 60 89 62 90 59 91
REMARK H PARENT 5 19 11 21 11 22 79 53 53 64
REMARK Flexibility Score: inf
ROOT
ATOM      1  C   UNL A   1      38.973  30.015  29.099  1.00  0.00     0.188 C 
ENDROOT
BRANCH   1   2
ATOM      2  O   UNL A   1      37.857  29.205  29.456  1.00  0.00    -0.376 OA
BRANCH   2   3
ATOM      3  C   UNL A   1      37.657  28.784  30.797  1.00  0.00     0.202 C 
BRANCH   3   4
ATOM      4  C   UNL A   1      37.863  29.744  31.982  1.00  0.00     0.261 C 
BRANCH   4   5
ATOM      5  O   UNL A   1      36.899  30.795  32.124  1.00  0.00    -0.459 OA
BRANCH   5   6
ATOM      6  C   UNL A   1      37.137  31.680  33.134  1.00  0.00     0.368 C 
ATOM      7  O   UNL A   1      37.614  31.362  34.218  1.00  0.00    -0.245 OA
BRANCH   6   8
ATOM      8  C   UNL A   1      36.639  33.121  32.782  1.00  0.00     0.195 C 
ATOM      9  C   UNL A   1      34.418  34.108  33.218  1.00  0.00     0.054 C 
ATOM     10  C   UNL A   1      34.318  33.148  32.044  1.00  0.00     0.022 C 
ATOM     11  C   UNL A   1      35.712  33.629  33.913  1.00  0.00     0.095 C 
ATOM     12  C   UNL A   1      35.740  32.941  31.547  1.00  0.00     0.082 C 
BRANCH   9  13
ATOM     13  S   UNL A   1      34.544  35.934  33.024  1.00  0.00    -0.155 SA
BRANCH  13  14
ATOM     14  C   UNL A   1      33.133  36.592  32.049  1.00  0.00     0.046 C 
ATOM     15  C   UNL A   1      31.893  35.807  32.467  1.00  0.00     0.019 C 
BRANCH  14  16
ATOM     16  C   UNL A   1      33.163  36.823  30.521  1.00  0.00     0.042 C 
BRANCH  16  17
ATOM     17  C   UNL A   1      33.160  35.581  29.620  1.00  0.00     0.157 C 
BRANCH  17  18
ATOM     18  O   UNL A   1      32.336  35.740  28.476  1.00  0.00    -0.396 OA
ATOM     19  H   UNL A   1      31.411  35.826  28.754  1.00  0.00     0.210 HD
ENDBRANCH  17  18
ENDBRANCH  16  17
ENDBRANCH  14  16
ENDBRANCH  13  14
ENDBRANCH   9  13
BRANCH   8  20
ATOM     20  N   UNL A   1      37.789  34.005  32.468  1.00  0.00    -0.330 N 
ATOM     21  H   UNL A   1      38.524  33.765  33.133  1.00  0.00     0.347 HD
ATOM     22  H   UNL A   1      37.364  34.931  32.511  1.00  0.00     0.347 HD
BRANCH  20  23
ATOM     23  C   UNL A   1      38.418  34.020  31.152  1.00  0.00     0.183 C 
ATOM     24  C   UNL A   1      39.822  34.522  30.966  1.00  0.00     0.071 C 
ATOM     25  C   UNL A   1      39.525  33.061  30.808  1.00  0.00     0.071 C 
ENDBRANCH  20  23
ENDBRANCH   8  20
ENDBRANCH   6   8
ENDBRANCH   5   6
ENDBRANCH   4   5
ENDBRANCH   3   4
ENDBRANCH   2   3
ENDBRANCH   1   2
BRANCH   1  26
ATOM     26  C   UNL A   1      40.380  29.411  28.956  1.00  0.00     0.188 C 
BRANCH  26  27
ATOM     27  O   UNL A   1      40.544  28.534  27.862  1.00  0.00    -0.377 OA
BRANCH  27  28
ATOM     28  C   UNL A   1      40.622  27.163  28.213  1.00  0.00     0.188 C 
BRANCH  28  29
ATOM     29  C   UNL A   1      40.140  26.146  27.153  1.00  0.00     0.188 C 
BRANCH  29  30
ATOM     30  O   UNL A   1      39.020  25.360  27.540  1.00  0.00    -0.376 OA
BRANCH  30  31
ATOM     31  C   UNL A   1      38.925  24.005  27.122  1.00  0.00     0.202 C 
BRANCH  31  32
ATOM     32  C   UNL A   1      40.196  23.132  27.106  1.00  0.00     0.261 C 
BRANCH  32  33
ATOM     33  O   UNL A   1      41.212  23.489  26.158  1.00  0.00    -0.460 OA
BRANCH  33  34
ATOM     34  C   UNL A   1      42.485  23.144  26.454  1.00  0.00     0.338 C 
ATOM     35  O   UNL A   1      42.953  22.028  26.487  1.00  0.00    -0.246 OA
BRANCH  34  36
ATOM     36  C   UNL A   1      43.280  24.393  26.523  1.00  0.00     0.060 A 
ATOM     37  C   UNL A   1      43.603  25.045  25.324  1.00  0.00     0.016 A 
ATOM     38  C   UNL A   1      43.686  24.927  27.748  1.00  0.00     0.016 A 
ATOM     39  C   UNL A   1      44.363  26.212  25.344  1.00  0.00     0.010 A 
ATOM     40  C   UNL A   1      44.479  26.079  27.765  1.00  0.00     0.010 A 
ATOM     41  C   UNL A   1      44.850  26.704  26.561  1.00  0.00    -0.014 A 
BRANCH  41  42
ATOM     42  C   UNL A   1      45.931  27.718  26.547  1.00  0.00     0.031 A 
ATOM     43  C   UNL A   1      45.541  29.166  26.660  1.00  0.00     0.074 A 
ATOM     44  C   UNL A   1      47.226  27.367  26.480  1.00  0.00     0.049 A 
ATOM     45  N   UNL A   1      46.291  30.236  26.630  1.00  0.00    -0.248 NA
ATOM     46  C   UNL A   1      44.104  29.443  26.828  1.00  0.00     0.031 C 
ATOM     47  C   UNL A   1      47.733  25.998  26.423  1.00  0.00     0.029 A 
ATOM     48  N   UNL A   1      48.355  28.149  26.440  1.00  0.00    -0.354 N 
ATOM     49  C   UNL A   1      45.419  31.309  26.764  1.00  0.00     0.074 A 
ATOM     50  C   UNL A   1      44.082  30.765  26.847  1.00  0.00     0.031 C 
ATOM     51  C   UNL A   1      49.075  26.036  26.338  1.00  0.00     0.029 A 
ATOM     52  C   UNL A   1      49.516  27.429  26.299  1.00  0.00     0.049 A 
ATOM     53  H   UNL A   1      48.334  29.131  26.506  1.00  0.00     0.167 HD
ATOM     54  C   UNL A   1      45.708  32.630  26.820  1.00  0.00     0.037 A 
ATOM     55  C   UNL A   1      50.784  27.853  26.129  1.00  0.00     0.037 A 
ATOM     56  C   UNL A   1      47.039  33.168  26.735  1.00  0.00     0.049 A 
ATOM     57  C   UNL A   1      51.071  29.334  26.109  1.00  0.00     0.074 A 
ATOM     58  C   UNL A   1      47.439  34.491  26.798  1.00  0.00     0.029 A 
ATOM     59  N   UNL A   1      48.186  32.410  26.554  1.00  0.00    -0.354 N 
ATOM     60  N   UNL A   1      50.246  30.342  26.261  1.00  0.00    -0.248 NA
ATOM     61  C   UNL A   1      52.470  29.735  25.895  1.00  0.00     0.031 C 
ATOM     62  C   UNL A   1      48.821  34.538  26.593  1.00  0.00     0.029 A 
ATOM     63  C   UNL A   1      49.292  33.240  26.471  1.00  0.00     0.049 A 
ATOM     64  H   UNL A   1      48.211  31.427  26.495  1.00  0.00     0.167 HD
ATOM     65  C   UNL A   1      51.028  31.491  26.195  1.00  0.00     0.074 A 
ATOM     66  C   UNL A   1      52.394  31.055  26.002  1.00  0.00     0.031 C 
ATOM     67  C   UNL A   1      50.649  32.790  26.287  1.00  0.00     0.037 A 
BRANCH  54  68
ATOM     68  C   UNL A   1      44.557  33.586  26.941  1.00  0.00     0.057 A 
ATOM     69  C   UNL A   1      44.060  34.003  28.183  1.00  0.00     0.134 A 
ATOM     70  C   UNL A   1      43.952  34.117  25.794  1.00  0.00     0.134 A 
ATOM     71  F   UNL A   1      44.581  33.519  29.321  1.00  0.00    -0.206 F 
ATOM     72  C   UNL A   1      42.991  34.895  28.279  1.00  0.00     0.040 A 
ATOM     73  C   UNL A   1      42.903  35.033  25.877  1.00  0.00     0.040 A 
ATOM     74  F   UNL A   1      44.379  33.761  24.573  1.00  0.00    -0.206 F 
ATOM     75  C   UNL A   1      42.415  35.419  27.123  1.00  0.00     0.006 A 
ENDBRANCH  54  68
BRANCH  55  76
ATOM     76  C   UNL A   1      51.882  26.871  25.936  1.00  0.00     0.057 A 
ATOM     77  C   UNL A   1      52.651  26.415  27.013  1.00  0.00     0.134 A 
ATOM     78  C   UNL A   1      52.212  26.391  24.662  1.00  0.00     0.134 A 
ATOM     79  F   UNL A   1      52.403  26.857  28.254  1.00  0.00    -0.206 F 
ATOM     80  C   UNL A   1      53.721  25.537  26.829  1.00  0.00     0.040 A 
ATOM     81  C   UNL A   1      53.259  25.489  24.467  1.00  0.00     0.040 A 
ATOM     82  F   UNL A   1      51.516  26.789  23.586  1.00  0.00    -0.206 F 
ATOM     83  C   UNL A   1      54.024  25.067  25.552  1.00  0.00     0.006 A 
ENDBRANCH  55  76
BRANCH  67  84
ATOM     84  C   UNL A   1      51.728  33.834  26.226  1.00  0.00     0.057 A 
ATOM     85  C   UNL A   1      52.180  34.369  25.012  1.00  0.00     0.134 A 
ATOM     86  C   UNL A   1      52.289  34.346  27.404  1.00  0.00     0.134 A 
ATOM     87  F   UNL A   1      51.692  33.917  23.847  1.00  0.00    -0.206 F 
ATOM     88  C   UNL A   1      53.169  35.354  24.972  1.00  0.00     0.040 A 
ATOM     89  C   UNL A   1      53.254  35.353  27.377  1.00  0.00     0.040 A 
ATOM     90  F   UNL A   1      51.893  33.889  28.602  1.00  0.00    -0.206 F 
ATOM     91  C   UNL A   1      53.702  35.854  26.157  1.00  0.00     0.006 A 
ENDBRANCH  67  84
ENDBRANCH  41  42
ENDBRANCH  34  36
ENDBRANCH  33  34
ENDBRANCH  32  33
ENDBRANCH  31  32
ENDBRANCH  30  31
ENDBRANCH  29  30
ENDBRANCH  28  29
ENDBRANCH  27  28
ENDBRANCH  26  27
ENDBRANCH   1  26
TORSDOF 27
ENDMDL
