MODEL 1
REMARK VINA RESULT:      -9.3      0.000      0.000
REMARK SMILES C[C@H](CCC(=O)OCCOCCOCCOCCOC(=O)c1ccc(-c2c3nc(c(-c4c(F)cccc4F)c4ccc([nH]4)c(-c4c(F)cccc4F)c4nc(c(-c5c(F)cccc5F)c5ccc2[nH]5)C=C4)C=C3)cc1)NC(=O)OC(C)(C)C
REMARK SMILES IDX 11 1 10 2 9 3 8 4 7 5 5 6 6 7 4 8 3 9 2 10 1 11 76 12 77 13
REMARK SMILES IDX 78 15 79 16 80 17 81 18 82 19 83 20 12 21 13 22 14 23 15 24
REMARK SMILES IDX 16 25 17 26 18 27 19 28 20 29 21 30 22 31 23 32 75 33 24 34
REMARK SMILES IDX 74 35 25 36 26 37 27 38 68 39 28 40 73 41 67 42 69 43 29 44
REMARK SMILES IDX 72 45 66 46 65 47 30 49 56 50 39 51 55 52 40 53 43 54 54 55
REMARK SMILES IDX 70 56 41 57 42 58 53 60 71 61 44 62 31 63 32 64 37 65 33 66
REMARK SMILES IDX 34 67 36 68 38 69 35 70 57 71 58 72 63 73 59 74 60 75 62 76
REMARK SMILES IDX 64 77 61 78 45 79 46 80 51 81 47 82 48 83 50 84 52 85 49 86
REMARK H PARENT 76 14 69 48 43 59
REMARK Flexibility Score: inf
ROOT
ATOM      1  C   UNL A   1      34.139  35.620  28.182  1.00  0.00     0.188 C 
ENDROOT
BRANCH   1   2
ATOM      2  O   UNL A   1      33.460  34.388  28.102  1.00  0.00    -0.376 OA
BRANCH   2   3
ATOM      3  C   UNL A   1      34.044  33.257  28.720  1.00  0.00     0.202 C 
BRANCH   3   4
ATOM      4  C   UNL A   1      34.579  32.061  27.905  1.00  0.00     0.261 C 
BRANCH   4   5
ATOM      5  O   UNL A   1      33.610  31.185  27.303  1.00  0.00    -0.463 OA
BRANCH   5   6
ATOM      6  C   UNL A   1      33.929  29.872  27.284  1.00  0.00     0.305 C 
ATOM      7  O   UNL A   1      34.872  29.386  27.902  1.00  0.00    -0.252 OA
BRANCH   6   8
ATOM      8  C   UNL A   1      33.002  28.990  26.481  1.00  0.00     0.125 C 
BRANCH   8   9
ATOM      9  C   UNL A   1      33.122  28.828  24.968  1.00  0.00     0.036 C 
BRANCH   9  10
ATOM     10  C   UNL A   1      32.356  27.704  24.258  1.00  0.00     0.083 C 
ATOM     11  C   UNL A   1      30.853  27.918  24.123  1.00  0.00     0.031 C 
BRANCH  10  12
ATOM     12  N   UNL A   1      32.948  27.334  22.986  1.00  0.00    -0.319 N 
ATOM     13  C   UNL A   1      33.149  26.058  22.557  1.00  0.00     0.407 C 
ATOM     14  H   UNL A   1      33.226  28.063  22.386  1.00  0.00     0.167 HD
ATOM     15  O   UNL A   1      33.677  25.825  21.476  1.00  0.00    -0.225 OA
BRANCH  13  16
ATOM     16  O   UNL A   1      32.704  25.145  23.446  1.00  0.00    -0.444 OA
BRANCH  16  17
ATOM     17  C   UNL A   1      33.544  24.063  23.907  1.00  0.00     0.106 C 
ATOM     18  C   UNL A   1      33.756  23.011  22.816  1.00  0.00     0.056 C 
ATOM     19  C   UNL A   1      34.859  24.616  24.460  1.00  0.00     0.056 C 
ATOM     20  C   UNL A   1      32.750  23.424  25.058  1.00  0.00     0.056 C 
ENDBRANCH  16  17
ENDBRANCH  13  16
ENDBRANCH  10  12
ENDBRANCH   9  10
ENDBRANCH   8   9
ENDBRANCH   6   8
ENDBRANCH   5   6
ENDBRANCH   4   5
ENDBRANCH   3   4
ENDBRANCH   2   3
ENDBRANCH   1   2
BRANCH   1  21
ATOM     21  C   UNL A   1      33.297  36.667  28.918  1.00  0.00     0.188 C 
BRANCH  21  22
ATOM     22  O   UNL A   1      32.490  36.238  30.007  1.00  0.00    -0.377 OA
BRANCH  22  23
ATOM     23  C   UNL A   1      32.959  36.381  31.345  1.00  0.00     0.188 C 
BRANCH  23  24
ATOM     24  C   UNL A   1      34.207  35.619  31.820  1.00  0.00     0.188 C 
BRANCH  24  25
ATOM     25  O   UNL A   1      34.818  35.936  33.065  1.00  0.00    -0.376 OA
BRANCH  25  26
ATOM     26  C   UNL A   1      35.206  34.897  33.946  1.00  0.00     0.202 C 
BRANCH  26  27
ATOM     27  C   UNL A   1      36.327  33.975  33.480  1.00  0.00     0.261 C 
BRANCH  27  28
ATOM     28  O   UNL A   1      35.984  32.588  33.557  1.00  0.00    -0.460 OA
BRANCH  28  29
ATOM     29  C   UNL A   1      35.449  32.072  32.427  1.00  0.00     0.338 C 
ATOM     30  O   UNL A   1      34.358  32.303  31.939  1.00  0.00    -0.246 OA
BRANCH  29  31
ATOM     31  C   UNL A   1      36.445  31.201  31.787  1.00  0.00     0.060 A 
ATOM     32  C   UNL A   1      37.153  30.286  32.577  1.00  0.00     0.016 A 
ATOM     33  C   UNL A   1      36.751  31.376  30.436  1.00  0.00     0.016 A 
ATOM     34  C   UNL A   1      38.220  29.579  32.027  1.00  0.00     0.010 A 
ATOM     35  C   UNL A   1      37.822  30.675  29.891  1.00  0.00     0.010 A 
ATOM     36  C   UNL A   1      38.586  29.814  30.697  1.00  0.00    -0.014 A 
BRANCH  36  37
ATOM     37  C   UNL A   1      39.880  29.331  30.171  1.00  0.00     0.031 A 
ATOM     38  C   UNL A   1      41.004  30.317  30.041  1.00  0.00     0.074 A 
ATOM     39  C   UNL A   1      40.023  28.065  29.753  1.00  0.00     0.049 A 
ATOM     40  N   UNL A   1      42.151  30.197  29.426  1.00  0.00    -0.248 NA
ATOM     41  C   UNL A   1      40.790  31.628  30.673  1.00  0.00     0.031 C 
ATOM     42  C   UNL A   1      39.012  27.019  29.869  1.00  0.00     0.029 A 
ATOM     43  N   UNL A   1      41.070  27.462  29.106  1.00  0.00    -0.354 N 
ATOM     44  C   UNL A   1      42.781  31.426  29.570  1.00  0.00     0.074 A 
ATOM     45  C   UNL A   1      41.881  32.283  30.309  1.00  0.00     0.031 C 
ATOM     46  C   UNL A   1      39.473  25.906  29.274  1.00  0.00     0.029 A 
ATOM     47  C   UNL A   1      40.787  26.183  28.696  1.00  0.00     0.049 A 
ATOM     48  H   UNL A   1      41.938  27.901  28.950  1.00  0.00     0.167 HD
ATOM     49  C   UNL A   1      44.002  31.803  29.121  1.00  0.00     0.037 A 
ATOM     50  C   UNL A   1      41.492  25.352  27.904  1.00  0.00     0.037 A 
ATOM     51  C   UNL A   1      44.879  30.937  28.377  1.00  0.00     0.049 A 
ATOM     52  C   UNL A   1      42.819  25.806  27.359  1.00  0.00     0.074 A 
ATOM     53  C   UNL A   1      46.149  31.199  27.897  1.00  0.00     0.029 A 
ATOM     54  N   UNL A   1      44.565  29.639  27.993  1.00  0.00    -0.354 N 
ATOM     55  N   UNL A   1      43.426  26.959  27.513  1.00  0.00    -0.248 NA
ATOM     56  C   UNL A   1      43.560  24.845  26.532  1.00  0.00     0.031 C 
ATOM     57  C   UNL A   1      46.575  30.087  27.165  1.00  0.00     0.029 A 
ATOM     58  C   UNL A   1      45.604  29.100  27.254  1.00  0.00     0.049 A 
ATOM     59  H   UNL A   1      43.726  29.172  28.214  1.00  0.00     0.167 HD
ATOM     60  C   UNL A   1      44.634  26.851  26.834  1.00  0.00     0.074 A 
ATOM     61  C   UNL A   1      44.672  25.518  26.266  1.00  0.00     0.031 C 
ATOM     62  C   UNL A   1      45.626  27.767  26.704  1.00  0.00     0.037 A 
BRANCH  49  63
ATOM     63  C   UNL A   1      44.421  33.223  29.375  1.00  0.00     0.057 A 
ATOM     64  C   UNL A   1      44.242  34.240  28.427  1.00  0.00     0.134 A 
ATOM     65  C   UNL A   1      45.030  33.576  30.587  1.00  0.00     0.134 A 
ATOM     66  F   UNL A   1      43.678  33.971  27.239  1.00  0.00    -0.206 F 
ATOM     67  C   UNL A   1      44.693  35.542  28.655  1.00  0.00     0.040 A 
ATOM     68  C   UNL A   1      45.453  34.882  30.840  1.00  0.00     0.040 A 
ATOM     69  F   UNL A   1      45.229  32.657  31.544  1.00  0.00    -0.206 F 
ATOM     70  C   UNL A   1      45.298  35.866  29.867  1.00  0.00     0.006 A 
ENDBRANCH  49  63
BRANCH  50  71
ATOM     71  C   UNL A   1      40.935  24.017  27.577  1.00  0.00     0.057 A 
ATOM     72  C   UNL A   1      39.926  23.871  26.619  1.00  0.00     0.134 A 
ATOM     73  C   UNL A   1      41.428  22.853  28.180  1.00  0.00     0.134 A 
ATOM     74  F   UNL A   1      39.402  24.950  26.020  1.00  0.00    -0.206 F 
ATOM     75  C   UNL A   1      39.423  22.615  26.275  1.00  0.00     0.040 A 
ATOM     76  C   UNL A   1      40.953  21.589  27.826  1.00  0.00     0.040 A 
ATOM     77  F   UNL A   1      42.401  22.926  29.100  1.00  0.00    -0.206 F 
ATOM     78  C   UNL A   1      39.945  21.469  26.873  1.00  0.00     0.006 A 
ENDBRANCH  50  71
BRANCH  62  79
ATOM     79  C   UNL A   1      46.868  27.349  25.968  1.00  0.00     0.057 A 
ATOM     80  C   UNL A   1      47.044  27.590  24.600  1.00  0.00     0.134 A 
ATOM     81  C   UNL A   1      47.935  26.764  26.664  1.00  0.00     0.134 A 
ATOM     82  F   UNL A   1      46.058  28.137  23.873  1.00  0.00    -0.206 F 
ATOM     83  C   UNL A   1      48.232  27.252  23.949  1.00  0.00     0.040 A 
ATOM     84  C   UNL A   1      49.137  26.451  26.030  1.00  0.00     0.040 A 
ATOM     85  F   UNL A   1      47.836  26.515  27.979  1.00  0.00    -0.206 F 
ATOM     86  C   UNL A   1      49.287  26.691  24.667  1.00  0.00     0.006 A 
ENDBRANCH  62  79
ENDBRANCH  36  37
ENDBRANCH  29  31
ENDBRANCH  28  29
ENDBRANCH  27  28
ENDBRANCH  26  27
ENDBRANCH  25  26
ENDBRANCH  24  25
ENDBRANCH  23  24
ENDBRANCH  22  23
ENDBRANCH  21  22
ENDBRANCH   1  21
TORSDOF 25
ENDMDL
MODEL 2
REMARK VINA RESULT:      -9.0      4.132      9.000
REMARK SMILES C[C@H](CCC(=O)OCCOCCOCCOCCOC(=O)c1ccc(-c2c3nc(c(-c4c(F)cccc4F)c4ccc([nH]4)c(-c4c(F)cccc4F)c4nc(c(-c5c(F)cccc5F)c5ccc2[nH]5)C=C4)C=C3)cc1)NC(=O)OC(C)(C)C
REMARK SMILES IDX 11 1 10 2 9 3 8 4 7 5 5 6 6 7 4 8 3 9 2 10 1 11 76 12 77 13
REMARK SMILES IDX 78 15 79 16 80 17 81 18 82 19 83 20 12 21 13 22 14 23 15 24
REMARK SMILES IDX 16 25 17 26 18 27 19 28 20 29 21 30 22 31 23 32 75 33 24 34
REMARK SMILES IDX 74 35 25 36 26 37 27 38 68 39 28 40 73 41 67 42 69 43 29 44
REMARK SMILES IDX 72 45 66 46 65 47 30 49 56 50 39 51 55 52 40 53 43 54 54 55
REMARK SMILES IDX 70 56 41 57 42 58 53 60 71 61 44 62 31 63 32 64 37 65 33 66
REMARK SMILES IDX 34 67 36 68 38 69 35 70 57 71 58 72 63 73 59 74 60 75 62 76
REMARK SMILES IDX 64 77 61 78 45 79 46 80 51 81 47 82 48 83 50 84 52 85 49 86
REMARK H PARENT 76 14 69 48 43 59
REMARK Flexibility Score: inf
ROOT
ATOM      1  C   UNL A   1      31.171  27.057  22.427  1.00  0.00     0.188 C 
ENDROOT
BRANCH   1   2
ATOM      2  O   UNL A   1      31.580  25.710  22.474  1.00  0.00    -0.376 OA
BRANCH   2   3
ATOM      3  C   UNL A   1      32.921  25.402  22.144  1.00  0.00     0.202 C 
BRANCH   3   4
ATOM      4  C   UNL A   1      33.607  24.105  22.623  1.00  0.00     0.261 C 
BRANCH   4   5
ATOM      5  O   UNL A   1      34.675  24.235  23.577  1.00  0.00    -0.463 OA
BRANCH   5   6
ATOM      6  C   UNL A   1      35.678  23.335  23.470  1.00  0.00     0.305 C 
ATOM      7  O   UNL A   1      36.151  22.958  22.401  1.00  0.00    -0.252 OA
BRANCH   6   8
ATOM      8  C   UNL A   1      36.247  22.839  24.778  1.00  0.00     0.125 C 
BRANCH   8   9
ATOM      9  C   UNL A   1      35.420  22.752  26.058  1.00  0.00     0.036 C 
BRANCH   9  10
ATOM     10  C   UNL A   1      34.376  21.639  26.217  1.00  0.00     0.083 C 
ATOM     11  C   UNL A   1      33.821  21.456  27.624  1.00  0.00     0.031 C 
BRANCH  10  12
ATOM     12  N   UNL A   1      33.306  21.725  25.241  1.00  0.00    -0.319 N 
ATOM     13  C   UNL A   1      33.052  20.802  24.273  1.00  0.00     0.407 C 
ATOM     14  H   UNL A   1      32.717  22.513  25.281  1.00  0.00     0.167 HD
ATOM     15  O   UNL A   1      32.141  20.957  23.469  1.00  0.00    -0.225 OA
BRANCH  13  16
ATOM     16  O   UNL A   1      33.901  19.755  24.332  1.00  0.00    -0.444 OA
BRANCH  16  17
ATOM     17  C   UNL A   1      33.427  18.390  24.300  1.00  0.00     0.106 C 
ATOM     18  C   UNL A   1      32.652  18.034  25.572  1.00  0.00     0.056 C 
ATOM     19  C   UNL A   1      32.618  18.143  23.025  1.00  0.00     0.056 C 
ATOM     20  C   UNL A   1      34.706  17.540  24.251  1.00  0.00     0.056 C 
ENDBRANCH  16  17
ENDBRANCH  13  16
ENDBRANCH  10  12
ENDBRANCH   9  10
ENDBRANCH   8   9
ENDBRANCH   6   8
ENDBRANCH   5   6
ENDBRANCH   4   5
ENDBRANCH   3   4
ENDBRANCH   2   3
ENDBRANCH   1   2
BRANCH   1  21
ATOM     21  C   UNL A   1      31.731  27.847  23.614  1.00  0.00     0.188 C 
BRANCH  21  22
ATOM     22  O   UNL A   1      31.196  27.592  24.906  1.00  0.00    -0.377 OA
BRANCH  22  23
ATOM     23  C   UNL A   1      32.061  27.506  26.036  1.00  0.00     0.188 C 
BRANCH  23  24
ATOM     24  C   UNL A   1      31.870  28.445  27.239  1.00  0.00     0.188 C 
BRANCH  24  25
ATOM     25  O   UNL A   1      32.327  29.790  27.184  1.00  0.00    -0.376 OA
BRANCH  25  26
ATOM     26  C   UNL A   1      31.573  30.764  26.482  1.00  0.00     0.202 C 
BRANCH  26  27
ATOM     27  C   UNL A   1      31.783  32.221  26.876  1.00  0.00     0.261 C 
BRANCH  27  28
ATOM     28  O   UNL A   1      33.102  32.488  27.365  1.00  0.00    -0.460 OA
BRANCH  28  29
ATOM     29  C   UNL A   1      33.227  33.643  28.058  1.00  0.00     0.338 C 
ATOM     30  O   UNL A   1      32.509  34.625  28.016  1.00  0.00    -0.246 OA
BRANCH  29  31
ATOM     31  C   UNL A   1      34.367  33.521  28.977  1.00  0.00     0.060 A 
ATOM     32  C   UNL A   1      35.577  34.144  28.644  1.00  0.00     0.016 A 
ATOM     33  C   UNL A   1      34.266  32.699  30.101  1.00  0.00     0.016 A 
ATOM     34  C   UNL A   1      36.715  33.896  29.407  1.00  0.00     0.010 A 
ATOM     35  C   UNL A   1      35.405  32.447  30.858  1.00  0.00     0.010 A 
ATOM     36  C   UNL A   1      36.639  33.006  30.484  1.00  0.00    -0.014 A 
BRANCH  36  37
ATOM     37  C   UNL A   1      37.865  32.479  31.120  1.00  0.00     0.031 A 
ATOM     38  C   UNL A   1      38.586  31.352  30.439  1.00  0.00     0.074 A 
ATOM     39  C   UNL A   1      38.279  32.945  32.307  1.00  0.00     0.049 A 
ATOM     40  N   UNL A   1      39.548  30.589  30.887  1.00  0.00    -0.248 NA
ATOM     41  C   UNL A   1      38.141  31.029  29.075  1.00  0.00     0.031 C 
ATOM     42  C   UNL A   1      37.677  34.059  33.033  1.00  0.00     0.029 A 
ATOM     43  N   UNL A   1      39.284  32.503  33.127  1.00  0.00    -0.354 N 
ATOM     44  C   UNL A   1      39.801  29.675  29.872  1.00  0.00     0.074 A 
ATOM     45  C   UNL A   1      38.877  29.965  28.798  1.00  0.00     0.031 C 
ATOM     46  C   UNL A   1      38.301  34.191  34.215  1.00  0.00     0.029 A 
ATOM     47  C   UNL A   1      39.309  33.139  34.342  1.00  0.00     0.049 A 
ATOM     48  H   UNL A   1      39.924  31.800  32.870  1.00  0.00     0.167 HD
ATOM     49  C   UNL A   1      40.721  28.682  29.844  1.00  0.00     0.037 A 
ATOM     50  C   UNL A   1      40.031  32.869  35.446  1.00  0.00     0.037 A 
ATOM     51  C   UNL A   1      41.625  28.403  30.929  1.00  0.00     0.049 A 
ATOM     52  C   UNL A   1      41.006  31.723  35.424  1.00  0.00     0.074 A 
ATOM     53  C   UNL A   1      42.617  27.443  31.002  1.00  0.00     0.029 A 
ATOM     54  N   UNL A   1      41.632  29.081  32.142  1.00  0.00    -0.354 N 
ATOM     55  N   UNL A   1      41.261  30.873  34.458  1.00  0.00    -0.248 NA
ATOM     56  C   UNL A   1      41.793  31.497  36.644  1.00  0.00     0.031 C 
ATOM     57  C   UNL A   1      43.179  27.495  32.282  1.00  0.00     0.029 A 
ATOM     58  C   UNL A   1      42.590  28.538  32.981  1.00  0.00     0.049 A 
ATOM     59  H   UNL A   1      41.041  29.835  32.371  1.00  0.00     0.167 HD
ATOM     60  C   UNL A   1      42.262  30.035  34.937  1.00  0.00     0.074 A 
ATOM     61  C   UNL A   1      42.565  30.480  36.283  1.00  0.00     0.031 C 
ATOM     62  C   UNL A   1      42.882  29.002  34.316  1.00  0.00     0.037 A 
BRANCH  49  63
ATOM     63  C   UNL A   1      40.746  27.800  28.628  1.00  0.00     0.057 A 
ATOM     64  C   UNL A   1      39.937  26.661  28.510  1.00  0.00     0.134 A 
ATOM     65  C   UNL A   1      41.608  28.088  27.561  1.00  0.00     0.134 A 
ATOM     66  F   UNL A   1      39.098  26.317  29.499  1.00  0.00    -0.206 F 
ATOM     67  C   UNL A   1      40.017  25.819  27.399  1.00  0.00     0.040 A 
ATOM     68  C   UNL A   1      41.671  27.272  26.430  1.00  0.00     0.040 A 
ATOM     69  F   UNL A   1      42.408  29.165  27.602  1.00  0.00    -0.206 F 
ATOM     70  C   UNL A   1      40.885  26.126  26.353  1.00  0.00     0.006 A 
ENDBRANCH  49  63
BRANCH  50  71
ATOM     71  C   UNL A   1      39.837  33.698  36.661  1.00  0.00     0.057 A 
ATOM     72  C   UNL A   1      40.515  34.910  36.824  1.00  0.00     0.134 A 
ATOM     73  C   UNL A   1      38.938  33.320  37.666  1.00  0.00     0.134 A 
ATOM     74  F   UNL A   1      41.402  35.317  35.903  1.00  0.00    -0.206 F 
ATOM     75  C   UNL A   1      40.310  35.717  37.944  1.00  0.00     0.040 A 
ATOM     76  C   UNL A   1      38.703  34.129  38.779  1.00  0.00     0.040 A 
ATOM     77  F   UNL A   1      38.251  32.172  37.565  1.00  0.00    -0.206 F 
ATOM     78  C   UNL A   1      39.394  35.331  38.921  1.00  0.00     0.006 A 
ENDBRANCH  50  71
BRANCH  62  79
ATOM     79  C   UNL A   1      43.993  28.309  35.054  1.00  0.00     0.057 A 
ATOM     80  C   UNL A   1      43.764  27.213  35.894  1.00  0.00     0.134 A 
ATOM     81  C   UNL A   1      45.324  28.705  34.856  1.00  0.00     0.134 A 
ATOM     82  F   UNL A   1      42.515  26.790  36.135  1.00  0.00    -0.206 F 
ATOM     83  C   UNL A   1      44.818  26.543  36.520  1.00  0.00     0.040 A 
ATOM     84  C   UNL A   1      46.385  28.025  35.451  1.00  0.00     0.040 A 
ATOM     85  F   UNL A   1      45.613  29.743  34.055  1.00  0.00    -0.206 F 
ATOM     86  C   UNL A   1      46.134  26.943  36.290  1.00  0.00     0.006 A 
ENDBRANCH  62  79
ENDBRANCH  36  37
ENDBRANCH  29  31
ENDBRANCH  28  29
ENDBRANCH  27  28
ENDBRANCH  26  27
ENDBRANCH  25  26
ENDBRANCH  24  25
ENDBRANCH  23  24
ENDBRANCH  22  23
ENDBRANCH  21  22
ENDBRANCH   1  21
TORSDOF 25
ENDMDL
MODEL 3
REMARK VINA RESULT:      -8.9      1.770      3.663
REMARK SMILES C[C@H](CCC(=O)OCCOCCOCCOCCOC(=O)c1ccc(-c2c3nc(c(-c4c(F)cccc4F)c4ccc([nH]4)c(-c4c(F)cccc4F)c4nc(c(-c5c(F)cccc5F)c5ccc2[nH]5)C=C4)C=C3)cc1)NC(=O)OC(C)(C)C
REMARK SMILES IDX 11 1 10 2 9 3 8 4 7 5 5 6 6 7 4 8 3 9 2 10 1 11 76 12 77 13
REMARK SMILES IDX 78 15 79 16 80 17 81 18 82 19 83 20 12 21 13 22 14 23 15 24
REMARK SMILES IDX 16 25 17 26 18 27 19 28 20 29 21 30 22 31 23 32 75 33 24 34
REMARK SMILES IDX 74 35 25 36 26 37 27 38 68 39 28 40 73 41 67 42 69 43 29 44
REMARK SMILES IDX 72 45 66 46 65 47 30 49 56 50 39 51 55 52 40 53 43 54 54 55
REMARK SMILES IDX 70 56 41 57 42 58 53 60 71 61 44 62 31 63 32 64 37 65 33 66
REMARK SMILES IDX 34 67 36 68 38 69 35 70 57 71 58 72 63 73 59 74 60 75 62 76
REMARK SMILES IDX 64 77 61 78 45 79 46 80 51 81 47 82 48 83 50 84 52 85 49 86
REMARK H PARENT 76 14 69 48 43 59
REMARK Flexibility Score: inf
ROOT
ATOM      1  C   UNL A   1      31.845  30.390  26.105  1.00  0.00     0.188 C 
ENDROOT
BRANCH   1   2
ATOM      2  O   UNL A   1      31.290  29.718  24.997  1.00  0.00    -0.376 OA
BRANCH   2   3
ATOM      3  C   UNL A   1      32.122  28.853  24.249  1.00  0.00     0.202 C 
BRANCH   3   4
ATOM      4  C   UNL A   1      31.596  27.536  23.638  1.00  0.00     0.261 C 
BRANCH   4   5
ATOM      5  O   UNL A   1      32.173  26.309  24.117  1.00  0.00    -0.463 OA
BRANCH   5   6
ATOM      6  C   UNL A   1      32.897  25.604  23.217  1.00  0.00     0.305 C 
ATOM      7  O   UNL A   1      33.606  26.116  22.355  1.00  0.00    -0.252 OA
BRANCH   6   8
ATOM      8  C   UNL A   1      32.833  24.103  23.367  1.00  0.00     0.125 C 
BRANCH   8   9
ATOM      9  C   UNL A   1      33.911  23.173  22.815  1.00  0.00     0.036 C 
BRANCH   9  10
ATOM     10  C   UNL A   1      34.812  22.391  23.781  1.00  0.00     0.083 C 
ATOM     11  C   UNL A   1      36.263  22.852  23.844  1.00  0.00     0.031 C 
BRANCH  10  12
ATOM     12  N   UNL A   1      34.243  22.271  25.110  1.00  0.00    -0.319 N 
ATOM     13  C   UNL A   1      34.025  21.098  25.766  1.00  0.00     0.407 C 
ATOM     14  H   UNL A   1      33.995  23.103  25.574  1.00  0.00     0.167 HD
ATOM     15  O   UNL A   1      33.518  21.077  26.882  1.00  0.00    -0.225 OA
BRANCH  13  16
ATOM     16  O   UNL A   1      34.428  20.029  25.048  1.00  0.00    -0.444 OA
BRANCH  16  17
ATOM     17  C   UNL A   1      33.506  18.990  24.652  1.00  0.00     0.106 C 
ATOM     18  C   UNL A   1      32.764  18.406  25.857  1.00  0.00     0.056 C 
ATOM     19  C   UNL A   1      32.558  19.511  23.568  1.00  0.00     0.056 C 
ATOM     20  C   UNL A   1      34.399  17.894  24.047  1.00  0.00     0.056 C 
ENDBRANCH  16  17
ENDBRANCH  13  16
ENDBRANCH  10  12
ENDBRANCH   9  10
ENDBRANCH   8   9
ENDBRANCH   6   8
ENDBRANCH   5   6
ENDBRANCH   4   5
ENDBRANCH   3   4
ENDBRANCH   2   3
ENDBRANCH   1   2
BRANCH   1  21
ATOM     21  C   UNL A   1      33.318  30.014  26.297  1.00  0.00     0.188 C 
BRANCH  21  22
ATOM     22  O   UNL A   1      33.849  30.022  27.616  1.00  0.00    -0.377 OA
BRANCH  22  23
ATOM     23  C   UNL A   1      34.833  30.985  27.986  1.00  0.00     0.188 C 
BRANCH  23  24
ATOM     24  C   UNL A   1      34.528  32.489  27.889  1.00  0.00     0.188 C 
BRANCH  24  25
ATOM     25  O   UNL A   1      33.715  33.126  28.866  1.00  0.00    -0.376 OA
BRANCH  25  26
ATOM     26  C   UNL A   1      34.187  34.286  29.530  1.00  0.00     0.202 C 
BRANCH  26  27
ATOM     27  C   UNL A   1      34.546  34.143  31.005  1.00  0.00     0.261 C 
BRANCH  27  28
ATOM     28  O   UNL A   1      35.003  32.831  31.349  1.00  0.00    -0.460 OA
BRANCH  28  29
ATOM     29  C   UNL A   1      36.137  32.801  32.087  1.00  0.00     0.338 C 
ATOM     30  O   UNL A   1      36.364  33.373  33.137  1.00  0.00    -0.246 OA
BRANCH  29  31
ATOM     31  C   UNL A   1      37.087  31.874  31.456  1.00  0.00     0.060 A 
ATOM     32  C   UNL A   1      37.745  30.930  32.254  1.00  0.00     0.016 A 
ATOM     33  C   UNL A   1      37.403  32.021  30.104  1.00  0.00     0.016 A 
ATOM     34  C   UNL A   1      38.774  30.164  31.712  1.00  0.00     0.010 A 
ATOM     35  C   UNL A   1      38.436  31.261  29.566  1.00  0.00     0.010 A 
ATOM     36  C   UNL A   1      39.154  30.368  30.380  1.00  0.00    -0.014 A 
BRANCH  36  37
ATOM     37  C   UNL A   1      40.421  29.813  29.861  1.00  0.00     0.031 A 
ATOM     38  C   UNL A   1      41.576  30.751  29.664  1.00  0.00     0.074 A 
ATOM     39  C   UNL A   1      40.513  28.523  29.505  1.00  0.00     0.049 A 
ATOM     40  N   UNL A   1      42.708  30.560  29.039  1.00  0.00    -0.248 NA
ATOM     41  C   UNL A   1      41.419  32.099  30.233  1.00  0.00     0.031 C 
ATOM     42  C   UNL A   1      39.468  27.521  29.688  1.00  0.00     0.029 A 
ATOM     43  N   UNL A   1      41.527  27.852  28.873  1.00  0.00    -0.354 N 
ATOM     44  C   UNL A   1      43.383  31.771  29.111  1.00  0.00     0.074 A 
ATOM     45  C   UNL A   1      42.526  32.696  29.819  1.00  0.00     0.031 C 
ATOM     46  C   UNL A   1      39.879  26.364  29.143  1.00  0.00     0.029 A 
ATOM     47  C   UNL A   1      41.193  26.566  28.533  1.00  0.00     0.049 A 
ATOM     48  H   UNL A   1      42.407  28.252  28.683  1.00  0.00     0.167 HD
ATOM     49  C   UNL A   1      44.608  32.081  28.625  1.00  0.00     0.037 A 
ATOM     50  C   UNL A   1      41.855  25.672  27.774  1.00  0.00     0.037 A 
ATOM     51  C   UNL A   1      45.442  31.148  27.913  1.00  0.00     0.049 A 
ATOM     52  C   UNL A   1      43.187  26.050  27.187  1.00  0.00     0.074 A 
ATOM     53  C   UNL A   1      46.712  31.341  27.401  1.00  0.00     0.029 A 
ATOM     54  N   UNL A   1      45.077  29.845  27.600  1.00  0.00    -0.354 N 
ATOM     55  N   UNL A   1      43.837  27.187  27.273  1.00  0.00    -0.248 NA
ATOM     56  C   UNL A   1      43.881  25.023  26.398  1.00  0.00     0.031 C 
ATOM     57  C   UNL A   1      47.087  30.179  26.721  1.00  0.00     0.029 A 
ATOM     58  C   UNL A   1      46.084  29.233  26.874  1.00  0.00     0.049 A 
ATOM     59  H   UNL A   1      44.226  29.420  27.857  1.00  0.00     0.167 HD
ATOM     60  C   UNL A   1      45.029  27.002  26.582  1.00  0.00     0.074 A 
ATOM     61  C   UNL A   1      45.011  25.642  26.081  1.00  0.00     0.031 C 
ATOM     62  C   UNL A   1      46.050  27.874  26.391  1.00  0.00     0.037 A 
BRANCH  49  63
ATOM     63  C   UNL A   1      45.081  33.497  28.801  1.00  0.00     0.057 A 
ATOM     64  C   UNL A   1      45.949  33.875  29.834  1.00  0.00     0.134 A 
ATOM     65  C   UNL A   1      44.647  34.502  27.927  1.00  0.00     0.134 A 
ATOM     66  F   UNL A   1      46.394  32.966  30.716  1.00  0.00    -0.206 F 
ATOM     67  C   UNL A   1      46.331  35.205  30.020  1.00  0.00     0.040 A 
ATOM     68  C   UNL A   1      45.049  35.830  28.082  1.00  0.00     0.040 A 
ATOM     69  F   UNL A   1      43.819  34.214  26.912  1.00  0.00    -0.206 F 
ATOM     70  C   UNL A   1      45.882  36.187  29.139  1.00  0.00     0.006 A 
ENDBRANCH  49  63
BRANCH  50  71
ATOM     71  C   UNL A   1      41.246  24.342  27.522  1.00  0.00     0.057 A 
ATOM     72  C   UNL A   1      41.684  23.207  28.211  1.00  0.00     0.134 A 
ATOM     73  C   UNL A   1      40.187  24.183  26.621  1.00  0.00     0.134 A 
ATOM     74  F   UNL A   1      42.706  23.293  29.075  1.00  0.00    -0.206 F 
ATOM     75  C   UNL A   1      41.091  21.958  28.011  1.00  0.00     0.040 A 
ATOM     76  C   UNL A   1      39.568  22.947  26.431  1.00  0.00     0.040 A 
ATOM     77  F   UNL A   1      39.717  25.236  25.935  1.00  0.00    -0.206 F 
ATOM     78  C   UNL A   1      40.024  21.829  27.125  1.00  0.00     0.006 A 
ENDBRANCH  50  71
BRANCH  62  79
ATOM     79  C   UNL A   1      47.264  27.376  25.658  1.00  0.00     0.057 A 
ATOM     80  C   UNL A   1      47.432  27.553  24.280  1.00  0.00     0.134 A 
ATOM     81  C   UNL A   1      48.317  26.778  26.366  1.00  0.00     0.134 A 
ATOM     82  F   UNL A   1      46.459  28.109  23.542  1.00  0.00    -0.206 F 
ATOM     83  C   UNL A   1      48.596  27.141  23.630  1.00  0.00     0.040 A 
ATOM     84  C   UNL A   1      49.496  26.390  25.732  1.00  0.00     0.040 A 
ATOM     85  F   UNL A   1      48.225  26.587  27.692  1.00  0.00    -0.206 F 
ATOM     86  C   UNL A   1      49.638  26.568  24.358  1.00  0.00     0.006 A 
ENDBRANCH  62  79
ENDBRANCH  36  37
ENDBRANCH  29  31
ENDBRANCH  28  29
ENDBRANCH  27  28
ENDBRANCH  26  27
ENDBRANCH  25  26
ENDBRANCH  24  25
ENDBRANCH  23  24
ENDBRANCH  22  23
ENDBRANCH  21  22
ENDBRANCH   1  21
TORSDOF 25
ENDMDL
