MODEL 1
REMARK VINA RESULT:      -9.9      0.000      0.000
REMARK SMILES CCOc1cc(C=O)ccc1OCc1ccc(C(=O)OCCOCCOCCOCCOC(=O)c2ccc(-c3c4nc(c(-c5c(F)cccc5F)c5ccc([nH]5)c(-c5c(F)cccc5F)c5nc(c(-c6c(F)cccc6F)c6ccc3[nH]6)C=C5)C=C4)cc2)cc1
REMARK SMILES IDX 24 1 23 2 22 3 21 4 20 5 18 6 19 7 17 8 14 9 15 10 90 11
REMARK SMILES IDX 16 12 89 13 13 14 12 15 11 16 4 17 5 18 6 19 10 20 9 21 3 22
REMARK SMILES IDX 2 23 1 24 7 25 8 26 25 27 26 28 27 29 28 30 29 31 30 32
REMARK SMILES IDX 31 33 32 34 33 35 34 36 35 37 36 38 88 39 37 40 87 41 38 42
REMARK SMILES IDX 39 43 40 44 81 45 41 46 86 47 80 48 82 49 42 50 85 51 79 52
REMARK SMILES IDX 78 53 43 55 69 56 52 57 68 58 53 59 56 60 67 61 83 62 54 63
REMARK SMILES IDX 55 64 66 66 84 67 57 68 44 69 45 70 50 71 46 72 47 73 49 74
REMARK SMILES IDX 51 75 48 76 70 77 71 78 76 79 72 80 73 81 75 82 77 83 74 84
REMARK SMILES IDX 58 85 59 86 64 87 60 88 61 89 63 90 65 91 62 92
REMARK H PARENT 82 54 56 65
REMARK Flexibility Score: inf
ROOT
ATOM      1  C   UNL A   1      33.955  31.399  27.636  1.00  0.00     0.188 C 
ENDROOT
BRANCH   1   2
ATOM      2  O   UNL A   1      32.553  31.384  27.435  1.00  0.00    -0.376 OA
BRANCH   2   3
ATOM      3  C   UNL A   1      32.017  30.811  26.260  1.00  0.00     0.202 C 
BRANCH   3   4
ATOM      4  C   UNL A   1      32.692  29.573  25.655  1.00  0.00     0.261 C 
BRANCH   4   5
ATOM      5  O   UNL A   1      32.563  28.351  26.389  1.00  0.00    -0.460 OA
BRANCH   5   6
ATOM      6  C   UNL A   1      31.845  27.369  25.804  1.00  0.00     0.338 C 
ATOM      7  O   UNL A   1      30.801  27.501  25.191  1.00  0.00    -0.246 OA
BRANCH   6   8
ATOM      8  C   UNL A   1      32.598  26.097  25.903  1.00  0.00     0.060 A 
ATOM      9  C   UNL A   1      33.998  23.645  25.894  1.00  0.00    -0.011 A 
ATOM     10  C   UNL A   1      34.564  24.806  25.332  1.00  0.00     0.008 A 
ATOM     11  C   UNL A   1      32.730  23.754  26.484  1.00  0.00     0.008 A 
ATOM     12  C   UNL A   1      33.868  26.019  25.327  1.00  0.00     0.016 A 
ATOM     13  C   UNL A   1      32.047  24.973  26.519  1.00  0.00     0.016 A 
BRANCH   9  14
ATOM     14  C   UNL A   1      34.785  22.339  25.785  1.00  0.00     0.265 C 
BRANCH  14  15
ATOM     15  O   UNL A   1      34.853  21.642  24.534  1.00  0.00    -0.485 OA
BRANCH  15  16
ATOM     16  C   UNL A   1      34.350  20.371  24.465  1.00  0.00     0.161 A 
ATOM     17  C   UNL A   1      33.097  19.990  23.964  1.00  0.00     0.161 A 
ATOM     18  C   UNL A   1      32.843  18.637  23.717  1.00  0.00     0.062 A 
ATOM     19  C   UNL A   1      33.820  17.680  24.044  1.00  0.00     0.018 A 
ATOM     20  C   UNL A   1      35.273  19.402  24.875  1.00  0.00     0.051 A 
ATOM     21  C   UNL A   1      35.014  18.055  24.664  1.00  0.00     0.015 A 
BRANCH  17  22
ATOM     22  O   UNL A   1      32.121  20.945  23.916  1.00  0.00    -0.490 OA
BRANCH  22  23
ATOM     23  C   UNL A   1      31.954  21.655  22.689  1.00  0.00     0.226 C 
ATOM     24  C   UNL A   1      31.843  23.130  23.067  1.00  0.00     0.049 C 
ENDBRANCH  22  23
ENDBRANCH  17  22
BRANCH  19  25
ATOM     25  C   UNL A   1      33.617  16.245  23.760  1.00  0.00     0.260 C 
ATOM     26  O   UNL A   1      33.519  15.409  24.649  1.00  0.00    -0.298 OA
ENDBRANCH  19  25
ENDBRANCH  15  16
ENDBRANCH  14  15
ENDBRANCH   9  14
ENDBRANCH   6   8
ENDBRANCH   5   6
ENDBRANCH   4   5
ENDBRANCH   3   4
ENDBRANCH   2   3
ENDBRANCH   1   2
BRANCH   1  27
ATOM     27  C   UNL A   1      34.520  32.791  27.987  1.00  0.00     0.188 C 
BRANCH  27  28
ATOM     28  O   UNL A   1      33.609  33.856  28.210  1.00  0.00    -0.377 OA
BRANCH  28  29
ATOM     29  C   UNL A   1      34.073  35.121  28.680  1.00  0.00     0.188 C 
BRANCH  29  30
ATOM     30  C   UNL A   1      33.186  36.086  29.503  1.00  0.00     0.188 C 
BRANCH  30  31
ATOM     31  O   UNL A   1      33.594  36.251  30.849  1.00  0.00    -0.376 OA
BRANCH  31  32
ATOM     32  C   UNL A   1      33.639  35.096  31.664  1.00  0.00     0.202 C 
BRANCH  32  33
ATOM     33  C   UNL A   1      35.031  34.645  32.122  1.00  0.00     0.261 C 
BRANCH  33  34
ATOM     34  O   UNL A   1      35.377  33.282  31.832  1.00  0.00    -0.460 OA
BRANCH  34  35
ATOM     35  C   UNL A   1      36.115  32.622  32.756  1.00  0.00     0.338 C 
ATOM     36  O   UNL A   1      35.892  32.524  33.941  1.00  0.00    -0.246 OA
BRANCH  35  37
ATOM     37  C   UNL A   1      37.159  31.865  32.027  1.00  0.00     0.060 A 
ATOM     38  C   UNL A   1      38.137  31.177  32.759  1.00  0.00     0.016 A 
ATOM     39  C   UNL A   1      37.163  31.828  30.632  1.00  0.00     0.016 A 
ATOM     40  C   UNL A   1      39.141  30.476  32.091  1.00  0.00     0.010 A 
ATOM     41  C   UNL A   1      38.180  31.143  29.964  1.00  0.00     0.010 A 
ATOM     42  C   UNL A   1      39.192  30.490  30.690  1.00  0.00    -0.014 A 
BRANCH  42  43
ATOM     43  C   UNL A   1      40.394  29.971  29.993  1.00  0.00     0.031 A 
ATOM     44  C   UNL A   1      41.545  30.907  29.748  1.00  0.00     0.074 A 
ATOM     45  C   UNL A   1      40.472  28.689  29.596  1.00  0.00     0.049 A 
ATOM     46  N   UNL A   1      42.681  30.689  29.139  1.00  0.00    -0.248 NA
ATOM     47  C   UNL A   1      41.386  32.278  30.260  1.00  0.00     0.031 C 
ATOM     48  C   UNL A   1      39.438  27.677  29.798  1.00  0.00     0.029 A 
ATOM     49  N   UNL A   1      41.472  28.025  28.929  1.00  0.00    -0.354 N 
ATOM     50  C   UNL A   1      43.368  31.896  29.183  1.00  0.00     0.074 A 
ATOM     51  C   UNL A   1      42.508  32.849  29.850  1.00  0.00     0.031 C 
ATOM     52  C   UNL A   1      39.852  26.520  29.253  1.00  0.00     0.029 A 
ATOM     53  C   UNL A   1      41.163  26.720  28.636  1.00  0.00     0.049 A 
ATOM     54  H   UNL A   1      42.328  28.444  28.683  1.00  0.00     0.167 HD
ATOM     55  C   UNL A   1      44.607  32.182  28.715  1.00  0.00     0.037 A 
ATOM     56  C   UNL A   1      41.849  25.801  27.930  1.00  0.00     0.037 A 
ATOM     57  C   UNL A   1      45.455  31.233  28.043  1.00  0.00     0.049 A 
ATOM     58  C   UNL A   1      43.198  26.158  27.361  1.00  0.00     0.074 A 
ATOM     59  C   UNL A   1      46.741  31.415  27.563  1.00  0.00     0.029 A 
ATOM     60  N   UNL A   1      45.096  29.928  27.739  1.00  0.00    -0.354 N 
ATOM     61  N   UNL A   1      43.861  27.287  27.446  1.00  0.00    -0.248 NA
ATOM     62  C   UNL A   1      43.896  25.111  26.601  1.00  0.00     0.031 C 
ATOM     63  C   UNL A   1      47.131  30.242  26.908  1.00  0.00     0.029 A 
ATOM     64  C   UNL A   1      46.120  29.305  27.042  1.00  0.00     0.049 A 
ATOM     65  H   UNL A   1      44.241  29.506  27.982  1.00  0.00     0.167 HD
ATOM     66  C   UNL A   1      45.060  27.079  26.774  1.00  0.00     0.074 A 
ATOM     67  C   UNL A   1      45.040  25.710  26.302  1.00  0.00     0.031 C 
ATOM     68  C   UNL A   1      46.086  27.943  26.569  1.00  0.00     0.037 A 
BRANCH  55  69
ATOM     69  C   UNL A   1      45.094  33.595  28.876  1.00  0.00     0.057 A 
ATOM     70  C   UNL A   1      45.851  34.004  29.983  1.00  0.00     0.134 A 
ATOM     71  C   UNL A   1      44.805  34.559  27.902  1.00  0.00     0.134 A 
ATOM     72  F   UNL A   1      46.151  33.136  30.960  1.00  0.00    -0.206 F 
ATOM     73  C   UNL A   1      46.270  35.327  30.131  1.00  0.00     0.040 A 
ATOM     74  C   UNL A   1      45.246  35.878  28.024  1.00  0.00     0.040 A 
ATOM     75  F   UNL A   1      44.089  34.237  26.814  1.00  0.00    -0.206 F 
ATOM     76  C   UNL A   1      45.974  36.268  29.147  1.00  0.00     0.006 A 
ENDBRANCH  55  69
BRANCH  56  77
ATOM     77  C   UNL A   1      41.264  24.453  27.710  1.00  0.00     0.057 A 
ATOM     78  C   UNL A   1      41.729  23.333  28.407  1.00  0.00     0.134 A 
ATOM     79  C   UNL A   1      40.224  24.255  26.792  1.00  0.00     0.134 A 
ATOM     80  F   UNL A   1      42.740  23.451  29.278  1.00  0.00    -0.206 F 
ATOM     81  C   UNL A   1      41.187  22.063  28.195  1.00  0.00     0.040 A 
ATOM     82  C   UNL A   1      39.654  22.998  26.591  1.00  0.00     0.040 A 
ATOM     83  F   UNL A   1      39.734  25.288  26.091  1.00  0.00    -0.206 F 
ATOM     84  C   UNL A   1      40.140  21.895  27.290  1.00  0.00     0.006 A 
ENDBRANCH  56  77
BRANCH  68  85
ATOM     85  C   UNL A   1      47.287  27.427  25.824  1.00  0.00     0.057 A 
ATOM     86  C   UNL A   1      48.248  26.612  26.436  1.00  0.00     0.134 A 
ATOM     87  C   UNL A   1      47.464  27.723  24.466  1.00  0.00     0.134 A 
ATOM     88  F   UNL A   1      48.146  26.298  27.736  1.00  0.00    -0.206 F 
ATOM     89  C   UNL A   1      49.356  26.135  25.732  1.00  0.00     0.040 A 
ATOM     90  C   UNL A   1      48.550  27.225  23.744  1.00  0.00     0.040 A 
ATOM     91  F   UNL A   1      46.577  28.489  23.813  1.00  0.00    -0.206 F 
ATOM     92  C   UNL A   1      49.504  26.435  24.379  1.00  0.00     0.006 A 
ENDBRANCH  68  85
ENDBRANCH  42  43
ENDBRANCH  35  37
ENDBRANCH  34  35
ENDBRANCH  33  34
ENDBRANCH  32  33
ENDBRANCH  31  32
ENDBRANCH  30  31
ENDBRANCH  29  30
ENDBRANCH  28  29
ENDBRANCH  27  28
ENDBRANCH   1  27
TORSDOF 26
ENDMDL
MODEL 2
REMARK VINA RESULT:      -9.7      1.016      2.200
REMARK SMILES CCOc1cc(C=O)ccc1OCc1ccc(C(=O)OCCOCCOCCOCCOC(=O)c2ccc(-c3c4nc(c(-c5c(F)cccc5F)c5ccc([nH]5)c(-c5c(F)cccc5F)c5nc(c(-c6c(F)cccc6F)c6ccc3[nH]6)C=C5)C=C4)cc2)cc1
REMARK SMILES IDX 24 1 23 2 22 3 21 4 20 5 18 6 19 7 17 8 14 9 15 10 90 11
REMARK SMILES IDX 16 12 89 13 13 14 12 15 11 16 4 17 5 18 6 19 10 20 9 21 3 22
REMARK SMILES IDX 2 23 1 24 7 25 8 26 25 27 26 28 27 29 28 30 29 31 30 32
REMARK SMILES IDX 31 33 32 34 33 35 34 36 35 37 36 38 88 39 37 40 87 41 38 42
REMARK SMILES IDX 39 43 40 44 81 45 41 46 86 47 80 48 82 49 42 50 85 51 79 52
REMARK SMILES IDX 78 53 43 55 69 56 52 57 68 58 53 59 56 60 67 61 83 62 54 63
REMARK SMILES IDX 55 64 66 66 84 67 57 68 44 69 45 70 50 71 46 72 47 73 49 74
REMARK SMILES IDX 51 75 48 76 70 77 71 78 76 79 72 80 73 81 75 82 77 83 74 84
REMARK SMILES IDX 58 85 59 86 64 87 60 88 61 89 63 90 65 91 62 92
REMARK H PARENT 82 54 56 65
REMARK Flexibility Score: inf
ROOT
ATOM      1  C   UNL A   1      33.273  30.488  27.261  1.00  0.00     0.188 C 
ENDROOT
BRANCH   1   2
ATOM      2  O   UNL A   1      32.003  30.935  26.825  1.00  0.00    -0.376 OA
BRANCH   2   3
ATOM      3  C   UNL A   1      31.464  30.449  25.612  1.00  0.00     0.202 C 
BRANCH   3   4
ATOM      4  C   UNL A   1      31.734  28.995  25.202  1.00  0.00     0.261 C 
BRANCH   4   5
ATOM      5  O   UNL A   1      31.830  28.734  23.798  1.00  0.00    -0.460 OA
BRANCH   5   6
ATOM      6  C   UNL A   1      33.060  28.448  23.321  1.00  0.00     0.338 C 
ATOM      7  O   UNL A   1      33.993  29.222  23.210  1.00  0.00    -0.246 OA
BRANCH   6   8
ATOM      8  C   UNL A   1      33.152  26.991  23.071  1.00  0.00     0.060 A 
ATOM      9  C   UNL A   1      33.129  24.202  22.628  1.00  0.00    -0.011 A 
ATOM     10  C   UNL A   1      32.619  25.094  21.666  1.00  0.00     0.008 A 
ATOM     11  C   UNL A   1      33.677  24.745  23.800  1.00  0.00     0.008 A 
ATOM     12  C   UNL A   1      32.621  26.475  21.887  1.00  0.00     0.016 A 
ATOM     13  C   UNL A   1      33.718  26.127  24.010  1.00  0.00     0.016 A 
BRANCH   9  14
ATOM     14  C   UNL A   1      33.014  22.703  22.350  1.00  0.00     0.265 C 
BRANCH  14  15
ATOM     15  O   UNL A   1      32.083  21.903  23.089  1.00  0.00    -0.485 OA
BRANCH  15  16
ATOM     16  C   UNL A   1      32.511  20.712  23.608  1.00  0.00     0.161 A 
ATOM     17  C   UNL A   1      33.099  20.508  24.865  1.00  0.00     0.161 A 
ATOM     18  C   UNL A   1      33.233  19.204  25.353  1.00  0.00     0.062 A 
ATOM     19  C   UNL A   1      32.845  18.120  24.544  1.00  0.00     0.018 A 
ATOM     20  C   UNL A   1      32.220  19.624  22.779  1.00  0.00     0.051 A 
ATOM     21  C   UNL A   1      32.382  18.326  23.242  1.00  0.00     0.015 A 
BRANCH  17  22
ATOM     22  O   UNL A   1      33.680  21.586  25.472  1.00  0.00    -0.490 OA
BRANCH  22  23
ATOM     23  C   UNL A   1      34.236  21.389  26.772  1.00  0.00     0.226 C 
ATOM     24  C   UNL A   1      33.286  22.081  27.746  1.00  0.00     0.049 C 
ENDBRANCH  22  23
ENDBRANCH  17  22
BRANCH  19  25
ATOM     25  C   UNL A   1      32.925  16.728  25.031  1.00  0.00     0.260 C 
ATOM     26  O   UNL A   1      33.462  15.839  24.385  1.00  0.00    -0.298 OA
ENDBRANCH  19  25
ENDBRANCH  15  16
ENDBRANCH  14  15
ENDBRANCH   9  14
ENDBRANCH   6   8
ENDBRANCH   5   6
ENDBRANCH   4   5
ENDBRANCH   3   4
ENDBRANCH   2   3
ENDBRANCH   1   2
BRANCH   1  27
ATOM     27  C   UNL A   1      34.239  31.629  27.644  1.00  0.00     0.188 C 
BRANCH  27  28
ATOM     28  O   UNL A   1      33.691  32.894  27.985  1.00  0.00    -0.377 OA
BRANCH  28  29
ATOM     29  C   UNL A   1      34.267  33.675  29.031  1.00  0.00     0.188 C 
BRANCH  29  30
ATOM     30  C   UNL A   1      34.032  35.199  29.166  1.00  0.00     0.188 C 
BRANCH  30  31
ATOM     31  O   UNL A   1      33.680  35.622  30.472  1.00  0.00    -0.376 OA
BRANCH  31  32
ATOM     32  C   UNL A   1      33.571  34.629  31.472  1.00  0.00     0.202 C 
BRANCH  32  33
ATOM     33  C   UNL A   1      34.864  34.275  32.217  1.00  0.00     0.261 C 
BRANCH  33  34
ATOM     34  O   UNL A   1      35.286  32.904  32.126  1.00  0.00    -0.460 OA
BRANCH  34  35
ATOM     35  C   UNL A   1      36.250  32.497  32.986  1.00  0.00     0.338 C 
ATOM     36  O   UNL A   1      36.236  32.571  34.193  1.00  0.00    -0.246 OA
BRANCH  35  37
ATOM     37  C   UNL A   1      37.261  31.758  32.196  1.00  0.00     0.060 A 
ATOM     38  C   UNL A   1      38.189  30.948  32.864  1.00  0.00     0.016 A 
ATOM     39  C   UNL A   1      37.282  31.857  30.803  1.00  0.00     0.016 A 
ATOM     40  C   UNL A   1      39.163  30.260  32.140  1.00  0.00     0.010 A 
ATOM     41  C   UNL A   1      38.270  31.184  30.081  1.00  0.00     0.010 A 
ATOM     42  C   UNL A   1      39.234  30.407  30.747  1.00  0.00    -0.014 A 
BRANCH  42  43
ATOM     43  C   UNL A   1      40.415  29.893  30.013  1.00  0.00     0.031 A 
ATOM     44  C   UNL A   1      41.569  30.823  29.762  1.00  0.00     0.074 A 
ATOM     45  C   UNL A   1      40.473  28.619  29.589  1.00  0.00     0.049 A 
ATOM     46  N   UNL A   1      42.689  30.608  29.123  1.00  0.00    -0.248 NA
ATOM     47  C   UNL A   1      41.434  32.185  30.304  1.00  0.00     0.031 C 
ATOM     48  C   UNL A   1      39.435  27.612  29.793  1.00  0.00     0.029 A 
ATOM     49  N   UNL A   1      41.451  27.960  28.886  1.00  0.00    -0.354 N 
ATOM     50  C   UNL A   1      43.388  31.808  29.176  1.00  0.00     0.074 A 
ATOM     51  C   UNL A   1      42.552  32.755  29.882  1.00  0.00     0.031 C 
ATOM     52  C   UNL A   1      39.826  26.462  29.216  1.00  0.00     0.029 A 
ATOM     53  C   UNL A   1      41.125  26.664  28.575  1.00  0.00     0.049 A 
ATOM     54  H   UNL A   1      42.306  28.376  28.630  1.00  0.00     0.167 HD
ATOM     55  C   UNL A   1      44.619  32.093  28.686  1.00  0.00     0.037 A 
ATOM     56  C   UNL A   1      41.786  25.753  27.834  1.00  0.00     0.037 A 
ATOM     57  C   UNL A   1      45.443  31.150  27.977  1.00  0.00     0.049 A 
ATOM     58  C   UNL A   1      43.125  26.110  27.243  1.00  0.00     0.074 A 
ATOM     59  C   UNL A   1      46.719  31.331  27.472  1.00  0.00     0.029 A 
ATOM     60  N   UNL A   1      45.066  29.855  27.654  1.00  0.00    -0.354 N 
ATOM     61  N   UNL A   1      43.800  27.231  27.336  1.00  0.00    -0.248 NA
ATOM     62  C   UNL A   1      43.796  25.072  26.446  1.00  0.00     0.031 C 
ATOM     63  C   UNL A   1      47.085  30.168  26.784  1.00  0.00     0.029 A 
ATOM     64  C   UNL A   1      46.068  29.237  26.922  1.00  0.00     0.049 A 
ATOM     65  H   UNL A   1      44.212  29.436  27.908  1.00  0.00     0.167 HD
ATOM     66  C   UNL A   1      44.982  27.026  26.633  1.00  0.00     0.074 A 
ATOM     67  C   UNL A   1      44.939  25.668  26.134  1.00  0.00     0.031 C 
ATOM     68  C   UNL A   1      46.011  27.885  26.422  1.00  0.00     0.037 A 
BRANCH  55  69
ATOM     69  C   UNL A   1      45.122  33.497  28.865  1.00  0.00     0.057 A 
ATOM     70  C   UNL A   1      44.852  34.514  27.939  1.00  0.00     0.134 A 
ATOM     71  C   UNL A   1      45.883  33.839  29.991  1.00  0.00     0.134 A 
ATOM     72  F   UNL A   1      44.141  34.253  26.832  1.00  0.00    -0.206 F 
ATOM     73  C   UNL A   1      45.351  35.806  28.107  1.00  0.00     0.040 A 
ATOM     74  C   UNL A   1      46.361  35.136  30.186  1.00  0.00     0.040 A 
ATOM     75  F   UNL A   1      46.176  32.918  30.922  1.00  0.00    -0.206 F 
ATOM     76  C   UNL A   1      46.103  36.122  29.236  1.00  0.00     0.006 A 
ENDBRANCH  55  69
BRANCH  56  77
ATOM     77  C   UNL A   1      41.184  24.415  27.600  1.00  0.00     0.057 A 
ATOM     78  C   UNL A   1      40.140  24.234  26.687  1.00  0.00     0.134 A 
ATOM     79  C   UNL A   1      41.642  23.284  28.288  1.00  0.00     0.134 A 
ATOM     80  F   UNL A   1      39.640  25.281  26.017  1.00  0.00    -0.206 F 
ATOM     81  C   UNL A   1      39.566  22.979  26.472  1.00  0.00     0.040 A 
ATOM     82  C   UNL A   1      41.097  22.019  28.064  1.00  0.00     0.040 A 
ATOM     83  F   UNL A   1      42.639  23.389  29.178  1.00  0.00    -0.206 F 
ATOM     84  C   UNL A   1      40.050  21.865  27.156  1.00  0.00     0.006 A 
ENDBRANCH  56  77
BRANCH  68  85
ATOM     85  C   UNL A   1      47.190  27.375  25.641  1.00  0.00     0.057 A 
ATOM     86  C   UNL A   1      47.327  27.603  24.266  1.00  0.00     0.134 A 
ATOM     87  C   UNL A   1      48.222  26.675  26.283  1.00  0.00     0.134 A 
ATOM     88  F   UNL A   1      46.373  28.257  23.586  1.00  0.00    -0.206 F 
ATOM     89  C   UNL A   1      48.431  27.130  23.553  1.00  0.00     0.040 A 
ATOM     90  C   UNL A   1      49.345  26.225  25.587  1.00  0.00     0.040 A 
ATOM     91  F   UNL A   1      48.162  26.430  27.601  1.00  0.00    -0.206 F 
ATOM     92  C   UNL A   1      49.448  26.445  24.216  1.00  0.00     0.006 A 
ENDBRANCH  68  85
ENDBRANCH  42  43
ENDBRANCH  35  37
ENDBRANCH  34  35
ENDBRANCH  33  34
ENDBRANCH  32  33
ENDBRANCH  31  32
ENDBRANCH  30  31
ENDBRANCH  29  30
ENDBRANCH  28  29
ENDBRANCH  27  28
ENDBRANCH   1  27
TORSDOF 26
ENDMDL
MODEL 3
REMARK VINA RESULT:      -9.4      4.357     10.431
REMARK SMILES CCOc1cc(C=O)ccc1OCc1ccc(C(=O)OCCOCCOCCOCCOC(=O)c2ccc(-c3c4nc(c(-c5c(F)cccc5F)c5ccc([nH]5)c(-c5c(F)cccc5F)c5nc(c(-c6c(F)cccc6F)c6ccc3[nH]6)C=C5)C=C4)cc2)cc1
REMARK SMILES IDX 24 1 23 2 22 3 21 4 20 5 18 6 19 7 17 8 14 9 15 10 90 11
REMARK SMILES IDX 16 12 89 13 13 14 12 15 11 16 4 17 5 18 6 19 10 20 9 21 3 22
REMARK SMILES IDX 2 23 1 24 7 25 8 26 25 27 26 28 27 29 28 30 29 31 30 32
REMARK SMILES IDX 31 33 32 34 33 35 34 36 35 37 36 38 88 39 37 40 87 41 38 42
REMARK SMILES IDX 39 43 40 44 81 45 41 46 86 47 80 48 82 49 42 50 85 51 79 52
REMARK SMILES IDX 78 53 43 55 69 56 52 57 68 58 53 59 56 60 67 61 83 62 54 63
REMARK SMILES IDX 55 64 66 66 84 67 57 68 44 69 45 70 50 71 46 72 47 73 49 74
REMARK SMILES IDX 51 75 48 76 70 77 71 78 76 79 72 80 73 81 75 82 77 83 74 84
REMARK SMILES IDX 58 85 59 86 64 87 60 88 61 89 63 90 65 91 62 92
REMARK H PARENT 82 54 56 65
REMARK Flexibility Score: inf
ROOT
ATOM      1  C   UNL A   1      35.983  21.871  25.789  1.00  0.00     0.188 C 
ENDROOT
BRANCH   1   2
ATOM      2  O   UNL A   1      36.252  20.987  24.717  1.00  0.00    -0.376 OA
BRANCH   2   3
ATOM      3  C   UNL A   1      36.461  19.613  24.972  1.00  0.00     0.202 C 
BRANCH   3   4
ATOM      4  C   UNL A   1      35.352  18.610  24.627  1.00  0.00     0.261 C 
BRANCH   4   5
ATOM      5  O   UNL A   1      34.031  18.939  25.070  1.00  0.00    -0.460 OA
BRANCH   5   6
ATOM      6  C   UNL A   1      33.115  19.177  24.107  1.00  0.00     0.338 C 
ATOM      7  O   UNL A   1      32.651  18.363  23.330  1.00  0.00    -0.246 OA
BRANCH   6   8
ATOM      8  C   UNL A   1      32.646  20.577  24.225  1.00  0.00     0.060 A 
ATOM      9  C   UNL A   1      31.564  23.178  24.416  1.00  0.00    -0.011 A 
ATOM     10  C   UNL A   1      31.409  22.249  25.462  1.00  0.00     0.008 A 
ATOM     11  C   UNL A   1      32.300  22.781  23.290  1.00  0.00     0.008 A 
ATOM     12  C   UNL A   1      31.935  20.956  25.365  1.00  0.00     0.016 A 
ATOM     13  C   UNL A   1      32.864  21.504  23.204  1.00  0.00     0.016 A 
BRANCH   9  14
ATOM     14  C   UNL A   1      30.887  24.541  24.561  1.00  0.00     0.265 C 
BRANCH  14  15
ATOM     15  O   UNL A   1      31.668  25.705  24.859  1.00  0.00    -0.485 OA
BRANCH  15  16
ATOM     16  C   UNL A   1      31.279  26.907  24.336  1.00  0.00     0.161 A 
ATOM     17  C   UNL A   1      32.117  27.955  23.925  1.00  0.00     0.161 A 
ATOM     18  C   UNL A   1      31.580  29.002  23.168  1.00  0.00     0.062 A 
ATOM     19  C   UNL A   1      30.200  29.021  22.896  1.00  0.00     0.018 A 
ATOM     20  C   UNL A   1      29.896  26.990  24.141  1.00  0.00     0.051 A 
ATOM     21  C   UNL A   1      29.351  28.043  23.420  1.00  0.00     0.015 A 
BRANCH  17  22
ATOM     22  O   UNL A   1      33.380  27.991  24.444  1.00  0.00    -0.490 OA
BRANCH  22  23
ATOM     23  C   UNL A   1      33.646  28.953  25.465  1.00  0.00     0.226 C 
ATOM     24  C   UNL A   1      33.528  28.204  26.790  1.00  0.00     0.049 C 
ENDBRANCH  22  23
ENDBRANCH  17  22
BRANCH  19  25
ATOM     25  C   UNL A   1      29.594  30.080  22.064  1.00  0.00     0.260 C 
ATOM     26  O   UNL A   1      28.697  29.851  21.264  1.00  0.00    -0.298 OA
ENDBRANCH  19  25
ENDBRANCH  15  16
ENDBRANCH  14  15
ENDBRANCH   9  14
ENDBRANCH   6   8
ENDBRANCH   5   6
ENDBRANCH   4   5
ENDBRANCH   3   4
ENDBRANCH   2   3
ENDBRANCH   1   2
BRANCH   1  27
ATOM     27  C   UNL A   1      36.733  23.216  25.691  1.00  0.00     0.188 C 
BRANCH  27  28
ATOM     28  O   UNL A   1      38.152  23.198  25.631  1.00  0.00    -0.377 OA
BRANCH  28  29
ATOM     29  C   UNL A   1      38.904  22.356  26.503  1.00  0.00     0.188 C 
BRANCH  29  30
ATOM     30  C   UNL A   1      40.074  21.471  26.009  1.00  0.00     0.188 C 
BRANCH  30  31
ATOM     31  O   UNL A   1      41.288  21.663  26.713  1.00  0.00    -0.376 OA
BRANCH  31  32
ATOM     32  C   UNL A   1      42.454  21.067  26.177  1.00  0.00     0.202 C 
BRANCH  32  33
ATOM     33  C   UNL A   1      43.376  21.991  25.372  1.00  0.00     0.261 C 
BRANCH  33  34
ATOM     34  O   UNL A   1      42.865  23.306  25.099  1.00  0.00    -0.460 OA
BRANCH  34  35
ATOM     35  C   UNL A   1      43.726  24.343  25.231  1.00  0.00     0.338 C 
ATOM     36  O   UNL A   1      44.559  24.712  24.435  1.00  0.00    -0.246 OA
BRANCH  35  37
ATOM     37  C   UNL A   1      43.341  25.081  26.456  1.00  0.00     0.060 A 
ATOM     38  C   UNL A   1      42.046  24.924  26.968  1.00  0.00     0.016 A 
ATOM     39  C   UNL A   1      44.260  25.913  27.098  1.00  0.00     0.016 A 
ATOM     40  C   UNL A   1      41.658  25.627  28.109  1.00  0.00     0.010 A 
ATOM     41  C   UNL A   1      43.865  26.631  28.229  1.00  0.00     0.010 A 
ATOM     42  C   UNL A   1      42.553  26.516  28.722  1.00  0.00    -0.014 A 
BRANCH  42  43
ATOM     43  C   UNL A   1      42.063  27.450  29.764  1.00  0.00     0.031 A 
ATOM     44  C   UNL A   1      42.738  27.447  31.108  1.00  0.00     0.074 A 
ATOM     45  C   UNL A   1      41.049  28.297  29.523  1.00  0.00     0.049 A 
ATOM     46  N   UNL A   1      42.470  28.150  32.177  1.00  0.00    -0.248 NA
ATOM     47  C   UNL A   1      43.870  26.518  31.264  1.00  0.00     0.031 C 
ATOM     48  C   UNL A   1      40.331  28.417  28.256  1.00  0.00     0.029 A 
ATOM     49  N   UNL A   1      40.442  29.214  30.345  1.00  0.00    -0.354 N 
ATOM     50  C   UNL A   1      43.389  27.742  33.136  1.00  0.00     0.074 A 
ATOM     51  C   UNL A   1      44.202  26.709  32.531  1.00  0.00     0.031 C 
ATOM     52  C   UNL A   1      39.369  29.347  28.389  1.00  0.00     0.029 A 
ATOM     53  C   UNL A   1      39.383  29.861  29.758  1.00  0.00     0.049 A 
ATOM     54  H   UNL A   1      40.737  29.391  31.268  1.00  0.00     0.167 HD
ATOM     55  C   UNL A   1      43.547  28.193  34.404  1.00  0.00     0.037 A 
ATOM     56  C   UNL A   1      38.510  30.749  30.274  1.00  0.00     0.037 A 
ATOM     57  C   UNL A   1      42.730  29.215  35.004  1.00  0.00     0.049 A 
ATOM     58  C   UNL A   1      38.662  31.190  31.707  1.00  0.00     0.074 A 
ATOM     59  C   UNL A   1      42.832  29.766  36.269  1.00  0.00     0.029 A 
ATOM     60  N   UNL A   1      41.648  29.826  34.387  1.00  0.00    -0.354 N 
ATOM     61  N   UNL A   1      39.562  30.833  32.593  1.00  0.00    -0.248 NA
ATOM     62  C   UNL A   1      37.678  32.160  32.210  1.00  0.00     0.031 C 
ATOM     63  C   UNL A   1      41.769  30.660  36.442  1.00  0.00     0.029 A 
ATOM     64  C   UNL A   1      41.049  30.721  35.260  1.00  0.00     0.049 A 
ATOM     65  H   UNL A   1      41.350  29.651  33.466  1.00  0.00     0.167 HD
ATOM     66  C   UNL A   1      39.268  31.552  33.747  1.00  0.00     0.074 A 
ATOM     67  C   UNL A   1      38.117  32.376  33.442  1.00  0.00     0.031 C 
ATOM     68  C   UNL A   1      39.897  31.532  34.949  1.00  0.00     0.037 A 
BRANCH  55  69
ATOM     69  C   UNL A   1      44.616  27.545  35.236  1.00  0.00     0.057 A 
ATOM     70  C   UNL A   1      44.383  26.382  35.983  1.00  0.00     0.134 A 
ATOM     71  C   UNL A   1      45.906  28.091  35.282  1.00  0.00     0.134 A 
ATOM     72  F   UNL A   1      43.167  25.815  35.995  1.00  0.00    -0.206 F 
ATOM     73  C   UNL A   1      45.380  25.809  36.774  1.00  0.00     0.040 A 
ATOM     74  C   UNL A   1      46.920  27.509  36.044  1.00  0.00     0.040 A 
ATOM     75  F   UNL A   1      46.203  29.200  34.588  1.00  0.00    -0.206 F 
ATOM     76  C   UNL A   1      46.656  26.369  36.801  1.00  0.00     0.006 A 
ENDBRANCH  55  69
BRANCH  56  77
ATOM     77  C   UNL A   1      37.404  31.271  29.431  1.00  0.00     0.057 A 
ATOM     78  C   UNL A   1      36.267  30.502  29.160  1.00  0.00     0.134 A 
ATOM     79  C   UNL A   1      37.461  32.556  28.875  1.00  0.00     0.134 A 
ATOM     80  F   UNL A   1      36.165  29.255  29.640  1.00  0.00    -0.206 F 
ATOM     81  C   UNL A   1      35.231  30.987  28.359  1.00  0.00     0.040 A 
ATOM     82  C   UNL A   1      36.420  33.064  28.097  1.00  0.00     0.040 A 
ATOM     83  F   UNL A   1      38.523  33.343  29.096  1.00  0.00    -0.206 F 
ATOM     84  C   UNL A   1      35.302  32.276  27.832  1.00  0.00     0.006 A 
ENDBRANCH  56  77
BRANCH  68  85
ATOM     85  C   UNL A   1      39.373  32.449  36.020  1.00  0.00     0.057 A 
ATOM     86  C   UNL A   1      39.883  33.740  36.209  1.00  0.00     0.134 A 
ATOM     87  C   UNL A   1      38.317  32.046  36.850  1.00  0.00     0.134 A 
ATOM     88  F   UNL A   1      40.900  34.187  35.457  1.00  0.00    -0.206 F 
ATOM     89  C   UNL A   1      39.383  34.584  37.203  1.00  0.00     0.040 A 
ATOM     90  C   UNL A   1      37.789  32.893  37.825  1.00  0.00     0.040 A 
ATOM     91  F   UNL A   1      37.773  30.827  36.717  1.00  0.00    -0.206 F 
ATOM     92  C   UNL A   1      38.328  34.164  38.009  1.00  0.00     0.006 A 
ENDBRANCH  68  85
ENDBRANCH  42  43
ENDBRANCH  35  37
ENDBRANCH  34  35
ENDBRANCH  33  34
ENDBRANCH  32  33
ENDBRANCH  31  32
ENDBRANCH  30  31
ENDBRANCH  29  30
ENDBRANCH  28  29
ENDBRANCH  27  28
ENDBRANCH   1  27
TORSDOF 26
ENDMDL
