MODEL 1
REMARK VINA RESULT:     -11.6      0.000      0.000
REMARK SMILES O=C(OCCOCCOCCOCCOC(=O)[C@H]1CC2=c3ccccc3=N[C@H]2[C@@H](c2ccccc2)[NH2+]1)c1ccc(-c2c3nc(c(-c4c(F)cccc4F)c4ccc([nH]4)c(-c4c(F)cccc4F)c4nc(c(-c5c(F)cccc5F)c5ccc2[nH]5)C=C4)C=C3)cc1
REMARK SMILES IDX 8 1 7 2 6 3 5 4 4 5 3 6 2 7 1 8 37 9 38 10 90 11 39 12 89 13
REMARK SMILES IDX 40 14 41 15 42 16 83 17 43 18 88 19 82 20 84 21 44 22 87 23
REMARK SMILES IDX 81 24 80 25 45 27 71 28 54 29 70 30 55 31 58 32 69 33 85 34
REMARK SMILES IDX 56 35 57 36 68 38 86 39 59 40 46 41 47 42 52 43 48 44 49 45
REMARK SMILES IDX 51 46 53 47 50 48 72 49 73 50 78 51 74 52 75 53 77 54 79 55
REMARK SMILES IDX 76 56 60 57 61 58 66 59 62 60 63 61 65 62 67 63 64 64 9 65
REMARK SMILES IDX 10 66 11 67 12 68 13 69 14 70 15 71 16 72 17 73 18 74 19 75
REMARK SMILES IDX 36 76 20 77 29 78 21 81 28 82 22 83 26 84 27 85 23 86 25 87
REMARK SMILES IDX 24 88 30 89 31 90 35 91 32 92 34 93 33 94
REMARK H PARENT 84 26 58 37 36 79 36 80
REMARK Flexibility Score: inf
ROOT
ATOM      1  C   UNL A   1      45.296  18.717  25.422  1.00  0.00     0.188 C 
ENDROOT
BRANCH   1   2
ATOM      2  C   UNL A   1      46.048  19.745  24.573  1.00  0.00     0.188 C 
BRANCH   2   3
ATOM      3  O   UNL A   1      46.413  20.895  25.342  1.00  0.00    -0.376 OA
BRANCH   3   4
ATOM      4  C   UNL A   1      45.325  21.792  25.572  1.00  0.00     0.202 C 
BRANCH   4   5
ATOM      5  C   UNL A   1      44.749  22.399  24.295  1.00  0.00     0.261 C 
BRANCH   5   6
ATOM      6  O   UNL A   1      44.110  23.664  24.509  1.00  0.00    -0.460 OA
BRANCH   6   7
ATOM      7  C   UNL A   1      44.629  24.812  25.006  1.00  0.00     0.338 C 
ATOM      8  O   UNL A   1      45.741  25.148  24.592  1.00  0.00    -0.246 OA
BRANCH   7   9
ATOM      9  C   UNL A   1      43.981  25.704  26.034  1.00  0.00     0.060 A 
ATOM     10  C   UNL A   1      42.953  25.119  26.804  1.00  0.00     0.016 A 
ATOM     11  C   UNL A   1      44.285  27.042  26.296  1.00  0.00     0.016 A 
ATOM     12  C   UNL A   1      42.283  25.832  27.805  1.00  0.00     0.010 A 
ATOM     13  C   UNL A   1      43.613  27.769  27.279  1.00  0.00     0.010 A 
ATOM     14  C   UNL A   1      42.630  27.159  28.056  1.00  0.00    -0.014 A 
BRANCH  14  15
ATOM     15  C   UNL A   1      42.149  27.876  29.251  1.00  0.00     0.031 A 
ATOM     16  C   UNL A   1      42.753  27.653  30.597  1.00  0.00     0.074 A 
ATOM     17  C   UNL A   1      41.039  28.619  29.097  1.00  0.00     0.049 A 
ATOM     18  N   UNL A   1      42.450  28.221  31.735  1.00  0.00    -0.248 NA
ATOM     19  C   UNL A   1      43.821  26.645  30.687  1.00  0.00     0.031 C 
ATOM     20  C   UNL A   1      40.317  28.792  27.831  1.00  0.00     0.029 A 
ATOM     21  N   UNL A   1      40.300  29.328  30.003  1.00  0.00    -0.354 N 
ATOM     22  C   UNL A   1      43.305  27.664  32.676  1.00  0.00     0.074 A 
ATOM     23  C   UNL A   1      44.102  26.671  31.983  1.00  0.00     0.031 C 
ATOM     24  C   UNL A   1      39.227  29.540  28.047  1.00  0.00     0.029 A 
ATOM     25  C   UNL A   1      39.185  29.910  29.455  1.00  0.00     0.049 A 
ATOM     26  H   UNL A   1      40.544  29.412  30.952  1.00  0.00     0.167 HD
ATOM     27  C   UNL A   1      43.414  27.975  33.991  1.00  0.00     0.037 A 
ATOM     28  C   UNL A   1      38.241  30.674  30.029  1.00  0.00     0.037 A 
ATOM     29  C   UNL A   1      42.568  28.938  34.653  1.00  0.00     0.049 A 
ATOM     30  C   UNL A   1      38.400  31.033  31.473  1.00  0.00     0.074 A 
ATOM     31  C   UNL A   1      42.629  29.399  35.957  1.00  0.00     0.029 A 
ATOM     32  N   UNL A   1      41.481  29.569  34.060  1.00  0.00    -0.354 N 
ATOM     33  N   UNL A   1      39.310  30.623  32.326  1.00  0.00    -0.248 NA
ATOM     34  C   UNL A   1      37.431  31.984  32.026  1.00  0.00     0.031 C 
ATOM     35  C   UNL A   1      41.556  30.276  36.163  1.00  0.00     0.029 A 
ATOM     36  C   UNL A   1      40.849  30.396  34.976  1.00  0.00     0.049 A 
ATOM     37  H   UNL A   1      41.200  29.447  33.125  1.00  0.00     0.167 HD
ATOM     38  C   UNL A   1      39.041  31.286  33.513  1.00  0.00     0.074 A 
ATOM     39  C   UNL A   1      37.889  32.133  33.262  1.00  0.00     0.031 C 
ATOM     40  C   UNL A   1      39.690  31.209  34.701  1.00  0.00     0.037 A 
BRANCH  27  41
ATOM     41  C   UNL A   1      44.483  27.278  34.784  1.00  0.00     0.057 A 
ATOM     42  C   UNL A   1      45.795  27.767  34.823  1.00  0.00     0.134 A 
ATOM     43  C   UNL A   1      44.220  26.094  35.489  1.00  0.00     0.134 A 
ATOM     44  F   UNL A   1      46.125  28.889  34.167  1.00  0.00    -0.206 F 
ATOM     45  C   UNL A   1      46.801  27.109  35.536  1.00  0.00     0.040 A 
ATOM     46  C   UNL A   1      45.211  25.440  36.225  1.00  0.00     0.040 A 
ATOM     47  F   UNL A   1      42.985  25.570  35.500  1.00  0.00    -0.206 F 
ATOM     48  C   UNL A   1      46.509  25.946  36.246  1.00  0.00     0.006 A 
ENDBRANCH  27  41
BRANCH  28  49
ATOM     49  C   UNL A   1      37.146  31.218  29.194  1.00  0.00     0.057 A 
ATOM     50  C   UNL A   1      37.151  32.546  28.752  1.00  0.00     0.134 A 
ATOM     51  C   UNL A   1      36.024  30.439  28.894  1.00  0.00     0.134 A 
ATOM     52  F   UNL A   1      38.188  33.349  29.031  1.00  0.00    -0.206 F 
ATOM     53  C   UNL A   1      36.072  33.084  28.049  1.00  0.00     0.040 A 
ATOM     54  C   UNL A   1      34.946  30.958  28.176  1.00  0.00     0.040 A 
ATOM     55  F   UNL A   1      35.966  29.160  29.293  1.00  0.00    -0.206 F 
ATOM     56  C   UNL A   1      34.965  32.287  27.758  1.00  0.00     0.006 A 
ENDBRANCH  28  49
BRANCH  40  57
ATOM     57  C   UNL A   1      39.157  32.073  35.802  1.00  0.00     0.057 A 
ATOM     58  C   UNL A   1      39.565  33.408  35.922  1.00  0.00     0.134 A 
ATOM     59  C   UNL A   1      38.235  31.587  36.736  1.00  0.00     0.134 A 
ATOM     60  F   UNL A   1      40.449  33.931  35.059  1.00  0.00    -0.206 F 
ATOM     61  C   UNL A   1      39.067  34.231  36.931  1.00  0.00     0.040 A 
ATOM     62  C   UNL A   1      37.712  32.408  37.735  1.00  0.00     0.040 A 
ATOM     63  F   UNL A   1      37.793  30.323  36.661  1.00  0.00    -0.206 F 
ATOM     64  C   UNL A   1      38.131  33.734  37.836  1.00  0.00     0.006 A 
ENDBRANCH  40  57
ENDBRANCH  14  15
ENDBRANCH   7   9
ENDBRANCH   6   7
ENDBRANCH   5   6
ENDBRANCH   4   5
ENDBRANCH   3   4
ENDBRANCH   2   3
ENDBRANCH   1   2
BRANCH   1  65
ATOM     65  O   UNL A   1      43.902  18.576  25.129  1.00  0.00    -0.377 OA
BRANCH  65  66
ATOM     66  C   UNL A   1      43.012  18.379  26.233  1.00  0.00     0.188 C 
BRANCH  66  67
ATOM     67  C   UNL A   1      41.921  19.440  26.483  1.00  0.00     0.188 C 
BRANCH  67  68
ATOM     68  O   UNL A   1      42.098  20.582  25.666  1.00  0.00    -0.376 OA
BRANCH  68  69
ATOM     69  C   UNL A   1      41.498  21.819  26.044  1.00  0.00     0.202 C 
BRANCH  69  70
ATOM     70  C   UNL A   1      40.139  21.884  26.773  1.00  0.00     0.261 C 
BRANCH  70  71
ATOM     71  O   UNL A   1      39.203  22.783  26.170  1.00  0.00    -0.459 OA
BRANCH  71  72
ATOM     72  C   UNL A   1      38.137  22.165  25.571  1.00  0.00     0.365 C 
ATOM     73  O   UNL A   1      38.165  21.051  25.073  1.00  0.00    -0.245 OA
BRANCH  72  74
ATOM     74  C   UNL A   1      36.859  22.986  25.772  1.00  0.00     0.298 C 
ATOM     75  C   UNL A   1      36.251  23.497  24.448  1.00  0.00     0.111 C 
ATOM     76  N   UNL A   1      35.969  22.313  26.771  1.00  0.00    -0.326 N 
ATOM     77  C   UNL A   1      34.945  24.187  24.715  1.00  0.00    -0.024 C 
ATOM     78  C   UNL A   1      34.524  22.609  26.589  1.00  0.00     0.243 C 
ATOM     79  H   UNL A   1      36.245  22.620  27.704  1.00  0.00     0.347 HD
ATOM     80  H   UNL A   1      36.085  21.308  26.639  1.00  0.00     0.347 HD
ATOM     81  C   UNL A   1      34.036  24.706  23.898  1.00  0.00     0.002 A 
ATOM     82  C   UNL A   1      34.405  24.099  26.116  1.00  0.00     0.196 C 
ATOM     83  C   UNL A   1      33.929  24.900  22.491  1.00  0.00     0.010 A 
ATOM     84  C   UNL A   1      32.901  24.972  24.806  1.00  0.00     0.066 A 
ATOM     85  N   UNL A   1      33.025  24.649  26.060  1.00  0.00    -0.270 NA
ATOM     86  C   UNL A   1      32.776  25.378  21.995  1.00  0.00     0.001 A 
ATOM     87  C   UNL A   1      31.686  25.542  24.192  1.00  0.00     0.028 A 
ATOM     88  C   UNL A   1      31.654  25.715  22.860  1.00  0.00     0.002 A 
BRANCH  78  89
ATOM     89  C   UNL A   1      33.810  21.583  25.683  1.00  0.00     0.012 A 
ATOM     90  C   UNL A   1      32.456  21.685  25.311  1.00  0.00     0.010 A 
ATOM     91  C   UNL A   1      34.520  20.464  25.213  1.00  0.00     0.010 A 
ATOM     92  C   UNL A   1      31.829  20.685  24.561  1.00  0.00     0.001 A 
ATOM     93  C   UNL A   1      33.887  19.450  24.491  1.00  0.00     0.001 A 
ATOM     94  C   UNL A   1      32.539  19.558  24.169  1.00  0.00     0.000 A 
ENDBRANCH  78  89
ENDBRANCH  72  74
ENDBRANCH  71  72
ENDBRANCH  70  71
ENDBRANCH  69  70
ENDBRANCH  68  69
ENDBRANCH  67  68
ENDBRANCH  66  67
ENDBRANCH  65  66
ENDBRANCH   1  65
TORSDOF 21
ENDMDL
MODEL 2
REMARK VINA RESULT:     -10.9      2.091      4.254
REMARK SMILES O=C(OCCOCCOCCOCCOC(=O)[C@H]1CC2=c3ccccc3=N[C@H]2[C@@H](c2ccccc2)[NH2+]1)c1ccc(-c2c3nc(c(-c4c(F)cccc4F)c4ccc([nH]4)c(-c4c(F)cccc4F)c4nc(c(-c5c(F)cccc5F)c5ccc2[nH]5)C=C4)C=C3)cc1
REMARK SMILES IDX 8 1 7 2 6 3 5 4 4 5 3 6 2 7 1 8 37 9 38 10 90 11 39 12 89 13
REMARK SMILES IDX 40 14 41 15 42 16 83 17 43 18 88 19 82 20 84 21 44 22 87 23
REMARK SMILES IDX 81 24 80 25 45 27 71 28 54 29 70 30 55 31 58 32 69 33 85 34
REMARK SMILES IDX 56 35 57 36 68 38 86 39 59 40 46 41 47 42 52 43 48 44 49 45
REMARK SMILES IDX 51 46 53 47 50 48 72 49 73 50 78 51 74 52 75 53 77 54 79 55
REMARK SMILES IDX 76 56 60 57 61 58 66 59 62 60 63 61 65 62 67 63 64 64 9 65
REMARK SMILES IDX 10 66 11 67 12 68 13 69 14 70 15 71 16 72 17 73 18 74 19 75
REMARK SMILES IDX 36 76 20 77 29 78 21 81 28 82 22 83 26 84 27 85 23 86 25 87
REMARK SMILES IDX 24 88 30 89 31 90 35 91 32 92 34 93 33 94
REMARK H PARENT 84 26 58 37 36 79 36 80
REMARK Flexibility Score: inf
ROOT
ATOM      1  C   UNL A   1      39.708  22.072  26.688  1.00  0.00     0.188 C 
ENDROOT
BRANCH   1   2
ATOM      2  C   UNL A   1      41.105  22.395  26.152  1.00  0.00     0.188 C 
BRANCH   2   3
ATOM      3  O   UNL A   1      42.090  21.506  26.687  1.00  0.00    -0.376 OA
BRANCH   3   4
ATOM      4  C   UNL A   1      43.211  21.315  25.822  1.00  0.00     0.202 C 
BRANCH   4   5
ATOM      5  C   UNL A   1      43.551  22.540  24.976  1.00  0.00     0.261 C 
BRANCH   5   6
ATOM      6  O   UNL A   1      44.618  23.325  25.522  1.00  0.00    -0.460 OA
BRANCH   6   7
ATOM      7  C   UNL A   1      44.758  24.672  25.557  1.00  0.00     0.338 C 
ATOM      8  O   UNL A   1      45.498  25.179  24.711  1.00  0.00    -0.246 OA
BRANCH   7   9
ATOM      9  C   UNL A   1      44.109  25.603  26.549  1.00  0.00     0.060 A 
ATOM     10  C   UNL A   1      43.069  25.054  27.328  1.00  0.00     0.016 A 
ATOM     11  C   UNL A   1      44.424  26.946  26.770  1.00  0.00     0.016 A 
ATOM     12  C   UNL A   1      42.396  25.806  28.299  1.00  0.00     0.010 A 
ATOM     13  C   UNL A   1      43.750  27.712  27.722  1.00  0.00     0.010 A 
ATOM     14  C   UNL A   1      42.754  27.138  28.508  1.00  0.00    -0.014 A 
BRANCH  14  15
ATOM     15  C   UNL A   1      42.269  27.898  29.675  1.00  0.00     0.031 A 
ATOM     16  C   UNL A   1      42.879  27.736  31.028  1.00  0.00     0.074 A 
ATOM     17  C   UNL A   1      41.151  28.623  29.494  1.00  0.00     0.049 A 
ATOM     18  N   UNL A   1      42.573  28.347  32.142  1.00  0.00    -0.248 NA
ATOM     19  C   UNL A   1      43.957  26.744  31.155  1.00  0.00     0.031 C 
ATOM     20  C   UNL A   1      40.424  28.737  28.224  1.00  0.00     0.029 A 
ATOM     21  N   UNL A   1      40.407  29.361  30.372  1.00  0.00    -0.354 N 
ATOM     22  C   UNL A   1      43.436  27.838  33.102  1.00  0.00     0.074 A 
ATOM     23  C   UNL A   1      44.241  26.825  32.448  1.00  0.00     0.031 C 
ATOM     24  C   UNL A   1      39.327  29.482  28.412  1.00  0.00     0.029 A 
ATOM     25  C   UNL A   1      39.285  29.909  29.804  1.00  0.00     0.049 A 
ATOM     26  H   UNL A   1      40.653  29.486  31.317  1.00  0.00     0.167 HD
ATOM     27  C   UNL A   1      43.546  28.204  34.403  1.00  0.00     0.037 A 
ATOM     28  C   UNL A   1      38.335  30.687  30.349  1.00  0.00     0.037 A 
ATOM     29  C   UNL A   1      42.691  29.185  35.028  1.00  0.00     0.049 A 
ATOM     30  C   UNL A   1      38.495  31.106  31.777  1.00  0.00     0.074 A 
ATOM     31  C   UNL A   1      42.751  29.699  36.311  1.00  0.00     0.029 A 
ATOM     32  N   UNL A   1      41.596  29.780  34.413  1.00  0.00    -0.354 N 
ATOM     33  N   UNL A   1      39.411  30.741  32.643  1.00  0.00    -0.248 NA
ATOM     34  C   UNL A   1      37.518  32.070  32.293  1.00  0.00     0.031 C 
ATOM     35  C   UNL A   1      41.670  30.574  36.484  1.00  0.00     0.029 A 
ATOM     36  C   UNL A   1      40.959  30.638  35.296  1.00  0.00     0.049 A 
ATOM     37  H   UNL A   1      41.315  29.617  33.484  1.00  0.00     0.167 HD
ATOM     38  C   UNL A   1      39.138  31.449  33.803  1.00  0.00     0.074 A 
ATOM     39  C   UNL A   1      37.977  32.274  33.521  1.00  0.00     0.031 C 
ATOM     40  C   UNL A   1      39.791  31.427  34.991  1.00  0.00     0.037 A 
BRANCH  27  41
ATOM     41  C   UNL A   1      44.624  27.550  35.220  1.00  0.00     0.057 A 
ATOM     42  C   UNL A   1      44.396  26.341  35.889  1.00  0.00     0.134 A 
ATOM     43  C   UNL A   1      45.888  28.139  35.373  1.00  0.00     0.134 A 
ATOM     44  F   UNL A   1      43.210  25.723  35.798  1.00  0.00    -0.206 F 
ATOM     45  C   UNL A   1      45.386  25.740  36.674  1.00  0.00     0.040 A 
ATOM     46  C   UNL A   1      46.893  27.536  36.134  1.00  0.00     0.040 A 
ATOM     47  F   UNL A   1      46.178  29.295  34.757  1.00  0.00    -0.206 F 
ATOM     48  C   UNL A   1      46.641  26.335  36.792  1.00  0.00     0.006 A 
ENDBRANCH  27  41
BRANCH  28  49
ATOM     49  C   UNL A   1      37.233  31.185  29.496  1.00  0.00     0.057 A 
ATOM     50  C   UNL A   1      36.125  30.387  29.188  1.00  0.00     0.134 A 
ATOM     51  C   UNL A   1      37.310  32.446  28.896  1.00  0.00     0.134 A 
ATOM     52  F   UNL A   1      36.009  29.157  29.714  1.00  0.00    -0.206 F 
ATOM     53  C   UNL A   1      35.136  30.821  28.305  1.00  0.00     0.040 A 
ATOM     54  C   UNL A   1      36.319  32.901  28.025  1.00  0.00     0.040 A 
ATOM     55  F   UNL A   1      38.349  33.253  29.154  1.00  0.00    -0.206 F 
ATOM     56  C   UNL A   1      35.232  32.084  27.721  1.00  0.00     0.006 A 
ENDBRANCH  28  49
BRANCH  40  57
ATOM     57  C   UNL A   1      39.253  32.331  36.057  1.00  0.00     0.057 A 
ATOM     58  C   UNL A   1      38.269  31.880  36.946  1.00  0.00     0.134 A 
ATOM     59  C   UNL A   1      39.716  33.643  36.210  1.00  0.00     0.134 A 
ATOM     60  F   UNL A   1      37.784  30.633  36.849  1.00  0.00    -0.206 F 
ATOM     61  C   UNL A   1      37.769  32.702  37.955  1.00  0.00     0.040 A 
ATOM     62  C   UNL A   1      39.240  34.467  37.230  1.00  0.00     0.040 A 
ATOM     63  F   UNL A   1      40.671  34.126  35.400  1.00  0.00    -0.206 F 
ATOM     64  C   UNL A   1      38.261  33.998  38.104  1.00  0.00     0.006 A 
ENDBRANCH  40  57
ENDBRANCH  14  15
ENDBRANCH   7   9
ENDBRANCH   6   7
ENDBRANCH   5   6
ENDBRANCH   4   5
ENDBRANCH   3   4
ENDBRANCH   2   3
ENDBRANCH   1   2
BRANCH   1  65
ATOM     65  O   UNL A   1      38.812  21.464  25.751  1.00  0.00    -0.377 OA
BRANCH  65  66
ATOM     66  C   UNL A   1      37.551  22.103  25.531  1.00  0.00     0.188 C 
BRANCH  66  67
ATOM     67  C   UNL A   1      36.541  21.413  24.592  1.00  0.00     0.188 C 
BRANCH  67  68
ATOM     68  O   UNL A   1      35.379  22.197  24.398  1.00  0.00    -0.376 OA
BRANCH  68  69
ATOM     69  C   UNL A   1      34.970  23.114  25.410  1.00  0.00     0.202 C 
BRANCH  69  70
ATOM     70  C   UNL A   1      33.623  22.973  26.151  1.00  0.00     0.261 C 
BRANCH  70  71
ATOM     71  O   UNL A   1      32.701  24.032  25.880  1.00  0.00    -0.459 OA
BRANCH  71  72
ATOM     72  C   UNL A   1      31.866  23.792  24.820  1.00  0.00     0.365 C 
ATOM     73  O   UNL A   1      31.181  22.790  24.684  1.00  0.00    -0.245 OA
BRANCH  72  74
ATOM     74  C   UNL A   1      31.769  25.030  23.922  1.00  0.00     0.298 C 
ATOM     75  C   UNL A   1      30.385  25.711  23.976  1.00  0.00     0.111 C 
ATOM     76  N   UNL A   1      33.001  25.868  24.070  1.00  0.00    -0.326 N 
ATOM     77  C   UNL A   1      30.404  26.976  23.169  1.00  0.00    -0.024 C 
ATOM     78  C   UNL A   1      32.784  27.313  23.799  1.00  0.00     0.243 C 
ATOM     79  H   UNL A   1      33.705  25.521  23.419  1.00  0.00     0.347 HD
ATOM     80  H   UNL A   1      33.296  25.790  25.044  1.00  0.00     0.347 HD
ATOM     81  C   UNL A   1      29.491  27.923  22.988  1.00  0.00     0.002 A 
ATOM     82  C   UNL A   1      31.738  27.422  22.637  1.00  0.00     0.196 C 
ATOM     83  C   UNL A   1      28.139  28.120  23.391  1.00  0.00     0.010 A 
ATOM     84  C   UNL A   1      30.260  28.986  22.307  1.00  0.00     0.066 A 
ATOM     85  N   UNL A   1      31.526  28.786  22.086  1.00  0.00    -0.270 NA
ATOM     86  C   UNL A   1      27.547  29.291  23.101  1.00  0.00     0.001 A 
ATOM     87  C   UNL A   1      29.525  30.224  21.980  1.00  0.00     0.028 A 
ATOM     88  C   UNL A   1      28.246  30.341  22.375  1.00  0.00     0.002 A 
BRANCH  78  89
ATOM     89  C   UNL A   1      32.427  28.116  25.069  1.00  0.00     0.012 A 
ATOM     90  C   UNL A   1      32.107  27.517  26.302  1.00  0.00     0.010 A 
ATOM     91  C   UNL A   1      32.384  29.520  25.009  1.00  0.00     0.010 A 
ATOM     92  C   UNL A   1      31.704  28.282  27.400  1.00  0.00     0.001 A 
ATOM     93  C   UNL A   1      31.952  30.283  26.096  1.00  0.00     0.001 A 
ATOM     94  C   UNL A   1      31.606  29.663  27.291  1.00  0.00     0.000 A 
ENDBRANCH  78  89
ENDBRANCH  72  74
ENDBRANCH  71  72
ENDBRANCH  70  71
ENDBRANCH  69  70
ENDBRANCH  68  69
ENDBRANCH  67  68
ENDBRANCH  66  67
ENDBRANCH  65  66
ENDBRANCH   1  65
TORSDOF 21
ENDMDL
MODEL 3
REMARK VINA RESULT:     -10.7      4.147      8.767
REMARK SMILES O=C(OCCOCCOCCOCCOC(=O)[C@H]1CC2=c3ccccc3=N[C@H]2[C@@H](c2ccccc2)[NH2+]1)c1ccc(-c2c3nc(c(-c4c(F)cccc4F)c4ccc([nH]4)c(-c4c(F)cccc4F)c4nc(c(-c5c(F)cccc5F)c5ccc2[nH]5)C=C4)C=C3)cc1
REMARK SMILES IDX 8 1 7 2 6 3 5 4 4 5 3 6 2 7 1 8 37 9 38 10 90 11 39 12 89 13
REMARK SMILES IDX 40 14 41 15 42 16 83 17 43 18 88 19 82 20 84 21 44 22 87 23
REMARK SMILES IDX 81 24 80 25 45 27 71 28 54 29 70 30 55 31 58 32 69 33 85 34
REMARK SMILES IDX 56 35 57 36 68 38 86 39 59 40 46 41 47 42 52 43 48 44 49 45
REMARK SMILES IDX 51 46 53 47 50 48 72 49 73 50 78 51 74 52 75 53 77 54 79 55
REMARK SMILES IDX 76 56 60 57 61 58 66 59 62 60 63 61 65 62 67 63 64 64 9 65
REMARK SMILES IDX 10 66 11 67 12 68 13 69 14 70 15 71 16 72 17 73 18 74 19 75
REMARK SMILES IDX 36 76 20 77 29 78 21 81 28 82 22 83 26 84 27 85 23 86 25 87
REMARK SMILES IDX 24 88 30 89 31 90 35 91 32 92 34 93 33 94
REMARK H PARENT 84 26 58 37 36 79 36 80
REMARK Flexibility Score: inf
ROOT
ATOM      1  C   UNL A   1      34.965  29.331  27.724  1.00  0.00     0.188 C 
ENDROOT
BRANCH   1   2
ATOM      2  C   UNL A   1      34.887  30.818  27.369  1.00  0.00     0.188 C 
BRANCH   2   3
ATOM      3  O   UNL A   1      33.985  31.518  28.231  1.00  0.00    -0.376 OA
BRANCH   3   4
ATOM      4  C   UNL A   1      32.730  31.818  27.617  1.00  0.00     0.202 C 
BRANCH   4   5
ATOM      5  C   UNL A   1      32.654  33.225  27.029  1.00  0.00     0.261 C 
BRANCH   5   6
ATOM      6  O   UNL A   1      32.241  34.213  27.982  1.00  0.00    -0.460 OA
BRANCH   6   7
ATOM      7  C   UNL A   1      32.994  34.941  28.841  1.00  0.00     0.338 C 
ATOM      8  O   UNL A   1      32.627  36.096  29.065  1.00  0.00    -0.246 OA
BRANCH   7   9
ATOM      9  C   UNL A   1      34.251  34.473  29.529  1.00  0.00     0.060 A 
ATOM     10  C   UNL A   1      34.093  33.978  30.841  1.00  0.00     0.016 A 
ATOM     11  C   UNL A   1      35.548  34.488  29.010  1.00  0.00     0.016 A 
ATOM     12  C   UNL A   1      35.177  33.496  31.584  1.00  0.00     0.010 A 
ATOM     13  C   UNL A   1      36.640  34.026  29.746  1.00  0.00     0.010 A 
ATOM     14  C   UNL A   1      36.455  33.503  31.024  1.00  0.00    -0.014 A 
BRANCH  14  15
ATOM     15  C   UNL A   1      37.580  32.781  31.646  1.00  0.00     0.031 A 
ATOM     16  C   UNL A   1      38.240  33.275  32.890  1.00  0.00     0.074 A 
ATOM     17  C   UNL A   1      38.082  31.744  30.952  1.00  0.00     0.049 A 
ATOM     18  N   UNL A   1      39.226  32.741  33.561  1.00  0.00    -0.248 NA
ATOM     19  C   UNL A   1      37.749  34.547  33.441  1.00  0.00     0.031 C 
ATOM     20  C   UNL A   1      37.564  31.271  29.663  1.00  0.00     0.029 A 
ATOM     21  N   UNL A   1      39.154  30.933  31.199  1.00  0.00    -0.354 N 
ATOM     22  C   UNL A   1      39.459  33.591  34.633  1.00  0.00     0.074 A 
ATOM     23  C   UNL A   1      38.548  34.708  34.488  1.00  0.00     0.031 C 
ATOM     24  C   UNL A   1      38.333  30.266  29.224  1.00  0.00     0.029 A 
ATOM     25  C   UNL A   1      39.381  30.017  30.204  1.00  0.00     0.049 A 
ATOM     26  H   UNL A   1      39.706  31.000  32.011  1.00  0.00     0.167 HD
ATOM     27  C   UNL A   1      40.347  33.433  35.645  1.00  0.00     0.037 A 
ATOM     28  C   UNL A   1      40.326  29.067  30.105  1.00  0.00     0.037 A 
ATOM     29  C   UNL A   1      41.273  32.328  35.726  1.00  0.00     0.049 A 
ATOM     30  C   UNL A   1      41.273  28.888  31.250  1.00  0.00     0.074 A 
ATOM     31  C   UNL A   1      42.164  32.012  36.737  1.00  0.00     0.029 A 
ATOM     32  N   UNL A   1      41.442  31.369  34.734  1.00  0.00    -0.354 N 
ATOM     33  N   UNL A   1      41.388  29.606  32.342  1.00  0.00    -0.248 NA
ATOM     34  C   UNL A   1      42.195  27.751  31.170  1.00  0.00     0.031 C 
ATOM     35  C   UNL A   1      42.898  30.888  36.338  1.00  0.00     0.029 A 
ATOM     36  C   UNL A   1      42.437  30.476  35.097  1.00  0.00     0.049 A 
ATOM     37  H   UNL A   1      40.928  31.330  33.896  1.00  0.00     0.167 HD
ATOM     38  C   UNL A   1      42.378  28.995  33.095  1.00  0.00     0.074 A 
ATOM     39  C   UNL A   1      42.821  27.839  32.337  1.00  0.00     0.031 C 
ATOM     40  C   UNL A   1      42.871  29.350  34.307  1.00  0.00     0.037 A 
BRANCH  27  41
ATOM     41  C   UNL A   1      40.349  34.466  36.735  1.00  0.00     0.057 A 
ATOM     42  C   UNL A   1      41.223  35.561  36.699  1.00  0.00     0.134 A 
ATOM     43  C   UNL A   1      39.502  34.361  37.849  1.00  0.00     0.134 A 
ATOM     44  F   UNL A   1      42.068  35.725  35.671  1.00  0.00    -0.206 F 
ATOM     45  C   UNL A   1      41.249  36.512  37.723  1.00  0.00     0.040 A 
ATOM     46  C   UNL A   1      39.502  35.317  38.866  1.00  0.00     0.040 A 
ATOM     47  F   UNL A   1      38.636  33.341  37.949  1.00  0.00    -0.206 F 
ATOM     48  C   UNL A   1      40.382  36.396  38.807  1.00  0.00     0.006 A 
ENDBRANCH  27  41
BRANCH  28  49
ATOM     49  C   UNL A   1      40.328  28.170  28.928  1.00  0.00     0.057 A 
ATOM     50  C   UNL A   1      39.632  26.956  28.930  1.00  0.00     0.134 A 
ATOM     51  C   UNL A   1      41.102  28.471  27.803  1.00  0.00     0.134 A 
ATOM     52  F   UNL A   1      38.892  26.600  29.992  1.00  0.00    -0.206 F 
ATOM     53  C   UNL A   1      39.714  26.066  27.858  1.00  0.00     0.040 A 
ATOM     54  C   UNL A   1      41.180  27.599  26.716  1.00  0.00     0.040 A 
ATOM     55  F   UNL A   1      41.791  29.620  27.747  1.00  0.00    -0.206 F 
ATOM     56  C   UNL A   1      40.490  26.389  26.746  1.00  0.00     0.006 A 
ENDBRANCH  28  49
BRANCH  40  57
ATOM     57  C   UNL A   1      43.939  28.463  34.871  1.00  0.00     0.057 A 
ATOM     58  C   UNL A   1      43.604  27.337  35.633  1.00  0.00     0.134 A 
ATOM     59  C   UNL A   1      45.298  28.720  34.650  1.00  0.00     0.134 A 
ATOM     60  F   UNL A   1      42.320  27.040  35.881  1.00  0.00    -0.206 F 
ATOM     61  C   UNL A   1      44.585  26.493  36.151  1.00  0.00     0.040 A 
ATOM     62  C   UNL A   1      46.287  27.869  35.143  1.00  0.00     0.040 A 
ATOM     63  F   UNL A   1      45.680  29.773  33.911  1.00  0.00    -0.206 F 
ATOM     64  C   UNL A   1      45.931  26.753  35.899  1.00  0.00     0.006 A 
ENDBRANCH  40  57
ENDBRANCH  14  15
ENDBRANCH   7   9
ENDBRANCH   6   7
ENDBRANCH   5   6
ENDBRANCH   4   5
ENDBRANCH   3   4
ENDBRANCH   2   3
ENDBRANCH   1   2
BRANCH   1  65
ATOM     65  O   UNL A   1      33.879  28.526  27.254  1.00  0.00    -0.377 OA
BRANCH  65  66
ATOM     66  C   UNL A   1      34.020  27.913  25.969  1.00  0.00     0.188 C 
BRANCH  66  67
ATOM     67  C   UNL A   1      33.278  28.549  24.776  1.00  0.00     0.188 C 
BRANCH  67  68
ATOM     68  O   UNL A   1      32.676  27.573  23.946  1.00  0.00    -0.376 OA
BRANCH  68  69
ATOM     69  C   UNL A   1      33.448  26.466  23.486  1.00  0.00     0.202 C 
BRANCH  69  70
ATOM     70  C   UNL A   1      33.233  25.838  22.093  1.00  0.00     0.261 C 
BRANCH  70  71
ATOM     71  O   UNL A   1      32.719  24.503  22.135  1.00  0.00    -0.459 OA
BRANCH  71  72
ATOM     72  C   UNL A   1      31.585  24.362  22.891  1.00  0.00     0.365 C 
ATOM     73  O   UNL A   1      30.583  25.052  22.783  1.00  0.00    -0.245 OA
BRANCH  72  74
ATOM     74  C   UNL A   1      31.674  23.104  23.762  1.00  0.00     0.298 C 
ATOM     75  C   UNL A   1      32.011  21.831  22.957  1.00  0.00     0.111 C 
ATOM     76  N   UNL A   1      32.443  23.401  25.012  1.00  0.00    -0.326 N 
ATOM     77  C   UNL A   1      32.198  20.669  23.887  1.00  0.00    -0.024 C 
ATOM     78  C   UNL A   1      33.132  22.218  25.592  1.00  0.00     0.243 C 
ATOM     79  H   UNL A   1      31.794  23.767  25.708  1.00  0.00     0.347 HD
ATOM     80  H   UNL A   1      33.168  24.073  24.760  1.00  0.00     0.347 HD
ATOM     81  C   UNL A   1      32.571  19.413  23.670  1.00  0.00     0.002 A 
ATOM     82  C   UNL A   1      32.207  20.974  25.360  1.00  0.00     0.196 C 
ATOM     83  C   UNL A   1      32.870  18.628  22.520  1.00  0.00     0.010 A 
ATOM     84  C   UNL A   1      32.802  18.904  25.038  1.00  0.00     0.066 A 
ATOM     85  N   UNL A   1      32.631  19.720  26.037  1.00  0.00    -0.270 NA
ATOM     86  C   UNL A   1      33.333  17.379  22.699  1.00  0.00     0.001 A 
ATOM     87  C   UNL A   1      33.264  17.507  25.152  1.00  0.00     0.028 A 
ATOM     88  C   UNL A   1      33.514  16.815  24.028  1.00  0.00     0.002 A 
BRANCH  78  89
ATOM     89  C   UNL A   1      34.578  22.054  25.078  1.00  0.00     0.012 A 
ATOM     90  C   UNL A   1      35.127  22.831  24.040  1.00  0.00     0.010 A 
ATOM     91  C   UNL A   1      35.404  21.064  25.640  1.00  0.00     0.010 A 
ATOM     92  C   UNL A   1      36.413  22.587  23.549  1.00  0.00     0.001 A 
ATOM     93  C   UNL A   1      36.676  20.798  25.130  1.00  0.00     0.001 A 
ATOM     94  C   UNL A   1      37.179  21.557  24.079  1.00  0.00     0.000 A 
ENDBRANCH  78  89
ENDBRANCH  72  74
ENDBRANCH  71  72
ENDBRANCH  70  71
ENDBRANCH  69  70
ENDBRANCH  68  69
ENDBRANCH  67  68
ENDBRANCH  66  67
ENDBRANCH  65  66
ENDBRANCH   1  65
TORSDOF 21
ENDMDL
