MODEL 1
REMARK VINA RESULT:     -10.9      0.000      0.000
REMARK SMILES C[C@H]1CC[C@H]([NH2+]Cc2c(C(=O)OCCOCCOCCOCCOC(=O)c3ccc(-c4c5nc(c(-c6c(F)cccc6F)c6ccc([nH]6)c(-c6c(F)cccc6F)c6nc(c(-c7c(F)cccc7F)c7ccc4[nH]7)C=C6)C=C5)cc3)n(Cc3ccccc3F)c3ccccc23)CC1
REMARK SMILES IDX 17 1 16 2 15 3 14 4 13 5 12 6 10 7 11 8 9 9 8 10 95 11 81 12
REMARK SMILES IDX 90 13 94 14 91 15 93 16 92 17 7 18 6 19 5 22 1 23 2 24 3 25
REMARK SMILES IDX 97 26 4 27 96 28 82 29 83 30 84 31 88 32 85 33 87 34 89 35
REMARK SMILES IDX 86 36 18 37 19 38 20 39 21 40 22 41 23 42 24 43 25 44 26 45
REMARK SMILES IDX 27 46 28 47 80 48 29 49 79 50 30 51 31 52 32 53 73 54 33 55
REMARK SMILES IDX 78 56 72 57 74 58 34 59 77 60 71 61 70 62 35 64 61 65 44 66
REMARK SMILES IDX 60 67 45 68 48 69 59 70 75 71 46 72 47 73 58 75 76 76 49 77
REMARK SMILES IDX 36 78 37 79 42 80 38 81 39 82 41 83 43 84 40 85 62 86 63 87
REMARK SMILES IDX 68 88 64 89 65 90 67 91 69 92 66 93 50 94 51 95 56 96 52 97
REMARK SMILES IDX 53 98 55 99 57 100 54 101
REMARK H PARENT 6 20 6 21 74 63 48 74
REMARK Flexibility Score: inf
ROOT
ATOM      1  C   UNL A   1      36.509  22.391  23.640  1.00  0.00     0.188 C 
ENDROOT
BRANCH   1   2
ATOM      2  C   UNL A   1      35.175  22.955  23.131  1.00  0.00     0.188 C 
BRANCH   2   3
ATOM      3  O   UNL A   1      34.012  22.219  23.416  1.00  0.00    -0.376 OA
BRANCH   3   4
ATOM      4  C   UNL A   1      32.741  22.628  22.965  1.00  0.00     0.202 C 
BRANCH   4   5
ATOM      5  C   UNL A   1      32.432  23.854  22.102  1.00  0.00     0.261 C 
BRANCH   5   6
ATOM      6  O   UNL A   1      32.226  25.149  22.688  1.00  0.00    -0.459 OA
BRANCH   6   7
ATOM      7  C   UNL A   1      33.091  26.155  22.398  1.00  0.00     0.355 C 
ATOM      8  O   UNL A   1      33.711  26.219  21.345  1.00  0.00    -0.244 OA
BRANCH   7   9
ATOM      9  C   UNL A   1      33.149  27.165  23.457  1.00  0.00     0.137 A 
ATOM     10  C   UNL A   1      32.662  28.489  23.526  1.00  0.00     0.047 A 
ATOM     11  C   UNL A   1      32.816  28.927  24.888  1.00  0.00     0.009 A 
ATOM     12  N   UNL A   1      33.679  26.884  24.722  1.00  0.00    -0.330 N 
ATOM     13  C   UNL A   1      33.264  27.844  25.629  1.00  0.00     0.050 A 
ATOM     14  C   UNL A   1      32.499  30.129  25.563  1.00  0.00     0.011 A 
ATOM     15  C   UNL A   1      33.269  27.869  27.034  1.00  0.00     0.027 A 
ATOM     16  C   UNL A   1      32.585  30.189  26.956  1.00  0.00     0.001 A 
ATOM     17  C   UNL A   1      32.939  29.060  27.682  1.00  0.00     0.002 A 
BRANCH  10  18
ATOM     18  C   UNL A   1      31.933  29.388  22.552  1.00  0.00     0.300 C 
BRANCH  18  19
ATOM     19  N   UNL A   1      30.746  28.822  21.970  1.00  0.00    -0.340 N 
ATOM     20  H   UNL A   1      30.759  29.060  20.978  1.00  0.00     0.346 HD
ATOM     21  H   UNL A   1      30.811  27.832  22.210  1.00  0.00     0.346 HD
BRANCH  19  22
ATOM     22  C   UNL A   1      29.428  29.215  22.485  1.00  0.00     0.182 C 
ATOM     23  C   UNL A   1      28.710  33.547  22.920  1.00  0.00     0.007 C 
ATOM     24  C   UNL A   1      28.980  32.059  22.738  1.00  0.00    -0.014 C 
ATOM     25  C   UNL A   1      27.937  31.329  21.923  1.00  0.00     0.009 C 
ATOM     26  C   UNL A   1      29.202  31.302  24.032  1.00  0.00     0.009 C 
ATOM     27  C   UNL A   1      28.474  29.958  21.510  1.00  0.00     0.065 C 
ATOM     28  C   UNL A   1      29.726  29.891  23.839  1.00  0.00     0.065 C 
ENDBRANCH  19  22
ENDBRANCH  18  19
ENDBRANCH  10  18
BRANCH  12  29
ATOM     29  C   UNL A   1      34.463  25.696  25.107  1.00  0.00     0.161 C 
BRANCH  29  30
ATOM     30  C   UNL A   1      33.702  24.678  25.940  1.00  0.00     0.008 A 
ATOM     31  C   UNL A   1      32.302  24.629  25.995  1.00  0.00     0.008 A 
ATOM     32  C   UNL A   1      34.391  23.673  26.626  1.00  0.00     0.128 A 
ATOM     33  C   UNL A   1      31.632  23.658  26.748  1.00  0.00     0.001 A 
ATOM     34  C   UNL A   1      33.738  22.726  27.418  1.00  0.00     0.039 A 
ATOM     35  F   UNL A   1      35.719  23.567  26.498  1.00  0.00    -0.207 F 
ATOM     36  C   UNL A   1      32.350  22.718  27.479  1.00  0.00     0.003 A 
ENDBRANCH  29  30
ENDBRANCH  12  29
ENDBRANCH   7   9
ENDBRANCH   6   7
ENDBRANCH   5   6
ENDBRANCH   4   5
ENDBRANCH   3   4
ENDBRANCH   2   3
ENDBRANCH   1   2
BRANCH   1  37
ATOM     37  O   UNL A   1      36.420  21.236  24.444  1.00  0.00    -0.377 OA
BRANCH  37  38
ATOM     38  C   UNL A   1      37.576  20.769  25.118  1.00  0.00     0.188 C 
BRANCH  38  39
ATOM     39  C   UNL A   1      38.581  21.742  25.768  1.00  0.00     0.188 C 
BRANCH  39  40
ATOM     40  O   UNL A   1      39.752  21.099  26.225  1.00  0.00    -0.376 OA
BRANCH  40  41
ATOM     41  C   UNL A   1      40.892  21.906  26.469  1.00  0.00     0.202 C 
BRANCH  41  42
ATOM     42  C   UNL A   1      41.343  22.189  27.917  1.00  0.00     0.261 C 
BRANCH  42  43
ATOM     43  O   UNL A   1      41.396  23.574  28.319  1.00  0.00    -0.460 OA
BRANCH  43  44
ATOM     44  C   UNL A   1      42.582  24.192  28.539  1.00  0.00     0.338 C 
ATOM     45  O   UNL A   1      43.684  23.735  28.317  1.00  0.00    -0.246 OA
BRANCH  44  46
ATOM     46  C   UNL A   1      42.268  25.647  28.747  1.00  0.00     0.060 A 
ATOM     47  C   UNL A   1      42.928  26.420  29.707  1.00  0.00     0.016 A 
ATOM     48  C   UNL A   1      41.082  26.134  28.169  1.00  0.00     0.016 A 
ATOM     49  C   UNL A   1      42.345  27.614  30.152  1.00  0.00     0.010 A 
ATOM     50  C   UNL A   1      40.496  27.324  28.625  1.00  0.00     0.010 A 
ATOM     51  C   UNL A   1      41.106  28.061  29.641  1.00  0.00    -0.014 A 
BRANCH  51  52
ATOM     52  C   UNL A   1      40.651  29.415  30.028  1.00  0.00     0.031 A 
ATOM     53  C   UNL A   1      41.748  30.420  29.952  1.00  0.00     0.074 A 
ATOM     54  C   UNL A   1      39.402  29.884  30.270  1.00  0.00     0.049 A 
ATOM     55  N   UNL A   1      42.214  31.164  30.900  1.00  0.00    -0.248 NA
ATOM     56  C   UNL A   1      42.476  30.530  28.678  1.00  0.00     0.031 C 
ATOM     57  C   UNL A   1      38.133  29.180  30.096  1.00  0.00     0.029 A 
ATOM     58  N   UNL A   1      39.000  31.155  30.638  1.00  0.00    -0.354 N 
ATOM     59  C   UNL A   1      43.186  31.960  30.306  1.00  0.00     0.074 A 
ATOM     60  C   UNL A   1      43.400  31.439  28.979  1.00  0.00     0.031 C 
ATOM     61  C   UNL A   1      37.113  30.068  30.168  1.00  0.00     0.029 A 
ATOM     62  C   UNL A   1      37.639  31.393  30.472  1.00  0.00     0.049 A 
ATOM     63  H   UNL A   1      39.623  31.832  30.987  1.00  0.00     0.167 HD
ATOM     64  C   UNL A   1      43.590  33.130  30.862  1.00  0.00     0.037 A 
ATOM     65  C   UNL A   1      36.970  32.578  30.510  1.00  0.00     0.037 A 
ATOM     66  C   UNL A   1      43.223  33.234  32.248  1.00  0.00     0.049 A 
ATOM     67  C   UNL A   1      37.810  33.626  31.127  1.00  0.00     0.074 A 
ATOM     68  C   UNL A   1      43.470  32.500  33.389  1.00  0.00     0.029 A 
ATOM     69  N   UNL A   1      42.220  34.107  32.578  1.00  0.00    -0.354 N 
ATOM     70  N   UNL A   1      37.951  33.817  32.403  1.00  0.00    -0.248 NA
ATOM     71  C   UNL A   1      38.765  34.341  30.297  1.00  0.00     0.031 C 
ATOM     72  C   UNL A   1      42.301  32.652  34.192  1.00  0.00     0.029 A 
ATOM     73  C   UNL A   1      41.428  33.512  33.526  1.00  0.00     0.049 A 
ATOM     74  H   UNL A   1      42.091  35.007  32.201  1.00  0.00     0.167 HD
ATOM     75  C   UNL A   1      39.271  34.184  32.551  1.00  0.00     0.074 A 
ATOM     76  C   UNL A   1      39.653  34.679  31.233  1.00  0.00     0.031 C 
ATOM     77  C   UNL A   1      40.000  33.752  33.628  1.00  0.00     0.037 A 
BRANCH  64  78
ATOM     78  C   UNL A   1      43.968  34.339  30.048  1.00  0.00     0.057 A 
ATOM     79  C   UNL A   1      43.052  35.039  29.237  1.00  0.00     0.134 A 
ATOM     80  C   UNL A   1      45.167  35.014  30.333  1.00  0.00     0.134 A 
ATOM     81  F   UNL A   1      41.834  34.558  28.959  1.00  0.00    -0.206 F 
ATOM     82  C   UNL A   1      43.299  36.327  28.761  1.00  0.00     0.040 A 
ATOM     83  C   UNL A   1      45.401  36.325  29.904  1.00  0.00     0.040 A 
ATOM     84  F   UNL A   1      46.101  34.452  31.114  1.00  0.00    -0.206 F 
ATOM     85  C   UNL A   1      44.462  36.989  29.123  1.00  0.00     0.006 A 
ENDBRANCH  64  78
BRANCH  65  86
ATOM     86  C   UNL A   1      35.676  32.953  29.892  1.00  0.00     0.057 A 
ATOM     87  C   UNL A   1      35.465  32.761  28.518  1.00  0.00     0.134 A 
ATOM     88  C   UNL A   1      34.731  33.750  30.557  1.00  0.00     0.134 A 
ATOM     89  F   UNL A   1      36.352  32.082  27.777  1.00  0.00    -0.206 F 
ATOM     90  C   UNL A   1      34.386  33.336  27.838  1.00  0.00     0.040 A 
ATOM     91  C   UNL A   1      33.649  34.338  29.887  1.00  0.00     0.040 A 
ATOM     92  F   UNL A   1      34.861  34.024  31.863  1.00  0.00    -0.206 F 
ATOM     93  C   UNL A   1      33.481  34.141  28.520  1.00  0.00     0.006 A 
ENDBRANCH  65  86
BRANCH  77  94
ATOM     94  C   UNL A   1      39.262  33.303  34.881  1.00  0.00     0.057 A 
ATOM     95  C   UNL A   1      38.912  34.264  35.849  1.00  0.00     0.134 A 
ATOM     96  C   UNL A   1      38.904  31.981  35.202  1.00  0.00     0.134 A 
ATOM     97  F   UNL A   1      39.225  35.559  35.676  1.00  0.00    -0.206 F 
ATOM     98  C   UNL A   1      38.250  33.937  37.039  1.00  0.00     0.040 A 
ATOM     99  C   UNL A   1      38.120  31.666  36.319  1.00  0.00     0.040 A 
ATOM    100  F   UNL A   1      39.401  30.922  34.545  1.00  0.00    -0.206 F 
ATOM    101  C   UNL A   1      37.819  32.637  37.263  1.00  0.00     0.006 A 
ENDBRANCH  77  94
ENDBRANCH  51  52
ENDBRANCH  44  46
ENDBRANCH  43  44
ENDBRANCH  42  43
ENDBRANCH  41  42
ENDBRANCH  40  41
ENDBRANCH  39  40
ENDBRANCH  38  39
ENDBRANCH  37  38
ENDBRANCH   1  37
TORSDOF 25
ENDMDL
MODEL 2
REMARK VINA RESULT:      -9.5      2.729      6.172
REMARK SMILES C[C@H]1CC[C@H]([NH2+]Cc2c(C(=O)OCCOCCOCCOCCOC(=O)c3ccc(-c4c5nc(c(-c6c(F)cccc6F)c6ccc([nH]6)c(-c6c(F)cccc6F)c6nc(c(-c7c(F)cccc7F)c7ccc4[nH]7)C=C6)C=C5)cc3)n(Cc3ccccc3F)c3ccccc23)CC1
REMARK SMILES IDX 17 1 16 2 15 3 14 4 13 5 12 6 10 7 11 8 9 9 8 10 95 11 81 12
REMARK SMILES IDX 90 13 94 14 91 15 93 16 92 17 7 18 6 19 5 22 1 23 2 24 3 25
REMARK SMILES IDX 97 26 4 27 96 28 82 29 83 30 84 31 88 32 85 33 87 34 89 35
REMARK SMILES IDX 86 36 18 37 19 38 20 39 21 40 22 41 23 42 24 43 25 44 26 45
REMARK SMILES IDX 27 46 28 47 80 48 29 49 79 50 30 51 31 52 32 53 73 54 33 55
REMARK SMILES IDX 78 56 72 57 74 58 34 59 77 60 71 61 70 62 35 64 61 65 44 66
REMARK SMILES IDX 60 67 45 68 48 69 59 70 75 71 46 72 47 73 58 75 76 76 49 77
REMARK SMILES IDX 36 78 37 79 42 80 38 81 39 82 41 83 43 84 40 85 62 86 63 87
REMARK SMILES IDX 68 88 64 89 65 90 67 91 69 92 66 93 50 94 51 95 56 96 52 97
REMARK SMILES IDX 53 98 55 99 57 100 54 101
REMARK H PARENT 6 20 6 21 74 63 48 74
REMARK Flexibility Score: inf
ROOT
ATOM      1  C   UNL A   1      39.278  22.084  26.409  1.00  0.00     0.188 C 
ENDROOT
BRANCH   1   2
ATOM      2  C   UNL A   1      38.190  21.721  25.387  1.00  0.00     0.188 C 
BRANCH   2   3
ATOM      3  O   UNL A   1      37.191  22.678  25.140  1.00  0.00    -0.376 OA
BRANCH   3   4
ATOM      4  C   UNL A   1      36.786  23.603  26.123  1.00  0.00     0.202 C 
BRANCH   4   5
ATOM      5  C   UNL A   1      35.347  23.935  26.523  1.00  0.00     0.261 C 
BRANCH   5   6
ATOM      6  O   UNL A   1      34.321  22.928  26.534  1.00  0.00    -0.459 OA
BRANCH   6   7
ATOM      7  C   UNL A   1      33.018  23.309  26.591  1.00  0.00     0.355 C 
ATOM      8  O   UNL A   1      32.356  23.267  27.619  1.00  0.00    -0.244 OA
BRANCH   7   9
ATOM      9  C   UNL A   1      32.528  23.818  25.308  1.00  0.00     0.137 A 
ATOM     10  C   UNL A   1      31.550  24.784  24.988  1.00  0.00     0.047 A 
ATOM     11  C   UNL A   1      31.646  25.032  23.574  1.00  0.00     0.009 A 
ATOM     12  N   UNL A   1      33.100  23.430  24.090  1.00  0.00    -0.330 N 
ATOM     13  C   UNL A   1      32.739  24.324  23.097  1.00  0.00     0.050 A 
ATOM     14  C   UNL A   1      30.955  25.894  22.690  1.00  0.00     0.011 A 
ATOM     15  C   UNL A   1      33.257  24.554  21.811  1.00  0.00     0.027 A 
ATOM     16  C   UNL A   1      31.413  26.062  21.381  1.00  0.00     0.001 A 
ATOM     17  C   UNL A   1      32.569  25.419  20.959  1.00  0.00     0.002 A 
BRANCH  10  18
ATOM     18  C   UNL A   1      30.613  25.638  25.814  1.00  0.00     0.300 C 
BRANCH  18  19
ATOM     19  N   UNL A   1      31.238  26.374  26.880  1.00  0.00    -0.340 N 
ATOM     20  H   UNL A   1      30.553  26.444  27.633  1.00  0.00     0.346 HD
ATOM     21  H   UNL A   1      32.086  25.840  27.073  1.00  0.00     0.346 HD
BRANCH  19  22
ATOM     22  C   UNL A   1      31.736  27.732  26.628  1.00  0.00     0.182 C 
ATOM     23  C   UNL A   1      34.020  28.318  22.898  1.00  0.00     0.007 C 
ATOM     24  C   UNL A   1      33.209  28.089  24.166  1.00  0.00    -0.014 C 
ATOM     25  C   UNL A   1      32.049  29.040  24.347  1.00  0.00     0.009 C 
ATOM     26  C   UNL A   1      34.032  28.080  25.440  1.00  0.00     0.009 C 
ATOM     27  C   UNL A   1      31.114  28.510  25.436  1.00  0.00     0.065 C 
ATOM     28  C   UNL A   1      33.273  27.595  26.661  1.00  0.00     0.065 C 
ENDBRANCH  19  22
ENDBRANCH  18  19
ENDBRANCH  10  18
BRANCH  12  29
ATOM     29  C   UNL A   1      34.045  22.320  23.871  1.00  0.00     0.161 C 
BRANCH  29  30
ATOM     30  C   UNL A   1      33.418  20.937  23.915  1.00  0.00     0.008 A 
ATOM     31  C   UNL A   1      33.624  20.038  24.970  1.00  0.00     0.008 A 
ATOM     32  C   UNL A   1      32.519  20.538  22.920  1.00  0.00     0.128 A 
ATOM     33  C   UNL A   1      33.006  18.782  24.994  1.00  0.00     0.001 A 
ATOM     34  C   UNL A   1      31.932  19.272  22.907  1.00  0.00     0.039 A 
ATOM     35  F   UNL A   1      32.160  21.400  21.962  1.00  0.00    -0.207 F 
ATOM     36  C   UNL A   1      32.177  18.387  23.951  1.00  0.00     0.003 A 
ENDBRANCH  29  30
ENDBRANCH  12  29
ENDBRANCH   7   9
ENDBRANCH   6   7
ENDBRANCH   5   6
ENDBRANCH   4   5
ENDBRANCH   3   4
ENDBRANCH   2   3
ENDBRANCH   1   2
BRANCH   1  37
ATOM     37  O   UNL A   1      40.545  21.506  26.189  1.00  0.00    -0.377 OA
BRANCH  37  38
ATOM     38  C   UNL A   1      41.667  22.349  25.992  1.00  0.00     0.188 C 
BRANCH  38  39
ATOM     39  C   UNL A   1      43.044  22.019  26.604  1.00  0.00     0.188 C 
BRANCH  39  40
ATOM     40  O   UNL A   1      44.120  22.386  25.769  1.00  0.00    -0.376 OA
BRANCH  40  41
ATOM     41  C   UNL A   1      45.411  22.455  26.351  1.00  0.00     0.202 C 
BRANCH  41  42
ATOM     42  C   UNL A   1      45.847  23.721  27.118  1.00  0.00     0.261 C 
BRANCH  42  43
ATOM     43  O   UNL A   1      46.681  24.655  26.403  1.00  0.00    -0.460 OA
BRANCH  43  44
ATOM     44  C   UNL A   1      46.161  25.476  25.459  1.00  0.00     0.338 C 
ATOM     45  O   UNL A   1      45.998  25.212  24.286  1.00  0.00    -0.246 OA
BRANCH  44  46
ATOM     46  C   UNL A   1      45.493  26.601  26.200  1.00  0.00     0.060 A 
ATOM     47  C   UNL A   1      46.205  27.463  27.041  1.00  0.00     0.016 A 
ATOM     48  C   UNL A   1      44.090  26.576  26.270  1.00  0.00     0.016 A 
ATOM     49  C   UNL A   1      45.516  28.207  28.009  1.00  0.00     0.010 A 
ATOM     50  C   UNL A   1      43.406  27.314  27.247  1.00  0.00     0.010 A 
ATOM     51  C   UNL A   1      44.114  28.114  28.145  1.00  0.00    -0.014 A 
BRANCH  51  52
ATOM     52  C   UNL A   1      43.448  29.065  29.063  1.00  0.00     0.031 A 
ATOM     53  C   UNL A   1      43.184  28.465  30.401  1.00  0.00     0.074 A 
ATOM     54  C   UNL A   1      43.204  30.391  28.925  1.00  0.00     0.049 A 
ATOM     55  N   UNL A   1      42.048  28.316  30.997  1.00  0.00    -0.248 NA
ATOM     56  C   UNL A   1      44.328  27.871  31.111  1.00  0.00     0.031 C 
ATOM     57  C   UNL A   1      43.649  31.276  27.849  1.00  0.00     0.029 A 
ATOM     58  N   UNL A   1      42.571  31.261  29.794  1.00  0.00    -0.354 N 
ATOM     59  C   UNL A   1      42.347  27.757  32.234  1.00  0.00     0.074 A 
ATOM     60  C   UNL A   1      43.737  27.382  32.200  1.00  0.00     0.031 C 
ATOM     61  C   UNL A   1      43.448  32.564  28.213  1.00  0.00     0.029 A 
ATOM     62  C   UNL A   1      42.787  32.607  29.512  1.00  0.00     0.049 A 
ATOM     63  H   UNL A   1      42.017  30.954  30.547  1.00  0.00     0.167 HD
ATOM     64  C   UNL A   1      41.490  27.844  33.283  1.00  0.00     0.037 A 
ATOM     65  C   UNL A   1      42.517  33.693  30.286  1.00  0.00     0.037 A 
ATOM     66  C   UNL A   1      40.156  28.191  32.874  1.00  0.00     0.049 A 
ATOM     67  C   UNL A   1      41.594  33.331  31.383  1.00  0.00     0.074 A 
ATOM     68  C   UNL A   1      39.212  27.645  32.031  1.00  0.00     0.029 A 
ATOM     69  N   UNL A   1      39.708  29.452  33.167  1.00  0.00    -0.354 N 
ATOM     70  N   UNL A   1      40.304  33.250  31.279  1.00  0.00    -0.248 NA
ATOM     71  C   UNL A   1      42.142  32.761  32.602  1.00  0.00     0.031 C 
ATOM     72  C   UNL A   1      38.496  28.759  31.499  1.00  0.00     0.029 A 
ATOM     73  C   UNL A   1      39.003  29.919  32.087  1.00  0.00     0.049 A 
ATOM     74  H   UNL A   1      39.863  29.940  34.008  1.00  0.00     0.167 HD
ATOM     75  C   UNL A   1      39.961  32.184  32.083  1.00  0.00     0.074 A 
ATOM     76  C   UNL A   1      41.082  32.062  33.009  1.00  0.00     0.031 C 
ATOM     77  C   UNL A   1      38.965  31.320  31.712  1.00  0.00     0.037 A 
BRANCH  64  78
ATOM     78  C   UNL A   1      41.950  28.001  34.709  1.00  0.00     0.057 A 
ATOM     79  C   UNL A   1      41.861  26.969  35.665  1.00  0.00     0.134 A 
ATOM     80  C   UNL A   1      42.796  29.070  35.046  1.00  0.00     0.134 A 
ATOM     81  F   UNL A   1      41.166  25.847  35.441  1.00  0.00    -0.206 F 
ATOM     82  C   UNL A   1      42.579  26.987  36.861  1.00  0.00     0.040 A 
ATOM     83  C   UNL A   1      43.560  29.073  36.218  1.00  0.00     0.040 A 
ATOM     84  F   UNL A   1      42.974  30.096  34.200  1.00  0.00    -0.206 F 
ATOM     85  C   UNL A   1      43.460  28.025  37.126  1.00  0.00     0.006 A 
ENDBRANCH  64  78
BRANCH  65  86
ATOM     86  C   UNL A   1      43.131  35.043  30.268  1.00  0.00     0.057 A 
ATOM     87  C   UNL A   1      42.686  36.010  29.354  1.00  0.00     0.134 A 
ATOM     88  C   UNL A   1      44.330  35.330  30.939  1.00  0.00     0.134 A 
ATOM     89  F   UNL A   1      41.594  35.796  28.607  1.00  0.00    -0.206 F 
ATOM     90  C   UNL A   1      43.396  37.190  29.108  1.00  0.00     0.040 A 
ATOM     91  C   UNL A   1      45.055  36.505  30.697  1.00  0.00     0.040 A 
ATOM     92  F   UNL A   1      44.859  34.455  31.805  1.00  0.00    -0.206 F 
ATOM     93  C   UNL A   1      44.593  37.435  29.770  1.00  0.00     0.006 A 
ENDBRANCH  65  86
BRANCH  77  94
ATOM     94  C   UNL A   1      37.926  31.788  30.703  1.00  0.00     0.057 A 
ATOM     95  C   UNL A   1      38.108  31.479  29.342  1.00  0.00     0.134 A 
ATOM     96  C   UNL A   1      36.776  32.547  30.990  1.00  0.00     0.134 A 
ATOM     97  F   UNL A   1      39.182  30.785  28.932  1.00  0.00    -0.206 F 
ATOM     98  C   UNL A   1      37.212  31.886  28.345  1.00  0.00     0.040 A 
ATOM     99  C   UNL A   1      35.807  32.836  30.023  1.00  0.00     0.040 A 
ATOM    100  F   UNL A   1      36.597  33.163  32.169  1.00  0.00    -0.206 F 
ATOM    101  C   UNL A   1      36.036  32.538  28.687  1.00  0.00     0.006 A 
ENDBRANCH  77  94
ENDBRANCH  51  52
ENDBRANCH  44  46
ENDBRANCH  43  44
ENDBRANCH  42  43
ENDBRANCH  41  42
ENDBRANCH  40  41
ENDBRANCH  39  40
ENDBRANCH  38  39
ENDBRANCH  37  38
ENDBRANCH   1  37
TORSDOF 25
ENDMDL
MODEL 3
REMARK VINA RESULT:      -9.3      4.103      8.402
REMARK SMILES C[C@H]1CC[C@H]([NH2+]Cc2c(C(=O)OCCOCCOCCOCCOC(=O)c3ccc(-c4c5nc(c(-c6c(F)cccc6F)c6ccc([nH]6)c(-c6c(F)cccc6F)c6nc(c(-c7c(F)cccc7F)c7ccc4[nH]7)C=C6)C=C5)cc3)n(Cc3ccccc3F)c3ccccc23)CC1
REMARK SMILES IDX 17 1 16 2 15 3 14 4 13 5 12 6 10 7 11 8 9 9 8 10 95 11 81 12
REMARK SMILES IDX 90 13 94 14 91 15 93 16 92 17 7 18 6 19 5 22 1 23 2 24 3 25
REMARK SMILES IDX 97 26 4 27 96 28 82 29 83 30 84 31 88 32 85 33 87 34 89 35
REMARK SMILES IDX 86 36 18 37 19 38 20 39 21 40 22 41 23 42 24 43 25 44 26 45
REMARK SMILES IDX 27 46 28 47 80 48 29 49 79 50 30 51 31 52 32 53 73 54 33 55
REMARK SMILES IDX 78 56 72 57 74 58 34 59 77 60 71 61 70 62 35 64 61 65 44 66
REMARK SMILES IDX 60 67 45 68 48 69 59 70 75 71 46 72 47 73 58 75 76 76 49 77
REMARK SMILES IDX 36 78 37 79 42 80 38 81 39 82 41 83 43 84 40 85 62 86 63 87
REMARK SMILES IDX 68 88 64 89 65 90 67 91 69 92 66 93 50 94 51 95 56 96 52 97
REMARK SMILES IDX 53 98 55 99 57 100 54 101
REMARK H PARENT 6 20 6 21 74 63 48 74
REMARK Flexibility Score: inf
ROOT
ATOM      1  C   UNL A   1      35.914  32.819  28.505  1.00  0.00     0.188 C 
ENDROOT
BRANCH   1   2
ATOM      2  C   UNL A   1      34.625  32.275  27.872  1.00  0.00     0.188 C 
BRANCH   2   3
ATOM      3  O   UNL A   1      34.362  30.903  28.021  1.00  0.00    -0.376 OA
BRANCH   3   4
ATOM      4  C   UNL A   1      33.994  30.091  26.930  1.00  0.00     0.202 C 
BRANCH   4   5
ATOM      5  C   UNL A   1      34.213  28.582  26.803  1.00  0.00     0.261 C 
BRANCH   5   6
ATOM      6  O   UNL A   1      33.281  27.746  26.097  1.00  0.00    -0.459 OA
BRANCH   6   7
ATOM      7  C   UNL A   1      33.556  27.378  24.819  1.00  0.00     0.355 C 
ATOM      8  O   UNL A   1      34.205  28.073  24.049  1.00  0.00    -0.244 OA
BRANCH   7   9
ATOM      9  C   UNL A   1      33.038  26.046  24.499  1.00  0.00     0.137 A 
ATOM     10  C   UNL A   1      31.740  25.590  24.178  1.00  0.00     0.047 A 
ATOM     11  C   UNL A   1      31.865  24.223  23.745  1.00  0.00     0.009 A 
ATOM     12  N   UNL A   1      33.880  24.935  24.365  1.00  0.00    -0.330 N 
ATOM     13  C   UNL A   1      33.219  23.923  23.691  1.00  0.00     0.050 A 
ATOM     14  C   UNL A   1      30.936  23.261  23.288  1.00  0.00     0.011 A 
ATOM     15  C   UNL A   1      33.685  22.757  23.061  1.00  0.00     0.027 A 
ATOM     16  C   UNL A   1      31.390  22.059  22.740  1.00  0.00     0.001 A 
ATOM     17  C   UNL A   1      32.752  21.825  22.604  1.00  0.00     0.002 A 
BRANCH  10  18
ATOM     18  C   UNL A   1      30.391  26.266  24.070  1.00  0.00     0.300 C 
BRANCH  18  19
ATOM     19  N   UNL A   1      30.320  27.581  24.647  1.00  0.00    -0.340 N 
ATOM     20  H   UNL A   1      29.369  27.700  24.997  1.00  0.00     0.346 HD
ATOM     21  H   UNL A   1      31.071  27.580  25.338  1.00  0.00     0.346 HD
BRANCH  19  22
ATOM     22  C   UNL A   1      30.619  28.754  23.816  1.00  0.00     0.182 C 
ATOM     23  C   UNL A   1      27.373  31.709  23.362  1.00  0.00     0.007 C 
ATOM     24  C   UNL A   1      28.481  30.682  23.557  1.00  0.00    -0.014 C 
ATOM     25  C   UNL A   1      29.792  31.259  24.038  1.00  0.00     0.009 C 
ATOM     26  C   UNL A   1      28.749  29.817  22.341  1.00  0.00     0.009 C 
ATOM     27  C   UNL A   1      30.701  30.132  24.530  1.00  0.00     0.065 C 
ATOM     28  C   UNL A   1      29.659  28.634  22.614  1.00  0.00     0.065 C 
ENDBRANCH  19  22
ENDBRANCH  18  19
ENDBRANCH  10  18
BRANCH  12  29
ATOM     29  C   UNL A   1      35.298  24.849  24.757  1.00  0.00     0.161 C 
BRANCH  29  30
ATOM     30  C   UNL A   1      35.813  23.436  24.967  1.00  0.00     0.008 A 
ATOM     31  C   UNL A   1      35.367  22.606  26.005  1.00  0.00     0.008 A 
ATOM     32  C   UNL A   1      36.708  22.868  24.054  1.00  0.00     0.128 A 
ATOM     33  C   UNL A   1      35.840  21.297  26.152  1.00  0.00     0.001 A 
ATOM     34  C   UNL A   1      37.223  21.580  24.214  1.00  0.00     0.039 A 
ATOM     35  F   UNL A   1      37.062  23.548  22.957  1.00  0.00    -0.207 F 
ATOM     36  C   UNL A   1      36.786  20.789  25.270  1.00  0.00     0.003 A 
ENDBRANCH  29  30
ENDBRANCH  12  29
ENDBRANCH   7   9
ENDBRANCH   6   7
ENDBRANCH   5   6
ENDBRANCH   4   5
ENDBRANCH   3   4
ENDBRANCH   2   3
ENDBRANCH   1   2
BRANCH   1  37
ATOM     37  O   UNL A   1      35.743  33.832  29.472  1.00  0.00    -0.377 OA
BRANCH  37  38
ATOM     38  C   UNL A   1      34.705  33.708  30.430  1.00  0.00     0.188 C 
BRANCH  38  39
ATOM     39  C   UNL A   1      34.800  32.707  31.600  1.00  0.00     0.188 C 
BRANCH  39  40
ATOM     40  O   UNL A   1      33.953  33.040  32.679  1.00  0.00    -0.376 OA
BRANCH  40  41
ATOM     41  C   UNL A   1      34.051  34.350  33.212  1.00  0.00     0.202 C 
BRANCH  41  42
ATOM     42  C   UNL A   1      35.154  34.688  34.236  1.00  0.00     0.261 C 
BRANCH  42  43
ATOM     43  O   UNL A   1      35.589  33.614  35.096  1.00  0.00    -0.460 OA
BRANCH  43  44
ATOM     44  C   UNL A   1      36.850  33.583  35.590  1.00  0.00     0.338 C 
ATOM     45  O   UNL A   1      37.182  33.826  36.733  1.00  0.00    -0.246 OA
BRANCH  44  46
ATOM     46  C   UNL A   1      37.682  32.844  34.580  1.00  0.00     0.060 A 
ATOM     47  C   UNL A   1      37.270  31.628  34.024  1.00  0.00     0.016 A 
ATOM     48  C   UNL A   1      39.022  33.244  34.439  1.00  0.00     0.016 A 
ATOM     49  C   UNL A   1      38.217  30.784  33.430  1.00  0.00     0.010 A 
ATOM     50  C   UNL A   1      39.969  32.392  33.853  1.00  0.00     0.010 A 
ATOM     51  C   UNL A   1      39.582  31.142  33.369  1.00  0.00    -0.014 A 
BRANCH  51  52
ATOM     52  C   UNL A   1      40.482  30.283  32.566  1.00  0.00     0.031 A 
ATOM     53  C   UNL A   1      41.600  29.725  33.378  1.00  0.00     0.074 A 
ATOM     54  C   UNL A   1      40.351  29.820  31.299  1.00  0.00     0.049 A 
ATOM     55  N   UNL A   1      42.870  29.876  33.194  1.00  0.00    -0.248 NA
ATOM     56  C   UNL A   1      41.244  28.993  34.603  1.00  0.00     0.031 C 
ATOM     57  C   UNL A   1      39.199  29.959  30.410  1.00  0.00     0.029 A 
ATOM     58  N   UNL A   1      41.210  29.024  30.564  1.00  0.00    -0.354 N 
ATOM     59  C   UNL A   1      43.482  29.117  34.185  1.00  0.00     0.074 A 
ATOM     60  C   UNL A   1      42.446  28.708  35.099  1.00  0.00     0.031 C 
ATOM     61  C   UNL A   1      39.344  29.127  29.352  1.00  0.00     0.029 A 
ATOM     62  C   UNL A   1      40.632  28.449  29.436  1.00  0.00     0.049 A 
ATOM     63  H   UNL A   1      42.150  28.877  30.817  1.00  0.00     0.167 HD
ATOM     64  C   UNL A   1      44.765  28.689  34.068  1.00  0.00     0.037 A 
ATOM     65  C   UNL A   1      41.112  27.449  28.648  1.00  0.00     0.037 A 
ATOM     66  C   UNL A   1      45.495  29.412  33.063  1.00  0.00     0.049 A 
ATOM     67  C   UNL A   1      42.555  27.244  28.895  1.00  0.00     0.074 A 
ATOM     68  C   UNL A   1      45.820  30.734  32.843  1.00  0.00     0.029 A 
ATOM     69  N   UNL A   1      45.794  28.757  31.897  1.00  0.00    -0.354 N 
ATOM     70  N   UNL A   1      43.512  27.942  28.365  1.00  0.00    -0.248 NA
ATOM     71  C   UNL A   1      42.965  26.393  29.999  1.00  0.00     0.031 C 
ATOM     72  C   UNL A   1      45.857  30.879  31.424  1.00  0.00     0.029 A 
ATOM     73  C   UNL A   1      45.608  29.630  30.855  1.00  0.00     0.049 A 
ATOM     74  H   UNL A   1      46.091  27.822  31.820  1.00  0.00     0.167 HD
ATOM     75  C   UNL A   1      44.454  28.049  29.366  1.00  0.00     0.074 A 
ATOM     76  C   UNL A   1      44.161  26.927  30.251  1.00  0.00     0.031 C 
ATOM     77  C   UNL A   1      45.160  29.209  29.540  1.00  0.00     0.037 A 
BRANCH  64  78
ATOM     78  C   UNL A   1      45.236  27.356  34.587  1.00  0.00     0.057 A 
ATOM     79  C   UNL A   1      46.142  27.223  35.659  1.00  0.00     0.134 A 
ATOM     80  C   UNL A   1      44.527  26.193  34.243  1.00  0.00     0.134 A 
ATOM     81  F   UNL A   1      46.819  28.267  36.153  1.00  0.00    -0.206 F 
ATOM     82  C   UNL A   1      46.316  26.026  36.354  1.00  0.00     0.040 A 
ATOM     83  C   UNL A   1      44.655  25.003  34.968  1.00  0.00     0.040 A 
ATOM     84  F   UNL A   1      43.621  26.210  33.254  1.00  0.00    -0.206 F 
ATOM     85  C   UNL A   1      45.545  24.919  36.032  1.00  0.00     0.006 A 
ENDBRANCH  64  78
BRANCH  65  86
ATOM     86  C   UNL A   1      40.382  26.500  27.774  1.00  0.00     0.057 A 
ATOM     87  C   UNL A   1      39.421  25.634  28.318  1.00  0.00     0.134 A 
ATOM     88  C   UNL A   1      40.792  26.223  26.460  1.00  0.00     0.134 A 
ATOM     89  F   UNL A   1      39.022  25.765  29.591  1.00  0.00    -0.206 F 
ATOM     90  C   UNL A   1      38.904  24.547  27.605  1.00  0.00     0.040 A 
ATOM     91  C   UNL A   1      40.286  25.134  25.737  1.00  0.00     0.040 A 
ATOM     92  F   UNL A   1      41.731  26.969  25.862  1.00  0.00    -0.206 F 
ATOM     93  C   UNL A   1      39.347  24.285  26.314  1.00  0.00     0.006 A 
ENDBRANCH  65  86
BRANCH  77  94
ATOM     94  C   UNL A   1      45.279  30.179  28.373  1.00  0.00     0.057 A 
ATOM     95  C   UNL A   1      44.245  31.108  28.149  1.00  0.00     0.134 A 
ATOM     96  C   UNL A   1      46.334  30.231  27.444  1.00  0.00     0.134 A 
ATOM     97  F   UNL A   1      43.165  31.140  28.949  1.00  0.00    -0.206 F 
ATOM     98  C   UNL A   1      44.263  32.023  27.089  1.00  0.00     0.040 A 
ATOM     99  C   UNL A   1      46.427  31.231  26.469  1.00  0.00     0.040 A 
ATOM    100  F   UNL A   1      47.246  29.253  27.335  1.00  0.00    -0.206 F 
ATOM    101  C   UNL A   1      45.373  32.111  26.263  1.00  0.00     0.006 A 
ENDBRANCH  77  94
ENDBRANCH  51  52
ENDBRANCH  44  46
ENDBRANCH  43  44
ENDBRANCH  42  43
ENDBRANCH  41  42
ENDBRANCH  40  41
ENDBRANCH  39  40
ENDBRANCH  38  39
ENDBRANCH  37  38
ENDBRANCH   1  37
TORSDOF 25
ENDMDL
