MODEL 1
REMARK VINA RESULT:      -9.4      0.000      0.000
REMARK SMILES O=C(Cc1ccccc1C(=O)OCCOCCOCCOCCOC(=O)c1ccc(-c2c3nc(c(-c4c(F)cccc4F)c4ccc([nH]4)c(-c4c(F)cccc4F)c4nc(c(-c5c(F)cccc5F)c5ccc2[nH]5)C=C4)C=C3)cc1)Nc1cccc(OC[C@@H]2CCCO2)c1
REMARK SMILES IDX 16 1 15 2 14 3 13 4 12 5 10 6 11 7 9 8 4 9 5 10 6 11 8 12
REMARK SMILES IDX 7 13 3 14 2 15 1 16 81 17 82 19 83 20 94 21 84 22 86 23
REMARK SMILES IDX 85 24 87 25 88 26 89 27 90 28 93 29 91 30 92 31 17 32 18 33
REMARK SMILES IDX 19 34 20 35 21 36 22 37 23 38 24 39 25 40 26 41 27 42 28 43
REMARK SMILES IDX 80 44 29 45 79 46 30 47 31 48 32 49 73 50 33 51 78 52 72 53
REMARK SMILES IDX 74 54 34 55 77 56 71 57 70 58 35 60 61 61 44 62 60 63 45 64
REMARK SMILES IDX 48 65 59 66 75 67 46 68 47 69 58 71 76 72 49 73 36 74 37 75
REMARK SMILES IDX 42 76 38 77 39 78 41 79 43 80 40 81 62 82 63 83 68 84 64 85
REMARK SMILES IDX 65 86 67 87 69 88 66 89 50 90 51 91 56 92 52 93 53 94 55 95
REMARK SMILES IDX 57 96 54 97
REMARK H PARENT 81 18 74 59 48 70
REMARK Flexibility Score: inf
ROOT
ATOM      1  C   UNL A   1      33.616  16.938  23.163  1.00  0.00     0.188 C 
ENDROOT
BRANCH   1   2
ATOM      2  O   UNL A   1      32.437  17.566  22.667  1.00  0.00    -0.376 OA
BRANCH   2   3
ATOM      3  C   UNL A   1      32.447  18.976  22.455  1.00  0.00     0.202 C 
BRANCH   3   4
ATOM      4  C   UNL A   1      32.137  19.868  23.659  1.00  0.00     0.261 C 
BRANCH   4   5
ATOM      5  O   UNL A   1      33.289  20.618  24.096  1.00  0.00    -0.460 OA
BRANCH   5   6
ATOM      6  C   UNL A   1      33.180  21.958  23.949  1.00  0.00     0.338 C 
ATOM      7  O   UNL A   1      32.177  22.577  23.628  1.00  0.00    -0.246 OA
BRANCH   6   8
ATOM      8  C   UNL A   1      34.404  22.655  24.411  1.00  0.00     0.063 A 
ATOM      9  C   UNL A   1      34.633  23.107  25.722  1.00  0.00    -0.024 A 
ATOM     10  C   UNL A   1      35.902  23.621  26.055  1.00  0.00     0.005 A 
ATOM     11  C   UNL A   1      36.898  23.745  25.095  1.00  0.00     0.000 A 
ATOM     12  C   UNL A   1      35.422  22.774  23.454  1.00  0.00     0.016 A 
ATOM     13  C   UNL A   1      36.654  23.333  23.790  1.00  0.00     0.001 A 
BRANCH   9  14
ATOM     14  C   UNL A   1      33.578  23.133  26.789  1.00  0.00     0.136 C 
BRANCH  14  15
ATOM     15  C   UNL A   1      32.611  24.289  26.675  1.00  0.00     0.228 C 
ATOM     16  O   UNL A   1      31.497  24.133  27.173  1.00  0.00    -0.274 OA
ATOM     17  N   UNL A   1      33.117  25.456  26.081  1.00  0.00    -0.326 N 
ATOM     18  H   UNL A   1      34.067  25.458  25.819  1.00  0.00     0.169 HD
BRANCH  17  19
ATOM     19  C   UNL A   1      32.372  26.628  25.833  1.00  0.00     0.044 A 
ATOM     20  C   UNL A   1      32.530  27.775  26.614  1.00  0.00     0.026 A 
ATOM     21  C   UNL A   1      31.582  26.690  24.709  1.00  0.00     0.072 A 
ATOM     22  C   UNL A   1      31.971  28.986  26.187  1.00  0.00     0.006 A 
ATOM     23  C   UNL A   1      31.230  27.903  24.166  1.00  0.00     0.121 A 
ATOM     24  C   UNL A   1      31.354  29.055  24.938  1.00  0.00     0.046 A 
BRANCH  23  25
ATOM     25  O   UNL A   1      31.028  28.033  22.823  1.00  0.00    -0.491 OA
BRANCH  25  26
ATOM     26  C   UNL A   1      30.757  29.338  22.333  1.00  0.00     0.261 C 
BRANCH  26  27
ATOM     27  C   UNL A   1      29.281  29.815  22.187  1.00  0.00     0.156 C 
ATOM     28  C   UNL A   1      29.037  31.222  22.746  1.00  0.00     0.038 C 
ATOM     29  O   UNL A   1      28.224  28.975  22.653  1.00  0.00    -0.375 OA
ATOM     30  C   UNL A   1      27.848  31.037  23.652  1.00  0.00     0.031 C 
ATOM     31  C   UNL A   1      27.152  29.852  23.024  1.00  0.00     0.161 C 
ENDBRANCH  26  27
ENDBRANCH  25  26
ENDBRANCH  23  25
ENDBRANCH  17  19
ENDBRANCH  14  15
ENDBRANCH   9  14
ENDBRANCH   6   8
ENDBRANCH   5   6
ENDBRANCH   4   5
ENDBRANCH   3   4
ENDBRANCH   2   3
ENDBRANCH   1   2
BRANCH   1  32
ATOM     32  C   UNL A   1      34.063  17.180  24.613  1.00  0.00     0.188 C 
BRANCH  32  33
ATOM     33  O   UNL A   1      35.342  16.677  24.908  1.00  0.00    -0.377 OA
BRANCH  33  34
ATOM     34  C   UNL A   1      36.328  17.625  25.276  1.00  0.00     0.188 C 
BRANCH  34  35
ATOM     35  C   UNL A   1      36.341  18.988  24.582  1.00  0.00     0.188 C 
BRANCH  35  36
ATOM     36  O   UNL A   1      36.749  20.086  25.401  1.00  0.00    -0.376 OA
BRANCH  36  37
ATOM     37  C   UNL A   1      38.124  20.463  25.336  1.00  0.00     0.202 C 
BRANCH  37  38
ATOM     38  C   UNL A   1      39.182  19.352  25.181  1.00  0.00     0.261 C 
BRANCH  38  39
ATOM     39  O   UNL A   1      40.118  19.226  26.278  1.00  0.00    -0.460 OA
BRANCH  39  40
ATOM     40  C   UNL A   1      41.414  19.582  26.040  1.00  0.00     0.338 C 
ATOM     41  O   UNL A   1      42.250  18.912  25.476  1.00  0.00    -0.246 OA
BRANCH  40  42
ATOM     42  C   UNL A   1      41.708  20.943  26.584  1.00  0.00     0.060 A 
ATOM     43  C   UNL A   1      42.186  21.950  25.739  1.00  0.00     0.016 A 
ATOM     44  C   UNL A   1      41.578  21.218  27.947  1.00  0.00     0.016 A 
ATOM     45  C   UNL A   1      42.503  23.235  26.247  1.00  0.00     0.010 A 
ATOM     46  C   UNL A   1      41.839  22.516  28.440  1.00  0.00     0.010 A 
ATOM     47  C   UNL A   1      42.319  23.553  27.604  1.00  0.00    -0.014 A 
BRANCH  47  48
ATOM     48  C   UNL A   1      42.804  24.866  28.187  1.00  0.00     0.031 A 
ATOM     49  C   UNL A   1      41.750  25.914  28.435  1.00  0.00     0.074 A 
ATOM     50  C   UNL A   1      44.084  25.213  28.482  1.00  0.00     0.049 A 
ATOM     51  N   UNL A   1      41.883  27.124  28.913  1.00  0.00    -0.248 NA
ATOM     52  C   UNL A   1      40.379  25.581  28.011  1.00  0.00     0.031 C 
ATOM     53  C   UNL A   1      45.280  24.470  28.154  1.00  0.00     0.029 A 
ATOM     54  N   UNL A   1      44.622  26.318  29.122  1.00  0.00    -0.354 N 
ATOM     55  C   UNL A   1      40.624  27.695  28.821  1.00  0.00     0.074 A 
ATOM     56  C   UNL A   1      39.772  26.745  28.145  1.00  0.00     0.031 C 
ATOM     57  C   UNL A   1      46.380  25.031  28.656  1.00  0.00     0.029 A 
ATOM     58  C   UNL A   1      45.996  26.266  29.293  1.00  0.00     0.049 A 
ATOM     59  H   UNL A   1      44.074  27.076  29.429  1.00  0.00     0.167 HD
ATOM     60  C   UNL A   1      40.189  28.880  29.303  1.00  0.00     0.037 A 
ATOM     61  C   UNL A   1      46.889  27.102  29.856  1.00  0.00     0.037 A 
ATOM     62  C   UNL A   1      41.014  29.827  29.995  1.00  0.00     0.049 A 
ATOM     63  C   UNL A   1      46.390  28.391  30.417  1.00  0.00     0.074 A 
ATOM     64  C   UNL A   1      40.644  31.026  30.573  1.00  0.00     0.029 A 
ATOM     65  N   UNL A   1      42.379  29.685  30.200  1.00  0.00    -0.354 N 
ATOM     66  N   UNL A   1      45.169  28.860  30.413  1.00  0.00    -0.248 NA
ATOM     67  C   UNL A   1      47.381  29.272  31.046  1.00  0.00     0.031 C 
ATOM     68  C   UNL A   1      41.790  31.627  31.103  1.00  0.00     0.029 A 
ATOM     69  C   UNL A   1      42.866  30.781  30.894  1.00  0.00     0.049 A 
ATOM     70  H   UNL A   1      42.920  28.920  29.898  1.00  0.00     0.167 HD
ATOM     71  C   UNL A   1      45.236  30.080  31.061  1.00  0.00     0.074 A 
ATOM     72  C   UNL A   1      46.616  30.273  31.457  1.00  0.00     0.031 C 
ATOM     73  C   UNL A   1      44.236  30.959  31.299  1.00  0.00     0.037 A 
BRANCH  60  74
ATOM     74  C   UNL A   1      38.734  29.175  29.099  1.00  0.00     0.057 A 
ATOM     75  C   UNL A   1      38.252  29.654  27.870  1.00  0.00     0.134 A 
ATOM     76  C   UNL A   1      37.823  29.056  30.151  1.00  0.00     0.134 A 
ATOM     77  F   UNL A   1      39.084  29.818  26.830  1.00  0.00    -0.206 F 
ATOM     78  C   UNL A   1      36.928  30.059  27.716  1.00  0.00     0.040 A 
ATOM     79  C   UNL A   1      36.487  29.424  29.997  1.00  0.00     0.040 A 
ATOM     80  F   UNL A   1      38.221  28.607  31.352  1.00  0.00    -0.206 F 
ATOM     81  C   UNL A   1      36.040  29.942  28.782  1.00  0.00     0.006 A 
ENDBRANCH  60  74
BRANCH  61  82
ATOM     82  C   UNL A   1      48.337  26.750  29.935  1.00  0.00     0.057 A 
ATOM     83  C   UNL A   1      48.847  26.048  31.036  1.00  0.00     0.134 A 
ATOM     84  C   UNL A   1      49.248  27.108  28.932  1.00  0.00     0.134 A 
ATOM     85  F   UNL A   1      48.033  25.687  32.039  1.00  0.00    -0.206 F 
ATOM     86  C   UNL A   1      50.204  25.739  31.149  1.00  0.00     0.040 A 
ATOM     87  C   UNL A   1      50.604  26.780  29.018  1.00  0.00     0.040 A 
ATOM     88  F   UNL A   1      48.829  27.766  27.842  1.00  0.00    -0.206 F 
ATOM     89  C   UNL A   1      51.088  26.102  30.135  1.00  0.00     0.006 A 
ENDBRANCH  61  82
BRANCH  73  90
ATOM     90  C   UNL A   1      44.588  32.187  32.075  1.00  0.00     0.057 A 
ATOM     91  C   UNL A   1      44.509  32.231  33.471  1.00  0.00     0.134 A 
ATOM     92  C   UNL A   1      45.042  33.331  31.409  1.00  0.00     0.134 A 
ATOM     93  F   UNL A   1      44.057  31.173  34.162  1.00  0.00    -0.206 F 
ATOM     94  C   UNL A   1      44.859  33.380  34.180  1.00  0.00     0.040 A 
ATOM     95  C   UNL A   1      45.421  34.475  32.108  1.00  0.00     0.040 A 
ATOM     96  F   UNL A   1      45.136  33.349  30.070  1.00  0.00    -0.206 F 
ATOM     97  C   UNL A   1      45.327  34.503  33.498  1.00  0.00     0.006 A 
ENDBRANCH  73  90
ENDBRANCH  47  48
ENDBRANCH  40  42
ENDBRANCH  39  40
ENDBRANCH  38  39
ENDBRANCH  37  38
ENDBRANCH  36  37
ENDBRANCH  35  36
ENDBRANCH  34  35
ENDBRANCH  33  34
ENDBRANCH  32  33
ENDBRANCH   1  32
TORSDOF 26
ENDMDL
MODEL 2
REMARK VINA RESULT:      -9.2      1.195      5.783
REMARK SMILES O=C(Cc1ccccc1C(=O)OCCOCCOCCOCCOC(=O)c1ccc(-c2c3nc(c(-c4c(F)cccc4F)c4ccc([nH]4)c(-c4c(F)cccc4F)c4nc(c(-c5c(F)cccc5F)c5ccc2[nH]5)C=C4)C=C3)cc1)Nc1cccc(OC[C@@H]2CCCO2)c1
REMARK SMILES IDX 16 1 15 2 14 3 13 4 12 5 10 6 11 7 9 8 4 9 5 10 6 11 8 12
REMARK SMILES IDX 7 13 3 14 2 15 1 16 81 17 82 19 83 20 94 21 84 22 86 23
REMARK SMILES IDX 85 24 87 25 88 26 89 27 90 28 93 29 91 30 92 31 17 32 18 33
REMARK SMILES IDX 19 34 20 35 21 36 22 37 23 38 24 39 25 40 26 41 27 42 28 43
REMARK SMILES IDX 80 44 29 45 79 46 30 47 31 48 32 49 73 50 33 51 78 52 72 53
REMARK SMILES IDX 74 54 34 55 77 56 71 57 70 58 35 60 61 61 44 62 60 63 45 64
REMARK SMILES IDX 48 65 59 66 75 67 46 68 47 69 58 71 76 72 49 73 36 74 37 75
REMARK SMILES IDX 42 76 38 77 39 78 41 79 43 80 40 81 62 82 63 83 68 84 64 85
REMARK SMILES IDX 65 86 67 87 69 88 66 89 50 90 51 91 56 92 52 93 53 94 55 95
REMARK SMILES IDX 57 96 54 97
REMARK H PARENT 81 18 74 59 48 70
REMARK Flexibility Score: inf
ROOT
ATOM      1  C   UNL A   1      33.657  17.013  23.079  1.00  0.00     0.188 C 
ENDROOT
BRANCH   1   2
ATOM      2  O   UNL A   1      32.408  17.467  22.565  1.00  0.00    -0.376 OA
BRANCH   2   3
ATOM      3  C   UNL A   1      32.238  18.858  22.303  1.00  0.00     0.202 C 
BRANCH   3   4
ATOM      4  C   UNL A   1      32.095  19.787  23.511  1.00  0.00     0.261 C 
BRANCH   4   5
ATOM      5  O   UNL A   1      33.313  20.505  23.797  1.00  0.00    -0.460 OA
BRANCH   5   6
ATOM      6  C   UNL A   1      33.245  21.839  23.588  1.00  0.00     0.338 C 
ATOM      7  O   UNL A   1      32.345  22.445  23.027  1.00  0.00    -0.246 OA
BRANCH   6   8
ATOM      8  C   UNL A   1      34.331  22.555  24.300  1.00  0.00     0.063 A 
ATOM      9  C   UNL A   1      34.314  22.906  25.660  1.00  0.00    -0.024 A 
ATOM     10  C   UNL A   1      35.477  23.452  26.239  1.00  0.00     0.005 A 
ATOM     11  C   UNL A   1      36.607  23.705  25.471  1.00  0.00     0.000 A 
ATOM     12  C   UNL A   1      35.482  22.803  23.538  1.00  0.00     0.016 A 
ATOM     13  C   UNL A   1      36.606  23.392  24.117  1.00  0.00     0.001 A 
BRANCH   9  14
ATOM     14  C   UNL A   1      33.100  22.790  26.535  1.00  0.00     0.136 C 
BRANCH  14  15
ATOM     15  C   UNL A   1      32.298  24.066  26.650  1.00  0.00     0.228 C 
ATOM     16  O   UNL A   1      31.236  24.000  27.269  1.00  0.00    -0.274 OA
ATOM     17  N   UNL A   1      32.892  25.216  26.107  1.00  0.00    -0.326 N 
ATOM     18  H   UNL A   1      33.797  25.125  25.729  1.00  0.00     0.169 HD
BRANCH  17  19
ATOM     19  C   UNL A   1      32.295  26.493  26.064  1.00  0.00     0.044 A 
ATOM     20  C   UNL A   1      32.708  27.524  26.912  1.00  0.00     0.026 A 
ATOM     21  C   UNL A   1      31.389  26.772  25.068  1.00  0.00     0.072 A 
ATOM     22  C   UNL A   1      32.278  28.834  26.670  1.00  0.00     0.006 A 
ATOM     23  C   UNL A   1      31.147  28.070  24.684  1.00  0.00     0.121 A 
ATOM     24  C   UNL A   1      31.527  29.110  25.526  1.00  0.00     0.046 A 
BRANCH  23  25
ATOM     25  O   UNL A   1      30.800  28.363  23.396  1.00  0.00    -0.491 OA
BRANCH  25  26
ATOM     26  C   UNL A   1      29.434  28.205  23.043  1.00  0.00     0.261 C 
BRANCH  26  27
ATOM     27  C   UNL A   1      28.585  29.459  22.677  1.00  0.00     0.156 C 
ATOM     28  C   UNL A   1      29.398  30.759  22.649  1.00  0.00     0.038 C 
ATOM     29  O   UNL A   1      27.376  29.721  23.390  1.00  0.00    -0.375 OA
ATOM     30  C   UNL A   1      28.594  31.693  23.516  1.00  0.00     0.031 C 
ATOM     31  C   UNL A   1      27.196  31.143  23.362  1.00  0.00     0.161 C 
ENDBRANCH  26  27
ENDBRANCH  25  26
ENDBRANCH  23  25
ENDBRANCH  17  19
ENDBRANCH  14  15
ENDBRANCH   9  14
ENDBRANCH   6   8
ENDBRANCH   5   6
ENDBRANCH   4   5
ENDBRANCH   3   4
ENDBRANCH   2   3
ENDBRANCH   1   2
BRANCH   1  32
ATOM     32  C   UNL A   1      33.895  16.979  24.598  1.00  0.00     0.188 C 
BRANCH  32  33
ATOM     33  O   UNL A   1      35.163  16.498  24.966  1.00  0.00    -0.377 OA
BRANCH  33  34
ATOM     34  C   UNL A   1      36.123  17.467  25.349  1.00  0.00     0.188 C 
BRANCH  34  35
ATOM     35  C   UNL A   1      36.217  18.771  24.556  1.00  0.00     0.188 C 
BRANCH  35  36
ATOM     36  O   UNL A   1      36.711  19.895  25.287  1.00  0.00    -0.376 OA
BRANCH  36  37
ATOM     37  C   UNL A   1      38.053  20.300  25.020  1.00  0.00     0.202 C 
BRANCH  37  38
ATOM     38  C   UNL A   1      39.184  19.275  25.239  1.00  0.00     0.261 C 
BRANCH  38  39
ATOM     39  O   UNL A   1      40.053  19.539  26.366  1.00  0.00    -0.460 OA
BRANCH  39  40
ATOM     40  C   UNL A   1      41.375  19.755  26.101  1.00  0.00     0.338 C 
ATOM     41  O   UNL A   1      42.139  18.973  25.579  1.00  0.00    -0.246 OA
BRANCH  40  42
ATOM     42  C   UNL A   1      41.801  21.114  26.554  1.00  0.00     0.060 A 
ATOM     43  C   UNL A   1      42.053  21.359  27.908  1.00  0.00     0.016 A 
ATOM     44  C   UNL A   1      41.890  22.179  25.654  1.00  0.00     0.016 A 
ATOM     45  C   UNL A   1      42.424  22.651  28.356  1.00  0.00     0.010 A 
ATOM     46  C   UNL A   1      42.316  23.451  26.094  1.00  0.00     0.010 A 
ATOM     47  C   UNL A   1      42.581  23.722  27.459  1.00  0.00    -0.014 A 
BRANCH  47  48
ATOM     48  C   UNL A   1      42.818  25.138  27.943  1.00  0.00     0.031 A 
ATOM     49  C   UNL A   1      44.245  25.624  27.910  1.00  0.00     0.074 A 
ATOM     50  C   UNL A   1      41.894  26.007  28.432  1.00  0.00     0.049 A 
ATOM     51  N   UNL A   1      44.733  26.782  28.274  1.00  0.00    -0.248 NA
ATOM     52  C   UNL A   1      45.262  24.646  27.487  1.00  0.00     0.031 C 
ATOM     53  C   UNL A   1      40.514  25.715  28.748  1.00  0.00     0.029 A 
ATOM     54  N   UNL A   1      41.972  27.345  28.781  1.00  0.00    -0.354 N 
ATOM     55  C   UNL A   1      46.107  26.656  28.146  1.00  0.00     0.074 A 
ATOM     56  C   UNL A   1      46.379  25.286  27.781  1.00  0.00     0.031 C 
ATOM     57  C   UNL A   1      39.840  26.801  29.128  1.00  0.00     0.029 A 
ATOM     58  C   UNL A   1      40.768  27.902  29.180  1.00  0.00     0.049 A 
ATOM     59  H   UNL A   1      42.813  27.856  28.750  1.00  0.00     0.167 HD
ATOM     60  C   UNL A   1      47.063  27.603  28.264  1.00  0.00     0.037 A 
ATOM     61  C   UNL A   1      40.410  29.136  29.583  1.00  0.00     0.037 A 
ATOM     62  C   UNL A   1      46.811  28.973  28.606  1.00  0.00     0.049 A 
ATOM     63  C   UNL A   1      41.469  30.182  29.675  1.00  0.00     0.074 A 
ATOM     64  C   UNL A   1      47.713  30.017  28.688  1.00  0.00     0.029 A 
ATOM     65  N   UNL A   1      45.565  29.491  28.927  1.00  0.00    -0.354 N 
ATOM     66  N   UNL A   1      42.751  30.063  29.442  1.00  0.00    -0.248 NA
ATOM     67  C   UNL A   1      41.047  31.524  30.093  1.00  0.00     0.031 C 
ATOM     68  C   UNL A   1      47.019  31.163  29.089  1.00  0.00     0.029 A 
ATOM     69  C   UNL A   1      45.677  30.842  29.212  1.00  0.00     0.049 A 
ATOM     70  H   UNL A   1      44.726  28.976  28.949  1.00  0.00     0.167 HD
ATOM     71  C   UNL A   1      43.288  31.318  29.660  1.00  0.00     0.074 A 
ATOM     72  C   UNL A   1      42.191  32.190  30.030  1.00  0.00     0.031 C 
ATOM     73  C   UNL A   1      44.580  31.706  29.564  1.00  0.00     0.037 A 
BRANCH  60  74
ATOM     74  C   UNL A   1      48.466  27.154  27.991  1.00  0.00     0.057 A 
ATOM     75  C   UNL A   1      48.981  27.122  26.684  1.00  0.00     0.134 A 
ATOM     76  C   UNL A   1      49.281  26.679  29.021  1.00  0.00     0.134 A 
ATOM     77  F   UNL A   1      48.234  27.537  25.649  1.00  0.00    -0.206 F 
ATOM     78  C   UNL A   1      50.233  26.577  26.409  1.00  0.00     0.040 A 
ATOM     79  C   UNL A   1      50.552  26.167  28.761  1.00  0.00     0.040 A 
ATOM     80  F   UNL A   1      48.848  26.681  30.291  1.00  0.00    -0.206 F 
ATOM     81  C   UNL A   1      51.024  26.100  27.451  1.00  0.00     0.006 A 
ENDBRANCH  60  74
BRANCH  61  82
ATOM     82  C   UNL A   1      38.991  29.461  29.916  1.00  0.00     0.057 A 
ATOM     83  C   UNL A   1      38.080  29.812  28.910  1.00  0.00     0.134 A 
ATOM     84  C   UNL A   1      38.510  29.442  31.232  1.00  0.00     0.134 A 
ATOM     85  F   UNL A   1      38.478  29.866  27.631  1.00  0.00    -0.206 F 
ATOM     86  C   UNL A   1      36.758  30.155  29.201  1.00  0.00     0.040 A 
ATOM     87  C   UNL A   1      37.181  29.755  31.534  1.00  0.00     0.040 A 
ATOM     88  F   UNL A   1      39.320  29.099  32.243  1.00  0.00    -0.206 F 
ATOM     89  C   UNL A   1      36.303  30.123  30.517  1.00  0.00     0.006 A 
ENDBRANCH  61  82
BRANCH  73  90
ATOM     90  C   UNL A   1      44.871  33.152  29.806  1.00  0.00     0.057 A 
ATOM     91  C   UNL A   1      45.300  33.625  31.050  1.00  0.00     0.134 A 
ATOM     92  C   UNL A   1      44.745  34.076  28.762  1.00  0.00     0.134 A 
ATOM     93  F   UNL A   1      45.415  32.791  32.095  1.00  0.00    -0.206 F 
ATOM     94  C   UNL A   1      45.584  34.976  31.252  1.00  0.00     0.040 A 
ATOM     95  C   UNL A   1      45.052  35.423  28.944  1.00  0.00     0.040 A 
ATOM     96  F   UNL A   1      44.334  33.681  27.547  1.00  0.00    -0.206 F 
ATOM     97  C   UNL A   1      45.469  35.877  30.194  1.00  0.00     0.006 A 
ENDBRANCH  73  90
ENDBRANCH  47  48
ENDBRANCH  40  42
ENDBRANCH  39  40
ENDBRANCH  38  39
ENDBRANCH  37  38
ENDBRANCH  36  37
ENDBRANCH  35  36
ENDBRANCH  34  35
ENDBRANCH  33  34
ENDBRANCH  32  33
ENDBRANCH   1  32
TORSDOF 26
ENDMDL
MODEL 3
REMARK VINA RESULT:      -9.2      2.435      6.721
REMARK SMILES O=C(Cc1ccccc1C(=O)OCCOCCOCCOCCOC(=O)c1ccc(-c2c3nc(c(-c4c(F)cccc4F)c4ccc([nH]4)c(-c4c(F)cccc4F)c4nc(c(-c5c(F)cccc5F)c5ccc2[nH]5)C=C4)C=C3)cc1)Nc1cccc(OC[C@@H]2CCCO2)c1
REMARK SMILES IDX 16 1 15 2 14 3 13 4 12 5 10 6 11 7 9 8 4 9 5 10 6 11 8 12
REMARK SMILES IDX 7 13 3 14 2 15 1 16 81 17 82 19 83 20 94 21 84 22 86 23
REMARK SMILES IDX 85 24 87 25 88 26 89 27 90 28 93 29 91 30 92 31 17 32 18 33
REMARK SMILES IDX 19 34 20 35 21 36 22 37 23 38 24 39 25 40 26 41 27 42 28 43
REMARK SMILES IDX 80 44 29 45 79 46 30 47 31 48 32 49 73 50 33 51 78 52 72 53
REMARK SMILES IDX 74 54 34 55 77 56 71 57 70 58 35 60 61 61 44 62 60 63 45 64
REMARK SMILES IDX 48 65 59 66 75 67 46 68 47 69 58 71 76 72 49 73 36 74 37 75
REMARK SMILES IDX 42 76 38 77 39 78 41 79 43 80 40 81 62 82 63 83 68 84 64 85
REMARK SMILES IDX 65 86 67 87 69 88 66 89 50 90 51 91 56 92 52 93 53 94 55 95
REMARK SMILES IDX 57 96 54 97
REMARK H PARENT 81 18 74 59 48 70
REMARK Flexibility Score: inf
ROOT
ATOM      1  C   UNL A   1      32.971  17.499  22.685  1.00  0.00     0.188 C 
ENDROOT
BRANCH   1   2
ATOM      2  O   UNL A   1      32.007  18.539  22.823  1.00  0.00    -0.376 OA
BRANCH   2   3
ATOM      3  C   UNL A   1      31.989  19.591  21.860  1.00  0.00     0.202 C 
BRANCH   3   4
ATOM      4  C   UNL A   1      32.054  21.025  22.388  1.00  0.00     0.261 C 
BRANCH   4   5
ATOM      5  O   UNL A   1      32.812  21.126  23.611  1.00  0.00    -0.460 OA
BRANCH   5   6
ATOM      6  C   UNL A   1      32.235  21.882  24.573  1.00  0.00     0.338 C 
ATOM      7  O   UNL A   1      31.328  21.546  25.318  1.00  0.00    -0.246 OA
BRANCH   6   8
ATOM      8  C   UNL A   1      32.964  23.158  24.769  1.00  0.00     0.063 A 
ATOM      9  C   UNL A   1      32.533  24.415  24.313  1.00  0.00    -0.024 A 
ATOM     10  C   UNL A   1      33.251  25.564  24.699  1.00  0.00     0.005 A 
ATOM     11  C   UNL A   1      34.408  25.462  25.461  1.00  0.00     0.000 A 
ATOM     12  C   UNL A   1      34.126  23.069  25.549  1.00  0.00     0.016 A 
ATOM     13  C   UNL A   1      34.853  24.213  25.876  1.00  0.00     0.001 A 
BRANCH   9  14
ATOM     14  C   UNL A   1      31.373  24.610  23.381  1.00  0.00     0.136 C 
BRANCH  14  15
ATOM     15  C   UNL A   1      31.179  26.038  22.926  1.00  0.00     0.228 C 
ATOM     16  O   UNL A   1      31.839  26.405  21.953  1.00  0.00    -0.274 OA
ATOM     17  N   UNL A   1      30.202  26.775  23.612  1.00  0.00    -0.326 N 
ATOM     18  H   UNL A   1      29.686  26.307  24.309  1.00  0.00     0.169 HD
BRANCH  17  19
ATOM     19  C   UNL A   1      29.900  28.133  23.381  1.00  0.00     0.044 A 
ATOM     20  C   UNL A   1      28.706  28.523  22.767  1.00  0.00     0.026 A 
ATOM     21  C   UNL A   1      30.727  29.099  23.903  1.00  0.00     0.072 A 
ATOM     22  C   UNL A   1      28.327  29.871  22.785  1.00  0.00     0.006 A 
ATOM     23  C   UNL A   1      30.263  30.373  24.129  1.00  0.00     0.121 A 
ATOM     24  C   UNL A   1      29.091  30.790  23.505  1.00  0.00     0.046 A 
BRANCH  23  25
ATOM     25  O   UNL A   1      30.767  31.128  25.149  1.00  0.00    -0.491 OA
BRANCH  25  26
ATOM     26  C   UNL A   1      31.458  30.441  26.181  1.00  0.00     0.261 C 
BRANCH  26  27
ATOM     27  C   UNL A   1      33.016  30.425  26.185  1.00  0.00     0.156 C 
ATOM     28  C   UNL A   1      33.612  29.018  26.058  1.00  0.00     0.038 C 
ATOM     29  O   UNL A   1      33.722  31.101  27.226  1.00  0.00    -0.375 OA
ATOM     30  C   UNL A   1      34.594  28.950  27.198  1.00  0.00     0.031 C 
ATOM     31  C   UNL A   1      34.964  30.402  27.385  1.00  0.00     0.161 C 
ENDBRANCH  26  27
ENDBRANCH  25  26
ENDBRANCH  23  25
ENDBRANCH  17  19
ENDBRANCH  14  15
ENDBRANCH   9  14
ENDBRANCH   6   8
ENDBRANCH   5   6
ENDBRANCH   4   5
ENDBRANCH   3   4
ENDBRANCH   2   3
ENDBRANCH   1   2
BRANCH   1  32
ATOM     32  C   UNL A   1      33.249  16.549  23.861  1.00  0.00     0.188 C 
BRANCH  32  33
ATOM     33  O   UNL A   1      33.687  17.199  25.028  1.00  0.00    -0.377 OA
BRANCH  33  34
ATOM     34  C   UNL A   1      34.561  18.299  24.852  1.00  0.00     0.188 C 
BRANCH  34  35
ATOM     35  C   UNL A   1      36.068  18.077  24.989  1.00  0.00     0.188 C 
BRANCH  35  36
ATOM     36  O   UNL A   1      36.888  19.152  24.526  1.00  0.00    -0.376 OA
BRANCH  36  37
ATOM     37  C   UNL A   1      36.790  20.389  25.231  1.00  0.00     0.202 C 
BRANCH  37  38
ATOM     38  C   UNL A   1      37.853  21.473  24.957  1.00  0.00     0.261 C 
BRANCH  38  39
ATOM     39  O   UNL A   1      38.197  22.306  26.090  1.00  0.00    -0.460 OA
BRANCH  39  40
ATOM     40  C   UNL A   1      39.495  22.283  26.513  1.00  0.00     0.338 C 
ATOM     41  O   UNL A   1      40.214  21.310  26.571  1.00  0.00    -0.246 OA
BRANCH  40  42
ATOM     42  C   UNL A   1      39.952  23.645  26.925  1.00  0.00     0.060 A 
ATOM     43  C   UNL A   1      40.770  23.803  28.049  1.00  0.00     0.016 A 
ATOM     44  C   UNL A   1      39.522  24.787  26.245  1.00  0.00     0.016 A 
ATOM     45  C   UNL A   1      41.184  25.091  28.472  1.00  0.00     0.010 A 
ATOM     46  C   UNL A   1      39.983  26.065  26.634  1.00  0.00     0.010 A 
ATOM     47  C   UNL A   1      40.815  26.249  27.765  1.00  0.00    -0.014 A 
BRANCH  47  48
ATOM     48  C   UNL A   1      41.114  27.636  28.297  1.00  0.00     0.031 A 
ATOM     49  C   UNL A   1      42.551  28.082  28.222  1.00  0.00     0.074 A 
ATOM     50  C   UNL A   1      40.237  28.508  28.862  1.00  0.00     0.049 A 
ATOM     51  N   UNL A   1      43.089  29.210  28.613  1.00  0.00    -0.248 NA
ATOM     52  C   UNL A   1      43.520  27.096  27.716  1.00  0.00     0.031 C 
ATOM     53  C   UNL A   1      38.863  28.241  29.225  1.00  0.00     0.029 A 
ATOM     54  N   UNL A   1      40.370  29.828  29.263  1.00  0.00    -0.354 N 
ATOM     55  C   UNL A   1      44.451  29.051  28.420  1.00  0.00     0.074 A 
ATOM     56  C   UNL A   1      44.667  27.690  27.987  1.00  0.00     0.031 C 
ATOM     57  C   UNL A   1      38.239  29.329  29.680  1.00  0.00     0.029 A 
ATOM     58  C   UNL A   1      39.201  30.400  29.737  1.00  0.00     0.049 A 
ATOM     59  H   UNL A   1      41.223  30.316  29.217  1.00  0.00     0.167 HD
ATOM     60  C   UNL A   1      45.440  29.965  28.537  1.00  0.00     0.037 A 
ATOM     61  C   UNL A   1      38.897  31.625  30.207  1.00  0.00     0.037 A 
ATOM     62  C   UNL A   1      45.243  31.326  28.946  1.00  0.00     0.049 A 
ATOM     63  C   UNL A   1      39.990  32.636  30.296  1.00  0.00     0.074 A 
ATOM     64  C   UNL A   1      46.178  32.339  29.032  1.00  0.00     0.029 A 
ATOM     65  N   UNL A   1      44.028  31.864  29.342  1.00  0.00    -0.354 N 
ATOM     66  N   UNL A   1      41.257  32.491  30.003  1.00  0.00    -0.248 NA
ATOM     67  C   UNL A   1      39.625  33.970  30.787  1.00  0.00     0.031 C 
ATOM     68  C   UNL A   1      45.536  33.486  29.510  1.00  0.00     0.029 A 
ATOM     69  C   UNL A   1      44.192  33.198  29.678  1.00  0.00     0.049 A 
ATOM     70  H   UNL A   1      43.176  31.372  29.379  1.00  0.00     0.167 HD
ATOM     71  C   UNL A   1      41.839  33.721  30.249  1.00  0.00     0.074 A 
ATOM     72  C   UNL A   1      40.785  34.606  30.703  1.00  0.00     0.031 C 
ATOM     73  C   UNL A   1      43.138  34.076  30.113  1.00  0.00     0.037 A 
BRANCH  60  74
ATOM     74  C   UNL A   1      46.816  29.489  28.183  1.00  0.00     0.057 A 
ATOM     75  C   UNL A   1      47.245  29.422  26.848  1.00  0.00     0.134 A 
ATOM     76  C   UNL A   1      47.689  29.023  29.170  1.00  0.00     0.134 A 
ATOM     77  F   UNL A   1      46.440  29.828  25.853  1.00  0.00    -0.206 F 
ATOM     78  C   UNL A   1      48.470  28.853  26.505  1.00  0.00     0.040 A 
ATOM     79  C   UNL A   1      48.933  28.486  28.840  1.00  0.00     0.040 A 
ATOM     80  F   UNL A   1      47.338  29.058  30.464  1.00  0.00    -0.206 F 
ATOM     81  C   UNL A   1      49.319  28.385  27.504  1.00  0.00     0.006 A 
ENDBRANCH  60  74
BRANCH  61  82
ATOM     82  C   UNL A   1      37.504  31.975  30.614  1.00  0.00     0.057 A 
ATOM     83  C   UNL A   1      36.633  32.612  29.719  1.00  0.00     0.134 A 
ATOM     84  C   UNL A   1      37.009  31.698  31.895  1.00  0.00     0.134 A 
ATOM     85  F   UNL A   1      37.047  32.921  28.482  1.00  0.00    -0.206 F 
ATOM     86  C   UNL A   1      35.338  32.982  30.089  1.00  0.00     0.040 A 
ATOM     87  C   UNL A   1      35.705  32.036  32.269  1.00  0.00     0.040 A 
ATOM     88  F   UNL A   1      37.780  31.075  32.798  1.00  0.00    -0.206 F 
ATOM     89  C   UNL A   1      34.868  32.690  31.368  1.00  0.00     0.006 A 
ENDBRANCH  61  82
BRANCH  73  90
ATOM     90  C   UNL A   1      43.481  35.502  30.403  1.00  0.00     0.057 A 
ATOM     91  C   UNL A   1      43.473  36.484  29.407  1.00  0.00     0.134 A 
ATOM     92  C   UNL A   1      43.794  35.896  31.709  1.00  0.00     0.134 A 
ATOM     93  F   UNL A   1      43.205  36.162  28.132  1.00  0.00    -0.206 F 
ATOM     94  C   UNL A   1      43.778  37.813  29.700  1.00  0.00     0.040 A 
ATOM     95  C   UNL A   1      44.073  37.225  32.019  1.00  0.00     0.040 A 
ATOM     96  F   UNL A   1      43.820  34.997  32.705  1.00  0.00    -0.206 F 
ATOM     97  C   UNL A   1      44.069  38.188  31.011  1.00  0.00     0.006 A 
ENDBRANCH  73  90
ENDBRANCH  47  48
ENDBRANCH  40  42
ENDBRANCH  39  40
ENDBRANCH  38  39
ENDBRANCH  37  38
ENDBRANCH  36  37
ENDBRANCH  35  36
ENDBRANCH  34  35
ENDBRANCH  33  34
ENDBRANCH  32  33
ENDBRANCH   1  32
TORSDOF 26
ENDMDL
