MODEL 1
REMARK VINA RESULT:     -10.3      0.000      0.000
REMARK SMILES Cc1ccc(O)c(C(=O)NCc2ccc(C(=O)OCCOCCOCCOCCOC(=O)c3ccc(-c4c5nc(c(-c6c(F)cccc6F)c6ccc([nH]6)c(-c6c(F)cccc6F)c6nc(c(-c7c(F)cccc7F)c7ccc4[nH]7)C=C6)C=C5)cc3)o2)c1
REMARK SMILES IDX 23 1 22 2 21 3 20 4 19 5 18 6 16 7 17 8 15 9 12 10 13 11
REMARK SMILES IDX 87 12 14 13 11 14 10 15 8 16 9 17 7 19 1 20 2 21 3 22 88 23
REMARK SMILES IDX 4 24 5 25 6 26 24 28 25 29 26 30 27 31 28 32 29 33 30 34
REMARK SMILES IDX 31 35 32 36 33 37 34 38 86 39 35 40 85 41 36 42 37 43 38 44
REMARK SMILES IDX 79 45 39 46 84 47 78 48 80 49 40 50 83 51 77 52 76 53 41 55
REMARK SMILES IDX 67 56 50 57 66 58 51 59 54 60 65 61 81 62 52 63 53 64 64 66
REMARK SMILES IDX 82 67 55 68 42 69 43 70 48 71 44 72 45 73 47 74 49 75 46 76
REMARK SMILES IDX 68 77 69 78 74 79 70 80 71 81 73 82 75 83 72 84 56 85 57 86
REMARK SMILES IDX 62 87 58 88 59 89 61 90 63 91 60 92
REMARK H PARENT 10 18 6 27 80 54 54 65
REMARK Flexibility Score: inf
ROOT
ATOM      1  C   UNL A   1      31.377  26.662  26.490  1.00  0.00     0.188 C 
ENDROOT
BRANCH   1   2
ATOM      2  C   UNL A   1      30.141  26.135  25.744  1.00  0.00     0.188 C 
BRANCH   2   3
ATOM      3  O   UNL A   1      30.371  25.931  24.348  1.00  0.00    -0.376 OA
BRANCH   3   4
ATOM      4  C   UNL A   1      29.959  26.988  23.485  1.00  0.00     0.202 C 
BRANCH   4   5
ATOM      5  C   UNL A   1      31.094  27.715  22.745  1.00  0.00     0.261 C 
BRANCH   5   6
ATOM      6  O   UNL A   1      31.966  26.861  21.988  1.00  0.00    -0.457 OA
BRANCH   6   7
ATOM      7  C   UNL A   1      33.305  26.987  22.186  1.00  0.00     0.374 C 
ATOM      8  O   UNL A   1      34.028  27.780  21.596  1.00  0.00    -0.242 OA
BRANCH   7   9
ATOM      9  C   UNL A   1      33.672  26.153  23.305  1.00  0.00     0.211 A 
ATOM     10  C   UNL A   1      34.399  24.278  24.218  1.00  0.00     0.124 A 
ATOM     11  C   UNL A   1      34.530  25.263  25.178  1.00  0.00     0.048 A 
ATOM     12  O   UNL A   1      33.836  24.809  23.092  1.00  0.00    -0.452 OA
ATOM     13  C   UNL A   1      34.059  26.461  24.596  1.00  0.00     0.058 A 
BRANCH  10  14
ATOM     14  C   UNL A   1      34.787  22.843  24.149  1.00  0.00     0.191 C 
BRANCH  14  15
ATOM     15  N   UNL A   1      34.353  22.189  25.369  1.00  0.00    -0.345 N 
ATOM     16  C   UNL A   1      33.808  20.968  25.651  1.00  0.00     0.255 C 
ATOM     17  O   UNL A   1      33.656  20.691  26.846  1.00  0.00    -0.269 OA
ATOM     18  H   UNL A   1      34.480  22.747  26.170  1.00  0.00     0.164 HD
BRANCH  16  19
ATOM     19  C   UNL A   1      33.403  19.943  24.643  1.00  0.00     0.081 A 
ATOM     20  C   UNL A   1      34.169  16.370  23.525  1.00  0.00     0.044 C 
ATOM     21  C   UNL A   1      33.555  17.739  23.585  1.00  0.00    -0.050 A 
ATOM     22  C   UNL A   1      32.605  18.121  22.637  1.00  0.00     0.007 A 
ATOM     23  C   UNL A   1      33.960  18.661  24.566  1.00  0.00     0.021 A 
ATOM     24  C   UNL A   1      32.059  19.401  22.675  1.00  0.00     0.047 A 
ATOM     25  C   UNL A   1      32.457  20.301  23.663  1.00  0.00     0.128 A 
BRANCH  25  26
ATOM     26  O   UNL A   1      31.873  21.542  23.590  1.00  0.00    -0.507 OA
ATOM     27  H   UNL A   1      32.298  22.283  23.973  1.00  0.00     0.293 HD
ENDBRANCH  25  26
ENDBRANCH  16  19
ENDBRANCH  14  15
ENDBRANCH  10  14
ENDBRANCH   7   9
ENDBRANCH   6   7
ENDBRANCH   5   6
ENDBRANCH   4   5
ENDBRANCH   3   4
ENDBRANCH   2   3
ENDBRANCH   1   2
BRANCH   1  28
ATOM     28  O   UNL A   1      31.034  27.598  27.504  1.00  0.00    -0.377 OA
BRANCH  28  29
ATOM     29  C   UNL A   1      31.813  28.793  27.524  1.00  0.00     0.188 C 
BRANCH  29  30
ATOM     30  C   UNL A   1      31.786  29.680  26.268  1.00  0.00     0.188 C 
BRANCH  30  31
ATOM     31  O   UNL A   1      31.880  31.074  26.585  1.00  0.00    -0.376 OA
BRANCH  31  32
ATOM     32  C   UNL A   1      32.909  31.429  27.507  1.00  0.00     0.202 C 
BRANCH  32  33
ATOM     33  C   UNL A   1      33.330  32.902  27.406  1.00  0.00     0.261 C 
BRANCH  33  34
ATOM     34  O   UNL A   1      32.420  33.820  28.036  1.00  0.00    -0.460 OA
BRANCH  34  35
ATOM     35  C   UNL A   1      32.967  34.890  28.648  1.00  0.00     0.338 C 
ATOM     36  O   UNL A   1      32.499  36.010  28.736  1.00  0.00    -0.246 OA
BRANCH  35  37
ATOM     37  C   UNL A   1      34.172  34.438  29.372  1.00  0.00     0.060 A 
ATOM     38  C   UNL A   1      35.416  34.587  28.748  1.00  0.00     0.016 A 
ATOM     39  C   UNL A   1      34.074  33.853  30.638  1.00  0.00     0.016 A 
ATOM     40  C   UNL A   1      36.566  34.101  29.370  1.00  0.00     0.010 A 
ATOM     41  C   UNL A   1      35.223  33.353  31.252  1.00  0.00     0.010 A 
ATOM     42  C   UNL A   1      36.465  33.441  30.603  1.00  0.00    -0.014 A 
BRANCH  42  43
ATOM     43  C   UNL A   1      37.618  32.668  31.118  1.00  0.00     0.031 A 
ATOM     44  C   UNL A   1      38.274  33.130  32.389  1.00  0.00     0.074 A 
ATOM     45  C   UNL A   1      38.077  31.584  30.471  1.00  0.00     0.049 A 
ATOM     46  N   UNL A   1      39.310  32.634  33.017  1.00  0.00    -0.248 NA
ATOM     47  C   UNL A   1      37.684  34.312  33.038  1.00  0.00     0.031 C 
ATOM     48  C   UNL A   1      37.516  31.029  29.242  1.00  0.00     0.029 A 
ATOM     49  N   UNL A   1      39.137  30.764  30.762  1.00  0.00    -0.354 N 
ATOM     50  C   UNL A   1      39.488  33.438  34.136  1.00  0.00     0.074 A 
ATOM     51  C   UNL A   1      38.475  34.469  34.087  1.00  0.00     0.031 C 
ATOM     52  C   UNL A   1      38.250  29.962  28.874  1.00  0.00     0.029 A 
ATOM     53  C   UNL A   1      39.338  29.775  29.831  1.00  0.00     0.049 A 
ATOM     54  H   UNL A   1      39.701  30.874  31.562  1.00  0.00     0.167 HD
ATOM     55  C   UNL A   1      40.408  33.323  35.120  1.00  0.00     0.037 A 
ATOM     56  C   UNL A   1      40.302  28.837  29.760  1.00  0.00     0.037 A 
ATOM     57  C   UNL A   1      41.426  32.310  35.165  1.00  0.00     0.049 A 
ATOM     58  C   UNL A   1      41.356  28.770  30.833  1.00  0.00     0.074 A 
ATOM     59  C   UNL A   1      42.398  32.104  36.129  1.00  0.00     0.029 A 
ATOM     60  N   UNL A   1      41.610  31.339  34.193  1.00  0.00    -0.354 N 
ATOM     61  N   UNL A   1      41.493  29.510  31.906  1.00  0.00    -0.248 NA
ATOM     62  C   UNL A   1      42.390  27.735  30.682  1.00  0.00     0.031 C 
ATOM     63  C   UNL A   1      43.191  31.025  35.721  1.00  0.00     0.029 A 
ATOM     64  C   UNL A   1      42.692  30.543  34.522  1.00  0.00     0.049 A 
ATOM     65  H   UNL A   1      41.053  31.233  33.388  1.00  0.00     0.167 HD
ATOM     66  C   UNL A   1      42.610  29.017  32.569  1.00  0.00     0.074 A 
ATOM     67  C   UNL A   1      43.110  27.910  31.782  1.00  0.00     0.031 C 
ATOM     68  C   UNL A   1      43.170  29.441  33.728  1.00  0.00     0.037 A 
BRANCH  55  69
ATOM     69  C   UNL A   1      40.357  34.337  36.220  1.00  0.00     0.057 A 
ATOM     70  C   UNL A   1      41.055  35.548  36.132  1.00  0.00     0.134 A 
ATOM     71  C   UNL A   1      39.598  34.106  37.373  1.00  0.00     0.134 A 
ATOM     72  F   UNL A   1      41.817  35.818  35.060  1.00  0.00    -0.206 F 
ATOM     73  C   UNL A   1      41.015  36.488  37.163  1.00  0.00     0.040 A 
ATOM     74  C   UNL A   1      39.536  35.045  38.402  1.00  0.00     0.040 A 
ATOM     75  F   UNL A   1      38.911  32.963  37.517  1.00  0.00    -0.206 F 
ATOM     76  C   UNL A   1      40.249  36.238  38.301  1.00  0.00     0.006 A 
ENDBRANCH  55  69
BRANCH  56  77
ATOM     77  C   UNL A   1      40.325  27.882  28.626  1.00  0.00     0.057 A 
ATOM     78  C   UNL A   1      39.673  26.648  28.708  1.00  0.00     0.134 A 
ATOM     79  C   UNL A   1      41.025  28.169  27.449  1.00  0.00     0.134 A 
ATOM     80  F   UNL A   1      39.009  26.308  29.823  1.00  0.00    -0.206 F 
ATOM     81  C   UNL A   1      39.724  25.725  27.663  1.00  0.00     0.040 A 
ATOM     82  C   UNL A   1      41.070  27.264  26.388  1.00  0.00     0.040 A 
ATOM     83  F   UNL A   1      41.673  29.336  27.313  1.00  0.00    -0.206 F 
ATOM     84  C   UNL A   1      40.423  26.033  26.497  1.00  0.00     0.006 A 
ENDBRANCH  56  77
BRANCH  68  85
ATOM     85  C   UNL A   1      44.368  28.692  34.228  1.00  0.00     0.057 A 
ATOM     86  C   UNL A   1      45.671  29.098  33.918  1.00  0.00     0.134 A 
ATOM     87  C   UNL A   1      44.214  27.581  35.067  1.00  0.00     0.134 A 
ATOM     88  F   UNL A   1      45.881  30.148  33.110  1.00  0.00    -0.206 F 
ATOM     89  C   UNL A   1      46.782  28.417  34.418  1.00  0.00     0.040 A 
ATOM     90  C   UNL A   1      45.317  26.904  35.587  1.00  0.00     0.040 A 
ATOM     91  F   UNL A   1      42.991  27.146  35.405  1.00  0.00    -0.206 F 
ATOM     92  C   UNL A   1      46.606  27.320  35.259  1.00  0.00     0.006 A 
ENDBRANCH  68  85
ENDBRANCH  42  43
ENDBRANCH  35  37
ENDBRANCH  34  35
ENDBRANCH  33  34
ENDBRANCH  32  33
ENDBRANCH  31  32
ENDBRANCH  30  31
ENDBRANCH  29  30
ENDBRANCH  28  29
ENDBRANCH   1  28
TORSDOF 24
ENDMDL
MODEL 2
REMARK VINA RESULT:     -10.1      0.963      6.022
REMARK SMILES Cc1ccc(O)c(C(=O)NCc2ccc(C(=O)OCCOCCOCCOCCOC(=O)c3ccc(-c4c5nc(c(-c6c(F)cccc6F)c6ccc([nH]6)c(-c6c(F)cccc6F)c6nc(c(-c7c(F)cccc7F)c7ccc4[nH]7)C=C6)C=C5)cc3)o2)c1
REMARK SMILES IDX 23 1 22 2 21 3 20 4 19 5 18 6 16 7 17 8 15 9 12 10 13 11
REMARK SMILES IDX 87 12 14 13 11 14 10 15 8 16 9 17 7 19 1 20 2 21 3 22 88 23
REMARK SMILES IDX 4 24 5 25 6 26 24 28 25 29 26 30 27 31 28 32 29 33 30 34
REMARK SMILES IDX 31 35 32 36 33 37 34 38 86 39 35 40 85 41 36 42 37 43 38 44
REMARK SMILES IDX 79 45 39 46 84 47 78 48 80 49 40 50 83 51 77 52 76 53 41 55
REMARK SMILES IDX 67 56 50 57 66 58 51 59 54 60 65 61 81 62 52 63 53 64 64 66
REMARK SMILES IDX 82 67 55 68 42 69 43 70 48 71 44 72 45 73 47 74 49 75 46 76
REMARK SMILES IDX 68 77 69 78 74 79 70 80 71 81 73 82 75 83 72 84 56 85 57 86
REMARK SMILES IDX 62 87 58 88 59 89 61 90 63 91 60 92
REMARK H PARENT 10 18 6 27 80 54 54 65
REMARK Flexibility Score: inf
ROOT
ATOM      1  C   UNL A   1      31.540  26.564  26.079  1.00  0.00     0.188 C 
ENDROOT
BRANCH   1   2
ATOM      2  C   UNL A   1      30.486  25.525  25.666  1.00  0.00     0.188 C 
BRANCH   2   3
ATOM      3  O   UNL A   1      29.908  25.789  24.386  1.00  0.00    -0.376 OA
BRANCH   3   4
ATOM      4  C   UNL A   1      29.412  27.111  24.184  1.00  0.00     0.202 C 
BRANCH   4   5
ATOM      5  C   UNL A   1      30.021  27.870  22.994  1.00  0.00     0.261 C 
BRANCH   5   6
ATOM      6  O   UNL A   1      30.979  27.122  22.228  1.00  0.00    -0.457 OA
BRANCH   6   7
ATOM      7  C   UNL A   1      32.297  27.400  22.417  1.00  0.00     0.374 C 
ATOM      8  O   UNL A   1      32.800  28.510  22.306  1.00  0.00    -0.242 OA
BRANCH   7   9
ATOM      9  C   UNL A   1      32.938  26.208  22.917  1.00  0.00     0.211 A 
ATOM     10  C   UNL A   1      33.274  24.027  22.991  1.00  0.00     0.124 A 
ATOM     11  C   UNL A   1      34.368  24.617  23.595  1.00  0.00     0.048 A 
ATOM     12  O   UNL A   1      32.382  24.992  22.618  1.00  0.00    -0.452 OA
ATOM     13  C   UNL A   1      34.150  26.012  23.554  1.00  0.00     0.058 A 
BRANCH  10  14
ATOM     14  C   UNL A   1      32.923  22.626  22.630  1.00  0.00     0.191 C 
BRANCH  14  15
ATOM     15  N   UNL A   1      32.115  22.064  23.695  1.00  0.00    -0.345 N 
ATOM     16  C   UNL A   1      32.261  20.998  24.538  1.00  0.00     0.255 C 
ATOM     17  O   UNL A   1      31.406  20.869  25.422  1.00  0.00    -0.269 OA
ATOM     18  H   UNL A   1      31.278  22.560  23.844  1.00  0.00     0.164 HD
BRANCH  16  19
ATOM     19  C   UNL A   1      33.369  19.999  24.492  1.00  0.00     0.081 A 
ATOM     20  C   UNL A   1      34.063  16.323  23.711  1.00  0.00     0.044 C 
ATOM     21  C   UNL A   1      34.274  17.754  24.113  1.00  0.00    -0.050 A 
ATOM     22  C   UNL A   1      35.536  18.187  24.522  1.00  0.00     0.007 A 
ATOM     23  C   UNL A   1      33.198  18.660  24.123  1.00  0.00     0.021 A 
ATOM     24  C   UNL A   1      35.724  19.507  24.924  1.00  0.00     0.047 A 
ATOM     25  C   UNL A   1      34.653  20.399  24.913  1.00  0.00     0.128 A 
BRANCH  25  26
ATOM     26  O   UNL A   1      34.946  21.666  25.352  1.00  0.00    -0.507 OA
ATOM     27  H   UNL A   1      34.272  22.203  25.718  1.00  0.00     0.293 HD
ENDBRANCH  25  26
ENDBRANCH  16  19
ENDBRANCH  14  15
ENDBRANCH  10  14
ENDBRANCH   7   9
ENDBRANCH   6   7
ENDBRANCH   5   6
ENDBRANCH   4   5
ENDBRANCH   3   4
ENDBRANCH   2   3
ENDBRANCH   1   2
BRANCH   1  28
ATOM     28  O   UNL A   1      31.201  27.216  27.298  1.00  0.00    -0.377 OA
BRANCH  28  29
ATOM     29  C   UNL A   1      31.759  28.517  27.471  1.00  0.00     0.188 C 
BRANCH  29  30
ATOM     30  C   UNL A   1      31.849  29.423  26.232  1.00  0.00     0.188 C 
BRANCH  30  31
ATOM     31  O   UNL A   1      32.260  30.755  26.562  1.00  0.00    -0.376 OA
BRANCH  31  32
ATOM     32  C   UNL A   1      33.340  30.857  27.489  1.00  0.00     0.202 C 
BRANCH  32  33
ATOM     33  C   UNL A   1      33.869  32.290  27.646  1.00  0.00     0.261 C 
BRANCH  33  34
ATOM     34  O   UNL A   1      32.843  33.280  27.832  1.00  0.00    -0.460 OA
BRANCH  34  35
ATOM     35  C   UNL A   1      33.204  34.410  28.475  1.00  0.00     0.338 C 
ATOM     36  O   UNL A   1      32.625  35.481  28.467  1.00  0.00    -0.246 OA
BRANCH  35  37
ATOM     37  C   UNL A   1      34.342  34.092  29.360  1.00  0.00     0.060 A 
ATOM     38  C   UNL A   1      35.636  34.352  28.896  1.00  0.00     0.016 A 
ATOM     39  C   UNL A   1      34.137  33.520  30.619  1.00  0.00     0.016 A 
ATOM     40  C   UNL A   1      36.737  33.993  29.674  1.00  0.00     0.010 A 
ATOM     41  C   UNL A   1      35.238  33.147  31.390  1.00  0.00     0.010 A 
ATOM     42  C   UNL A   1      36.540  33.347  30.903  1.00  0.00    -0.014 A 
BRANCH  42  43
ATOM     43  C   UNL A   1      37.685  32.700  31.583  1.00  0.00     0.031 A 
ATOM     44  C   UNL A   1      38.334  31.519  30.918  1.00  0.00     0.074 A 
ATOM     45  C   UNL A   1      38.137  33.145  32.768  1.00  0.00     0.049 A 
ATOM     46  N   UNL A   1      39.328  30.775  31.330  1.00  0.00    -0.248 NA
ATOM     47  C   UNL A   1      37.784  31.122  29.611  1.00  0.00     0.031 C 
ATOM     48  C   UNL A   1      37.604  34.289  33.503  1.00  0.00     0.029 A 
ATOM     49  N   UNL A   1      39.148  32.670  33.564  1.00  0.00    -0.354 N 
ATOM     50  C   UNL A   1      39.526  29.830  30.332  1.00  0.00     0.074 A 
ATOM     51  C   UNL A   1      38.534  30.074  29.308  1.00  0.00     0.031 C 
ATOM     52  C   UNL A   1      38.287  34.419  34.655  1.00  0.00     0.029 A 
ATOM     53  C   UNL A   1      39.288  33.358  34.743  1.00  0.00     0.049 A 
ATOM     54  H   UNL A   1      39.718  31.907  33.313  1.00  0.00     0.167 HD
ATOM     55  C   UNL A   1      40.457  28.851  30.268  1.00  0.00     0.037 A 
ATOM     56  C   UNL A   1      40.124  33.142  35.777  1.00  0.00     0.037 A 
ATOM     57  C   UNL A   1      41.435  28.594  31.289  1.00  0.00     0.049 A 
ATOM     58  C   UNL A   1      41.107  32.004  35.713  1.00  0.00     0.074 A 
ATOM     59  C   UNL A   1      42.429  27.631  31.311  1.00  0.00     0.029 A 
ATOM     60  N   UNL A   1      41.531  29.300  32.478  1.00  0.00    -0.354 N 
ATOM     61  N   UNL A   1      41.313  31.140  34.748  1.00  0.00    -0.248 NA
ATOM     62  C   UNL A   1      41.976  31.812  36.884  1.00  0.00     0.031 C 
ATOM     63  C   UNL A   1      43.107  27.735  32.530  1.00  0.00     0.029 A 
ATOM     64  C   UNL A   1      42.555  28.782  33.252  1.00  0.00     0.049 A 
ATOM     65  H   UNL A   1      40.956  30.057  32.733  1.00  0.00     0.167 HD
ATOM     66  C   UNL A   1      42.346  30.320  35.185  1.00  0.00     0.074 A 
ATOM     67  C   UNL A   1      42.730  30.792  36.498  1.00  0.00     0.031 C 
ATOM     68  C   UNL A   1      42.927  29.271  34.553  1.00  0.00     0.037 A 
BRANCH  55  69
ATOM     69  C   UNL A   1      40.443  27.977  29.054  1.00  0.00     0.057 A 
ATOM     70  C   UNL A   1      39.658  26.818  28.995  1.00  0.00     0.134 A 
ATOM     71  C   UNL A   1      41.212  28.299  27.929  1.00  0.00     0.134 A 
ATOM     72  F   UNL A   1      38.915  26.446  30.049  1.00  0.00    -0.206 F 
ATOM     73  C   UNL A   1      39.654  25.998  27.866  1.00  0.00     0.040 A 
ATOM     74  C   UNL A   1      41.202  27.497  26.789  1.00  0.00     0.040 A 
ATOM     75  F   UNL A   1      41.986  29.394  27.927  1.00  0.00    -0.206 F 
ATOM     76  C   UNL A   1      40.425  26.341  26.755  1.00  0.00     0.006 A 
ENDBRANCH  55  69
BRANCH  56  77
ATOM     77  C   UNL A   1      40.068  34.017  36.972  1.00  0.00     0.057 A 
ATOM     78  C   UNL A   1      39.247  33.704  38.059  1.00  0.00     0.134 A 
ATOM     79  C   UNL A   1      40.811  35.201  37.040  1.00  0.00     0.134 A 
ATOM     80  F   UNL A   1      38.491  32.596  38.038  1.00  0.00    -0.206 F 
ATOM     81  C   UNL A   1      39.155  34.544  39.170  1.00  0.00     0.040 A 
ATOM     82  C   UNL A   1      40.744  36.041  38.152  1.00  0.00     0.040 A 
ATOM     83  F   UNL A   1      41.615  35.556  36.026  1.00  0.00    -0.206 F 
ATOM     84  C   UNL A   1      39.908  35.716  39.220  1.00  0.00     0.006 A 
ENDBRANCH  56  77
BRANCH  68  85
ATOM     85  C   UNL A   1      44.054  28.581  35.260  1.00  0.00     0.057 A 
ATOM     86  C   UNL A   1      45.384  28.982  35.088  1.00  0.00     0.134 A 
ATOM     87  C   UNL A   1      43.798  27.538  36.158  1.00  0.00     0.134 A 
ATOM     88  F   UNL A   1      45.692  29.967  34.232  1.00  0.00    -0.206 F 
ATOM     89  C   UNL A   1      46.425  28.358  35.778  1.00  0.00     0.040 A 
ATOM     90  C   UNL A   1      44.828  26.920  36.867  1.00  0.00     0.040 A 
ATOM     91  F   UNL A   1      42.544  27.113  36.371  1.00  0.00    -0.206 F 
ATOM     92  C   UNL A   1      46.147  27.328  36.675  1.00  0.00     0.006 A 
ENDBRANCH  68  85
ENDBRANCH  42  43
ENDBRANCH  35  37
ENDBRANCH  34  35
ENDBRANCH  33  34
ENDBRANCH  32  33
ENDBRANCH  31  32
ENDBRANCH  30  31
ENDBRANCH  29  30
ENDBRANCH  28  29
ENDBRANCH   1  28
TORSDOF 24
ENDMDL
MODEL 3
REMARK VINA RESULT:      -9.9      2.880      7.434
REMARK SMILES Cc1ccc(O)c(C(=O)NCc2ccc(C(=O)OCCOCCOCCOCCOC(=O)c3ccc(-c4c5nc(c(-c6c(F)cccc6F)c6ccc([nH]6)c(-c6c(F)cccc6F)c6nc(c(-c7c(F)cccc7F)c7ccc4[nH]7)C=C6)C=C5)cc3)o2)c1
REMARK SMILES IDX 23 1 22 2 21 3 20 4 19 5 18 6 16 7 17 8 15 9 12 10 13 11
REMARK SMILES IDX 87 12 14 13 11 14 10 15 8 16 9 17 7 19 1 20 2 21 3 22 88 23
REMARK SMILES IDX 4 24 5 25 6 26 24 28 25 29 26 30 27 31 28 32 29 33 30 34
REMARK SMILES IDX 31 35 32 36 33 37 34 38 86 39 35 40 85 41 36 42 37 43 38 44
REMARK SMILES IDX 79 45 39 46 84 47 78 48 80 49 40 50 83 51 77 52 76 53 41 55
REMARK SMILES IDX 67 56 50 57 66 58 51 59 54 60 65 61 81 62 52 63 53 64 64 66
REMARK SMILES IDX 82 67 55 68 42 69 43 70 48 71 44 72 45 73 47 74 49 75 46 76
REMARK SMILES IDX 68 77 69 78 74 79 70 80 71 81 73 82 75 83 72 84 56 85 57 86
REMARK SMILES IDX 62 87 58 88 59 89 61 90 63 91 60 92
REMARK H PARENT 10 18 6 27 80 54 54 65
REMARK Flexibility Score: inf
ROOT
ATOM      1  C   UNL A   1      32.796  26.039  23.857  1.00  0.00     0.188 C 
ENDROOT
BRANCH   1   2
ATOM      2  C   UNL A   1      33.600  25.541  22.646  1.00  0.00     0.188 C 
BRANCH   2   3
ATOM      3  O   UNL A   1      33.050  24.363  22.052  1.00  0.00    -0.376 OA
BRANCH   3   4
ATOM      4  C   UNL A   1      33.531  23.121  22.562  1.00  0.00     0.202 C 
BRANCH   4   5
ATOM      5  C   UNL A   1      32.818  22.605  23.822  1.00  0.00     0.261 C 
BRANCH   5   6
ATOM      6  O   UNL A   1      33.590  22.688  25.031  1.00  0.00    -0.457 OA
BRANCH   6   7
ATOM      7  C   UNL A   1      34.462  21.679  25.296  1.00  0.00     0.374 C 
ATOM      8  O   UNL A   1      34.214  20.487  25.160  1.00  0.00    -0.242 OA
BRANCH   7   9
ATOM      9  C   UNL A   1      35.745  22.264  25.599  1.00  0.00     0.211 A 
ATOM     10  C   UNL A   1      37.946  22.220  25.772  1.00  0.00     0.124 A 
ATOM     11  C   UNL A   1      37.577  23.551  25.760  1.00  0.00     0.048 A 
ATOM     12  O   UNL A   1      36.830  21.434  25.718  1.00  0.00    -0.452 OA
ATOM     13  C   UNL A   1      36.168  23.579  25.657  1.00  0.00     0.058 A 
BRANCH  10  14
ATOM     14  C   UNL A   1      39.255  21.510  25.767  1.00  0.00     0.191 C 
BRANCH  14  15
ATOM     15  N   UNL A   1      39.997  21.904  26.950  1.00  0.00    -0.345 N 
ATOM     16  C   UNL A   1      41.319  21.878  27.294  1.00  0.00     0.255 C 
ATOM     17  O   UNL A   1      41.621  22.406  28.371  1.00  0.00    -0.269 OA
ATOM     18  H   UNL A   1      39.422  22.270  27.659  1.00  0.00     0.164 HD
BRANCH  16  19
ATOM     19  C   UNL A   1      42.420  21.289  26.476  1.00  0.00     0.081 A 
ATOM     20  C   UNL A   1      45.420  22.281  24.326  1.00  0.00     0.044 C 
ATOM     21  C   UNL A   1      44.394  21.443  25.033  1.00  0.00    -0.050 A 
ATOM     22  C   UNL A   1      44.407  20.055  24.893  1.00  0.00     0.007 A 
ATOM     23  C   UNL A   1      43.387  22.048  25.806  1.00  0.00     0.021 A 
ATOM     24  C   UNL A   1      43.437  19.281  25.524  1.00  0.00     0.047 A 
ATOM     25  C   UNL A   1      42.454  19.892  26.302  1.00  0.00     0.128 A 
BRANCH  25  26
ATOM     26  O   UNL A   1      41.535  19.036  26.856  1.00  0.00    -0.507 OA
ATOM     27  H   UNL A   1      41.666  18.110  26.804  1.00  0.00     0.293 HD
ENDBRANCH  25  26
ENDBRANCH  16  19
ENDBRANCH  14  15
ENDBRANCH  10  14
ENDBRANCH   7   9
ENDBRANCH   6   7
ENDBRANCH   5   6
ENDBRANCH   4   5
ENDBRANCH   3   4
ENDBRANCH   2   3
ENDBRANCH   1   2
BRANCH   1  28
ATOM     28  O   UNL A   1      31.394  25.888  23.669  1.00  0.00    -0.377 OA
BRANCH  28  29
ATOM     29  C   UNL A   1      30.867  26.483  22.485  1.00  0.00     0.188 C 
BRANCH  29  30
ATOM     30  C   UNL A   1      30.670  28.008  22.482  1.00  0.00     0.188 C 
BRANCH  30  31
ATOM     31  O   UNL A   1      30.295  28.510  23.770  1.00  0.00    -0.376 OA
BRANCH  31  32
ATOM     32  C   UNL A   1      31.081  29.594  24.263  1.00  0.00     0.202 C 
BRANCH  32  33
ATOM     33  C   UNL A   1      31.824  29.260  25.564  1.00  0.00     0.261 C 
BRANCH  33  34
ATOM     34  O   UNL A   1      33.011  30.043  25.783  1.00  0.00    -0.460 OA
BRANCH  34  35
ATOM     35  C   UNL A   1      32.916  31.045  26.681  1.00  0.00     0.338 C 
ATOM     36  O   UNL A   1      32.028  31.873  26.773  1.00  0.00    -0.246 OA
BRANCH  35  37
ATOM     37  C   UNL A   1      33.991  30.872  27.678  1.00  0.00     0.060 A 
ATOM     38  C   UNL A   1      34.582  32.017  28.222  1.00  0.00     0.016 A 
ATOM     39  C   UNL A   1      34.429  29.597  28.050  1.00  0.00     0.016 A 
ATOM     40  C   UNL A   1      35.653  31.891  29.108  1.00  0.00     0.010 A 
ATOM     41  C   UNL A   1      35.509  29.472  28.924  1.00  0.00     0.010 A 
ATOM     42  C   UNL A   1      36.148  30.618  29.425  1.00  0.00    -0.014 A 
BRANCH  42  43
ATOM     43  C   UNL A   1      37.453  30.489  30.112  1.00  0.00     0.031 A 
ATOM     44  C   UNL A   1      38.559  29.753  29.408  1.00  0.00     0.074 A 
ATOM     45  C   UNL A   1      37.653  31.006  31.336  1.00  0.00     0.049 A 
ATOM     46  N   UNL A   1      39.773  29.490  29.817  1.00  0.00    -0.248 NA
ATOM     47  C   UNL A   1      38.251  29.244  28.061  1.00  0.00     0.031 C 
ATOM     48  C   UNL A   1      36.667  31.754  32.112  1.00  0.00     0.029 A 
ATOM     49  N   UNL A   1      38.761  30.965  32.143  1.00  0.00    -0.354 N 
ATOM     50  C   UNL A   1      40.375  28.793  28.777  1.00  0.00     0.074 A 
ATOM     51  C   UNL A   1      39.386  28.649  27.730  1.00  0.00     0.031 C 
ATOM     52  C   UNL A   1      37.212  32.091  33.295  1.00  0.00     0.029 A 
ATOM     53  C   UNL A   1      38.575  31.567  33.363  1.00  0.00     0.049 A 
ATOM     54  H   UNL A   1      39.609  30.544  31.873  1.00  0.00     0.167 HD
ATOM     55  C   UNL A   1      41.640  28.322  28.696  1.00  0.00     0.037 A 
ATOM     56  C   UNL A   1      39.410  31.666  34.414  1.00  0.00     0.037 A 
ATOM     57  C   UNL A   1      42.621  28.448  29.738  1.00  0.00     0.049 A 
ATOM     58  C   UNL A   1      40.791  31.076  34.326  1.00  0.00     0.074 A 
ATOM     59  C   UNL A   1      43.935  28.014  29.745  1.00  0.00     0.029 A 
ATOM     60  N   UNL A   1      42.387  29.045  30.967  1.00  0.00    -0.354 N 
ATOM     61  N   UNL A   1      41.364  30.453  33.324  1.00  0.00    -0.248 NA
ATOM     62  C   UNL A   1      41.644  31.203  35.518  1.00  0.00     0.031 C 
ATOM     63  C   UNL A   1      44.487  28.320  30.994  1.00  0.00     0.029 A 
ATOM     64  C   UNL A   1      43.525  28.973  31.749  1.00  0.00     0.049 A 
ATOM     65  H   UNL A   1      41.537  29.459  31.241  1.00  0.00     0.167 HD
ATOM     66  C   UNL A   1      42.646  30.136  33.754  1.00  0.00     0.074 A 
ATOM     67  C   UNL A   1      42.772  30.641  35.105  1.00  0.00     0.031 C 
ATOM     68  C   UNL A   1      43.633  29.488  33.089  1.00  0.00     0.037 A 
BRANCH  55  69
ATOM     69  C   UNL A   1      42.021  27.611  27.435  1.00  0.00     0.057 A 
ATOM     70  C   UNL A   1      42.476  28.310  26.310  1.00  0.00     0.134 A 
ATOM     71  C   UNL A   1      41.941  26.216  27.346  1.00  0.00     0.134 A 
ATOM     72  F   UNL A   1      42.555  29.649  26.327  1.00  0.00    -0.206 F 
ATOM     73  C   UNL A   1      42.821  27.646  25.131  1.00  0.00     0.040 A 
ATOM     74  C   UNL A   1      42.300  25.541  26.180  1.00  0.00     0.040 A 
ATOM     75  F   UNL A   1      41.509  25.492  28.390  1.00  0.00    -0.206 F 
ATOM     76  C   UNL A   1      42.737  26.256  25.067  1.00  0.00     0.006 A 
ENDBRANCH  55  69
BRANCH  56  77
ATOM     77  C   UNL A   1      38.965  32.350  35.653  1.00  0.00     0.057 A 
ATOM     78  C   UNL A   1      38.251  31.664  36.640  1.00  0.00     0.134 A 
ATOM     79  C   UNL A   1      39.218  33.710  35.863  1.00  0.00     0.134 A 
ATOM     80  F   UNL A   1      37.956  30.365  36.480  1.00  0.00    -0.206 F 
ATOM     81  C   UNL A   1      37.791  32.308  37.789  1.00  0.00     0.040 A 
ATOM     82  C   UNL A   1      38.781  34.364  37.015  1.00  0.00     0.040 A 
ATOM     83  F   UNL A   1      39.895  34.422  34.950  1.00  0.00    -0.206 F 
ATOM     84  C   UNL A   1      38.058  33.663  37.980  1.00  0.00     0.006 A 
ENDBRANCH  56  77
BRANCH  68  85
ATOM     85  C   UNL A   1      44.940  29.311  33.800  1.00  0.00     0.057 A 
ATOM     86  C   UNL A   1      45.217  28.166  34.555  1.00  0.00     0.134 A 
ATOM     87  C   UNL A   1      45.949  30.276  33.686  1.00  0.00     0.134 A 
ATOM     88  F   UNL A   1      44.286  27.213  34.711  1.00  0.00    -0.206 F 
ATOM     89  C   UNL A   1      46.450  27.991  35.184  1.00  0.00     0.040 A 
ATOM     90  C   UNL A   1      47.192  30.103  34.294  1.00  0.00     0.040 A 
ATOM     91  F   UNL A   1      45.747  31.392  32.970  1.00  0.00    -0.206 F 
ATOM     92  C   UNL A   1      47.444  28.959  35.049  1.00  0.00     0.006 A 
ENDBRANCH  68  85
ENDBRANCH  42  43
ENDBRANCH  35  37
ENDBRANCH  34  35
ENDBRANCH  33  34
ENDBRANCH  32  33
ENDBRANCH  31  32
ENDBRANCH  30  31
ENDBRANCH  29  30
ENDBRANCH  28  29
ENDBRANCH   1  28
TORSDOF 24
ENDMDL
