MODEL 1
REMARK VINA RESULT:     -11.6      0.000      0.000
REMARK SMILES COc1ccc(-c2c(C(=O)OCCOCCOCCOCCOC(=O)c3ccc(-c4c5nc(c(-c6c(F)cccc6F)c6ccc([nH]6)c(-c6c(F)cccc6F)c6nc(c(-c7c(F)cccc7F)c7ccc4[nH]7)C=C6)C=C5)cc3)sc3c2N=C(O)C[C@H]3c2ccc(OC)c(OC)c2)cc1
REMARK SMILES IDX 17 1 16 2 15 3 14 4 13 5 12 6 11 7 9 8 10 9 8 10 7 11 82 12
REMARK SMILES IDX 80 13 81 14 83 15 87 16 84 17 86 18 6 19 3 20 4 21 99 22
REMARK SMILES IDX 5 23 98 24 2 25 1 26 88 27 89 28 97 29 90 30 94 31 91 32
REMARK SMILES IDX 95 33 96 34 92 35 93 36 85 37 18 39 19 40 20 41 21 42 22 43
REMARK SMILES IDX 23 44 24 45 25 46 26 47 27 48 79 49 28 50 78 51 29 52 30 53
REMARK SMILES IDX 31 54 72 55 32 56 77 57 71 58 73 59 33 60 76 61 70 62 69 63
REMARK SMILES IDX 34 65 60 66 43 67 59 68 44 69 47 70 58 71 74 72 45 73 46 74
REMARK SMILES IDX 57 76 75 77 48 78 35 79 36 80 41 81 37 82 38 83 40 84 42 85
REMARK SMILES IDX 39 86 61 87 62 88 67 89 63 90 64 91 66 92 68 93 65 94 49 95
REMARK SMILES IDX 50 96 55 97 51 98 52 99 54 100 56 101 53 102
REMARK H PARENT 85 38 73 64 47 75
REMARK Flexibility Score: inf
ROOT
ATOM      1  O   UNL A   1      34.260  31.716  28.355  1.00  0.00    -0.377 OA
ENDROOT
BRANCH   1   2
ATOM      2  C   UNL A   1      34.164  30.825  27.251  1.00  0.00     0.188 C 
BRANCH   2   3
ATOM      3  C   UNL A   1      34.676  29.362  27.246  1.00  0.00     0.188 C 
BRANCH   3   4
ATOM      4  O   UNL A   1      33.705  28.381  26.973  1.00  0.00    -0.376 OA
BRANCH   4   5
ATOM      5  C   UNL A   1      32.439  28.357  27.582  1.00  0.00     0.202 C 
BRANCH   5   6
ATOM      6  C   UNL A   1      31.210  27.795  26.865  1.00  0.00     0.261 C 
BRANCH   6   7
ATOM      7  O   UNL A   1      30.942  26.413  27.083  1.00  0.00    -0.459 OA
BRANCH   7   8
ATOM      8  C   UNL A   1      30.031  25.826  26.261  1.00  0.00     0.349 C 
ATOM      9  O   UNL A   1      28.849  25.691  26.535  1.00  0.00    -0.245 OA
BRANCH   8  10
ATOM     10  C   UNL A   1      30.662  25.503  24.992  1.00  0.00     0.123 A 
ATOM     11  C   UNL A   1      30.666  26.158  23.762  1.00  0.00     0.033 A 
ATOM     12  C   UNL A   1      31.493  25.454  22.829  1.00  0.00     0.090 A 
ATOM     13  S   UNL A   1      31.491  23.994  24.911  1.00  0.00    -0.130 S 
ATOM     14  C   UNL A   1      31.979  24.268  23.305  1.00  0.00     0.040 A 
ATOM     15  N   UNL A   1      31.823  25.972  21.572  1.00  0.00    -0.216 NA
ATOM     16  C   UNL A   1      32.856  23.328  22.546  1.00  0.00     0.071 C 
ATOM     17  C   UNL A   1      32.647  25.266  20.877  1.00  0.00     0.186 C 
ATOM     18  C   UNL A   1      33.213  23.899  21.166  1.00  0.00     0.111 C 
BRANCH  11  19
ATOM     19  C   UNL A   1      29.930  27.398  23.501  1.00  0.00    -0.014 A 
ATOM     20  C   UNL A   1      28.454  29.764  23.111  1.00  0.00     0.118 A 
ATOM     21  C   UNL A   1      29.843  29.807  23.240  1.00  0.00     0.047 A 
ATOM     22  C   UNL A   1      27.802  28.533  23.144  1.00  0.00     0.047 A 
ATOM     23  C   UNL A   1      30.580  28.633  23.424  1.00  0.00     0.012 A 
ATOM     24  C   UNL A   1      28.538  27.358  23.345  1.00  0.00     0.012 A 
BRANCH  20  25
ATOM     25  O   UNL A   1      27.852  30.976  22.916  1.00  0.00    -0.497 OA
ATOM     26  C   UNL A   1      28.722  32.103  22.876  1.00  0.00     0.278 C 
ENDBRANCH  20  25
ENDBRANCH  11  19
BRANCH  16  27
ATOM     27  C   UNL A   1      34.128  22.958  23.296  1.00  0.00    -0.035 A 
ATOM     28  C   UNL A   1      35.140  23.902  23.495  1.00  0.00     0.008 A 
ATOM     29  C   UNL A   1      34.311  21.652  23.783  1.00  0.00     0.054 A 
ATOM     30  C   UNL A   1      36.302  23.546  24.169  1.00  0.00     0.051 A 
ATOM     31  C   UNL A   1      35.488  21.278  24.454  1.00  0.00     0.161 A 
ATOM     32  C   UNL A   1      36.491  22.244  24.652  1.00  0.00     0.160 A 
BRANCH  31  33
ATOM     33  O   UNL A   1      35.712  20.005  24.910  1.00  0.00    -0.493 OA
ATOM     34  C   UNL A   1      34.651  19.062  24.847  1.00  0.00     0.278 C 
ENDBRANCH  31  33
BRANCH  32  35
ATOM     35  O   UNL A   1      37.711  22.106  25.261  1.00  0.00    -0.493 OA
ATOM     36  C   UNL A   1      38.215  23.182  26.034  1.00  0.00     0.278 C 
ENDBRANCH  32  35
ENDBRANCH  16  27
BRANCH  17  37
ATOM     37  O   UNL A   1      33.077  25.780  19.704  1.00  0.00    -0.496 OA
ATOM     38  H   UNL A   1      33.333  26.681  19.653  1.00  0.00     0.294 HD
ENDBRANCH  17  37
ENDBRANCH   8  10
ENDBRANCH   7   8
ENDBRANCH   6   7
ENDBRANCH   5   6
ENDBRANCH   4   5
ENDBRANCH   3   4
ENDBRANCH   2   3
ENDBRANCH   1   2
BRANCH   1  39
ATOM     39  C   UNL A   1      34.303  33.117  28.165  1.00  0.00     0.188 C 
BRANCH  39  40
ATOM     40  C   UNL A   1      32.976  33.888  27.984  1.00  0.00     0.188 C 
BRANCH  40  41
ATOM     41  O   UNL A   1      32.608  34.780  29.018  1.00  0.00    -0.376 OA
BRANCH  41  42
ATOM     42  C   UNL A   1      33.385  35.869  29.468  1.00  0.00     0.202 C 
BRANCH  42  43
ATOM     43  C   UNL A   1      32.999  36.796  30.611  1.00  0.00     0.261 C 
BRANCH  43  44
ATOM     44  O   UNL A   1      33.543  36.478  31.866  1.00  0.00    -0.460 OA
BRANCH  44  45
ATOM     45  C   UNL A   1      33.059  35.343  32.397  1.00  0.00     0.338 C 
ATOM     46  O   UNL A   1      31.894  35.023  32.534  1.00  0.00    -0.246 OA
BRANCH  45  47
ATOM     47  C   UNL A   1      34.190  34.612  32.962  1.00  0.00     0.060 A 
ATOM     48  C   UNL A   1      35.360  35.350  33.124  1.00  0.00     0.016 A 
ATOM     49  C   UNL A   1      34.173  33.210  32.892  1.00  0.00     0.016 A 
ATOM     50  C   UNL A   1      36.546  34.691  32.935  1.00  0.00     0.010 A 
ATOM     51  C   UNL A   1      35.358  32.559  32.680  1.00  0.00     0.010 A 
ATOM     52  C   UNL A   1      36.513  33.327  32.610  1.00  0.00    -0.014 A 
BRANCH  52  53
ATOM     53  C   UNL A   1      37.772  32.676  32.355  1.00  0.00     0.031 A 
ATOM     54  C   UNL A   1      38.598  32.652  33.577  1.00  0.00     0.074 A 
ATOM     55  C   UNL A   1      38.083  32.115  31.173  1.00  0.00     0.049 A 
ATOM     56  N   UNL A   1      39.644  33.367  33.814  1.00  0.00    -0.248 NA
ATOM     57  C   UNL A   1      38.063  31.949  34.756  1.00  0.00     0.031 C 
ATOM     58  C   UNL A   1      37.209  31.897  30.017  1.00  0.00     0.029 A 
ATOM     59  N   UNL A   1      39.250  31.535  30.786  1.00  0.00    -0.354 N 
ATOM     60  C   UNL A   1      40.052  32.986  35.083  1.00  0.00     0.074 A 
ATOM     61  C   UNL A   1      38.935  32.318  35.695  1.00  0.00     0.031 C 
ATOM     62  C   UNL A   1      37.809  31.036  29.161  1.00  0.00     0.029 A 
ATOM     63  C   UNL A   1      39.151  30.751  29.642  1.00  0.00     0.049 A 
ATOM     64  H   UNL A   1      40.095  31.658  31.276  1.00  0.00     0.167 HD
ATOM     65  C   UNL A   1      41.378  32.919  35.364  1.00  0.00     0.037 A 
ATOM     66  C   UNL A   1      40.094  29.890  29.182  1.00  0.00     0.037 A 
ATOM     67  C   UNL A   1      42.143  33.733  34.449  1.00  0.00     0.049 A 
ATOM     68  C   UNL A   1      41.383  30.280  29.805  1.00  0.00     0.074 A 
ATOM     69  C   UNL A   1      42.147  35.068  34.096  1.00  0.00     0.029 A 
ATOM     70  N   UNL A   1      42.805  33.072  33.445  1.00  0.00    -0.354 N 
ATOM     71  N   UNL A   1      42.023  31.378  29.518  1.00  0.00    -0.248 NA
ATOM     72  C   UNL A   1      41.744  29.660  31.069  1.00  0.00     0.031 C 
ATOM     73  C   UNL A   1      42.440  35.089  32.699  1.00  0.00     0.029 A 
ATOM     74  C   UNL A   1      42.664  33.777  32.282  1.00  0.00     0.049 A 
ATOM     75  H   UNL A   1      43.303  32.228  33.548  1.00  0.00     0.167 HD
ATOM     76  C   UNL A   1      42.511  31.825  30.737  1.00  0.00     0.074 A 
ATOM     77  C   UNL A   1      42.409  30.673  31.630  1.00  0.00     0.031 C 
ATOM     78  C   UNL A   1      42.663  33.162  30.973  1.00  0.00     0.037 A 
BRANCH  65  79
ATOM     79  C   UNL A   1      41.982  31.748  36.104  1.00  0.00     0.057 A 
ATOM     80  C   UNL A   1      42.926  32.004  37.110  1.00  0.00     0.134 A 
ATOM     81  C   UNL A   1      41.918  30.404  35.670  1.00  0.00     0.134 A 
ATOM     82  F   UNL A   1      43.106  33.248  37.581  1.00  0.00    -0.206 F 
ATOM     83  C   UNL A   1      43.787  31.013  37.596  1.00  0.00     0.040 A 
ATOM     84  C   UNL A   1      42.733  29.398  36.189  1.00  0.00     0.040 A 
ATOM     85  F   UNL A   1      41.151  30.002  34.651  1.00  0.00    -0.206 F 
ATOM     86  C   UNL A   1      43.695  29.706  37.133  1.00  0.00     0.006 A 
ENDBRANCH  65  79
BRANCH  66  87
ATOM     87  C   UNL A   1      39.924  28.578  28.512  1.00  0.00     0.057 A 
ATOM     88  C   UNL A   1      40.539  28.316  27.276  1.00  0.00     0.134 A 
ATOM     89  C   UNL A   1      39.418  27.459  29.195  1.00  0.00     0.134 A 
ATOM     90  F   UNL A   1      41.090  29.310  26.565  1.00  0.00    -0.206 F 
ATOM     91  C   UNL A   1      40.674  27.016  26.768  1.00  0.00     0.040 A 
ATOM     92  C   UNL A   1      39.542  26.157  28.696  1.00  0.00     0.040 A 
ATOM     93  F   UNL A   1      38.873  27.578  30.413  1.00  0.00    -0.206 F 
ATOM     94  C   UNL A   1      40.187  25.930  27.486  1.00  0.00     0.006 A 
ENDBRANCH  66  87
BRANCH  78  95
ATOM     95  C   UNL A   1      42.624  34.086  29.785  1.00  0.00     0.057 A 
ATOM     96  C   UNL A   1      41.468  34.718  29.299  1.00  0.00     0.134 A 
ATOM     97  C   UNL A   1      43.837  34.439  29.184  1.00  0.00     0.134 A 
ATOM     98  F   UNL A   1      40.272  34.513  29.868  1.00  0.00    -0.206 F 
ATOM     99  C   UNL A   1      41.518  35.624  28.235  1.00  0.00     0.040 A 
ATOM    100  C   UNL A   1      43.905  35.369  28.146  1.00  0.00     0.040 A 
ATOM    101  F   UNL A   1      44.989  33.912  29.628  1.00  0.00    -0.206 F 
ATOM    102  C   UNL A   1      42.741  35.958  27.660  1.00  0.00     0.006 A 
ENDBRANCH  78  95
ENDBRANCH  52  53
ENDBRANCH  45  47
ENDBRANCH  44  45
ENDBRANCH  43  44
ENDBRANCH  42  43
ENDBRANCH  41  42
ENDBRANCH  40  41
ENDBRANCH  39  40
ENDBRANCH   1  39
TORSDOF 26
ENDMDL
MODEL 2
REMARK VINA RESULT:      -9.9      3.176      4.822
REMARK SMILES COc1ccc(-c2c(C(=O)OCCOCCOCCOCCOC(=O)c3ccc(-c4c5nc(c(-c6c(F)cccc6F)c6ccc([nH]6)c(-c6c(F)cccc6F)c6nc(c(-c7c(F)cccc7F)c7ccc4[nH]7)C=C6)C=C5)cc3)sc3c2N=C(O)C[C@H]3c2ccc(OC)c(OC)c2)cc1
REMARK SMILES IDX 17 1 16 2 15 3 14 4 13 5 12 6 11 7 9 8 10 9 8 10 7 11 82 12
REMARK SMILES IDX 80 13 81 14 83 15 87 16 84 17 86 18 6 19 3 20 4 21 99 22
REMARK SMILES IDX 5 23 98 24 2 25 1 26 88 27 89 28 97 29 90 30 94 31 91 32
REMARK SMILES IDX 95 33 96 34 92 35 93 36 85 37 18 39 19 40 20 41 21 42 22 43
REMARK SMILES IDX 23 44 24 45 25 46 26 47 27 48 79 49 28 50 78 51 29 52 30 53
REMARK SMILES IDX 31 54 72 55 32 56 77 57 71 58 73 59 33 60 76 61 70 62 69 63
REMARK SMILES IDX 34 65 60 66 43 67 59 68 44 69 47 70 58 71 74 72 45 73 46 74
REMARK SMILES IDX 57 76 75 77 48 78 35 79 36 80 41 81 37 82 38 83 40 84 42 85
REMARK SMILES IDX 39 86 61 87 62 88 67 89 63 90 64 91 66 92 68 93 65 94 49 95
REMARK SMILES IDX 50 96 55 97 51 98 52 99 54 100 56 101 53 102
REMARK H PARENT 85 38 73 64 47 75
REMARK Flexibility Score: inf
ROOT
ATOM      1  O   UNL A   1      35.286  31.730  28.128  1.00  0.00    -0.377 OA
ENDROOT
BRANCH   1   2
ATOM      2  C   UNL A   1      34.329  30.717  27.843  1.00  0.00     0.188 C 
BRANCH   2   3
ATOM      3  C   UNL A   1      34.666  29.313  27.281  1.00  0.00     0.188 C 
BRANCH   3   4
ATOM      4  O   UNL A   1      33.563  28.551  26.853  1.00  0.00    -0.376 OA
BRANCH   4   5
ATOM      5  C   UNL A   1      32.233  28.992  26.957  1.00  0.00     0.202 C 
BRANCH   5   6
ATOM      6  C   UNL A   1      31.096  28.041  27.331  1.00  0.00     0.261 C 
BRANCH   6   7
ATOM      7  O   UNL A   1      31.368  26.652  27.165  1.00  0.00    -0.459 OA
BRANCH   7   8
ATOM      8  C   UNL A   1      30.441  25.919  26.492  1.00  0.00     0.349 C 
ATOM      9  O   UNL A   1      29.303  25.727  26.887  1.00  0.00    -0.245 OA
BRANCH   8  10
ATOM     10  C   UNL A   1      30.985  25.515  25.205  1.00  0.00     0.123 A 
ATOM     11  C   UNL A   1      30.893  26.085  23.936  1.00  0.00     0.033 A 
ATOM     12  C   UNL A   1      31.660  25.326  22.996  1.00  0.00     0.090 A 
ATOM     13  S   UNL A   1      31.826  24.012  25.167  1.00  0.00    -0.130 S 
ATOM     14  C   UNL A   1      32.195  24.179  23.516  1.00  0.00     0.040 A 
ATOM     15  N   UNL A   1      31.893  25.759  21.687  1.00  0.00    -0.216 NA
ATOM     16  C   UNL A   1      33.028  23.197  22.760  1.00  0.00     0.071 C 
ATOM     17  C   UNL A   1      32.675  25.015  20.983  1.00  0.00     0.186 C 
ATOM     18  C   UNL A   1      33.278  23.675  21.323  1.00  0.00     0.111 C 
BRANCH  11  19
ATOM     19  C   UNL A   1      30.123  27.297  23.646  1.00  0.00    -0.014 A 
ATOM     20  C   UNL A   1      28.709  29.639  22.978  1.00  0.00     0.118 A 
ATOM     21  C   UNL A   1      28.040  28.423  23.126  1.00  0.00     0.047 A 
ATOM     22  C   UNL A   1      30.084  29.693  23.195  1.00  0.00     0.047 A 
ATOM     23  C   UNL A   1      28.737  27.261  23.468  1.00  0.00     0.012 A 
ATOM     24  C   UNL A   1      30.786  28.526  23.521  1.00  0.00     0.012 A 
BRANCH  20  25
ATOM     25  O   UNL A   1      27.911  30.704  22.662  1.00  0.00    -0.497 OA
ATOM     26  C   UNL A   1      28.273  31.948  23.253  1.00  0.00     0.278 C 
ENDBRANCH  20  25
ENDBRANCH  11  19
BRANCH  16  27
ATOM     27  C   UNL A   1      34.355  22.891  23.441  1.00  0.00    -0.035 A 
ATOM     28  C   UNL A   1      35.415  23.801  23.381  1.00  0.00     0.008 A 
ATOM     29  C   UNL A   1      34.539  21.675  24.122  1.00  0.00     0.054 A 
ATOM     30  C   UNL A   1      36.625  23.501  23.995  1.00  0.00     0.051 A 
ATOM     31  C   UNL A   1      35.764  21.356  24.735  1.00  0.00     0.161 A 
ATOM     32  C   UNL A   1      36.815  22.288  24.671  1.00  0.00     0.160 A 
BRANCH  31  33
ATOM     33  O   UNL A   1      35.987  20.166  25.376  1.00  0.00    -0.493 OA
ATOM     34  C   UNL A   1      36.514  19.077  24.630  1.00  0.00     0.278 C 
ENDBRANCH  31  33
BRANCH  32  35
ATOM     35  O   UNL A   1      38.085  22.188  25.179  1.00  0.00    -0.493 OA
ATOM     36  C   UNL A   1      38.519  23.149  26.127  1.00  0.00     0.278 C 
ENDBRANCH  32  35
ENDBRANCH  16  27
BRANCH  17  37
ATOM     37  O   UNL A   1      33.014  25.451  19.750  1.00  0.00    -0.496 OA
ATOM     38  H   UNL A   1      33.047  26.371  19.572  1.00  0.00     0.294 HD
ENDBRANCH  17  37
ENDBRANCH   8  10
ENDBRANCH   7   8
ENDBRANCH   6   7
ENDBRANCH   5   6
ENDBRANCH   4   5
ENDBRANCH   3   4
ENDBRANCH   2   3
ENDBRANCH   1   2
BRANCH   1  39
ATOM     39  C   UNL A   1      35.109  33.057  27.668  1.00  0.00     0.188 C 
BRANCH  39  40
ATOM     40  C   UNL A   1      34.767  34.163  28.691  1.00  0.00     0.188 C 
BRANCH  40  41
ATOM     41  O   UNL A   1      34.042  33.769  29.840  1.00  0.00    -0.376 OA
BRANCH  41  42
ATOM     42  C   UNL A   1      34.580  33.646  31.140  1.00  0.00     0.202 C 
BRANCH  42  43
ATOM     43  C   UNL A   1      34.779  32.328  31.874  1.00  0.00     0.261 C 
BRANCH  43  44
ATOM     44  O   UNL A   1      35.701  31.440  31.295  1.00  0.00    -0.460 OA
BRANCH  44  45
ATOM     45  C   UNL A   1      36.963  31.901  31.280  1.00  0.00     0.338 C 
ATOM     46  O   UNL A   1      37.365  32.981  31.665  1.00  0.00    -0.246 OA
BRANCH  45  47
ATOM     47  C   UNL A   1      37.768  30.932  30.540  1.00  0.00     0.060 A 
ATOM     48  C   UNL A   1      37.518  29.595  30.836  1.00  0.00     0.016 A 
ATOM     49  C   UNL A   1      38.964  31.377  29.954  1.00  0.00     0.016 A 
ATOM     50  C   UNL A   1      38.585  28.736  30.799  1.00  0.00     0.010 A 
ATOM     51  C   UNL A   1      40.033  30.523  29.941  1.00  0.00     0.010 A 
ATOM     52  C   UNL A   1      39.846  29.245  30.454  1.00  0.00    -0.014 A 
BRANCH  52  53
ATOM     53  C   UNL A   1      40.960  28.334  30.485  1.00  0.00     0.031 A 
ATOM     54  C   UNL A   1      41.549  28.284  31.836  1.00  0.00     0.074 A 
ATOM     55  C   UNL A   1      41.333  27.593  29.426  1.00  0.00     0.049 A 
ATOM     56  N   UNL A   1      42.671  28.800  32.207  1.00  0.00    -0.248 NA
ATOM     57  C   UNL A   1      40.690  27.837  32.946  1.00  0.00     0.031 C 
ATOM     58  C   UNL A   1      40.635  27.424  28.149  1.00  0.00     0.029 A 
ATOM     59  N   UNL A   1      42.396  26.754  29.306  1.00  0.00    -0.354 N 
ATOM     60  C   UNL A   1      42.773  28.490  33.555  1.00  0.00     0.074 A 
ATOM     61  C   UNL A   1      41.454  28.129  33.999  1.00  0.00     0.031 C 
ATOM     62  C   UNL A   1      41.168  26.371  27.485  1.00  0.00     0.029 A 
ATOM     63  C   UNL A   1      42.321  25.883  28.225  1.00  0.00     0.049 A 
ATOM     64  H   UNL A   1      43.155  26.763  29.931  1.00  0.00     0.167 HD
ATOM     65  C   UNL A   1      43.990  28.195  34.079  1.00  0.00     0.037 A 
ATOM     66  C   UNL A   1      43.120  24.806  28.012  1.00  0.00     0.037 A 
ATOM     67  C   UNL A   1      45.051  28.734  33.261  1.00  0.00     0.049 A 
ATOM     68  C   UNL A   1      44.342  25.001  28.831  1.00  0.00     0.074 A 
ATOM     69  C   UNL A   1      45.399  29.994  32.816  1.00  0.00     0.029 A 
ATOM     70  N   UNL A   1      45.712  27.847  32.450  1.00  0.00    -0.354 N 
ATOM     71  N   UNL A   1      45.241  25.911  28.585  1.00  0.00    -0.248 NA
ATOM     72  C   UNL A   1      44.350  24.468  30.183  1.00  0.00     0.031 C 
ATOM     73  C   UNL A   1      45.915  29.800  31.499  1.00  0.00     0.029 A 
ATOM     74  C   UNL A   1      45.918  28.431  31.230  1.00  0.00     0.049 A 
ATOM     75  H   UNL A   1      45.993  26.939  32.705  1.00  0.00     0.167 HD
ATOM     76  C   UNL A   1      45.607  26.387  29.835  1.00  0.00     0.074 A 
ATOM     77  C   UNL A   1      45.115  25.385  30.778  1.00  0.00     0.031 C 
ATOM     78  C   UNL A   1      46.000  27.686  29.994  1.00  0.00     0.037 A 
BRANCH  65  79
ATOM     79  C   UNL A   1      44.199  27.018  35.004  1.00  0.00     0.057 A 
ATOM     80  C   UNL A   1      43.795  25.746  34.573  1.00  0.00     0.134 A 
ATOM     81  C   UNL A   1      44.479  27.122  36.386  1.00  0.00     0.134 A 
ATOM     82  F   UNL A   1      43.467  25.528  33.290  1.00  0.00    -0.206 F 
ATOM     83  C   UNL A   1      43.616  24.678  35.461  1.00  0.00     0.040 A 
ATOM     84  C   UNL A   1      44.359  26.049  37.269  1.00  0.00     0.040 A 
ATOM     85  F   UNL A   1      44.776  28.280  36.985  1.00  0.00    -0.206 F 
ATOM     86  C   UNL A   1      43.894  24.829  36.814  1.00  0.00     0.006 A 
ENDBRANCH  65  79
BRANCH  66  87
ATOM     87  C   UNL A   1      42.786  23.487  27.424  1.00  0.00     0.057 A 
ATOM     88  C   UNL A   1      42.081  22.525  28.167  1.00  0.00     0.134 A 
ATOM     89  C   UNL A   1      42.876  23.250  26.042  1.00  0.00     0.134 A 
ATOM     90  F   UNL A   1      41.903  22.679  29.487  1.00  0.00    -0.206 F 
ATOM     91  C   UNL A   1      41.472  21.414  27.566  1.00  0.00     0.040 A 
ATOM     92  C   UNL A   1      42.277  22.141  25.431  1.00  0.00     0.040 A 
ATOM     93  F   UNL A   1      43.464  24.132  25.224  1.00  0.00    -0.206 F 
ATOM     94  C   UNL A   1      41.558  21.228  26.191  1.00  0.00     0.006 A 
ENDBRANCH  66  87
BRANCH  78  95
ATOM     95  C   UNL A   1      46.356  28.460  28.753  1.00  0.00     0.057 A 
ATOM     96  C   UNL A   1      47.614  28.438  28.128  1.00  0.00     0.134 A 
ATOM     97  C   UNL A   1      45.339  29.166  28.101  1.00  0.00     0.134 A 
ATOM     98  F   UNL A   1      48.626  27.716  28.628  1.00  0.00    -0.206 F 
ATOM     99  C   UNL A   1      47.853  29.125  26.933  1.00  0.00     0.040 A 
ATOM    100  C   UNL A   1      45.556  29.825  26.890  1.00  0.00     0.040 A 
ATOM    101  F   UNL A   1      44.099  29.190  28.614  1.00  0.00    -0.206 F 
ATOM    102  C   UNL A   1      46.820  29.815  26.307  1.00  0.00     0.006 A 
ENDBRANCH  78  95
ENDBRANCH  52  53
ENDBRANCH  45  47
ENDBRANCH  44  45
ENDBRANCH  43  44
ENDBRANCH  42  43
ENDBRANCH  41  42
ENDBRANCH  40  41
ENDBRANCH  39  40
ENDBRANCH   1  39
TORSDOF 26
ENDMDL
MODEL 3
REMARK VINA RESULT:      -9.7      2.136      5.534
REMARK SMILES COc1ccc(-c2c(C(=O)OCCOCCOCCOCCOC(=O)c3ccc(-c4c5nc(c(-c6c(F)cccc6F)c6ccc([nH]6)c(-c6c(F)cccc6F)c6nc(c(-c7c(F)cccc7F)c7ccc4[nH]7)C=C6)C=C5)cc3)sc3c2N=C(O)C[C@H]3c2ccc(OC)c(OC)c2)cc1
REMARK SMILES IDX 17 1 16 2 15 3 14 4 13 5 12 6 11 7 9 8 10 9 8 10 7 11 82 12
REMARK SMILES IDX 80 13 81 14 83 15 87 16 84 17 86 18 6 19 3 20 4 21 99 22
REMARK SMILES IDX 5 23 98 24 2 25 1 26 88 27 89 28 97 29 90 30 94 31 91 32
REMARK SMILES IDX 95 33 96 34 92 35 93 36 85 37 18 39 19 40 20 41 21 42 22 43
REMARK SMILES IDX 23 44 24 45 25 46 26 47 27 48 79 49 28 50 78 51 29 52 30 53
REMARK SMILES IDX 31 54 72 55 32 56 77 57 71 58 73 59 33 60 76 61 70 62 69 63
REMARK SMILES IDX 34 65 60 66 43 67 59 68 44 69 47 70 58 71 74 72 45 73 46 74
REMARK SMILES IDX 57 76 75 77 48 78 35 79 36 80 41 81 37 82 38 83 40 84 42 85
REMARK SMILES IDX 39 86 61 87 62 88 67 89 63 90 64 91 66 92 68 93 65 94 49 95
REMARK SMILES IDX 50 96 55 97 51 98 52 99 54 100 56 101 53 102
REMARK H PARENT 85 38 73 64 47 75
REMARK Flexibility Score: inf
ROOT
ATOM      1  O   UNL A   1      35.473  30.812  27.617  1.00  0.00    -0.377 OA
ENDROOT
BRANCH   1   2
ATOM      2  C   UNL A   1      34.398  29.939  27.292  1.00  0.00     0.188 C 
BRANCH   2   3
ATOM      3  C   UNL A   1      34.477  28.782  26.264  1.00  0.00     0.188 C 
BRANCH   3   4
ATOM      4  O   UNL A   1      33.263  28.118  26.005  1.00  0.00    -0.376 OA
BRANCH   4   5
ATOM      5  C   UNL A   1      32.008  28.635  26.367  1.00  0.00     0.202 C 
BRANCH   5   6
ATOM      6  C   UNL A   1      31.004  27.816  27.180  1.00  0.00     0.261 C 
BRANCH   6   7
ATOM      7  O   UNL A   1      31.106  26.402  27.050  1.00  0.00    -0.459 OA
BRANCH   7   8
ATOM      8  C   UNL A   1      30.186  25.787  26.258  1.00  0.00     0.349 C 
ATOM      9  O   UNL A   1      29.011  25.651  26.555  1.00  0.00    -0.245 OA
BRANCH   8  10
ATOM     10  C   UNL A   1      30.799  25.438  24.986  1.00  0.00     0.123 A 
ATOM     11  C   UNL A   1      30.766  26.056  23.738  1.00  0.00     0.033 A 
ATOM     12  C   UNL A   1      31.587  25.340  22.809  1.00  0.00     0.090 A 
ATOM     13  S   UNL A   1      31.655  23.944  24.934  1.00  0.00    -0.130 S 
ATOM     14  C   UNL A   1      32.105  24.178  23.311  1.00  0.00     0.040 A 
ATOM     15  N   UNL A   1      31.882  25.826  21.532  1.00  0.00    -0.216 NA
ATOM     16  C   UNL A   1      32.985  23.233  22.562  1.00  0.00     0.071 C 
ATOM     17  C   UNL A   1      32.705  25.116  20.841  1.00  0.00     0.186 C 
ATOM     18  C   UNL A   1      33.304  23.769  21.159  1.00  0.00     0.111 C 
BRANCH  11  19
ATOM     19  C   UNL A   1      30.001  27.273  23.455  1.00  0.00    -0.014 A 
ATOM     20  C   UNL A   1      28.575  29.610  22.792  1.00  0.00     0.118 A 
ATOM     21  C   UNL A   1      27.899  28.450  23.176  1.00  0.00     0.047 A 
ATOM     22  C   UNL A   1      29.968  29.614  22.771  1.00  0.00     0.047 A 
ATOM     23  C   UNL A   1      28.604  27.292  23.516  1.00  0.00     0.012 A 
ATOM     24  C   UNL A   1      30.675  28.448  23.094  1.00  0.00     0.012 A 
BRANCH  20  25
ATOM     25  O   UNL A   1      27.773  30.680  22.505  1.00  0.00    -0.497 OA
ATOM     26  C   UNL A   1      27.536  31.585  23.578  1.00  0.00     0.278 C 
ENDBRANCH  20  25
ENDBRANCH  11  19
BRANCH  16  27
ATOM     27  C   UNL A   1      34.279  22.910  23.297  1.00  0.00    -0.035 A 
ATOM     28  C   UNL A   1      35.519  23.143  22.695  1.00  0.00     0.008 A 
ATOM     29  C   UNL A   1      34.242  22.352  24.587  1.00  0.00     0.054 A 
ATOM     30  C   UNL A   1      36.691  22.829  23.373  1.00  0.00     0.051 A 
ATOM     31  C   UNL A   1      35.421  22.018  25.275  1.00  0.00     0.161 A 
ATOM     32  C   UNL A   1      36.660  22.268  24.657  1.00  0.00     0.160 A 
BRANCH  31  33
ATOM     33  O   UNL A   1      35.420  21.442  26.518  1.00  0.00    -0.493 OA
ATOM     34  C   UNL A   1      34.265  21.585  27.334  1.00  0.00     0.278 C 
ENDBRANCH  31  33
BRANCH  32  35
ATOM     35  O   UNL A   1      37.923  22.018  25.128  1.00  0.00    -0.493 OA
ATOM     36  C   UNL A   1      38.405  20.685  25.114  1.00  0.00     0.278 C 
ENDBRANCH  32  35
ENDBRANCH  16  27
BRANCH  17  37
ATOM     37  O   UNL A   1      33.103  25.602  19.644  1.00  0.00    -0.496 OA
ATOM     38  H   UNL A   1      32.476  25.725  18.958  1.00  0.00     0.294 HD
ENDBRANCH  17  37
ENDBRANCH   8  10
ENDBRANCH   7   8
ENDBRANCH   6   7
ENDBRANCH   5   6
ENDBRANCH   4   5
ENDBRANCH   3   4
ENDBRANCH   2   3
ENDBRANCH   1   2
BRANCH   1  39
ATOM     39  C   UNL A   1      35.237  32.155  27.997  1.00  0.00     0.188 C 
BRANCH  39  40
ATOM     40  C   UNL A   1      35.415  32.554  29.480  1.00  0.00     0.188 C 
BRANCH  40  41
ATOM     41  O   UNL A   1      35.534  31.499  30.415  1.00  0.00    -0.376 OA
BRANCH  41  42
ATOM     42  C   UNL A   1      35.480  31.646  31.818  1.00  0.00     0.202 C 
BRANCH  42  43
ATOM     43  C   UNL A   1      34.952  32.876  32.541  1.00  0.00     0.261 C 
BRANCH  43  44
ATOM     44  O   UNL A   1      35.799  33.419  33.521  1.00  0.00    -0.460 OA
BRANCH  44  45
ATOM     45  C   UNL A   1      36.122  34.706  33.308  1.00  0.00     0.338 C 
ATOM     46  O   UNL A   1      35.389  35.674  33.357  1.00  0.00    -0.246 OA
BRANCH  45  47
ATOM     47  C   UNL A   1      37.497  34.731  32.818  1.00  0.00     0.060 A 
ATOM     48  C   UNL A   1      37.643  34.929  31.448  1.00  0.00     0.016 A 
ATOM     49  C   UNL A   1      38.494  34.149  33.617  1.00  0.00     0.016 A 
ATOM     50  C   UNL A   1      38.683  34.286  30.829  1.00  0.00     0.010 A 
ATOM     51  C   UNL A   1      39.518  33.487  32.995  1.00  0.00     0.010 A 
ATOM     52  C   UNL A   1      39.537  33.490  31.605  1.00  0.00    -0.014 A 
BRANCH  52  53
ATOM     53  C   UNL A   1      40.583  32.775  30.919  1.00  0.00     0.031 A 
ATOM     54  C   UNL A   1      40.098  31.458  30.470  1.00  0.00     0.074 A 
ATOM     55  C   UNL A   1      41.796  33.303  30.677  1.00  0.00     0.049 A 
ATOM     56  N   UNL A   1      40.404  30.312  30.975  1.00  0.00    -0.248 NA
ATOM     57  C   UNL A   1      38.965  31.424  29.529  1.00  0.00     0.031 C 
ATOM     58  C   UNL A   1      42.240  34.684  30.882  1.00  0.00     0.029 A 
ATOM     59  N   UNL A   1      42.881  32.716  30.105  1.00  0.00    -0.354 N 
ATOM     60  C   UNL A   1      39.696  29.391  30.215  1.00  0.00     0.074 A 
ATOM     61  C   UNL A   1      38.668  30.124  29.528  1.00  0.00     0.031 C 
ATOM     62  C   UNL A   1      43.412  34.877  30.233  1.00  0.00     0.029 A 
ATOM     63  C   UNL A   1      43.862  33.608  29.685  1.00  0.00     0.049 A 
ATOM     64  H   UNL A   1      42.965  31.742  29.998  1.00  0.00     0.167 HD
ATOM     65  C   UNL A   1      40.259  28.189  29.932  1.00  0.00     0.037 A 
ATOM     66  C   UNL A   1      44.920  33.311  28.889  1.00  0.00     0.037 A 
ATOM     67  C   UNL A   1      41.299  27.868  30.882  1.00  0.00     0.049 A 
ATOM     68  C   UNL A   1      45.115  31.841  28.951  1.00  0.00     0.074 A 
ATOM     69  C   UNL A   1      41.361  27.725  32.254  1.00  0.00     0.029 A 
ATOM     70  N   UNL A   1      42.592  28.040  30.457  1.00  0.00    -0.354 N 
ATOM     71  N   UNL A   1      45.535  31.209  30.010  1.00  0.00    -0.248 NA
ATOM     72  C   UNL A   1      44.423  31.020  27.970  1.00  0.00     0.031 C 
ATOM     73  C   UNL A   1      42.639  28.240  32.629  1.00  0.00     0.029 A 
ATOM     74  C   UNL A   1      43.318  28.608  31.467  1.00  0.00     0.049 A 
ATOM     75  H   UNL A   1      42.941  27.793  29.570  1.00  0.00     0.167 HD
ATOM     76  C   UNL A   1      44.779  30.048  30.048  1.00  0.00     0.074 A 
ATOM     77  C   UNL A   1      44.199  29.932  28.711  1.00  0.00     0.031 C 
ATOM     78  C   UNL A   1      44.459  29.469  31.243  1.00  0.00     0.037 A 
BRANCH  65  79
ATOM     79  C   UNL A   1      40.217  27.592  28.544  1.00  0.00     0.057 A 
ATOM     80  C   UNL A   1      39.755  26.276  28.393  1.00  0.00     0.134 A 
ATOM     81  C   UNL A   1      40.889  28.124  27.421  1.00  0.00     0.134 A 
ATOM     82  F   UNL A   1      39.132  25.648  29.402  1.00  0.00    -0.206 F 
ATOM     83  C   UNL A   1      40.005  25.525  27.239  1.00  0.00     0.040 A 
ATOM     84  C   UNL A   1      41.093  27.403  26.244  1.00  0.00     0.040 A 
ATOM     85  F   UNL A   1      41.483  29.323  27.426  1.00  0.00    -0.206 F 
ATOM     86  C   UNL A   1      40.679  26.086  26.161  1.00  0.00     0.006 A 
ENDBRANCH  65  79
BRANCH  66  87
ATOM     87  C   UNL A   1      45.570  34.133  27.840  1.00  0.00     0.057 A 
ATOM     88  C   UNL A   1      46.954  34.375  27.869  1.00  0.00     0.134 A 
ATOM     89  C   UNL A   1      44.918  34.442  26.634  1.00  0.00     0.134 A 
ATOM     90  F   UNL A   1      47.675  34.075  28.959  1.00  0.00    -0.206 F 
ATOM     91  C   UNL A   1      47.652  34.862  26.755  1.00  0.00     0.040 A 
ATOM     92  C   UNL A   1      45.603  34.934  25.516  1.00  0.00     0.040 A 
ATOM     93  F   UNL A   1      43.613  34.190  26.466  1.00  0.00    -0.206 F 
ATOM     94  C   UNL A   1      46.977  35.129  25.569  1.00  0.00     0.006 A 
ENDBRANCH  66  87
BRANCH  78  95
ATOM     95  C   UNL A   1      45.227  29.914  32.458  1.00  0.00     0.057 A 
ATOM     96  C   UNL A   1      46.479  29.408  32.843  1.00  0.00     0.134 A 
ATOM     97  C   UNL A   1      44.724  30.987  33.201  1.00  0.00     0.134 A 
ATOM     98  F   UNL A   1      47.085  28.441  32.141  1.00  0.00    -0.206 F 
ATOM     99  C   UNL A   1      47.173  29.921  33.945  1.00  0.00     0.040 A 
ATOM    100  C   UNL A   1      45.423  31.532  34.280  1.00  0.00     0.040 A 
ATOM    101  F   UNL A   1      43.556  31.554  32.861  1.00  0.00    -0.206 F 
ATOM    102  C   UNL A   1      46.647  30.991  34.663  1.00  0.00     0.006 A 
ENDBRANCH  78  95
ENDBRANCH  52  53
ENDBRANCH  45  47
ENDBRANCH  44  45
ENDBRANCH  43  44
ENDBRANCH  42  43
ENDBRANCH  41  42
ENDBRANCH  40  41
ENDBRANCH  39  40
ENDBRANCH   1  39
TORSDOF 26
ENDMDL
