MODEL 1
REMARK VINA RESULT:      -9.1      0.000      0.000
REMARK SMILES NS(=O)(=O)c1ccc(-n2nc(C(F)(F)F)cc2-c2ccc(CC(=O)OCCOCCOCCOCCOC(=O)c3ccc(-c4c5nc(c(-c6c(F)cccc6F)c6ccc([nH]6)c(-c6c(F)cccc6F)c6nc(c(-c7c(F)cccc7F)c7ccc4[nH]7)C=C6)C=C5)cc3)cc2)cc1
REMARK SMILES IDX 29 1 28 2 27 3 26 4 25 5 23 6 24 7 22 8 21 9 18 10 19 11
REMARK SMILES IDX 95 12 20 13 94 14 17 15 9 16 10 17 11 18 16 19 8 20 5 21
REMARK SMILES IDX 6 22 97 23 7 24 96 25 2 26 3 27 4 28 1 29 12 32 13 33 14 34
REMARK SMILES IDX 15 35 30 36 31 37 32 38 33 39 34 40 35 41 36 42 37 43 38 44
REMARK SMILES IDX 39 45 40 46 41 47 93 48 42 49 92 50 43 51 44 52 45 53 86 54
REMARK SMILES IDX 46 55 91 56 85 57 87 58 47 59 90 60 84 61 83 62 48 64 74 65
REMARK SMILES IDX 57 66 73 67 58 68 61 69 72 70 88 71 59 72 60 73 71 75 89 76
REMARK SMILES IDX 62 77 49 78 50 79 55 80 51 81 52 82 54 83 56 84 53 85 75 86
REMARK SMILES IDX 76 87 81 88 77 89 78 90 80 91 82 92 79 93 63 94 64 95 69 96
REMARK SMILES IDX 65 97 66 98 68 99 70 100 67 101
REMARK H PARENT 1 30 1 31 87 63 61 74
REMARK Flexibility Score: inf
ROOT
ATOM      1  C   UNL A   1      42.258  31.096  36.604  1.00  0.00     0.188 C 
ENDROOT
BRANCH   1   2
ATOM      2  O   UNL A   1      41.906  29.745  36.783  1.00  0.00    -0.376 OA
BRANCH   2   3
ATOM      3  C   UNL A   1      41.380  28.983  35.714  1.00  0.00     0.202 C 
BRANCH   3   4
ATOM      4  C   UNL A   1      41.959  27.648  35.186  1.00  0.00     0.261 C 
BRANCH   4   5
ATOM      5  O   UNL A   1      41.118  26.477  35.119  1.00  0.00    -0.463 OA
BRANCH   5   6
ATOM      6  C   UNL A   1      41.337  25.494  36.015  1.00  0.00     0.310 C 
ATOM      7  O   UNL A   1      41.062  25.614  37.208  1.00  0.00    -0.252 OA
BRANCH   6   8
ATOM      8  C   UNL A   1      41.882  24.179  35.461  1.00  0.00     0.158 C 
BRANCH   8   9
ATOM      9  C   UNL A   1      43.365  23.823  35.295  1.00  0.00    -0.037 A 
ATOM     10  C   UNL A   1      46.068  22.778  35.099  1.00  0.00     0.000 A 
ATOM     11  C   UNL A   1      45.163  22.665  34.040  1.00  0.00     0.010 A 
ATOM     12  C   UNL A   1      45.596  23.438  36.252  1.00  0.00     0.010 A 
ATOM     13  C   UNL A   1      43.838  23.161  34.141  1.00  0.00     0.005 A 
ATOM     14  C   UNL A   1      44.280  23.963  36.345  1.00  0.00     0.005 A 
BRANCH  10  15
ATOM     15  C   UNL A   1      47.393  22.092  35.095  1.00  0.00     0.075 A 
ATOM     16  N   UNL A   1      47.832  20.984  35.851  1.00  0.00    -0.233 N 
ATOM     17  N   UNL A   1      49.175  20.805  35.752  1.00  0.00    -0.163 NA
ATOM     18  C   UNL A   1      49.585  21.633  34.782  1.00  0.00     0.167 A 
ATOM     19  C   UNL A   1      48.533  22.504  34.411  1.00  0.00     0.064 A 
BRANCH  16  20
ATOM     20  C   UNL A   1      47.109  19.975  36.548  1.00  0.00     0.065 A 
ATOM     21  C   UNL A   1      45.532  18.096  38.003  1.00  0.00     0.082 A 
ATOM     22  C   UNL A   1      46.586  18.819  38.549  1.00  0.00     0.024 A 
ATOM     23  C   UNL A   1      45.190  18.406  36.700  1.00  0.00     0.024 A 
ATOM     24  C   UNL A   1      47.434  19.685  37.850  1.00  0.00     0.030 A 
ATOM     25  C   UNL A   1      45.945  19.381  35.998  1.00  0.00     0.030 A 
BRANCH  21  26
ATOM     26  S   UNL A   1      44.498  17.119  39.109  1.00  0.00     0.238 S 
ATOM     27  O   UNL A   1      43.173  16.968  38.542  1.00  0.00    -0.207 OA
ATOM     28  O   UNL A   1      44.694  17.543  40.461  1.00  0.00    -0.207 OA
BRANCH  26  29
ATOM     29  N   UNL A   1      45.163  15.584  39.105  1.00  0.00    -0.225 NA
ATOM     30  H   UNL A   1      45.648  15.427  38.222  1.00  0.00     0.137 HD
ATOM     31  H   UNL A   1      44.421  14.892  39.214  1.00  0.00     0.137 HD
ENDBRANCH  26  29
ENDBRANCH  21  26
ENDBRANCH  16  20
BRANCH  18  32
ATOM     32  C   UNL A   1      50.985  21.601  34.224  1.00  0.00     0.435 C 
ATOM     33  F   UNL A   1      51.112  22.229  33.024  1.00  0.00    -0.164 F 
ATOM     34  F   UNL A   1      51.873  22.194  35.070  1.00  0.00    -0.164 F 
ATOM     35  F   UNL A   1      51.428  20.326  34.042  1.00  0.00    -0.164 F 
ENDBRANCH  18  32
ENDBRANCH  10  15
ENDBRANCH   8   9
ENDBRANCH   6   8
ENDBRANCH   5   6
ENDBRANCH   4   5
ENDBRANCH   3   4
ENDBRANCH   2   3
ENDBRANCH   1   2
BRANCH   1  36
ATOM     36  C   UNL A   1      41.147  32.143  36.768  1.00  0.00     0.188 C 
BRANCH  36  37
ATOM     37  O   UNL A   1      40.422  32.583  35.638  1.00  0.00    -0.377 OA
BRANCH  37  38
ATOM     38  C   UNL A   1      39.152  32.046  35.303  1.00  0.00     0.188 C 
BRANCH  38  39
ATOM     39  C   UNL A   1      38.850  31.347  33.968  1.00  0.00     0.188 C 
BRANCH  39  40
ATOM     40  O   UNL A   1      39.743  31.611  32.919  1.00  0.00    -0.376 OA
BRANCH  40  41
ATOM     41  C   UNL A   1      39.337  31.248  31.626  1.00  0.00     0.202 C 
BRANCH  41  42
ATOM     42  C   UNL A   1      38.011  31.719  31.022  1.00  0.00     0.261 C 
BRANCH  42  43
ATOM     43  O   UNL A   1      37.251  31.096  29.956  1.00  0.00    -0.460 OA
BRANCH  43  44
ATOM     44  C   UNL A   1      36.968  29.758  30.091  1.00  0.00     0.338 C 
ATOM     45  O   UNL A   1      36.281  29.303  30.995  1.00  0.00    -0.246 OA
BRANCH  44  46
ATOM     46  C   UNL A   1      37.810  28.857  29.215  1.00  0.00     0.060 A 
ATOM     47  C   UNL A   1      38.467  27.856  29.936  1.00  0.00     0.016 A 
ATOM     48  C   UNL A   1      38.393  29.311  28.029  1.00  0.00     0.016 A 
ATOM     49  C   UNL A   1      39.844  27.699  29.771  1.00  0.00     0.010 A 
ATOM     50  C   UNL A   1      39.781  29.144  27.864  1.00  0.00     0.010 A 
ATOM     51  C   UNL A   1      40.543  28.483  28.840  1.00  0.00    -0.014 A 
BRANCH  51  52
ATOM     52  C   UNL A   1      42.006  28.280  28.710  1.00  0.00     0.031 A 
ATOM     53  C   UNL A   1      42.208  26.995  28.030  1.00  0.00     0.074 A 
ATOM     54  C   UNL A   1      43.103  29.009  29.033  1.00  0.00     0.049 A 
ATOM     55  N   UNL A   1      42.543  25.886  28.593  1.00  0.00    -0.248 NA
ATOM     56  C   UNL A   1      41.688  26.874  26.662  1.00  0.00     0.031 C 
ATOM     57  C   UNL A   1      43.188  30.336  29.588  1.00  0.00     0.029 A 
ATOM     58  N   UNL A   1      44.443  28.708  28.893  1.00  0.00    -0.354 N 
ATOM     59  C   UNL A   1      42.474  24.958  27.572  1.00  0.00     0.074 A 
ATOM     60  C   UNL A   1      41.685  25.551  26.526  1.00  0.00     0.031 C 
ATOM     61  C   UNL A   1      44.432  30.846  29.534  1.00  0.00     0.029 A 
ATOM     62  C   UNL A   1      45.302  29.814  29.039  1.00  0.00     0.049 A 
ATOM     63  H   UNL A   1      44.770  27.798  28.708  1.00  0.00     0.167 HD
ATOM     64  C   UNL A   1      43.348  23.925  27.520  1.00  0.00     0.037 A 
ATOM     65  C   UNL A   1      46.636  29.898  28.787  1.00  0.00     0.037 A 
ATOM     66  C   UNL A   1      43.950  23.670  28.805  1.00  0.00     0.049 A 
ATOM     67  C   UNL A   1      47.166  28.515  28.825  1.00  0.00     0.074 A 
ATOM     68  C   UNL A   1      43.442  23.390  30.062  1.00  0.00     0.029 A 
ATOM     69  N   UNL A   1      45.244  24.080  29.011  1.00  0.00    -0.354 N 
ATOM     70  N   UNL A   1      47.292  27.830  29.927  1.00  0.00    -0.248 NA
ATOM     71  C   UNL A   1      47.038  27.737  27.603  1.00  0.00     0.031 C 
ATOM     72  C   UNL A   1      44.280  24.100  30.970  1.00  0.00     0.029 A 
ATOM     73  C   UNL A   1      45.297  24.703  30.234  1.00  0.00     0.049 A 
ATOM     74  H   UNL A   1      46.000  23.951  28.393  1.00  0.00     0.167 HD
ATOM     75  C   UNL A   1      46.789  26.579  29.606  1.00  0.00     0.074 A 
ATOM     76  C   UNL A   1      46.693  26.567  28.146  1.00  0.00     0.031 C 
ATOM     77  C   UNL A   1      46.211  25.777  30.548  1.00  0.00     0.037 A 
BRANCH  64  78
ATOM     78  C   UNL A   1      43.914  23.448  26.215  1.00  0.00     0.057 A 
ATOM     79  C   UNL A   1      43.807  22.093  25.885  1.00  0.00     0.134 A 
ATOM     80  C   UNL A   1      44.768  24.209  25.383  1.00  0.00     0.134 A 
ATOM     81  F   UNL A   1      43.057  21.264  26.625  1.00  0.00    -0.206 F 
ATOM     82  C   UNL A   1      44.528  21.530  24.828  1.00  0.00     0.040 A 
ATOM     83  C   UNL A   1      45.438  23.673  24.287  1.00  0.00     0.040 A 
ATOM     84  F   UNL A   1      45.086  25.484  25.635  1.00  0.00    -0.206 F 
ATOM     85  C   UNL A   1      45.344  22.320  24.025  1.00  0.00     0.006 A 
ENDBRANCH  64  78
BRANCH  65  86
ATOM     86  C   UNL A   1      47.410  31.046  28.239  1.00  0.00     0.057 A 
ATOM     87  C   UNL A   1      47.132  31.581  26.969  1.00  0.00     0.134 A 
ATOM     88  C   UNL A   1      48.252  31.829  29.051  1.00  0.00     0.134 A 
ATOM     89  F   UNL A   1      46.320  30.937  26.119  1.00  0.00    -0.206 F 
ATOM     90  C   UNL A   1      47.626  32.830  26.553  1.00  0.00     0.040 A 
ATOM     91  C   UNL A   1      48.758  33.071  28.647  1.00  0.00     0.040 A 
ATOM     92  F   UNL A   1      48.550  31.459  30.303  1.00  0.00    -0.206 F 
ATOM     93  C   UNL A   1      48.429  33.586  27.401  1.00  0.00     0.006 A 
ENDBRANCH  65  86
BRANCH  77  94
ATOM     94  C   UNL A   1      46.339  26.155  32.000  1.00  0.00     0.057 A 
ATOM     95  C   UNL A   1      45.312  26.729  32.767  1.00  0.00     0.134 A 
ATOM     96  C   UNL A   1      47.493  25.760  32.689  1.00  0.00     0.134 A 
ATOM     97  F   UNL A   1      44.134  27.056  32.216  1.00  0.00    -0.206 F 
ATOM     98  C   UNL A   1      45.444  26.922  34.148  1.00  0.00     0.040 A 
ATOM     99  C   UNL A   1      47.624  25.917  34.070  1.00  0.00     0.040 A 
ATOM    100  F   UNL A   1      48.498  25.159  32.032  1.00  0.00    -0.206 F 
ATOM    101  C   UNL A   1      46.600  26.508  34.804  1.00  0.00     0.006 A 
ENDBRANCH  77  94
ENDBRANCH  51  52
ENDBRANCH  44  46
ENDBRANCH  43  44
ENDBRANCH  42  43
ENDBRANCH  41  42
ENDBRANCH  40  41
ENDBRANCH  39  40
ENDBRANCH  38  39
ENDBRANCH  37  38
ENDBRANCH  36  37
ENDBRANCH   1  36
TORSDOF 26
ENDMDL
MODEL 2
REMARK VINA RESULT:      -8.1      4.808     11.434
REMARK SMILES NS(=O)(=O)c1ccc(-n2nc(C(F)(F)F)cc2-c2ccc(CC(=O)OCCOCCOCCOCCOC(=O)c3ccc(-c4c5nc(c(-c6c(F)cccc6F)c6ccc([nH]6)c(-c6c(F)cccc6F)c6nc(c(-c7c(F)cccc7F)c7ccc4[nH]7)C=C6)C=C5)cc3)cc2)cc1
REMARK SMILES IDX 29 1 28 2 27 3 26 4 25 5 23 6 24 7 22 8 21 9 18 10 19 11
REMARK SMILES IDX 95 12 20 13 94 14 17 15 9 16 10 17 11 18 16 19 8 20 5 21
REMARK SMILES IDX 6 22 97 23 7 24 96 25 2 26 3 27 4 28 1 29 12 32 13 33 14 34
REMARK SMILES IDX 15 35 30 36 31 37 32 38 33 39 34 40 35 41 36 42 37 43 38 44
REMARK SMILES IDX 39 45 40 46 41 47 93 48 42 49 92 50 43 51 44 52 45 53 86 54
REMARK SMILES IDX 46 55 91 56 85 57 87 58 47 59 90 60 84 61 83 62 48 64 74 65
REMARK SMILES IDX 57 66 73 67 58 68 61 69 72 70 88 71 59 72 60 73 71 75 89 76
REMARK SMILES IDX 62 77 49 78 50 79 55 80 51 81 52 82 54 83 56 84 53 85 75 86
REMARK SMILES IDX 76 87 81 88 77 89 78 90 80 91 82 92 79 93 63 94 64 95 69 96
REMARK SMILES IDX 65 97 66 98 68 99 70 100 67 101
REMARK H PARENT 1 30 1 31 87 63 61 74
REMARK Flexibility Score: inf
ROOT
ATOM      1  C   UNL A   1      43.385  32.983  35.664  1.00  0.00     0.188 C 
ENDROOT
BRANCH   1   2
ATOM      2  O   UNL A   1      44.620  33.057  34.993  1.00  0.00    -0.376 OA
BRANCH   2   3
ATOM      3  C   UNL A   1      44.931  34.160  34.165  1.00  0.00     0.202 C 
BRANCH   3   4
ATOM      4  C   UNL A   1      44.636  34.262  32.648  1.00  0.00     0.261 C 
BRANCH   4   5
ATOM      5  O   UNL A   1      43.271  34.332  32.185  1.00  0.00    -0.463 OA
BRANCH   5   6
ATOM      6  C   UNL A   1      42.721  33.210  31.679  1.00  0.00     0.310 C 
ATOM      7  O   UNL A   1      42.810  32.119  32.239  1.00  0.00    -0.252 OA
BRANCH   6   8
ATOM      8  C   UNL A   1      41.909  33.372  30.395  1.00  0.00     0.158 C 
BRANCH   8   9
ATOM      9  C   UNL A   1      40.432  32.995  30.217  1.00  0.00    -0.037 A 
ATOM     10  C   UNL A   1      37.733  32.199  29.497  1.00  0.00     0.000 A 
ATOM     11  C   UNL A   1      38.686  31.261  29.903  1.00  0.00     0.010 A 
ATOM     12  C   UNL A   1      38.155  33.544  29.472  1.00  0.00     0.010 A 
ATOM     13  C   UNL A   1      40.009  31.648  30.240  1.00  0.00     0.005 A 
ATOM     14  C   UNL A   1      39.470  33.938  29.838  1.00  0.00     0.005 A 
BRANCH  10  15
ATOM     15  C   UNL A   1      36.404  31.800  28.947  1.00  0.00     0.075 A 
ATOM     16  N   UNL A   1      35.112  32.207  29.341  1.00  0.00    -0.233 N 
ATOM     17  N   UNL A   1      34.146  31.440  28.772  1.00  0.00    -0.163 NA
ATOM     18  C   UNL A   1      34.767  30.691  27.851  1.00  0.00     0.167 A 
ATOM     19  C   UNL A   1      36.170  30.820  27.986  1.00  0.00     0.064 A 
BRANCH  16  20
ATOM     20  C   UNL A   1      34.667  33.336  30.086  1.00  0.00     0.065 A 
ATOM     21  C   UNL A   1      33.608  35.494  31.619  1.00  0.00     0.082 A 
ATOM     22  C   UNL A   1      33.379  35.317  30.259  1.00  0.00     0.024 A 
ATOM     23  C   UNL A   1      34.312  34.490  32.255  1.00  0.00     0.024 A 
ATOM     24  C   UNL A   1      33.946  34.321  29.456  1.00  0.00     0.030 A 
ATOM     25  C   UNL A   1      34.791  33.391  31.496  1.00  0.00     0.030 A 
BRANCH  21  26
ATOM     26  S   UNL A   1      32.687  36.780  32.482  1.00  0.00     0.238 S 
ATOM     27  O   UNL A   1      31.295  36.394  32.603  1.00  0.00    -0.207 OA
ATOM     28  O   UNL A   1      33.069  38.068  31.992  1.00  0.00    -0.207 OA
BRANCH  26  29
ATOM     29  N   UNL A   1      33.284  36.788  34.044  1.00  0.00    -0.225 NA
ATOM     30  H   UNL A   1      33.437  35.829  34.354  1.00  0.00     0.137 HD
ATOM     31  H   UNL A   1      32.613  37.243  34.663  1.00  0.00     0.137 HD
ENDBRANCH  26  29
ENDBRANCH  21  26
ENDBRANCH  16  20
BRANCH  18  32
ATOM     32  C   UNL A   1      34.020  29.840  26.856  1.00  0.00     0.435 C 
ATOM     33  F   UNL A   1      34.803  28.934  26.211  1.00  0.00    -0.164 F 
ATOM     34  F   UNL A   1      33.020  29.133  27.455  1.00  0.00    -0.164 F 
ATOM     35  F   UNL A   1      33.425  30.595  25.892  1.00  0.00    -0.164 F 
ENDBRANCH  18  32
ENDBRANCH  10  15
ENDBRANCH   8   9
ENDBRANCH   6   8
ENDBRANCH   5   6
ENDBRANCH   4   5
ENDBRANCH   3   4
ENDBRANCH   2   3
ENDBRANCH   1   2
BRANCH   1  36
ATOM     36  C   UNL A   1      43.358  33.403  37.141  1.00  0.00     0.188 C 
BRANCH  36  37
ATOM     37  O   UNL A   1      43.768  34.704  37.511  1.00  0.00    -0.377 OA
BRANCH  37  38
ATOM     38  C   UNL A   1      42.851  35.782  37.607  1.00  0.00     0.188 C 
BRANCH  38  39
ATOM     39  C   UNL A   1      41.359  35.663  37.258  1.00  0.00     0.188 C 
BRANCH  39  40
ATOM     40  O   UNL A   1      41.033  35.794  35.900  1.00  0.00    -0.376 OA
BRANCH  40  41
ATOM     41  C   UNL A   1      39.671  35.771  35.563  1.00  0.00     0.202 C 
BRANCH  41  42
ATOM     42  C   UNL A   1      39.068  34.686  34.667  1.00  0.00     0.261 C 
BRANCH  42  43
ATOM     43  O   UNL A   1      38.861  33.286  34.985  1.00  0.00    -0.460 OA
BRANCH  43  44
ATOM     44  C   UNL A   1      38.543  32.450  33.942  1.00  0.00     0.338 C 
ATOM     45  O   UNL A   1      37.831  32.784  33.005  1.00  0.00    -0.246 OA
BRANCH  44  46
ATOM     46  C   UNL A   1      38.892  30.999  34.185  1.00  0.00     0.060 A 
ATOM     47  C   UNL A   1      40.156  30.830  34.757  1.00  0.00     0.016 A 
ATOM     48  C   UNL A   1      38.382  29.971  33.387  1.00  0.00     0.016 A 
ATOM     49  C   UNL A   1      41.056  29.950  34.155  1.00  0.00     0.010 A 
ATOM     50  C   UNL A   1      39.294  29.080  32.789  1.00  0.00     0.010 A 
ATOM     51  C   UNL A   1      40.671  29.191  33.040  1.00  0.00    -0.014 A 
BRANCH  51  52
ATOM     52  C   UNL A   1      41.669  28.276  32.435  1.00  0.00     0.031 A 
ATOM     53  C   UNL A   1      42.328  27.562  33.536  1.00  0.00     0.074 A 
ATOM     54  C   UNL A   1      42.034  27.965  31.166  1.00  0.00     0.049 A 
ATOM     55  N   UNL A   1      43.497  27.821  34.013  1.00  0.00    -0.248 NA
ATOM     56  C   UNL A   1      41.485  26.699  34.372  1.00  0.00     0.031 C 
ATOM     57  C   UNL A   1      41.475  28.418  29.918  1.00  0.00     0.029 A 
ATOM     58  N   UNL A   1      43.013  27.107  30.708  1.00  0.00    -0.354 N 
ATOM     59  C   UNL A   1      43.607  26.980  35.103  1.00  0.00     0.074 A 
ATOM     60  C   UNL A   1      42.275  26.552  35.433  1.00  0.00     0.031 C 
ATOM     61  C   UNL A   1      41.909  27.705  28.862  1.00  0.00     0.029 A 
ATOM     62  C   UNL A   1      42.908  26.788  29.340  1.00  0.00     0.049 A 
ATOM     63  H   UNL A   1      43.725  26.749  31.287  1.00  0.00     0.167 HD
ATOM     64  C   UNL A   1      44.801  26.431  35.430  1.00  0.00     0.037 A 
ATOM     65  C   UNL A   1      43.588  25.850  28.628  1.00  0.00     0.037 A 
ATOM     66  C   UNL A   1      45.902  27.170  34.865  1.00  0.00     0.049 A 
ATOM     67  C   UNL A   1      44.827  25.555  29.382  1.00  0.00     0.074 A 
ATOM     68  C   UNL A   1      46.306  28.492  34.937  1.00  0.00     0.029 A 
ATOM     69  N   UNL A   1      46.545  26.645  33.771  1.00  0.00    -0.354 N 
ATOM     70  N   UNL A   1      45.825  26.390  29.469  1.00  0.00    -0.248 NA
ATOM     71  C   UNL A   1      44.717  24.582  30.458  1.00  0.00     0.031 C 
ATOM     72  C   UNL A   1      46.772  28.813  33.630  1.00  0.00     0.029 A 
ATOM     73  C   UNL A   1      46.708  27.656  32.856  1.00  0.00     0.049 A 
ATOM     74  H   UNL A   1      46.838  25.711  33.662  1.00  0.00     0.167 HD
ATOM     75  C   UNL A   1      46.172  26.363  30.811  1.00  0.00     0.074 A 
ATOM     76  C   UNL A   1      45.487  25.194  31.362  1.00  0.00     0.031 C 
ATOM     77  C   UNL A   1      46.731  27.447  31.426  1.00  0.00     0.037 A 
BRANCH  64  78
ATOM     78  C   UNL A   1      44.899  25.017  35.922  1.00  0.00     0.057 A 
ATOM     79  C   UNL A   1      45.627  24.753  37.088  1.00  0.00     0.134 A 
ATOM     80  C   UNL A   1      44.518  23.878  35.175  1.00  0.00     0.134 A 
ATOM     81  F   UNL A   1      46.076  25.756  37.857  1.00  0.00    -0.206 F 
ATOM     82  C   UNL A   1      45.982  23.454  37.460  1.00  0.00     0.040 A 
ATOM     83  C   UNL A   1      44.809  22.576  35.572  1.00  0.00     0.040 A 
ATOM     84  F   UNL A   1      43.936  23.955  33.973  1.00  0.00    -0.206 F 
ATOM     85  C   UNL A   1      45.571  22.361  36.704  1.00  0.00     0.006 A 
ENDBRANCH  64  78
BRANCH  65  86
ATOM     86  C   UNL A   1      43.100  24.998  27.507  1.00  0.00     0.057 A 
ATOM     87  C   UNL A   1      43.584  25.156  26.197  1.00  0.00     0.134 A 
ATOM     88  C   UNL A   1      42.356  23.825  27.737  1.00  0.00     0.134 A 
ATOM     89  F   UNL A   1      44.328  26.222  25.868  1.00  0.00    -0.206 F 
ATOM     90  C   UNL A   1      43.377  24.192  25.196  1.00  0.00     0.040 A 
ATOM     91  C   UNL A   1      42.136  22.859  26.747  1.00  0.00     0.040 A 
ATOM     92  F   UNL A   1      41.886  23.527  28.955  1.00  0.00    -0.206 F 
ATOM     93  C   UNL A   1      42.665  23.030  25.475  1.00  0.00     0.006 A 
ENDBRANCH  65  86
BRANCH  77  94
ATOM     94  C   UNL A   1      47.198  28.602  30.580  1.00  0.00     0.057 A 
ATOM     95  C   UNL A   1      46.373  29.647  30.135  1.00  0.00     0.134 A 
ATOM     96  C   UNL A   1      48.573  28.747  30.357  1.00  0.00     0.134 A 
ATOM     97  F   UNL A   1      45.055  29.645  30.381  1.00  0.00    -0.206 F 
ATOM     98  C   UNL A   1      46.896  30.768  29.475  1.00  0.00     0.040 A 
ATOM     99  C   UNL A   1      49.110  29.873  29.731  1.00  0.00     0.040 A 
ATOM    100  F   UNL A   1      49.431  27.811  30.799  1.00  0.00    -0.206 F 
ATOM    101  C   UNL A   1      48.269  30.886  29.280  1.00  0.00     0.006 A 
ENDBRANCH  77  94
ENDBRANCH  51  52
ENDBRANCH  44  46
ENDBRANCH  43  44
ENDBRANCH  42  43
ENDBRANCH  41  42
ENDBRANCH  40  41
ENDBRANCH  39  40
ENDBRANCH  38  39
ENDBRANCH  37  38
ENDBRANCH  36  37
ENDBRANCH   1  36
TORSDOF 26
ENDMDL
MODEL 3
REMARK VINA RESULT:      -8.0      5.925     12.850
REMARK SMILES NS(=O)(=O)c1ccc(-n2nc(C(F)(F)F)cc2-c2ccc(CC(=O)OCCOCCOCCOCCOC(=O)c3ccc(-c4c5nc(c(-c6c(F)cccc6F)c6ccc([nH]6)c(-c6c(F)cccc6F)c6nc(c(-c7c(F)cccc7F)c7ccc4[nH]7)C=C6)C=C5)cc3)cc2)cc1
REMARK SMILES IDX 29 1 28 2 27 3 26 4 25 5 23 6 24 7 22 8 21 9 18 10 19 11
REMARK SMILES IDX 95 12 20 13 94 14 17 15 9 16 10 17 11 18 16 19 8 20 5 21
REMARK SMILES IDX 6 22 97 23 7 24 96 25 2 26 3 27 4 28 1 29 12 32 13 33 14 34
REMARK SMILES IDX 15 35 30 36 31 37 32 38 33 39 34 40 35 41 36 42 37 43 38 44
REMARK SMILES IDX 39 45 40 46 41 47 93 48 42 49 92 50 43 51 44 52 45 53 86 54
REMARK SMILES IDX 46 55 91 56 85 57 87 58 47 59 90 60 84 61 83 62 48 64 74 65
REMARK SMILES IDX 57 66 73 67 58 68 61 69 72 70 88 71 59 72 60 73 71 75 89 76
REMARK SMILES IDX 62 77 49 78 50 79 55 80 51 81 52 82 54 83 56 84 53 85 75 86
REMARK SMILES IDX 76 87 81 88 77 89 78 90 80 91 82 92 79 93 63 94 64 95 69 96
REMARK SMILES IDX 65 97 66 98 68 99 70 100 67 101
REMARK H PARENT 1 30 1 31 87 63 61 74
REMARK Flexibility Score: inf
ROOT
ATOM      1  C   UNL A   1      40.387  30.983  30.606  1.00  0.00     0.188 C 
ENDROOT
BRANCH   1   2
ATOM      2  O   UNL A   1      39.326  31.419  29.790  1.00  0.00    -0.376 OA
BRANCH   2   3
ATOM      3  C   UNL A   1      38.010  31.516  30.299  1.00  0.00     0.202 C 
BRANCH   3   4
ATOM      4  C   UNL A   1      36.806  32.165  29.572  1.00  0.00     0.261 C 
BRANCH   4   5
ATOM      5  O   UNL A   1      35.460  31.824  29.968  1.00  0.00    -0.463 OA
BRANCH   5   6
ATOM      6  C   UNL A   1      34.448  32.525  29.419  1.00  0.00     0.310 C 
ATOM      7  O   UNL A   1      33.950  33.506  29.968  1.00  0.00    -0.252 OA
BRANCH   6   8
ATOM      8  C   UNL A   1      33.990  32.082  28.031  1.00  0.00     0.158 C 
BRANCH   8   9
ATOM      9  C   UNL A   1      33.854  30.629  27.554  1.00  0.00    -0.037 A 
ATOM     10  C   UNL A   1      33.638  28.029  26.279  1.00  0.00     0.000 A 
ATOM     11  C   UNL A   1      34.880  28.582  26.602  1.00  0.00     0.010 A 
ATOM     12  C   UNL A   1      32.506  28.798  26.622  1.00  0.00     0.010 A 
ATOM     13  C   UNL A   1      34.986  29.860  27.210  1.00  0.00     0.005 A 
ATOM     14  C   UNL A   1      32.609  30.063  27.259  1.00  0.00     0.005 A 
BRANCH  10  15
ATOM     15  C   UNL A   1      33.504  26.787  25.462  1.00  0.00     0.075 A 
ATOM     16  N   UNL A   1      32.468  26.396  24.588  1.00  0.00    -0.233 N 
ATOM     17  N   UNL A   1      32.582  25.094  24.220  1.00  0.00    -0.163 NA
ATOM     18  C   UNL A   1      33.783  24.693  24.657  1.00  0.00     0.167 A 
ATOM     19  C   UNL A   1      34.346  25.679  25.502  1.00  0.00     0.064 A 
BRANCH  16  20
ATOM     20  C   UNL A   1      31.452  27.151  23.935  1.00  0.00     0.065 A 
ATOM     21  C   UNL A   1      29.436  28.799  22.774  1.00  0.00     0.082 A 
ATOM     22  C   UNL A   1      29.188  27.818  23.726  1.00  0.00     0.024 A 
ATOM     23  C   UNL A   1      30.763  29.032  22.469  1.00  0.00     0.024 A 
ATOM     24  C   UNL A   1      30.135  26.934  24.257  1.00  0.00     0.030 A 
ATOM     25  C   UNL A   1      31.767  28.245  23.090  1.00  0.00     0.030 A 
BRANCH  21  26
ATOM     26  S   UNL A   1      28.087  29.900  22.308  1.00  0.00     0.238 S 
ATOM     27  O   UNL A   1      26.877  29.522  23.009  1.00  0.00    -0.207 OA
ATOM     28  O   UNL A   1      28.102  30.119  20.896  1.00  0.00    -0.207 OA
BRANCH  26  29
ATOM     29  N   UNL A   1      28.504  31.402  22.917  1.00  0.00    -0.225 NA
ATOM     30  H   UNL A   1      27.658  31.910  23.175  1.00  0.00     0.137 HD
ATOM     31  H   UNL A   1      29.014  31.928  22.207  1.00  0.00     0.137 HD
ENDBRANCH  26  29
ENDBRANCH  21  26
ENDBRANCH  16  20
BRANCH  18  32
ATOM     32  C   UNL A   1      34.383  23.362  24.282  1.00  0.00     0.435 C 
ATOM     33  F   UNL A   1      35.201  22.839  25.236  1.00  0.00    -0.164 F 
ATOM     34  F   UNL A   1      33.418  22.429  24.044  1.00  0.00    -0.164 F 
ATOM     35  F   UNL A   1      35.121  23.443  23.141  1.00  0.00    -0.164 F 
ENDBRANCH  18  32
ENDBRANCH  10  15
ENDBRANCH   8   9
ENDBRANCH   6   8
ENDBRANCH   5   6
ENDBRANCH   4   5
ENDBRANCH   3   4
ENDBRANCH   2   3
ENDBRANCH   1   2
BRANCH   1  36
ATOM     36  C   UNL A   1      40.260  29.592  31.244  1.00  0.00     0.188 C 
BRANCH  36  37
ATOM     37  O   UNL A   1      39.726  28.519  30.496  1.00  0.00    -0.377 OA
BRANCH  37  38
ATOM     38  C   UNL A   1      40.453  27.900  29.446  1.00  0.00     0.188 C 
BRANCH  38  39
ATOM     39  C   UNL A   1      39.787  27.197  28.251  1.00  0.00     0.188 C 
BRANCH  39  40
ATOM     40  O   UNL A   1      40.527  27.179  27.060  1.00  0.00    -0.376 OA
BRANCH  40  41
ATOM     41  C   UNL A   1      41.912  26.979  27.169  1.00  0.00     0.202 C 
BRANCH  41  42
ATOM     42  C   UNL A   1      42.929  28.033  26.723  1.00  0.00     0.261 C 
BRANCH  42  43
ATOM     43  O   UNL A   1      43.815  27.981  25.576  1.00  0.00    -0.460 OA
BRANCH  43  44
ATOM     44  C   UNL A   1      44.533  26.824  25.395  1.00  0.00     0.338 C 
ATOM     45  O   UNL A   1      44.042  25.785  24.977  1.00  0.00    -0.246 OA
BRANCH  44  46
ATOM     46  C   UNL A   1      45.906  26.844  26.029  1.00  0.00     0.060 A 
ATOM     47  C   UNL A   1      46.371  25.569  26.363  1.00  0.00     0.016 A 
ATOM     48  C   UNL A   1      46.360  27.933  26.779  1.00  0.00     0.016 A 
ATOM     49  C   UNL A   1      46.828  25.336  27.661  1.00  0.00     0.010 A 
ATOM     50  C   UNL A   1      46.827  27.691  28.085  1.00  0.00     0.010 A 
ATOM     51  C   UNL A   1      46.889  26.384  28.592  1.00  0.00    -0.014 A 
BRANCH  51  52
ATOM     52  C   UNL A   1      47.376  26.080  29.960  1.00  0.00     0.031 A 
ATOM     53  C   UNL A   1      46.217  26.148  30.858  1.00  0.00     0.074 A 
ATOM     54  C   UNL A   1      48.576  25.739  30.492  1.00  0.00     0.049 A 
ATOM     55  N   UNL A   1      45.928  27.124  31.648  1.00  0.00    -0.248 NA
ATOM     56  C   UNL A   1      45.132  25.187  30.623  1.00  0.00     0.031 C 
ATOM     57  C   UNL A   1      49.830  25.487  29.830  1.00  0.00     0.029 A 
ATOM     58  N   UNL A   1      48.931  25.504  31.806  1.00  0.00    -0.354 N 
ATOM     59  C   UNL A   1      44.697  26.780  32.170  1.00  0.00     0.074 A 
ATOM     60  C   UNL A   1      44.149  25.768  31.308  1.00  0.00     0.031 C 
ATOM     61  C   UNL A   1      50.742  24.917  30.640  1.00  0.00     0.029 A 
ATOM     62  C   UNL A   1      50.177  24.868  31.962  1.00  0.00     0.049 A 
ATOM     63  H   UNL A   1      48.362  25.759  32.567  1.00  0.00     0.167 HD
ATOM     64  C   UNL A   1      44.378  27.096  33.448  1.00  0.00     0.037 A 
ATOM     65  C   UNL A   1      50.732  24.340  33.086  1.00  0.00     0.037 A 
ATOM     66  C   UNL A   1      45.200  28.168  33.953  1.00  0.00     0.049 A 
ATOM     67  C   UNL A   1      50.059  24.985  34.237  1.00  0.00     0.074 A 
ATOM     68  C   UNL A   1      45.460  29.458  33.526  1.00  0.00     0.029 A 
ATOM     69  N   UNL A   1      46.211  27.856  34.829  1.00  0.00    -0.354 N 
ATOM     70  N   UNL A   1      50.258  26.229  34.574  1.00  0.00    -0.248 NA
ATOM     71  C   UNL A   1      48.791  24.408  34.655  1.00  0.00     0.031 C 
ATOM     72  C   UNL A   1      46.846  29.665  33.783  1.00  0.00     0.029 A 
ATOM     73  C   UNL A   1      47.337  28.530  34.425  1.00  0.00     0.049 A 
ATOM     74  H   UNL A   1      46.141  27.256  35.607  1.00  0.00     0.167 HD
ATOM     75  C   UNL A   1      48.985  26.721  34.815  1.00  0.00     0.074 A 
ATOM     76  C   UNL A   1      48.125  25.541  34.896  1.00  0.00     0.031 C 
ATOM     77  C   UNL A   1      48.681  28.039  34.627  1.00  0.00     0.037 A 
BRANCH  64  78
ATOM     78  C   UNL A   1      43.601  26.149  34.314  1.00  0.00     0.057 A 
ATOM     79  C   UNL A   1      44.067  24.840  34.476  1.00  0.00     0.134 A 
ATOM     80  C   UNL A   1      42.294  26.392  34.798  1.00  0.00     0.134 A 
ATOM     81  F   UNL A   1      45.277  24.482  34.021  1.00  0.00    -0.206 F 
ATOM     82  C   UNL A   1      43.275  23.838  35.042  1.00  0.00     0.040 A 
ATOM     83  C   UNL A   1      41.522  25.417  35.425  1.00  0.00     0.040 A 
ATOM     84  F   UNL A   1      41.647  27.547  34.606  1.00  0.00    -0.206 F 
ATOM     85  C   UNL A   1      42.001  24.125  35.521  1.00  0.00     0.006 A 
ENDBRANCH  64  78
BRANCH  65  86
ATOM     86  C   UNL A   1      51.583  23.126  33.222  1.00  0.00     0.057 A 
ATOM     87  C   UNL A   1      51.022  21.844  33.354  1.00  0.00     0.134 A 
ATOM     88  C   UNL A   1      52.964  23.154  32.949  1.00  0.00     0.134 A 
ATOM     89  F   UNL A   1      49.710  21.694  33.589  1.00  0.00    -0.206 F 
ATOM     90  C   UNL A   1      51.776  20.671  33.183  1.00  0.00     0.040 A 
ATOM     91  C   UNL A   1      53.729  21.993  32.783  1.00  0.00     0.040 A 
ATOM     92  F   UNL A   1      53.609  24.310  32.745  1.00  0.00    -0.206 F 
ATOM     93  C   UNL A   1      53.132  20.744  32.880  1.00  0.00     0.006 A 
ENDBRANCH  65  86
BRANCH  77  94
ATOM     94  C   UNL A   1      49.802  29.016  34.388  1.00  0.00     0.057 A 
ATOM     95  C   UNL A   1      50.397  29.254  33.139  1.00  0.00     0.134 A 
ATOM     96  C   UNL A   1      50.171  29.871  35.434  1.00  0.00     0.134 A 
ATOM     97  F   UNL A   1      50.043  28.549  32.054  1.00  0.00    -0.206 F 
ATOM     98  C   UNL A   1      51.335  30.279  32.953  1.00  0.00     0.040 A 
ATOM     99  C   UNL A   1      51.078  30.917  35.254  1.00  0.00     0.040 A 
ATOM    100  F   UNL A   1      49.607  29.737  36.646  1.00  0.00    -0.206 F 
ATOM    101  C   UNL A   1      51.670  31.119  34.011  1.00  0.00     0.006 A 
ENDBRANCH  77  94
ENDBRANCH  51  52
ENDBRANCH  44  46
ENDBRANCH  43  44
ENDBRANCH  42  43
ENDBRANCH  41  42
ENDBRANCH  40  41
ENDBRANCH  39  40
ENDBRANCH  38  39
ENDBRANCH  37  38
ENDBRANCH  36  37
ENDBRANCH   1  36
TORSDOF 26
ENDMDL
