MODEL 1
REMARK VINA RESULT:      -9.0      0.000      0.000
REMARK SMILES Cc1ccc(C)c(N2C(=O)S[C@H](CC(=O)Nc3ccc(C(=O)OCCOCCOCCOCCOC(=O)c4ccc(-c5c6nc(c(-c7c(F)cccc7F)c7ccc([nH]7)c(-c7c(F)cccc7F)c7nc(c(-c8c(F)cccc8F)c8ccc5[nH]8)C=C7)C=C6)cc4)c(O)c3)C2=O)c1
REMARK SMILES IDX 28 1 27 2 26 3 25 4 24 5 23 6 21 7 22 8 20 9 17 10 18 11
REMARK SMILES IDX 94 12 19 13 92 14 16 15 14 16 15 17 13 19 12 20 8 21 9 22
REMARK SMILES IDX 95 23 10 24 11 25 96 26 7 27 1 28 2 29 3 30 97 31 4 32 5 33
REMARK SMILES IDX 6 34 93 35 29 37 30 38 31 39 32 40 33 41 34 42 35 43 36 44
REMARK SMILES IDX 37 45 38 46 39 47 91 48 40 49 90 50 41 51 42 52 43 53 84 54
REMARK SMILES IDX 44 55 89 56 83 57 85 58 45 59 88 60 82 61 81 62 46 64 72 65
REMARK SMILES IDX 55 66 71 67 56 68 59 69 70 70 86 71 57 72 58 73 69 75 87 76
REMARK SMILES IDX 60 77 47 78 48 79 53 80 49 81 50 82 52 83 54 84 51 85 73 86
REMARK SMILES IDX 74 87 79 88 75 89 76 90 78 91 80 92 77 93 61 94 62 95 67 96
REMARK SMILES IDX 63 97 64 98 66 99 68 100 65 101
REMARK H PARENT 16 18 93 36 85 63 59 74
REMARK Flexibility Score: inf
ROOT
ATOM      1  C   UNL A   1      36.987  23.621  25.105  1.00  0.00     0.188 C 
ENDROOT
BRANCH   1   2
ATOM      2  C   UNL A   1      37.230  22.234  25.756  1.00  0.00     0.188 C 
BRANCH   2   3
ATOM      3  O   UNL A   1      38.326  21.527  25.214  1.00  0.00    -0.376 OA
BRANCH   3   4
ATOM      4  C   UNL A   1      39.497  21.375  25.986  1.00  0.00     0.202 C 
BRANCH   4   5
ATOM      5  C   UNL A   1      40.033  19.953  26.201  1.00  0.00     0.261 C 
BRANCH   5   6
ATOM      6  O   UNL A   1      41.170  19.601  25.376  1.00  0.00    -0.460 OA
BRANCH   6   7
ATOM      7  C   UNL A   1      42.332  19.541  26.066  1.00  0.00     0.341 C 
ATOM      8  O   UNL A   1      42.780  18.529  26.574  1.00  0.00    -0.246 OA
BRANCH   7   9
ATOM      9  C   UNL A   1      43.136  20.783  25.980  1.00  0.00     0.101 A 
ATOM     10  C   UNL A   1      45.170  22.754  25.713  1.00  0.00     0.044 A 
ATOM     11  C   UNL A   1      44.703  22.076  24.627  1.00  0.00     0.027 A 
ATOM     12  C   UNL A   1      44.461  22.572  26.928  1.00  0.00     0.073 A 
ATOM     13  C   UNL A   1      43.802  21.045  24.788  1.00  0.00     0.022 A 
ATOM     14  C   UNL A   1      43.402  21.633  27.037  1.00  0.00     0.132 A 
BRANCH  10  15
ATOM     15  N   UNL A   1      46.406  23.442  25.642  1.00  0.00    -0.326 N 
ATOM     16  C   UNL A   1      46.805  24.702  26.063  1.00  0.00     0.226 C 
ATOM     17  O   UNL A   1      47.706  25.241  25.404  1.00  0.00    -0.275 OA
ATOM     18  H   UNL A   1      47.123  22.924  25.211  1.00  0.00     0.169 HD
BRANCH  16  19
ATOM     19  C   UNL A   1      46.293  25.447  27.337  1.00  0.00     0.125 C 
BRANCH  19  20
ATOM     20  C   UNL A   1      45.315  26.620  27.085  1.00  0.00     0.156 C 
ATOM     21  N   UNL A   1      42.859  26.560  26.964  1.00  0.00    -0.240 N 
ATOM     22  C   UNL A   1      43.179  26.119  25.718  1.00  0.00     0.293 C 
ATOM     23  C   UNL A   1      43.939  26.697  27.827  1.00  0.00     0.248 C 
ATOM     24  O   UNL A   1      42.491  25.448  24.992  1.00  0.00    -0.261 OA
ATOM     25  S   UNL A   1      44.829  26.537  25.384  1.00  0.00    -0.050 SA
ATOM     26  O   UNL A   1      43.860  26.878  29.039  1.00  0.00    -0.273 OA
BRANCH  21  27
ATOM     27  C   UNL A   1      41.469  26.755  27.238  1.00  0.00     0.056 A 
ATOM     28  C   UNL A   1      39.024  29.711  27.601  1.00  0.00     0.044 C 
ATOM     29  C   UNL A   1      39.643  28.346  27.685  1.00  0.00    -0.049 A 
ATOM     30  C   UNL A   1      38.950  27.365  28.394  1.00  0.00     0.004 A 
ATOM     31  C   UNL A   1      40.900  28.041  27.117  1.00  0.00     0.030 A 
ATOM     32  C   UNL A   1      39.507  26.105  28.555  1.00  0.00     0.006 A 
ATOM     33  C   UNL A   1      40.771  25.797  28.013  1.00  0.00    -0.027 A 
ATOM     34  C   UNL A   1      41.327  24.451  28.375  1.00  0.00     0.046 C 
ENDBRANCH  21  27
ENDBRANCH  19  20
ENDBRANCH  16  19
ENDBRANCH  10  15
BRANCH  14  35
ATOM     35  O   UNL A   1      42.680  21.576  28.195  1.00  0.00    -0.507 OA
ATOM     36  H   UNL A   1      41.762  21.391  28.167  1.00  0.00     0.293 HD
ENDBRANCH  14  35
ENDBRANCH   7   9
ENDBRANCH   6   7
ENDBRANCH   5   6
ENDBRANCH   4   5
ENDBRANCH   3   4
ENDBRANCH   2   3
ENDBRANCH   1   2
BRANCH   1  37
ATOM     37  O   UNL A   1      35.692  23.972  24.639  1.00  0.00    -0.377 OA
BRANCH  37  38
ATOM     38  C   UNL A   1      34.725  24.295  25.627  1.00  0.00     0.188 C 
BRANCH  38  39
ATOM     39  C   UNL A   1      33.581  25.225  25.196  1.00  0.00     0.188 C 
BRANCH  39  40
ATOM     40  O   UNL A   1      33.410  26.351  26.049  1.00  0.00    -0.376 OA
BRANCH  40  41
ATOM     41  C   UNL A   1      33.559  27.624  25.436  1.00  0.00     0.202 C 
BRANCH  41  42
ATOM     42  C   UNL A   1      33.419  28.726  26.480  1.00  0.00     0.261 C 
BRANCH  42  43
ATOM     43  O   UNL A   1      34.653  29.453  26.703  1.00  0.00    -0.460 OA
BRANCH  43  44
ATOM     44  C   UNL A   1      34.588  30.554  27.512  1.00  0.00     0.338 C 
ATOM     45  O   UNL A   1      33.801  31.473  27.356  1.00  0.00    -0.246 OA
BRANCH  44  46
ATOM     46  C   UNL A   1      35.640  30.475  28.582  1.00  0.00     0.060 A 
ATOM     47  C   UNL A   1      35.842  29.330  29.346  1.00  0.00     0.016 A 
ATOM     48  C   UNL A   1      36.346  31.625  28.939  1.00  0.00     0.016 A 
ATOM     49  C   UNL A   1      36.652  29.400  30.507  1.00  0.00     0.010 A 
ATOM     50  C   UNL A   1      37.062  31.720  30.135  1.00  0.00     0.010 A 
ATOM     51  C   UNL A   1      37.189  30.620  30.983  1.00  0.00    -0.014 A 
BRANCH  51  52
ATOM     52  C   UNL A   1      38.306  30.671  31.978  1.00  0.00     0.031 A 
ATOM     53  C   UNL A   1      38.174  31.958  32.634  1.00  0.00     0.074 A 
ATOM     54  C   UNL A   1      39.414  29.927  32.280  1.00  0.00     0.049 A 
ATOM     55  N   UNL A   1      38.908  32.957  32.265  1.00  0.00    -0.248 NA
ATOM     56  C   UNL A   1      37.000  32.323  33.433  1.00  0.00     0.031 C 
ATOM     57  C   UNL A   1      40.049  29.023  31.365  1.00  0.00     0.029 A 
ATOM     58  N   UNL A   1      40.278  29.815  33.398  1.00  0.00    -0.354 N 
ATOM     59  C   UNL A   1      38.615  33.907  33.204  1.00  0.00     0.074 A 
ATOM     60  C   UNL A   1      37.278  33.609  33.670  1.00  0.00     0.031 C 
ATOM     61  C   UNL A   1      40.975  28.257  31.972  1.00  0.00     0.029 A 
ATOM     62  C   UNL A   1      41.027  28.589  33.399  1.00  0.00     0.049 A 
ATOM     63  H   UNL A   1      40.356  30.503  34.098  1.00  0.00     0.167 HD
ATOM     64  C   UNL A   1      39.699  34.341  33.893  1.00  0.00     0.037 A 
ATOM     65  C   UNL A   1      42.109  28.131  34.114  1.00  0.00     0.037 A 
ATOM     66  C   UNL A   1      40.922  34.261  33.111  1.00  0.00     0.049 A 
ATOM     67  C   UNL A   1      43.066  29.220  34.284  1.00  0.00     0.074 A 
ATOM     68  C   UNL A   1      41.371  34.812  31.924  1.00  0.00     0.029 A 
ATOM     69  N   UNL A   1      41.709  33.162  33.341  1.00  0.00    -0.354 N 
ATOM     70  N   UNL A   1      43.804  29.675  33.313  1.00  0.00    -0.248 NA
ATOM     71  C   UNL A   1      42.861  30.115  35.414  1.00  0.00     0.031 C 
ATOM     72  C   UNL A   1      42.452  34.007  31.459  1.00  0.00     0.029 A 
ATOM     73  C   UNL A   1      42.689  33.006  32.389  1.00  0.00     0.049 A 
ATOM     74  H   UNL A   1      41.585  32.553  34.104  1.00  0.00     0.167 HD
ATOM     75  C   UNL A   1      43.683  31.038  33.468  1.00  0.00     0.074 A 
ATOM     76  C   UNL A   1      43.246  31.254  34.840  1.00  0.00     0.031 C 
ATOM     77  C   UNL A   1      43.546  31.843  32.383  1.00  0.00     0.037 A 
BRANCH  64  78
ATOM     78  C   UNL A   1      39.685  34.272  35.390  1.00  0.00     0.057 A 
ATOM     79  C   UNL A   1      39.902  35.434  36.123  1.00  0.00     0.134 A 
ATOM     80  C   UNL A   1      39.672  33.070  36.137  1.00  0.00     0.134 A 
ATOM     81  F   UNL A   1      40.039  36.614  35.500  1.00  0.00    -0.206 F 
ATOM     82  C   UNL A   1      40.039  35.409  37.513  1.00  0.00     0.040 A 
ATOM     83  C   UNL A   1      39.727  33.037  37.526  1.00  0.00     0.040 A 
ATOM     84  F   UNL A   1      39.717  31.864  35.560  1.00  0.00    -0.206 F 
ATOM     85  C   UNL A   1      39.924  34.214  38.221  1.00  0.00     0.006 A 
ENDBRANCH  64  78
BRANCH  65  86
ATOM     86  C   UNL A   1      42.347  26.768  34.690  1.00  0.00     0.057 A 
ATOM     87  C   UNL A   1      43.165  25.765  34.147  1.00  0.00     0.134 A 
ATOM     88  C   UNL A   1      41.840  26.476  35.965  1.00  0.00     0.134 A 
ATOM     89  F   UNL A   1      43.817  25.966  32.993  1.00  0.00    -0.206 F 
ATOM     90  C   UNL A   1      43.368  24.522  34.789  1.00  0.00     0.040 A 
ATOM     91  C   UNL A   1      41.989  25.233  36.601  1.00  0.00     0.040 A 
ATOM     92  F   UNL A   1      41.193  27.433  36.640  1.00  0.00    -0.206 F 
ATOM     93  C   UNL A   1      42.751  24.240  36.006  1.00  0.00     0.006 A 
ENDBRANCH  65  86
BRANCH  77  94
ATOM     94  C   UNL A   1      44.276  31.450  31.139  1.00  0.00     0.057 A 
ATOM     95  C   UNL A   1      45.655  31.543  30.948  1.00  0.00     0.134 A 
ATOM     96  C   UNL A   1      43.531  30.902  30.091  1.00  0.00     0.134 A 
ATOM     97  F   UNL A   1      46.426  32.115  31.876  1.00  0.00    -0.206 F 
ATOM     98  C   UNL A   1      46.279  31.057  29.792  1.00  0.00     0.040 A 
ATOM     99  C   UNL A   1      44.133  30.427  28.923  1.00  0.00     0.040 A 
ATOM    100  F   UNL A   1      42.197  30.807  30.194  1.00  0.00    -0.206 F 
ATOM    101  C   UNL A   1      45.516  30.490  28.775  1.00  0.00     0.006 A 
ENDBRANCH  77  94
ENDBRANCH  51  52
ENDBRANCH  44  46
ENDBRANCH  43  44
ENDBRANCH  42  43
ENDBRANCH  41  42
ENDBRANCH  40  41
ENDBRANCH  39  40
ENDBRANCH  38  39
ENDBRANCH  37  38
ENDBRANCH   1  37
TORSDOF 25
ENDMDL
MODEL 2
REMARK VINA RESULT:      -8.9      2.332      4.626
REMARK SMILES Cc1ccc(C)c(N2C(=O)S[C@H](CC(=O)Nc3ccc(C(=O)OCCOCCOCCOCCOC(=O)c4ccc(-c5c6nc(c(-c7c(F)cccc7F)c7ccc([nH]7)c(-c7c(F)cccc7F)c7nc(c(-c8c(F)cccc8F)c8ccc5[nH]8)C=C7)C=C6)cc4)c(O)c3)C2=O)c1
REMARK SMILES IDX 28 1 27 2 26 3 25 4 24 5 23 6 21 7 22 8 20 9 17 10 18 11
REMARK SMILES IDX 94 12 19 13 92 14 16 15 14 16 15 17 13 19 12 20 8 21 9 22
REMARK SMILES IDX 95 23 10 24 11 25 96 26 7 27 1 28 2 29 3 30 97 31 4 32 5 33
REMARK SMILES IDX 6 34 93 35 29 37 30 38 31 39 32 40 33 41 34 42 35 43 36 44
REMARK SMILES IDX 37 45 38 46 39 47 91 48 40 49 90 50 41 51 42 52 43 53 84 54
REMARK SMILES IDX 44 55 89 56 83 57 85 58 45 59 88 60 82 61 81 62 46 64 72 65
REMARK SMILES IDX 55 66 71 67 56 68 59 69 70 70 86 71 57 72 58 73 69 75 87 76
REMARK SMILES IDX 60 77 47 78 48 79 53 80 49 81 50 82 52 83 54 84 51 85 73 86
REMARK SMILES IDX 74 87 79 88 75 89 76 90 78 91 80 92 77 93 61 94 62 95 67 96
REMARK SMILES IDX 63 97 64 98 66 99 68 100 65 101
REMARK H PARENT 16 18 93 36 85 63 59 74
REMARK Flexibility Score: inf
ROOT
ATOM      1  C   UNL A   1      30.155  28.264  23.009  1.00  0.00     0.188 C 
ENDROOT
BRANCH   1   2
ATOM      2  C   UNL A   1      29.933  26.879  23.671  1.00  0.00     0.188 C 
BRANCH   2   3
ATOM      3  O   UNL A   1      30.997  25.969  23.476  1.00  0.00    -0.376 OA
BRANCH   3   4
ATOM      4  C   UNL A   1      32.078  26.340  22.648  1.00  0.00     0.202 C 
BRANCH   4   5
ATOM      5  C   UNL A   1      32.740  25.244  21.804  1.00  0.00     0.261 C 
BRANCH   5   6
ATOM      6  O   UNL A   1      34.025  24.791  22.297  1.00  0.00    -0.460 OA
BRANCH   6   7
ATOM      7  C   UNL A   1      33.942  23.669  23.049  1.00  0.00     0.341 C 
ATOM      8  O   UNL A   1      33.020  22.876  23.003  1.00  0.00    -0.246 OA
BRANCH   7   9
ATOM      9  C   UNL A   1      35.184  23.368  23.800  1.00  0.00     0.101 A 
ATOM     10  C   UNL A   1      37.403  22.173  25.119  1.00  0.00     0.044 A 
ATOM     11  C   UNL A   1      37.327  22.201  23.759  1.00  0.00     0.027 A 
ATOM     12  C   UNL A   1      36.436  22.934  25.824  1.00  0.00     0.073 A 
ATOM     13  C   UNL A   1      36.193  22.680  23.137  1.00  0.00     0.022 A 
ATOM     14  C   UNL A   1      35.367  23.584  25.152  1.00  0.00     0.132 A 
BRANCH  10  15
ATOM     15  N   UNL A   1      38.290  21.276  25.762  1.00  0.00    -0.326 N 
ATOM     16  C   UNL A   1      39.654  21.318  26.010  1.00  0.00     0.226 C 
ATOM     17  O   UNL A   1      40.237  20.226  26.062  1.00  0.00    -0.275 OA
ATOM     18  H   UNL A   1      37.852  20.463  26.102  1.00  0.00     0.169 HD
BRANCH  16  19
ATOM     19  C   UNL A   1      40.489  22.602  26.323  1.00  0.00     0.125 C 
BRANCH  19  20
ATOM     20  C   UNL A   1      40.208  23.270  27.690  1.00  0.00     0.156 C 
ATOM     21  N   UNL A   1      40.340  25.654  28.280  1.00  0.00    -0.240 N 
ATOM     22  C   UNL A   1      41.654  25.311  28.342  1.00  0.00     0.293 C 
ATOM     23  C   UNL A   1      39.503  24.665  27.777  1.00  0.00     0.248 C 
ATOM     24  O   UNL A   1      42.599  26.049  28.226  1.00  0.00    -0.261 OA
ATOM     25  S   UNL A   1      41.776  23.584  28.450  1.00  0.00    -0.050 SA
ATOM     26  O   UNL A   1      38.333  24.828  27.444  1.00  0.00    -0.273 OA
BRANCH  21  27
ATOM     27  C   UNL A   1      40.008  26.989  28.669  1.00  0.00     0.056 A 
ATOM     28  C   UNL A   1      37.770  28.719  31.287  1.00  0.00     0.044 C 
ATOM     29  C   UNL A   1      38.615  28.458  30.074  1.00  0.00    -0.049 A 
ATOM     30  C   UNL A   1      38.741  29.485  29.139  1.00  0.00     0.004 A 
ATOM     31  C   UNL A   1      39.242  27.214  29.834  1.00  0.00     0.030 A 
ATOM     32  C   UNL A   1      39.460  29.274  27.973  1.00  0.00     0.006 A 
ATOM     33  C   UNL A   1      40.069  28.030  27.711  1.00  0.00    -0.027 A 
ATOM     34  C   UNL A   1      40.694  27.881  26.355  1.00  0.00     0.046 C 
ENDBRANCH  21  27
ENDBRANCH  19  20
ENDBRANCH  16  19
ENDBRANCH  10  15
BRANCH  14  35
ATOM     35  O   UNL A   1      34.528  24.393  25.864  1.00  0.00    -0.507 OA
ATOM     36  H   UNL A   1      34.748  24.640  26.741  1.00  0.00     0.293 HD
ENDBRANCH  14  35
ENDBRANCH   7   9
ENDBRANCH   6   7
ENDBRANCH   5   6
ENDBRANCH   4   5
ENDBRANCH   3   4
ENDBRANCH   2   3
ENDBRANCH   1   2
BRANCH   1  37
ATOM     37  O   UNL A   1      30.762  29.316  23.747  1.00  0.00    -0.377 OA
BRANCH  37  38
ATOM     38  C   UNL A   1      31.332  28.969  25.000  1.00  0.00     0.188 C 
BRANCH  38  39
ATOM     39  C   UNL A   1      32.655  29.656  25.370  1.00  0.00     0.188 C 
BRANCH  39  40
ATOM     40  O   UNL A   1      32.617  30.328  26.623  1.00  0.00    -0.376 OA
BRANCH  40  41
ATOM     41  C   UNL A   1      33.876  30.603  27.220  1.00  0.00     0.202 C 
BRANCH  41  42
ATOM     42  C   UNL A   1      33.921  32.049  27.702  1.00  0.00     0.261 C 
BRANCH  42  43
ATOM     43  O   UNL A   1      35.248  32.628  27.629  1.00  0.00    -0.460 OA
BRANCH  43  44
ATOM     44  C   UNL A   1      35.479  33.750  28.376  1.00  0.00     0.338 C 
ATOM     45  O   UNL A   1      34.936  34.825  28.182  1.00  0.00    -0.246 OA
BRANCH  44  46
ATOM     46  C   UNL A   1      36.512  33.469  29.430  1.00  0.00     0.060 A 
ATOM     47  C   UNL A   1      37.873  33.654  29.208  1.00  0.00     0.016 A 
ATOM     48  C   UNL A   1      36.127  32.860  30.625  1.00  0.00     0.016 A 
ATOM     49  C   UNL A   1      38.808  33.124  30.131  1.00  0.00     0.010 A 
ATOM     50  C   UNL A   1      37.048  32.250  31.482  1.00  0.00     0.010 A 
ATOM     51  C   UNL A   1      38.418  32.320  31.228  1.00  0.00    -0.014 A 
BRANCH  51  52
ATOM     52  C   UNL A   1      39.325  32.046  32.387  1.00  0.00     0.031 A 
ATOM     53  C   UNL A   1      39.130  33.161  33.294  1.00  0.00     0.074 A 
ATOM     54  C   UNL A   1      40.317  31.155  32.695  1.00  0.00     0.049 A 
ATOM     55  N   UNL A   1      39.969  34.146  33.307  1.00  0.00    -0.248 NA
ATOM     56  C   UNL A   1      37.844  33.445  33.937  1.00  0.00     0.031 C 
ATOM     57  C   UNL A   1      41.072  30.423  31.719  1.00  0.00     0.029 A 
ATOM     58  N   UNL A   1      40.943  30.718  33.889  1.00  0.00    -0.354 N 
ATOM     59  C   UNL A   1      39.547  34.886  34.376  1.00  0.00     0.074 A 
ATOM     60  C   UNL A   1      38.133  34.614  34.516  1.00  0.00     0.031 C 
ATOM     61  C   UNL A   1      41.825  29.460  32.282  1.00  0.00     0.029 A 
ATOM     62  C   UNL A   1      41.618  29.459  33.732  1.00  0.00     0.049 A 
ATOM     63  H   UNL A   1      40.917  31.223  34.734  1.00  0.00     0.167 HD
ATOM     64  C   UNL A   1      40.498  35.054  35.328  1.00  0.00     0.037 A 
ATOM     65  C   UNL A   1      42.518  28.757  34.498  1.00  0.00     0.037 A 
ATOM     66  C   UNL A   1      41.843  35.039  34.777  1.00  0.00     0.049 A 
ATOM     67  C   UNL A   1      43.476  29.689  35.086  1.00  0.00     0.074 A 
ATOM     68  C   UNL A   1      42.538  35.797  33.851  1.00  0.00     0.029 A 
ATOM     69  N   UNL A   1      42.517  33.849  34.876  1.00  0.00    -0.354 N 
ATOM     70  N   UNL A   1      44.408  30.279  34.395  1.00  0.00    -0.248 NA
ATOM     71  C   UNL A   1      43.102  30.324  36.341  1.00  0.00     0.031 C 
ATOM     72  C   UNL A   1      43.648  35.020  33.407  1.00  0.00     0.029 A 
ATOM     73  C   UNL A   1      43.654  33.820  34.102  1.00  0.00     0.049 A 
ATOM     74  H   UNL A   1      42.220  33.099  35.439  1.00  0.00     0.167 HD
ATOM     75  C   UNL A   1      44.326  31.579  34.843  1.00  0.00     0.074 A 
ATOM     76  C   UNL A   1      43.644  31.522  36.129  1.00  0.00     0.031 C 
ATOM     77  C   UNL A   1      44.439  32.614  33.972  1.00  0.00     0.037 A 
BRANCH  64  78
ATOM     78  C   UNL A   1      40.193  34.655  36.740  1.00  0.00     0.057 A 
ATOM     79  C   UNL A   1      40.244  35.619  37.741  1.00  0.00     0.134 A 
ATOM     80  C   UNL A   1      40.054  33.317  37.183  1.00  0.00     0.134 A 
ATOM     81  F   UNL A   1      40.481  36.903  37.436  1.00  0.00    -0.206 F 
ATOM     82  C   UNL A   1      40.108  35.282  39.091  1.00  0.00     0.040 A 
ATOM     83  C   UNL A   1      39.837  32.975  38.513  1.00  0.00     0.040 A 
ATOM     84  F   UNL A   1      40.229  32.269  36.371  1.00  0.00    -0.206 F 
ATOM     85  C   UNL A   1      39.875  33.963  39.478  1.00  0.00     0.006 A 
ENDBRANCH  64  78
BRANCH  65  86
ATOM     86  C   UNL A   1      42.576  27.284  34.769  1.00  0.00     0.057 A 
ATOM     87  C   UNL A   1      43.422  26.355  34.145  1.00  0.00     0.134 A 
ATOM     88  C   UNL A   1      41.833  26.765  35.840  1.00  0.00     0.134 A 
ATOM     89  F   UNL A   1      44.280  26.744  33.193  1.00  0.00    -0.206 F 
ATOM     90  C   UNL A   1      43.439  24.987  34.502  1.00  0.00     0.040 A 
ATOM     91  C   UNL A   1      41.798  25.404  36.182  1.00  0.00     0.040 A 
ATOM     92  F   UNL A   1      41.128  27.606  36.607  1.00  0.00    -0.206 F 
ATOM     93  C   UNL A   1      42.600  24.501  35.503  1.00  0.00     0.006 A 
ENDBRANCH  65  86
BRANCH  77  94
ATOM     94  C   UNL A   1      45.374  32.443  32.819  1.00  0.00     0.057 A 
ATOM     95  C   UNL A   1      46.767  32.447  32.902  1.00  0.00     0.134 A 
ATOM     96  C   UNL A   1      44.820  32.216  31.557  1.00  0.00     0.134 A 
ATOM     97  F   UNL A   1      47.372  32.722  34.059  1.00  0.00    -0.206 F 
ATOM     98  C   UNL A   1      47.578  32.175  31.791  1.00  0.00     0.040 A 
ATOM     99  C   UNL A   1      45.612  31.960  30.435  1.00  0.00     0.040 A 
ATOM    100  F   UNL A   1      43.488  32.226  31.398  1.00  0.00    -0.206 F 
ATOM    101  C   UNL A   1      46.998  31.925  30.551  1.00  0.00     0.006 A 
ENDBRANCH  77  94
ENDBRANCH  51  52
ENDBRANCH  44  46
ENDBRANCH  43  44
ENDBRANCH  42  43
ENDBRANCH  41  42
ENDBRANCH  40  41
ENDBRANCH  39  40
ENDBRANCH  38  39
ENDBRANCH  37  38
ENDBRANCH   1  37
TORSDOF 25
ENDMDL
MODEL 3
REMARK VINA RESULT:      -8.5      4.181      9.066
REMARK SMILES Cc1ccc(C)c(N2C(=O)S[C@H](CC(=O)Nc3ccc(C(=O)OCCOCCOCCOCCOC(=O)c4ccc(-c5c6nc(c(-c7c(F)cccc7F)c7ccc([nH]7)c(-c7c(F)cccc7F)c7nc(c(-c8c(F)cccc8F)c8ccc5[nH]8)C=C7)C=C6)cc4)c(O)c3)C2=O)c1
REMARK SMILES IDX 28 1 27 2 26 3 25 4 24 5 23 6 21 7 22 8 20 9 17 10 18 11
REMARK SMILES IDX 94 12 19 13 92 14 16 15 14 16 15 17 13 19 12 20 8 21 9 22
REMARK SMILES IDX 95 23 10 24 11 25 96 26 7 27 1 28 2 29 3 30 97 31 4 32 5 33
REMARK SMILES IDX 6 34 93 35 29 37 30 38 31 39 32 40 33 41 34 42 35 43 36 44
REMARK SMILES IDX 37 45 38 46 39 47 91 48 40 49 90 50 41 51 42 52 43 53 84 54
REMARK SMILES IDX 44 55 89 56 83 57 85 58 45 59 88 60 82 61 81 62 46 64 72 65
REMARK SMILES IDX 55 66 71 67 56 68 59 69 70 70 86 71 57 72 58 73 69 75 87 76
REMARK SMILES IDX 60 77 47 78 48 79 53 80 49 81 50 82 52 83 54 84 51 85 73 86
REMARK SMILES IDX 74 87 79 88 75 89 76 90 78 91 80 92 77 93 61 94 62 95 67 96
REMARK SMILES IDX 63 97 64 98 66 99 68 100 65 101
REMARK H PARENT 16 18 93 36 85 63 59 74
REMARK Flexibility Score: inf
ROOT
ATOM      1  C   UNL A   1      34.045  29.183  27.257  1.00  0.00     0.188 C 
ENDROOT
BRANCH   1   2
ATOM      2  C   UNL A   1      34.767  28.768  25.948  1.00  0.00     0.188 C 
BRANCH   2   3
ATOM      3  O   UNL A   1      33.897  28.329  24.924  1.00  0.00    -0.376 OA
BRANCH   3   4
ATOM      4  C   UNL A   1      34.013  28.889  23.634  1.00  0.00     0.202 C 
BRANCH   4   5
ATOM      5  C   UNL A   1      32.798  28.795  22.703  1.00  0.00     0.261 C 
BRANCH   5   6
ATOM      6  O   UNL A   1      31.582  29.379  23.230  1.00  0.00    -0.460 OA
BRANCH   6   7
ATOM      7  C   UNL A   1      30.491  28.600  23.042  1.00  0.00     0.341 C 
ATOM      8  O   UNL A   1      29.868  28.529  21.999  1.00  0.00    -0.246 OA
BRANCH   7   9
ATOM      9  C   UNL A   1      30.229  27.668  24.163  1.00  0.00     0.101 A 
ATOM     10  C   UNL A   1      30.308  25.637  26.154  1.00  0.00     0.044 A 
ATOM     11  C   UNL A   1      31.079  26.756  26.262  1.00  0.00     0.027 A 
ATOM     12  C   UNL A   1      29.336  25.633  25.121  1.00  0.00     0.073 A 
ATOM     13  C   UNL A   1      31.115  27.674  25.234  1.00  0.00     0.022 A 
ATOM     14  C   UNL A   1      29.259  26.684  24.169  1.00  0.00     0.132 A 
BRANCH  10  15
ATOM     15  N   UNL A   1      30.613  24.488  26.923  1.00  0.00    -0.326 N 
ATOM     16  C   UNL A   1      30.497  23.129  26.670  1.00  0.00     0.226 C 
ATOM     17  O   UNL A   1      30.297  22.403  27.654  1.00  0.00    -0.275 OA
ATOM     18  H   UNL A   1      30.983  24.694  27.812  1.00  0.00     0.169 HD
BRANCH  16  19
ATOM     19  C   UNL A   1      30.693  22.436  25.284  1.00  0.00     0.125 C 
BRANCH  19  20
ATOM     20  C   UNL A   1      31.971  21.576  25.135  1.00  0.00     0.156 C 
ATOM     21  N   UNL A   1      34.285  22.331  24.786  1.00  0.00    -0.240 N 
ATOM     22  C   UNL A   1      33.800  22.427  23.519  1.00  0.00     0.293 C 
ATOM     23  C   UNL A   1      33.332  22.040  25.754  1.00  0.00     0.248 C 
ATOM     24  O   UNL A   1      34.224  23.128  22.636  1.00  0.00    -0.261 OA
ATOM     25  S   UNL A   1      32.344  21.491  23.406  1.00  0.00    -0.050 SA
ATOM     26  O   UNL A   1      33.507  22.112  26.967  1.00  0.00    -0.273 OA
BRANCH  21  27
ATOM     27  C   UNL A   1      35.678  22.605  24.961  1.00  0.00     0.056 A 
ATOM     28  C   UNL A   1      38.910  20.616  25.632  1.00  0.00     0.044 C 
ATOM     29  C   UNL A   1      37.913  21.733  25.522  1.00  0.00    -0.049 A 
ATOM     30  C   UNL A   1      38.301  22.994  25.973  1.00  0.00     0.004 A 
ATOM     31  C   UNL A   1      36.604  21.541  25.025  1.00  0.00     0.030 A 
ATOM     32  C   UNL A   1      37.397  24.045  25.951  1.00  0.00     0.006 A 
ATOM     33  C   UNL A   1      36.081  23.859  25.480  1.00  0.00    -0.027 A 
ATOM     34  C   UNL A   1      35.159  25.032  25.640  1.00  0.00     0.046 C 
ENDBRANCH  21  27
ENDBRANCH  19  20
ENDBRANCH  16  19
ENDBRANCH  10  15
BRANCH  14  35
ATOM     35  O   UNL A   1      28.236  26.688  23.265  1.00  0.00    -0.507 OA
ATOM     36  H   UNL A   1      28.259  26.108  22.528  1.00  0.00     0.293 HD
ENDBRANCH  14  35
ENDBRANCH   7   9
ENDBRANCH   6   7
ENDBRANCH   5   6
ENDBRANCH   4   5
ENDBRANCH   3   4
ENDBRANCH   2   3
ENDBRANCH   1   2
BRANCH   1  37
ATOM     37  O   UNL A   1      32.738  29.737  27.205  1.00  0.00    -0.377 OA
BRANCH  37  38
ATOM     38  C   UNL A   1      32.649  31.152  27.132  1.00  0.00     0.188 C 
BRANCH  38  39
ATOM     39  C   UNL A   1      33.836  31.948  27.697  1.00  0.00     0.188 C 
BRANCH  39  40
ATOM     40  O   UNL A   1      33.478  33.235  28.184  1.00  0.00    -0.376 OA
BRANCH  40  41
ATOM     41  C   UNL A   1      34.527  33.991  28.773  1.00  0.00     0.202 C 
BRANCH  41  42
ATOM     42  C   UNL A   1      34.809  33.484  30.183  1.00  0.00     0.261 C 
BRANCH  42  43
ATOM     43  O   UNL A   1      35.880  32.509  30.228  1.00  0.00    -0.460 OA
BRANCH  43  44
ATOM     44  C   UNL A   1      37.132  32.973  30.525  1.00  0.00     0.338 C 
ATOM     45  O   UNL A   1      37.398  34.147  30.717  1.00  0.00    -0.246 OA
BRANCH  44  46
ATOM     46  C   UNL A   1      38.116  31.838  30.541  1.00  0.00     0.060 A 
ATOM     47  C   UNL A   1      37.722  30.511  30.684  1.00  0.00     0.016 A 
ATOM     48  C   UNL A   1      39.484  32.114  30.567  1.00  0.00     0.016 A 
ATOM     49  C   UNL A   1      38.696  29.521  30.962  1.00  0.00     0.010 A 
ATOM     50  C   UNL A   1      40.432  31.157  30.940  1.00  0.00     0.010 A 
ATOM     51  C   UNL A   1      40.054  29.839  31.202  1.00  0.00    -0.014 A 
BRANCH  51  52
ATOM     52  C   UNL A   1      41.142  28.812  31.151  1.00  0.00     0.031 A 
ATOM     53  C   UNL A   1      41.653  28.730  32.506  1.00  0.00     0.074 A 
ATOM     54  C   UNL A   1      41.812  28.109  30.187  1.00  0.00     0.049 A 
ATOM     55  N   UNL A   1      42.731  29.364  32.836  1.00  0.00    -0.248 NA
ATOM     56  C   UNL A   1      40.832  28.289  33.638  1.00  0.00     0.031 C 
ATOM     57  C   UNL A   1      41.902  28.514  28.813  1.00  0.00     0.029 A 
ATOM     58  N   UNL A   1      42.608  26.937  30.165  1.00  0.00    -0.354 N 
ATOM     59  C   UNL A   1      42.968  28.913  34.105  1.00  0.00     0.074 A 
ATOM     60  C   UNL A   1      41.678  28.538  34.642  1.00  0.00     0.031 C 
ATOM     61  C   UNL A   1      42.422  27.547  28.035  1.00  0.00     0.029 A 
ATOM     62  C   UNL A   1      42.720  26.367  28.851  1.00  0.00     0.049 A 
ATOM     63  H   UNL A   1      43.039  26.556  30.964  1.00  0.00     0.167 HD
ATOM     64  C   UNL A   1      44.177  28.317  34.252  1.00  0.00     0.037 A 
ATOM     65  C   UNL A   1      43.525  25.401  28.294  1.00  0.00     0.037 A 
ATOM     66  C   UNL A   1      45.172  28.848  33.335  1.00  0.00     0.049 A 
ATOM     67  C   UNL A   1      44.881  25.550  28.815  1.00  0.00     0.074 A 
ATOM     68  C   UNL A   1      45.736  30.089  33.102  1.00  0.00     0.029 A 
ATOM     69  N   UNL A   1      45.391  28.112  32.198  1.00  0.00    -0.354 N 
ATOM     70  N   UNL A   1      45.673  26.521  28.464  1.00  0.00    -0.248 NA
ATOM     71  C   UNL A   1      45.184  24.892  30.078  1.00  0.00     0.031 C 
ATOM     72  C   UNL A   1      46.299  30.066  31.792  1.00  0.00     0.029 A 
ATOM     73  C   UNL A   1      46.124  28.798  31.258  1.00  0.00     0.049 A 
ATOM     74  H   UNL A   1      45.059  27.195  32.070  1.00  0.00     0.167 HD
ATOM     75  C   UNL A   1      46.194  26.925  29.674  1.00  0.00     0.074 A 
ATOM     76  C   UNL A   1      46.001  25.810  30.591  1.00  0.00     0.031 C 
ATOM     77  C   UNL A   1      46.358  28.245  29.944  1.00  0.00     0.037 A 
BRANCH  64  78
ATOM     78  C   UNL A   1      44.240  26.926  34.804  1.00  0.00     0.057 A 
ATOM     79  C   UNL A   1      44.885  26.708  36.018  1.00  0.00     0.134 A 
ATOM     80  C   UNL A   1      43.871  25.761  34.089  1.00  0.00     0.134 A 
ATOM     81  F   UNL A   1      45.371  27.739  36.723  1.00  0.00    -0.206 F 
ATOM     82  C   UNL A   1      45.098  25.418  36.513  1.00  0.00     0.040 A 
ATOM     83  C   UNL A   1      44.005  24.477  34.605  1.00  0.00     0.040 A 
ATOM     84  F   UNL A   1      43.467  25.798  32.814  1.00  0.00    -0.206 F 
ATOM     85  C   UNL A   1      44.633  24.301  35.822  1.00  0.00     0.006 A 
ENDBRANCH  64  78
BRANCH  65  86
ATOM     86  C   UNL A   1      43.161  24.315  27.327  1.00  0.00     0.057 A 
ATOM     87  C   UNL A   1      43.455  24.290  25.955  1.00  0.00     0.134 A 
ATOM     88  C   UNL A   1      42.601  23.129  27.823  1.00  0.00     0.134 A 
ATOM     89  F   UNL A   1      44.108  25.307  25.377  1.00  0.00    -0.206 F 
ATOM     90  C   UNL A   1      43.113  23.196  25.127  1.00  0.00     0.040 A 
ATOM     91  C   UNL A   1      42.210  22.050  27.014  1.00  0.00     0.040 A 
ATOM     92  F   UNL A   1      42.444  22.990  29.145  1.00  0.00    -0.206 F 
ATOM     93  C   UNL A   1      42.457  22.084  25.651  1.00  0.00     0.006 A 
ENDBRANCH  65  86
BRANCH  77  94
ATOM     94  C   UNL A   1      46.741  29.137  28.807  1.00  0.00     0.057 A 
ATOM     95  C   UNL A   1      45.883  30.020  28.150  1.00  0.00     0.134 A 
ATOM     96  C   UNL A   1      48.074  29.125  28.388  1.00  0.00     0.134 A 
ATOM     97  F   UNL A   1      44.582  30.042  28.447  1.00  0.00    -0.206 F 
ATOM     98  C   UNL A   1      46.341  30.901  27.161  1.00  0.00     0.040 A 
ATOM     99  C   UNL A   1      48.545  29.983  27.392  1.00  0.00     0.040 A 
ATOM    100  F   UNL A   1      48.948  28.281  28.957  1.00  0.00    -0.206 F 
ATOM    101  C   UNL A   1      47.680  30.887  26.782  1.00  0.00     0.006 A 
ENDBRANCH  77  94
ENDBRANCH  51  52
ENDBRANCH  44  46
ENDBRANCH  43  44
ENDBRANCH  42  43
ENDBRANCH  41  42
ENDBRANCH  40  41
ENDBRANCH  39  40
ENDBRANCH  38  39
ENDBRANCH  37  38
ENDBRANCH   1  37
TORSDOF 25
ENDMDL
