MODEL 1
REMARK VINA RESULT:      -9.8      0.000      0.000
REMARK SMILES C[C@@]1(CN2C(=O)c3ccc(C(=O)OCCOCCOCCOCCOC(=O)c4ccc(-c5c6nc(c(-c7c(F)cccc7F)c7ccc([nH]7)c(-c7c(F)cccc7F)c7nc(c(-c8c(F)cccc8F)c8ccc5[nH]8)C=C7)C=C6)cc4)cc3C2=O)CCCO1
REMARK SMILES IDX 19 1 18 2 17 3 16 4 15 5 14 6 13 7 11 8 12 9 10 10 4 11 5 12
REMARK SMILES IDX 84 13 6 14 7 15 83 16 85 17 8 18 82 19 9 20 3 21 2 22 1 23
REMARK SMILES IDX 86 24 89 25 87 26 88 27 20 28 21 29 22 30 23 31 24 32 25 33
REMARK SMILES IDX 26 34 27 35 28 36 29 37 81 38 30 39 80 40 31 41 32 42 33 43
REMARK SMILES IDX 74 44 34 45 79 46 73 47 75 48 35 49 78 50 72 51 71 52 36 54
REMARK SMILES IDX 62 55 45 56 61 57 46 58 49 59 60 60 76 61 47 62 48 63 59 65
REMARK SMILES IDX 77 66 50 67 37 68 38 69 43 70 39 71 40 72 42 73 44 74 41 75
REMARK SMILES IDX 63 76 64 77 69 78 65 79 66 80 68 81 70 82 67 83 51 84 52 85
REMARK SMILES IDX 57 86 53 87 54 88 56 89 58 90 55 91
REMARK H PARENT 75 53 49 64
REMARK Flexibility Score: inf
ROOT
ATOM      1  O   UNL A   1      39.070  22.186  25.555  1.00  0.00    -0.377 OA
ENDROOT
BRANCH   1   2
ATOM      2  C   UNL A   1      38.018  22.999  26.056  1.00  0.00     0.188 C 
BRANCH   2   3
ATOM      3  C   UNL A   1      36.725  23.095  25.221  1.00  0.00     0.188 C 
BRANCH   3   4
ATOM      4  O   UNL A   1      35.551  22.855  25.974  1.00  0.00    -0.376 OA
BRANCH   4   5
ATOM      5  C   UNL A   1      35.166  21.528  26.274  1.00  0.00     0.202 C 
BRANCH   5   6
ATOM      6  C   UNL A   1      35.062  20.476  25.157  1.00  0.00     0.261 C 
BRANCH   6   7
ATOM      7  O   UNL A   1      34.009  20.655  24.205  1.00  0.00    -0.460 OA
BRANCH   7   8
ATOM      8  C   UNL A   1      32.746  20.458  24.637  1.00  0.00     0.338 C 
ATOM      9  O   UNL A   1      32.277  19.425  25.074  1.00  0.00    -0.246 OA
BRANCH   8  10
ATOM     10  C   UNL A   1      32.069  21.780  24.691  1.00  0.00     0.060 A 
ATOM     11  N   UNL A   1      30.899  26.005  23.345  1.00  0.00    -0.271 N 
ATOM     12  C   UNL A   1      30.273  25.563  24.480  1.00  0.00     0.261 C 
ATOM     13  C   UNL A   1      31.637  25.015  22.759  1.00  0.00     0.261 C 
ATOM     14  O   UNL A   1      29.474  26.132  25.191  1.00  0.00    -0.269 OA
ATOM     15  C   UNL A   1      30.764  24.207  24.719  1.00  0.00     0.053 A 
ATOM     16  C   UNL A   1      31.607  23.877  23.674  1.00  0.00     0.054 A 
ATOM     17  O   UNL A   1      32.196  24.997  21.674  1.00  0.00    -0.269 OA
ATOM     18  C   UNL A   1      30.528  23.346  25.774  1.00  0.00     0.015 A 
ATOM     19  C   UNL A   1      32.274  22.668  23.624  1.00  0.00     0.030 A 
ATOM     20  C   UNL A   1      31.191  22.113  25.754  1.00  0.00     0.016 A 
BRANCH  11  21
ATOM     21  C   UNL A   1      30.803  27.364  22.835  1.00  0.00     0.164 C 
BRANCH  21  22
ATOM     22  C   UNL A   1      31.708  28.375  23.602  1.00  0.00     0.084 C 
ATOM     23  C   UNL A   1      30.901  29.429  24.363  1.00  0.00     0.044 C 
ATOM     24  C   UNL A   1      32.707  29.049  22.655  1.00  0.00     0.039 C 
ATOM     25  O   UNL A   1      32.511  27.653  24.563  1.00  0.00    -0.373 OA
ATOM     26  C   UNL A   1      33.893  28.117  22.688  1.00  0.00     0.031 C 
ATOM     27  C   UNL A   1      33.873  27.611  24.113  1.00  0.00     0.161 C 
ENDBRANCH  21  22
ENDBRANCH  11  21
ENDBRANCH   8  10
ENDBRANCH   7   8
ENDBRANCH   6   7
ENDBRANCH   5   6
ENDBRANCH   4   5
ENDBRANCH   3   4
ENDBRANCH   2   3
ENDBRANCH   1   2
BRANCH   1  28
ATOM     28  C   UNL A   1      39.928  21.495  26.465  1.00  0.00     0.188 C 
BRANCH  28  29
ATOM     29  C   UNL A   1      41.434  21.825  26.616  1.00  0.00     0.188 C 
BRANCH  29  30
ATOM     30  O   UNL A   1      42.272  20.700  26.807  1.00  0.00    -0.376 OA
BRANCH  30  31
ATOM     31  C   UNL A   1      41.853  19.453  26.292  1.00  0.00     0.202 C 
BRANCH  31  32
ATOM     32  C   UNL A   1      42.900  18.611  25.551  1.00  0.00     0.261 C 
BRANCH  32  33
ATOM     33  O   UNL A   1      44.234  19.137  25.526  1.00  0.00    -0.460 OA
BRANCH  33  34
ATOM     34  C   UNL A   1      44.637  19.760  24.395  1.00  0.00     0.338 C 
ATOM     35  O   UNL A   1      44.621  19.318  23.263  1.00  0.00    -0.246 OA
BRANCH  34  36
ATOM     36  C   UNL A   1      44.944  21.158  24.759  1.00  0.00     0.060 A 
ATOM     37  C   UNL A   1      45.440  21.449  26.037  1.00  0.00     0.016 A 
ATOM     38  C   UNL A   1      44.764  22.175  23.819  1.00  0.00     0.016 A 
ATOM     39  C   UNL A   1      45.738  22.767  26.386  1.00  0.00     0.010 A 
ATOM     40  C   UNL A   1      45.041  23.495  24.177  1.00  0.00     0.010 A 
ATOM     41  C   UNL A   1      45.503  23.800  25.471  1.00  0.00    -0.014 A 
BRANCH  41  42
ATOM     42  C   UNL A   1      45.555  25.217  25.905  1.00  0.00     0.031 A 
ATOM     43  C   UNL A   1      46.883  25.920  25.878  1.00  0.00     0.074 A 
ATOM     44  C   UNL A   1      44.456  25.862  26.334  1.00  0.00     0.049 A 
ATOM     45  N   UNL A   1      47.206  27.109  26.314  1.00  0.00    -0.248 NA
ATOM     46  C   UNL A   1      48.004  25.168  25.287  1.00  0.00     0.031 C 
ATOM     47  C   UNL A   1      43.106  25.304  26.370  1.00  0.00     0.029 A 
ATOM     48  N   UNL A   1      44.313  27.128  26.847  1.00  0.00    -0.354 N 
ATOM     49  C   UNL A   1      48.566  27.243  26.066  1.00  0.00     0.074 A 
ATOM     50  C   UNL A   1      49.013  26.005  25.467  1.00  0.00     0.031 C 
ATOM     51  C   UNL A   1      42.273  26.218  26.899  1.00  0.00     0.029 A 
ATOM     52  C   UNL A   1      43.039  27.405  27.277  1.00  0.00     0.049 A 
ATOM     53  H   UNL A   1      45.054  27.774  26.901  1.00  0.00     0.167 HD
ATOM     54  C   UNL A   1      49.368  28.305  26.312  1.00  0.00     0.037 A 
ATOM     55  C   UNL A   1      42.558  28.481  27.929  1.00  0.00     0.037 A 
ATOM     56  C   UNL A   1      48.919  29.532  26.913  1.00  0.00     0.049 A 
ATOM     57  C   UNL A   1      43.486  29.622  28.264  1.00  0.00     0.074 A 
ATOM     58  C   UNL A   1      49.648  30.676  27.184  1.00  0.00     0.029 A 
ATOM     59  N   UNL A   1      47.624  29.769  27.349  1.00  0.00    -0.354 N 
ATOM     60  N   UNL A   1      44.764  29.754  28.001  1.00  0.00    -0.248 NA
ATOM     61  C   UNL A   1      42.904  30.764  28.983  1.00  0.00     0.031 C 
ATOM     62  C   UNL A   1      48.810  31.580  27.843  1.00  0.00     0.029 A 
ATOM     63  C   UNL A   1      47.541  31.030  27.917  1.00  0.00     0.049 A 
ATOM     64  H   UNL A   1      46.875  29.136  27.267  1.00  0.00     0.167 HD
ATOM     65  C   UNL A   1      45.129  31.004  28.489  1.00  0.00     0.074 A 
ATOM     66  C   UNL A   1      43.934  31.594  29.057  1.00  0.00     0.031 C 
ATOM     67  C   UNL A   1      46.341  31.611  28.466  1.00  0.00     0.037 A 
BRANCH  54  68
ATOM     68  C   UNL A   1      50.823  28.168  25.963  1.00  0.00     0.057 A 
ATOM     69  C   UNL A   1      51.293  28.308  24.651  1.00  0.00     0.134 A 
ATOM     70  C   UNL A   1      51.771  27.918  26.965  1.00  0.00     0.134 A 
ATOM     71  F   UNL A   1      50.437  28.533  23.643  1.00  0.00    -0.206 F 
ATOM     72  C   UNL A   1      52.648  28.177  24.343  1.00  0.00     0.040 A 
ATOM     73  C   UNL A   1      53.132  27.816  26.673  1.00  0.00     0.040 A 
ATOM     74  F   UNL A   1      51.391  27.776  28.244  1.00  0.00    -0.206 F 
ATOM     75  C   UNL A   1      53.573  27.939  25.358  1.00  0.00     0.006 A 
ENDBRANCH  54  68
BRANCH  55  76
ATOM     76  C   UNL A   1      41.128  28.530  28.335  1.00  0.00     0.057 A 
ATOM     77  C   UNL A   1      40.725  28.156  29.622  1.00  0.00     0.134 A 
ATOM     78  C   UNL A   1      40.127  28.923  27.437  1.00  0.00     0.134 A 
ATOM     79  F   UNL A   1      41.631  27.746  30.521  1.00  0.00    -0.206 F 
ATOM     80  C   UNL A   1      39.379  28.152  29.997  1.00  0.00     0.040 A 
ATOM     81  C   UNL A   1      38.781  28.952  27.807  1.00  0.00     0.040 A 
ATOM     82  F   UNL A   1      40.445  29.291  26.187  1.00  0.00    -0.206 F 
ATOM     83  C   UNL A   1      38.404  28.558  29.089  1.00  0.00     0.006 A 
ENDBRANCH  55  76
BRANCH  67  84
ATOM     84  C   UNL A   1      46.433  33.006  29.017  1.00  0.00     0.057 A 
ATOM     85  C   UNL A   1      46.187  34.139  28.231  1.00  0.00     0.134 A 
ATOM     86  C   UNL A   1      46.717  33.214  30.374  1.00  0.00     0.134 A 
ATOM     87  F   UNL A   1      45.918  34.014  26.922  1.00  0.00    -0.206 F 
ATOM     88  C   UNL A   1      46.245  35.427  28.768  1.00  0.00     0.040 A 
ATOM     89  C   UNL A   1      46.747  34.494  30.929  1.00  0.00     0.040 A 
ATOM     90  F   UNL A   1      46.951  32.173  31.188  1.00  0.00    -0.206 F 
ATOM     91  C   UNL A   1      46.517  35.606  30.123  1.00  0.00     0.006 A 
ENDBRANCH  67  84
ENDBRANCH  41  42
ENDBRANCH  34  36
ENDBRANCH  33  34
ENDBRANCH  32  33
ENDBRANCH  31  32
ENDBRANCH  30  31
ENDBRANCH  29  30
ENDBRANCH  28  29
ENDBRANCH   1  28
TORSDOF 22
ENDMDL
MODEL 2
REMARK VINA RESULT:      -9.2      2.937      7.745
REMARK SMILES C[C@@]1(CN2C(=O)c3ccc(C(=O)OCCOCCOCCOCCOC(=O)c4ccc(-c5c6nc(c(-c7c(F)cccc7F)c7ccc([nH]7)c(-c7c(F)cccc7F)c7nc(c(-c8c(F)cccc8F)c8ccc5[nH]8)C=C7)C=C6)cc4)cc3C2=O)CCCO1
REMARK SMILES IDX 19 1 18 2 17 3 16 4 15 5 14 6 13 7 11 8 12 9 10 10 4 11 5 12
REMARK SMILES IDX 84 13 6 14 7 15 83 16 85 17 8 18 82 19 9 20 3 21 2 22 1 23
REMARK SMILES IDX 86 24 89 25 87 26 88 27 20 28 21 29 22 30 23 31 24 32 25 33
REMARK SMILES IDX 26 34 27 35 28 36 29 37 81 38 30 39 80 40 31 41 32 42 33 43
REMARK SMILES IDX 74 44 34 45 79 46 73 47 75 48 35 49 78 50 72 51 71 52 36 54
REMARK SMILES IDX 62 55 45 56 61 57 46 58 49 59 60 60 76 61 47 62 48 63 59 65
REMARK SMILES IDX 77 66 50 67 37 68 38 69 43 70 39 71 40 72 42 73 44 74 41 75
REMARK SMILES IDX 63 76 64 77 69 78 65 79 66 80 68 81 70 82 67 83 51 84 52 85
REMARK SMILES IDX 57 86 53 87 54 88 56 89 58 90 55 91
REMARK H PARENT 75 53 49 64
REMARK Flexibility Score: inf
ROOT
ATOM      1  O   UNL A   1      38.435  29.599  30.268  1.00  0.00    -0.377 OA
ENDROOT
BRANCH   1   2
ATOM      2  C   UNL A   1      37.062  29.426  29.950  1.00  0.00     0.188 C 
BRANCH   2   3
ATOM      3  C   UNL A   1      36.620  29.710  28.500  1.00  0.00     0.188 C 
BRANCH   3   4
ATOM      4  O   UNL A   1      35.217  29.841  28.356  1.00  0.00    -0.376 OA
BRANCH   4   5
ATOM      5  C   UNL A   1      34.570  29.277  27.232  1.00  0.00     0.202 C 
BRANCH   5   6
ATOM      6  C   UNL A   1      33.496  30.072  26.472  1.00  0.00     0.261 C 
BRANCH   6   7
ATOM      7  O   UNL A   1      32.146  29.617  26.608  1.00  0.00    -0.460 OA
BRANCH   7   8
ATOM      8  C   UNL A   1      31.432  29.454  25.475  1.00  0.00     0.338 C 
ATOM      9  O   UNL A   1      30.843  30.317  24.853  1.00  0.00    -0.246 OA
BRANCH   8  10
ATOM     10  C   UNL A   1      31.659  28.069  24.986  1.00  0.00     0.060 A 
ATOM     11  N   UNL A   1      32.017  23.502  25.195  1.00  0.00    -0.271 N 
ATOM     12  C   UNL A   1      32.159  24.039  23.944  1.00  0.00     0.261 C 
ATOM     13  C   UNL A   1      31.638  24.446  26.108  1.00  0.00     0.261 C 
ATOM     14  O   UNL A   1      32.387  23.487  22.889  1.00  0.00    -0.269 OA
ATOM     15  C   UNL A   1      31.991  25.483  24.093  1.00  0.00     0.053 A 
ATOM     16  C   UNL A   1      31.684  25.733  25.418  1.00  0.00     0.054 A 
ATOM     17  O   UNL A   1      31.275  24.311  27.265  1.00  0.00    -0.269 OA
ATOM     18  C   UNL A   1      32.129  26.499  23.166  1.00  0.00     0.015 A 
ATOM     19  C   UNL A   1      31.506  27.016  25.901  1.00  0.00     0.030 A 
ATOM     20  C   UNL A   1      31.957  27.810  23.624  1.00  0.00     0.016 A 
BRANCH  11  21
ATOM     21  C   UNL A   1      32.254  22.103  25.517  1.00  0.00     0.164 C 
BRANCH  21  22
ATOM     22  C   UNL A   1      33.638  21.852  26.189  1.00  0.00     0.084 C 
ATOM     23  C   UNL A   1      33.582  21.969  27.713  1.00  0.00     0.044 C 
ATOM     24  C   UNL A   1      34.704  22.795  25.620  1.00  0.00     0.039 C 
ATOM     25  O   UNL A   1      34.086  20.517  25.862  1.00  0.00    -0.373 OA
ATOM     26  C   UNL A   1      35.250  22.025  24.444  1.00  0.00     0.031 C 
ATOM     27  C   UNL A   1      35.166  20.593  24.921  1.00  0.00     0.161 C 
ENDBRANCH  21  22
ENDBRANCH  11  21
ENDBRANCH   8  10
ENDBRANCH   7   8
ENDBRANCH   6   7
ENDBRANCH   5   6
ENDBRANCH   4   5
ENDBRANCH   3   4
ENDBRANCH   2   3
ENDBRANCH   1   2
BRANCH   1  28
ATOM     28  C   UNL A   1      39.372  29.896  29.232  1.00  0.00     0.188 C 
BRANCH  28  29
ATOM     29  C   UNL A   1      40.417  28.871  28.723  1.00  0.00     0.188 C 
BRANCH  29  30
ATOM     30  O   UNL A   1      39.904  27.888  27.842  1.00  0.00    -0.376 OA
BRANCH  30  31
ATOM     31  C   UNL A   1      39.459  26.662  28.387  1.00  0.00     0.202 C 
BRANCH  31  32
ATOM     32  C   UNL A   1      39.305  25.480  27.421  1.00  0.00     0.261 C 
BRANCH  32  33
ATOM     33  O   UNL A   1      40.250  25.413  26.344  1.00  0.00    -0.460 OA
BRANCH  33  34
ATOM     34  C   UNL A   1      41.270  24.533  26.463  1.00  0.00     0.338 C 
ATOM     35  O   UNL A   1      41.210  23.320  26.403  1.00  0.00    -0.246 OA
BRANCH  34  36
ATOM     36  C   UNL A   1      42.518  25.321  26.508  1.00  0.00     0.060 A 
ATOM     37  C   UNL A   1      43.112  25.610  27.745  1.00  0.00     0.016 A 
ATOM     38  C   UNL A   1      43.113  25.748  25.319  1.00  0.00     0.016 A 
ATOM     39  C   UNL A   1      44.294  26.349  27.795  1.00  0.00     0.010 A 
ATOM     40  C   UNL A   1      44.283  26.506  25.372  1.00  0.00     0.010 A 
ATOM     41  C   UNL A   1      44.864  26.834  26.611  1.00  0.00    -0.014 A 
BRANCH  41  42
ATOM     42  C   UNL A   1      45.955  27.836  26.656  1.00  0.00     0.031 A 
ATOM     43  C   UNL A   1      45.582  29.289  26.745  1.00  0.00     0.074 A 
ATOM     44  C   UNL A   1      47.248  27.471  26.596  1.00  0.00     0.049 A 
ATOM     45  N   UNL A   1      46.342  30.350  26.682  1.00  0.00    -0.248 NA
ATOM     46  C   UNL A   1      44.149  29.582  26.919  1.00  0.00     0.031 C 
ATOM     47  C   UNL A   1      47.739  26.096  26.547  1.00  0.00     0.029 A 
ATOM     48  N   UNL A   1      48.385  28.239  26.543  1.00  0.00    -0.354 N 
ATOM     49  C   UNL A   1      45.481  31.436  26.792  1.00  0.00     0.074 A 
ATOM     50  C   UNL A   1      44.140  30.904  26.898  1.00  0.00     0.031 C 
ATOM     51  C   UNL A   1      49.080  26.118  26.448  1.00  0.00     0.029 A 
ATOM     52  C   UNL A   1      49.535  27.506  26.385  1.00  0.00     0.049 A 
ATOM     53  H   UNL A   1      48.376  29.221  26.610  1.00  0.00     0.167 HD
ATOM     54  C   UNL A   1      45.784  32.754  26.807  1.00  0.00     0.037 A 
ATOM     55  C   UNL A   1      50.804  27.913  26.180  1.00  0.00     0.037 A 
ATOM     56  C   UNL A   1      47.120  33.276  26.695  1.00  0.00     0.049 A 
ATOM     57  C   UNL A   1      51.108  29.389  26.122  1.00  0.00     0.074 A 
ATOM     58  C   UNL A   1      47.534  34.595  26.722  1.00  0.00     0.029 A 
ATOM     59  N   UNL A   1      48.257  32.502  26.521  1.00  0.00    -0.354 N 
ATOM     60  N   UNL A   1      50.294  30.409  26.254  1.00  0.00    -0.248 NA
ATOM     61  C   UNL A   1      52.508  29.770  25.888  1.00  0.00     0.031 C 
ATOM     62  C   UNL A   1      48.914  34.623  26.499  1.00  0.00     0.029 A 
ATOM     63  C   UNL A   1      49.370  33.319  26.407  1.00  0.00     0.049 A 
ATOM     64  H   UNL A   1      48.272  31.519  26.485  1.00  0.00     0.167 HD
ATOM     65  C   UNL A   1      51.087  31.547  26.157  1.00  0.00     0.074 A 
ATOM     66  C   UNL A   1      52.447  31.092  25.961  1.00  0.00     0.031 C 
ATOM     67  C   UNL A   1      50.722  32.852  26.227  1.00  0.00     0.037 A 
BRANCH  54  68
ATOM     68  C   UNL A   1      44.642  33.725  26.911  1.00  0.00     0.057 A 
ATOM     69  C   UNL A   1      43.975  34.218  25.782  1.00  0.00     0.134 A 
ATOM     70  C   UNL A   1      44.187  34.151  28.167  1.00  0.00     0.134 A 
ATOM     71  F   UNL A   1      44.370  33.862  24.550  1.00  0.00    -0.206 F 
ATOM     72  C   UNL A   1      42.916  35.120  25.896  1.00  0.00     0.040 A 
ATOM     73  C   UNL A   1      43.109  35.029  28.293  1.00  0.00     0.040 A 
ATOM     74  F   UNL A   1      44.777  33.716  29.290  1.00  0.00    -0.206 F 
ATOM     75  C   UNL A   1      42.475  35.521  27.155  1.00  0.00     0.006 A 
ENDBRANCH  54  68
BRANCH  55  76
ATOM     76  C   UNL A   1      51.887  26.912  25.991  1.00  0.00     0.057 A 
ATOM     77  C   UNL A   1      52.669  26.477  27.066  1.00  0.00     0.134 A 
ATOM     78  C   UNL A   1      52.183  26.387  24.727  1.00  0.00     0.134 A 
ATOM     79  F   UNL A   1      52.453  26.960  28.298  1.00  0.00    -0.206 F 
ATOM     80  C   UNL A   1      53.720  25.573  26.890  1.00  0.00     0.040 A 
ATOM     81  C   UNL A   1      53.211  25.460  24.540  1.00  0.00     0.040 A 
ATOM     82  F   UNL A   1      51.472  26.763  23.654  1.00  0.00    -0.206 F 
ATOM     83  C   UNL A   1      53.988  25.057  25.624  1.00  0.00     0.006 A 
ENDBRANCH  55  76
BRANCH  67  84
ATOM     84  C   UNL A   1      51.811  33.885  26.150  1.00  0.00     0.057 A 
ATOM     85  C   UNL A   1      52.203  34.470  24.939  1.00  0.00     0.134 A 
ATOM     86  C   UNL A   1      52.438  34.340  27.318  1.00  0.00     0.134 A 
ATOM     87  F   UNL A   1      51.651  34.075  23.782  1.00  0.00    -0.206 F 
ATOM     88  C   UNL A   1      53.195  35.452  24.891  1.00  0.00     0.040 A 
ATOM     89  C   UNL A   1      53.408  35.343  27.286  1.00  0.00     0.040 A 
ATOM     90  F   UNL A   1      52.103  33.832  28.514  1.00  0.00    -0.206 F 
ATOM     91  C   UNL A   1      53.794  35.897  26.068  1.00  0.00     0.006 A 
ENDBRANCH  67  84
ENDBRANCH  41  42
ENDBRANCH  34  36
ENDBRANCH  33  34
ENDBRANCH  32  33
ENDBRANCH  31  32
ENDBRANCH  30  31
ENDBRANCH  29  30
ENDBRANCH  28  29
ENDBRANCH   1  28
TORSDOF 22
ENDMDL
MODEL 3
REMARK VINA RESULT:      -9.0      1.214      6.142
REMARK SMILES C[C@@]1(CN2C(=O)c3ccc(C(=O)OCCOCCOCCOCCOC(=O)c4ccc(-c5c6nc(c(-c7c(F)cccc7F)c7ccc([nH]7)c(-c7c(F)cccc7F)c7nc(c(-c8c(F)cccc8F)c8ccc5[nH]8)C=C7)C=C6)cc4)cc3C2=O)CCCO1
REMARK SMILES IDX 19 1 18 2 17 3 16 4 15 5 14 6 13 7 11 8 12 9 10 10 4 11 5 12
REMARK SMILES IDX 84 13 6 14 7 15 83 16 85 17 8 18 82 19 9 20 3 21 2 22 1 23
REMARK SMILES IDX 86 24 89 25 87 26 88 27 20 28 21 29 22 30 23 31 24 32 25 33
REMARK SMILES IDX 26 34 27 35 28 36 29 37 81 38 30 39 80 40 31 41 32 42 33 43
REMARK SMILES IDX 74 44 34 45 79 46 73 47 75 48 35 49 78 50 72 51 71 52 36 54
REMARK SMILES IDX 62 55 45 56 61 57 46 58 49 59 60 60 76 61 47 62 48 63 59 65
REMARK SMILES IDX 77 66 50 67 37 68 38 69 43 70 39 71 40 72 42 73 44 74 41 75
REMARK SMILES IDX 63 76 64 77 69 78 65 79 66 80 68 81 70 82 67 83 51 84 52 85
REMARK SMILES IDX 57 86 53 87 54 88 56 89 58 90 55 91
REMARK H PARENT 75 53 49 64
REMARK Flexibility Score: inf
ROOT
ATOM      1  O   UNL A   1      39.189  22.205  25.660  1.00  0.00    -0.377 OA
ENDROOT
BRANCH   1   2
ATOM      2  C   UNL A   1      38.353  22.988  26.500  1.00  0.00     0.188 C 
BRANCH   2   3
ATOM      3  C   UNL A   1      37.269  23.854  25.827  1.00  0.00     0.188 C 
BRANCH   3   4
ATOM      4  O   UNL A   1      36.387  23.110  25.006  1.00  0.00    -0.376 OA
BRANCH   4   5
ATOM      5  C   UNL A   1      35.765  21.947  25.514  1.00  0.00     0.202 C 
BRANCH   5   6
ATOM      6  C   UNL A   1      34.524  21.361  24.822  1.00  0.00     0.261 C 
BRANCH   6   7
ATOM      7  O   UNL A   1      34.110  21.992  23.606  1.00  0.00    -0.460 OA
BRANCH   7   8
ATOM      8  C   UNL A   1      32.801  21.917  23.286  1.00  0.00     0.338 C 
ATOM      9  O   UNL A   1      32.170  20.909  23.031  1.00  0.00    -0.246 OA
BRANCH   8  10
ATOM     10  C   UNL A   1      32.198  23.257  23.504  1.00  0.00     0.060 A 
ATOM     11  N   UNL A   1      32.051  27.733  24.493  1.00  0.00    -0.271 N 
ATOM     12  C   UNL A   1      30.854  27.181  24.122  1.00  0.00     0.261 C 
ATOM     13  C   UNL A   1      33.083  26.850  24.337  1.00  0.00     0.261 C 
ATOM     14  O   UNL A   1      29.760  27.695  24.039  1.00  0.00    -0.269 OA
ATOM     15  C   UNL A   1      31.122  25.773  23.834  1.00  0.00     0.053 A 
ATOM     16  C   UNL A   1      32.482  25.568  23.976  1.00  0.00     0.054 A 
ATOM     17  O   UNL A   1      34.286  27.035  24.419  1.00  0.00    -0.269 OA
ATOM     18  C   UNL A   1      30.254  24.747  23.510  1.00  0.00     0.015 A 
ATOM     19  C   UNL A   1      33.057  24.322  23.814  1.00  0.00     0.030 A 
ATOM     20  C   UNL A   1      30.806  23.472  23.342  1.00  0.00     0.016 A 
BRANCH  11  21
ATOM     21  C   UNL A   1      32.203  29.087  25.003  1.00  0.00     0.164 C 
BRANCH  21  22
ATOM     22  C   UNL A   1      32.322  29.149  26.556  1.00  0.00     0.084 C 
ATOM     23  C   UNL A   1      31.530  28.040  27.253  1.00  0.00     0.044 C 
ATOM     24  C   UNL A   1      31.895  30.522  27.086  1.00  0.00     0.039 C 
ATOM     25  O   UNL A   1      33.711  29.004  26.929  1.00  0.00    -0.373 OA
ATOM     26  C   UNL A   1      33.178  31.315  27.058  1.00  0.00     0.031 C 
ATOM     27  C   UNL A   1      34.218  30.267  27.384  1.00  0.00     0.161 C 
ENDBRANCH  21  22
ENDBRANCH  11  21
ENDBRANCH   8  10
ENDBRANCH   7   8
ENDBRANCH   6   7
ENDBRANCH   5   6
ENDBRANCH   4   5
ENDBRANCH   3   4
ENDBRANCH   2   3
ENDBRANCH   1   2
BRANCH   1  28
ATOM     28  C   UNL A   1      39.846  21.052  26.189  1.00  0.00     0.188 C 
BRANCH  28  29
ATOM     29  C   UNL A   1      40.733  21.098  27.459  1.00  0.00     0.188 C 
BRANCH  29  30
ATOM     30  O   UNL A   1      42.101  20.810  27.238  1.00  0.00    -0.376 OA
BRANCH  30  31
ATOM     31  C   UNL A   1      42.482  19.463  27.035  1.00  0.00     0.202 C 
BRANCH  31  32
ATOM     32  C   UNL A   1      42.913  19.063  25.618  1.00  0.00     0.261 C 
BRANCH  32  33
ATOM     33  O   UNL A   1      44.300  19.247  25.301  1.00  0.00    -0.460 OA
BRANCH  33  34
ATOM     34  C   UNL A   1      44.597  19.992  24.213  1.00  0.00     0.338 C 
ATOM     35  O   UNL A   1      44.392  19.713  23.047  1.00  0.00    -0.246 OA
BRANCH  34  36
ATOM     36  C   UNL A   1      45.063  21.305  24.703  1.00  0.00     0.060 A 
ATOM     37  C   UNL A   1      45.451  21.446  26.042  1.00  0.00     0.016 A 
ATOM     38  C   UNL A   1      45.142  22.387  23.824  1.00  0.00     0.016 A 
ATOM     39  C   UNL A   1      45.899  22.682  26.512  1.00  0.00     0.010 A 
ATOM     40  C   UNL A   1      45.568  23.627  24.300  1.00  0.00     0.010 A 
ATOM     41  C   UNL A   1      45.923  23.787  25.652  1.00  0.00    -0.014 A 
BRANCH  41  42
ATOM     42  C   UNL A   1      46.134  25.153  26.188  1.00  0.00     0.031 A 
ATOM     43  C   UNL A   1      44.937  25.911  26.692  1.00  0.00     0.074 A 
ATOM     44  C   UNL A   1      47.353  25.721  26.207  1.00  0.00     0.049 A 
ATOM     45  N   UNL A   1      44.846  27.151  27.096  1.00  0.00    -0.248 NA
ATOM     46  C   UNL A   1      43.668  25.166  26.734  1.00  0.00     0.031 C 
ATOM     47  C   UNL A   1      48.594  25.077  25.784  1.00  0.00     0.029 A 
ATOM     48  N   UNL A   1      47.737  26.985  26.581  1.00  0.00    -0.354 N 
ATOM     49  C   UNL A   1      43.509  27.340  27.426  1.00  0.00     0.074 A 
ATOM     50  C   UNL A   1      42.824  26.097  27.148  1.00  0.00     0.031 C 
ATOM     51  C   UNL A   1      49.602  25.959  25.901  1.00  0.00     0.029 A 
ATOM     52  C   UNL A   1      49.069  27.239  26.367  1.00  0.00     0.049 A 
ATOM     53  H   UNL A   1      47.117  27.645  26.965  1.00  0.00     0.167 HD
ATOM     54  C   UNL A   1      42.911  28.449  27.918  1.00  0.00     0.037 A 
ATOM     55  C   UNL A   1      49.767  28.384  26.501  1.00  0.00     0.037 A 
ATOM     56  C   UNL A   1      43.598  29.684  28.187  1.00  0.00     0.049 A 
ATOM     57  C   UNL A   1      49.064  29.630  26.977  1.00  0.00     0.074 A 
ATOM     58  C   UNL A   1      43.086  30.858  28.707  1.00  0.00     0.029 A 
ATOM     59  N   UNL A   1      44.944  29.907  27.942  1.00  0.00    -0.354 N 
ATOM     60  N   UNL A   1      47.807  29.794  27.312  1.00  0.00    -0.248 NA
ATOM     61  C   UNL A   1      49.878  30.848  27.095  1.00  0.00     0.031 C 
ATOM     62  C   UNL A   1      44.108  31.812  28.717  1.00  0.00     0.029 A 
ATOM     63  C   UNL A   1      45.273  31.212  28.271  1.00  0.00     0.049 A 
ATOM     64  H   UNL A   1      45.573  29.238  27.587  1.00  0.00     0.167 HD
ATOM     65  C   UNL A   1      47.688  31.120  27.715  1.00  0.00     0.074 A 
ATOM     66  C   UNL A   1      49.003  31.713  27.588  1.00  0.00     0.031 C 
ATOM     67  C   UNL A   1      46.590  31.786  28.154  1.00  0.00     0.037 A 
BRANCH  54  68
ATOM     68  C   UNL A   1      41.430  28.385  28.162  1.00  0.00     0.057 A 
ATOM     69  C   UNL A   1      40.892  27.947  29.379  1.00  0.00     0.134 A 
ATOM     70  C   UNL A   1      40.530  28.794  27.168  1.00  0.00     0.134 A 
ATOM     71  F   UNL A   1      41.697  27.527  30.366  1.00  0.00    -0.206 F 
ATOM     72  C   UNL A   1      39.513  27.892  29.590  1.00  0.00     0.040 A 
ATOM     73  C   UNL A   1      39.150  28.772  27.379  1.00  0.00     0.040 A 
ATOM     74  F   UNL A   1      40.976  29.227  25.980  1.00  0.00    -0.206 F 
ATOM     75  C   UNL A   1      38.638  28.314  28.591  1.00  0.00     0.006 A 
ENDBRANCH  54  68
BRANCH  55  76
ATOM     76  C   UNL A   1      51.214  28.419  26.158  1.00  0.00     0.057 A 
ATOM     77  C   UNL A   1      52.197  28.337  27.151  1.00  0.00     0.134 A 
ATOM     78  C   UNL A   1      51.648  28.563  24.835  1.00  0.00     0.134 A 
ATOM     79  F   UNL A   1      51.847  28.224  28.440  1.00  0.00    -0.206 F 
ATOM     80  C   UNL A   1      53.558  28.418  26.844  1.00  0.00     0.040 A 
ATOM     81  C   UNL A   1      53.005  28.615  24.510  1.00  0.00     0.040 A 
ATOM     82  F   UNL A   1      50.758  28.648  23.836  1.00  0.00    -0.206 F 
ATOM     83  C   UNL A   1      53.964  28.550  25.518  1.00  0.00     0.006 A 
ENDBRANCH  55  76
BRANCH  67  84
ATOM     84  C   UNL A   1      46.768  33.214  28.586  1.00  0.00     0.057 A 
ATOM     85  C   UNL A   1      47.168  33.559  29.883  1.00  0.00     0.134 A 
ATOM     86  C   UNL A   1      46.590  34.258  27.668  1.00  0.00     0.134 A 
ATOM     87  F   UNL A   1      47.348  32.611  30.815  1.00  0.00    -0.206 F 
ATOM     88  C   UNL A   1      47.359  34.891  30.258  1.00  0.00     0.040 A 
ATOM     89  C   UNL A   1      46.809  35.590  28.022  1.00  0.00     0.040 A 
ATOM     90  F   UNL A   1      46.220  33.999  26.404  1.00  0.00    -0.206 F 
ATOM     91  C   UNL A   1      47.189  35.911  29.323  1.00  0.00     0.006 A 
ENDBRANCH  67  84
ENDBRANCH  41  42
ENDBRANCH  34  36
ENDBRANCH  33  34
ENDBRANCH  32  33
ENDBRANCH  31  32
ENDBRANCH  30  31
ENDBRANCH  29  30
ENDBRANCH  28  29
ENDBRANCH   1  28
TORSDOF 22
ENDMDL
