MODEL 1
REMARK VINA RESULT:     -11.5      0.000      0.000
REMARK SMILES O=C(OCCOCCOCCOCCOC(=O)c1ccc([C@@H]2CC(O)=Nc3c2ncn3-c2cccc(Cl)c2)cc1)c1ccc(-c2c3nc(c(-c4c(F)cccc4F)c4ccc([nH]4)c(-c4c(F)cccc4F)c4nc(c(-c5c(F)cccc5F)c5ccc2[nH]5)C=C4)C=C3)cc1
REMARK SMILES IDX 9 1 8 2 7 3 6 4 5 5 4 6 3 7 2 8 1 9 41 10 42 11 94 12 43 13
REMARK SMILES IDX 93 14 44 15 45 16 46 17 87 18 47 19 92 20 86 21 88 22 48 23
REMARK SMILES IDX 91 24 85 25 84 26 49 28 75 29 58 30 74 31 59 32 62 33 73 34
REMARK SMILES IDX 89 35 60 36 61 37 72 39 90 40 63 41 50 42 51 43 56 44 52 45
REMARK SMILES IDX 53 46 55 47 57 48 54 49 76 50 77 51 82 52 78 53 79 54 81 55
REMARK SMILES IDX 83 56 80 57 64 58 65 59 70 60 66 61 67 62 69 63 71 64 68 65
REMARK SMILES IDX 10 66 11 67 12 68 13 69 14 70 15 71 16 72 17 73 18 74 19 75
REMARK SMILES IDX 40 76 20 77 39 78 21 79 22 80 23 81 28 82 24 83 27 84 29 85
REMARK SMILES IDX 26 86 31 87 30 88 25 89 32 91 33 92 38 93 34 94 36 95 35 96
REMARK SMILES IDX 37 97
REMARK H PARENT 88 27 62 38 25 90
REMARK Flexibility Score: inf
ROOT
ATOM      1  O   UNL A   1      34.877  30.157  27.955  1.00  0.00    -0.377 OA
ENDROOT
BRANCH   1   2
ATOM      2  C   UNL A   1      34.639  31.538  27.749  1.00  0.00     0.188 C 
BRANCH   2   3
ATOM      3  C   UNL A   1      34.375  32.392  29.003  1.00  0.00     0.188 C 
BRANCH   3   4
ATOM      4  O   UNL A   1      34.388  33.813  29.082  1.00  0.00    -0.376 OA
BRANCH   4   5
ATOM      5  C   UNL A   1      33.312  34.705  28.909  1.00  0.00     0.202 C 
BRANCH   5   6
ATOM      6  C   UNL A   1      32.962  35.775  29.940  1.00  0.00     0.261 C 
BRANCH   6   7
ATOM      7  O   UNL A   1      32.672  35.316  31.255  1.00  0.00    -0.460 OA
BRANCH   7   8
ATOM      8  C   UNL A   1      33.422  35.341  32.374  1.00  0.00     0.338 C 
ATOM      9  O   UNL A   1      33.073  36.097  33.281  1.00  0.00    -0.246 OA
BRANCH   8  10
ATOM     10  C   UNL A   1      34.673  34.562  32.580  1.00  0.00     0.060 A 
ATOM     11  C   UNL A   1      35.962  35.082  32.677  1.00  0.00     0.016 A 
ATOM     12  C   UNL A   1      34.507  33.161  32.606  1.00  0.00     0.016 A 
ATOM     13  C   UNL A   1      37.055  34.238  32.610  1.00  0.00     0.010 A 
ATOM     14  C   UNL A   1      35.597  32.307  32.567  1.00  0.00     0.010 A 
ATOM     15  C   UNL A   1      36.864  32.863  32.483  1.00  0.00    -0.014 A 
BRANCH  15  16
ATOM     16  C   UNL A   1      38.051  32.063  32.250  1.00  0.00     0.031 A 
ATOM     17  C   UNL A   1      38.911  31.854  33.437  1.00  0.00     0.074 A 
ATOM     18  C   UNL A   1      38.375  31.588  31.035  1.00  0.00     0.049 A 
ATOM     19  N   UNL A   1      40.082  32.354  33.656  1.00  0.00    -0.248 NA
ATOM     20  C   UNL A   1      38.355  31.094  34.564  1.00  0.00     0.031 C 
ATOM     21  C   UNL A   1      37.543  31.501  29.833  1.00  0.00     0.029 A 
ATOM     22  N   UNL A   1      39.542  31.008  30.647  1.00  0.00    -0.354 N 
ATOM     23  C   UNL A   1      40.499  31.828  34.873  1.00  0.00     0.074 A 
ATOM     24  C   UNL A   1      39.352  31.170  35.446  1.00  0.00     0.031 C 
ATOM     25  C   UNL A   1      38.157  30.705  28.928  1.00  0.00     0.029 A 
ATOM     26  C   UNL A   1      39.477  30.354  29.426  1.00  0.00     0.049 A 
ATOM     27  H   UNL A   1      40.365  31.047  31.187  1.00  0.00     0.167 HD
ATOM     28  C   UNL A   1      41.816  31.795  35.212  1.00  0.00     0.037 A 
ATOM     29  C   UNL A   1      40.422  29.537  28.903  1.00  0.00     0.037 A 
ATOM     30  C   UNL A   1      42.586  32.735  34.438  1.00  0.00     0.049 A 
ATOM     31  C   UNL A   1      41.710  29.844  29.572  1.00  0.00     0.074 A 
ATOM     32  C   UNL A   1      42.549  34.105  34.259  1.00  0.00     0.029 A 
ATOM     33  N   UNL A   1      43.365  32.252  33.417  1.00  0.00    -0.354 N 
ATOM     34  N   UNL A   1      42.392  30.936  29.376  1.00  0.00    -0.248 NA
ATOM     35  C   UNL A   1      42.032  29.121  30.794  1.00  0.00     0.031 C 
ATOM     36  C   UNL A   1      42.874  34.308  32.886  1.00  0.00     0.029 A 
ATOM     37  C   UNL A   1      43.142  33.057  32.329  1.00  0.00     0.049 A 
ATOM     38  H   UNL A   1      43.970  31.476  33.457  1.00  0.00     0.167 HD
ATOM     39  C   UNL A   1      42.884  31.273  30.627  1.00  0.00     0.074 A 
ATOM     40  C   UNL A   1      42.717  30.070  31.438  1.00  0.00     0.031 C 
ATOM     41  C   UNL A   1      43.118  32.574  30.970  1.00  0.00     0.037 A 
BRANCH  28  42
ATOM     42  C   UNL A   1      42.458  30.657  35.966  1.00  0.00     0.057 A 
ATOM     43  C   UNL A   1      43.349  30.942  37.016  1.00  0.00     0.134 A 
ATOM     44  C   UNL A   1      42.476  29.325  35.508  1.00  0.00     0.134 A 
ATOM     45  F   UNL A   1      43.434  32.178  37.531  1.00  0.00    -0.206 F 
ATOM     46  C   UNL A   1      44.253  29.994  37.510  1.00  0.00     0.040 A 
ATOM     47  C   UNL A   1      43.339  28.357  36.030  1.00  0.00     0.040 A 
ATOM     48  F   UNL A   1      41.744  28.912  34.467  1.00  0.00    -0.206 F 
ATOM     49  C   UNL A   1      44.256  28.699  37.010  1.00  0.00     0.006 A 
ENDBRANCH  28  42
BRANCH  29  50
ATOM     50  C   UNL A   1      40.231  28.323  28.081  1.00  0.00     0.057 A 
ATOM     51  C   UNL A   1      40.883  28.174  26.850  1.00  0.00     0.134 A 
ATOM     52  C   UNL A   1      39.634  27.166  28.611  1.00  0.00     0.134 A 
ATOM     53  F   UNL A   1      41.515  29.211  26.282  1.00  0.00    -0.206 F 
ATOM     54  C   UNL A   1      40.965  26.937  26.197  1.00  0.00     0.040 A 
ATOM     55  C   UNL A   1      39.701  25.928  27.966  1.00  0.00     0.040 A 
ATOM     56  F   UNL A   1      39.047  27.176  29.816  1.00  0.00    -0.206 F 
ATOM     57  C   UNL A   1      40.383  25.806  26.763  1.00  0.00     0.006 A 
ENDBRANCH  29  50
BRANCH  41  58
ATOM     58  C   UNL A   1      43.101  33.605  29.877  1.00  0.00     0.057 A 
ATOM     59  C   UNL A   1      41.962  34.331  29.493  1.00  0.00     0.134 A 
ATOM     60  C   UNL A   1      44.313  33.968  29.278  1.00  0.00     0.134 A 
ATOM     61  F   UNL A   1      40.777  34.135  30.087  1.00  0.00    -0.206 F 
ATOM     62  C   UNL A   1      42.021  35.328  28.513  1.00  0.00     0.040 A 
ATOM     63  C   UNL A   1      44.391  34.988  28.327  1.00  0.00     0.040 A 
ATOM     64  F   UNL A   1      45.455  33.361  29.639  1.00  0.00    -0.206 F 
ATOM     65  C   UNL A   1      43.240  35.661  27.930  1.00  0.00     0.006 A 
ENDBRANCH  41  58
ENDBRANCH  15  16
ENDBRANCH   8  10
ENDBRANCH   7   8
ENDBRANCH   6   7
ENDBRANCH   5   6
ENDBRANCH   4   5
ENDBRANCH   3   4
ENDBRANCH   2   3
ENDBRANCH   1   2
BRANCH   1  66
ATOM     66  C   UNL A   1      34.410  29.330  26.914  1.00  0.00     0.188 C 
BRANCH  66  67
ATOM     67  C   UNL A   1      33.144  28.536  27.286  1.00  0.00     0.188 C 
BRANCH  67  68
ATOM     68  O   UNL A   1      31.860  29.140  27.278  1.00  0.00    -0.376 OA
BRANCH  68  69
ATOM     69  C   UNL A   1      31.645  30.386  26.634  1.00  0.00     0.202 C 
BRANCH  69  70
ATOM     70  C   UNL A   1      31.251  30.467  25.149  1.00  0.00     0.261 C 
BRANCH  70  71
ATOM     71  O   UNL A   1      30.605  29.320  24.585  1.00  0.00    -0.460 OA
BRANCH  71  72
ATOM     72  C   UNL A   1      31.234  28.741  23.542  1.00  0.00     0.338 C 
ATOM     73  O   UNL A   1      31.330  29.171  22.394  1.00  0.00    -0.246 OA
BRANCH  72  74
ATOM     74  C   UNL A   1      31.975  27.561  24.019  1.00  0.00     0.060 A 
ATOM     75  C   UNL A   1      31.294  26.614  24.792  1.00  0.00     0.016 A 
ATOM     76  C   UNL A   1      33.324  27.385  23.716  1.00  0.00     0.016 A 
ATOM     77  C   UNL A   1      31.957  25.483  25.252  1.00  0.00     0.005 A 
ATOM     78  C   UNL A   1      34.006  26.280  24.238  1.00  0.00     0.005 A 
ATOM     79  C   UNL A   1      33.332  25.318  25.016  1.00  0.00    -0.038 A 
BRANCH  79  80
ATOM     80  C   UNL A   1      34.033  24.209  25.784  1.00  0.00     0.081 C 
ATOM     81  C   UNL A   1      35.512  24.136  25.347  1.00  0.00     0.111 C 
ATOM     82  C   UNL A   1      33.333  22.930  25.541  1.00  0.00     0.093 A 
ATOM     83  C   UNL A   1      35.825  22.995  24.393  1.00  0.00     0.188 C 
ATOM     84  C   UNL A   1      33.940  21.906  24.849  1.00  0.00     0.164 A 
ATOM     85  N   UNL A   1      32.056  22.610  25.910  1.00  0.00    -0.238 NA
ATOM     86  N   UNL A   1      35.135  21.916  24.207  1.00  0.00    -0.198 NA
ATOM     87  N   UNL A   1      32.998  20.898  24.796  1.00  0.00    -0.283 N 
ATOM     88  C   UNL A   1      31.868  21.405  25.408  1.00  0.00     0.206 A 
BRANCH  83  89
ATOM     89  O   UNL A   1      36.988  23.132  23.730  1.00  0.00    -0.496 OA
ATOM     90  H   UNL A   1      37.133  23.882  23.187  1.00  0.00     0.294 HD
ENDBRANCH  83  89
BRANCH  87  91
ATOM     91  C   UNL A   1      33.152  19.610  24.233  1.00  0.00     0.050 A 
ATOM     92  C   UNL A   1      32.408  19.242  23.106  1.00  0.00     0.027 A 
ATOM     93  C   UNL A   1      34.053  18.708  24.815  1.00  0.00     0.047 A 
ATOM     94  C   UNL A   1      32.597  17.978  22.541  1.00  0.00     0.004 A 
ATOM     95  C   UNL A   1      34.195  17.434  24.270  1.00  0.00     0.043 A 
ATOM     96  C   UNL A   1      33.482  17.071  23.129  1.00  0.00     0.020 A 
ATOM     97  Cl  UNL A   1      35.241  16.295  25.025  1.00  0.00    -0.084 Cl
ENDBRANCH  87  91
ENDBRANCH  79  80
ENDBRANCH  72  74
ENDBRANCH  71  72
ENDBRANCH  70  71
ENDBRANCH  69  70
ENDBRANCH  68  69
ENDBRANCH  67  68
ENDBRANCH  66  67
ENDBRANCH   1  66
TORSDOF 23
ENDMDL
MODEL 2
REMARK VINA RESULT:     -11.2      1.730      2.369
REMARK SMILES O=C(OCCOCCOCCOCCOC(=O)c1ccc([C@@H]2CC(O)=Nc3c2ncn3-c2cccc(Cl)c2)cc1)c1ccc(-c2c3nc(c(-c4c(F)cccc4F)c4ccc([nH]4)c(-c4c(F)cccc4F)c4nc(c(-c5c(F)cccc5F)c5ccc2[nH]5)C=C4)C=C3)cc1
REMARK SMILES IDX 9 1 8 2 7 3 6 4 5 5 4 6 3 7 2 8 1 9 41 10 42 11 94 12 43 13
REMARK SMILES IDX 93 14 44 15 45 16 46 17 87 18 47 19 92 20 86 21 88 22 48 23
REMARK SMILES IDX 91 24 85 25 84 26 49 28 75 29 58 30 74 31 59 32 62 33 73 34
REMARK SMILES IDX 89 35 60 36 61 37 72 39 90 40 63 41 50 42 51 43 56 44 52 45
REMARK SMILES IDX 53 46 55 47 57 48 54 49 76 50 77 51 82 52 78 53 79 54 81 55
REMARK SMILES IDX 83 56 80 57 64 58 65 59 70 60 66 61 67 62 69 63 71 64 68 65
REMARK SMILES IDX 10 66 11 67 12 68 13 69 14 70 15 71 16 72 17 73 18 74 19 75
REMARK SMILES IDX 40 76 20 77 39 78 21 79 22 80 23 81 28 82 24 83 27 84 29 85
REMARK SMILES IDX 26 86 31 87 30 88 25 89 32 91 33 92 38 93 34 94 36 95 35 96
REMARK SMILES IDX 37 97
REMARK H PARENT 88 27 62 38 25 90
REMARK Flexibility Score: inf
ROOT
ATOM      1  O   UNL A   1      34.487  30.999  27.320  1.00  0.00    -0.377 OA
ENDROOT
BRANCH   1   2
ATOM      2  C   UNL A   1      34.023  31.944  28.267  1.00  0.00     0.188 C 
BRANCH   2   3
ATOM      3  C   UNL A   1      34.522  33.392  28.106  1.00  0.00     0.188 C 
BRANCH   3   4
ATOM      4  O   UNL A   1      33.742  34.578  28.213  1.00  0.00    -0.376 OA
BRANCH   4   5
ATOM      5  C   UNL A   1      33.995  35.718  29.000  1.00  0.00     0.202 C 
BRANCH   5   6
ATOM      6  C   UNL A   1      32.875  36.523  29.657  1.00  0.00     0.261 C 
BRANCH   6   7
ATOM      7  O   UNL A   1      32.852  36.530  31.079  1.00  0.00    -0.460 OA
BRANCH   7   8
ATOM      8  C   UNL A   1      32.932  35.513  31.959  1.00  0.00     0.338 C 
ATOM      9  O   UNL A   1      31.919  35.225  32.597  1.00  0.00    -0.246 OA
BRANCH   8  10
ATOM     10  C   UNL A   1      34.167  34.737  32.256  1.00  0.00     0.060 A 
ATOM     11  C   UNL A   1      35.403  35.264  32.620  1.00  0.00     0.016 A 
ATOM     12  C   UNL A   1      34.056  33.342  32.073  1.00  0.00     0.016 A 
ATOM     13  C   UNL A   1      36.527  34.459  32.617  1.00  0.00     0.010 A 
ATOM     14  C   UNL A   1      35.172  32.523  32.094  1.00  0.00     0.010 A 
ATOM     15  C   UNL A   1      36.413  33.109  32.284  1.00  0.00    -0.014 A 
BRANCH  15  16
ATOM     16  C   UNL A   1      37.653  32.372  32.138  1.00  0.00     0.031 A 
ATOM     17  C   UNL A   1      38.494  32.309  33.355  1.00  0.00     0.074 A 
ATOM     18  C   UNL A   1      38.037  31.827  30.971  1.00  0.00     0.049 A 
ATOM     19  N   UNL A   1      39.626  32.899  33.559  1.00  0.00    -0.248 NA
ATOM     20  C   UNL A   1      37.958  31.604  34.526  1.00  0.00     0.031 C 
ATOM     21  C   UNL A   1      37.243  31.595  29.763  1.00  0.00     0.029 A 
ATOM     22  N   UNL A   1      39.248  31.294  30.653  1.00  0.00    -0.354 N 
ATOM     23  C   UNL A   1      40.044  32.495  34.821  1.00  0.00     0.074 A 
ATOM     24  C   UNL A   1      38.926  31.810  35.420  1.00  0.00     0.031 C 
ATOM     25  C   UNL A   1      37.928  30.773  28.935  1.00  0.00     0.029 A 
ATOM     26  C   UNL A   1      39.254  30.546  29.486  1.00  0.00     0.049 A 
ATOM     27  H   UNL A   1      40.052  31.427  31.206  1.00  0.00     0.167 HD
ATOM     28  C   UNL A   1      41.351  32.572  35.189  1.00  0.00     0.037 A 
ATOM     29  C   UNL A   1      40.261  29.754  29.048  1.00  0.00     0.037 A 
ATOM     30  C   UNL A   1      42.081  33.497  34.360  1.00  0.00     0.049 A 
ATOM     31  C   UNL A   1      41.510  30.192  29.717  1.00  0.00     0.074 A 
ATOM     32  C   UNL A   1      41.963  34.845  34.074  1.00  0.00     0.029 A 
ATOM     33  N   UNL A   1      42.914  32.989  33.395  1.00  0.00    -0.354 N 
ATOM     34  N   UNL A   1      42.127  31.308  29.450  1.00  0.00    -0.248 NA
ATOM     35  C   UNL A   1      41.845  29.587  30.998  1.00  0.00     0.031 C 
ATOM     36  C   UNL A   1      42.310  34.962  32.696  1.00  0.00     0.029 A 
ATOM     37  C   UNL A   1      42.669  33.692  32.244  1.00  0.00     0.049 A 
ATOM     38  H   UNL A   1      43.565  32.258  33.508  1.00  0.00     0.167 HD
ATOM     39  C   UNL A   1      42.566  31.770  30.682  1.00  0.00     0.074 A 
ATOM     40  C   UNL A   1      42.453  30.625  31.580  1.00  0.00     0.031 C 
ATOM     41  C   UNL A   1      42.709  33.106  30.926  1.00  0.00     0.037 A 
BRANCH  28  42
ATOM     42  C   UNL A   1      42.043  31.539  36.042  1.00  0.00     0.057 A 
ATOM     43  C   UNL A   1      42.847  31.959  37.117  1.00  0.00     0.134 A 
ATOM     44  C   UNL A   1      42.199  30.189  35.668  1.00  0.00     0.134 A 
ATOM     45  F   UNL A   1      42.799  33.224  37.559  1.00  0.00    -0.206 F 
ATOM     46  C   UNL A   1      43.798  31.122  37.713  1.00  0.00     0.040 A 
ATOM     47  C   UNL A   1      43.110  29.331  36.290  1.00  0.00     0.040 A 
ATOM     48  F   UNL A   1      41.564  29.656  34.618  1.00  0.00    -0.206 F 
ATOM     49  C   UNL A   1      43.938  29.807  37.293  1.00  0.00     0.006 A 
ENDBRANCH  28  42
BRANCH  29  50
ATOM     50  C   UNL A   1      40.167  28.471  28.318  1.00  0.00     0.057 A 
ATOM     51  C   UNL A   1      40.794  28.296  27.078  1.00  0.00     0.134 A 
ATOM     52  C   UNL A   1      39.703  27.303  28.949  1.00  0.00     0.134 A 
ATOM     53  F   UNL A   1      41.304  29.346  26.418  1.00  0.00    -0.206 F 
ATOM     54  C   UNL A   1      40.978  27.029  26.510  1.00  0.00     0.040 A 
ATOM     55  C   UNL A   1      39.872  26.034  28.389  1.00  0.00     0.040 A 
ATOM     56  F   UNL A   1      39.154  27.344  30.171  1.00  0.00    -0.206 F 
ATOM     57  C   UNL A   1      40.528  25.892  27.173  1.00  0.00     0.006 A 
ENDBRANCH  29  50
BRANCH  41  58
ATOM     58  C   UNL A   1      42.656  34.048  29.757  1.00  0.00     0.057 A 
ATOM     59  C   UNL A   1      41.498  34.718  29.333  1.00  0.00     0.134 A 
ATOM     60  C   UNL A   1      43.852  34.386  29.112  1.00  0.00     0.134 A 
ATOM     61  F   UNL A   1      40.326  34.546  29.960  1.00  0.00    -0.206 F 
ATOM     62  C   UNL A   1      41.523  35.636  28.278  1.00  0.00     0.040 A 
ATOM     63  C   UNL A   1      43.896  35.329  28.083  1.00  0.00     0.040 A 
ATOM     64  F   UNL A   1      45.011  33.831  29.502  1.00  0.00    -0.206 F 
ATOM     65  C   UNL A   1      42.727  35.946  27.652  1.00  0.00     0.006 A 
ENDBRANCH  41  58
ENDBRANCH  15  16
ENDBRANCH   8  10
ENDBRANCH   7   8
ENDBRANCH   6   7
ENDBRANCH   5   6
ENDBRANCH   4   5
ENDBRANCH   3   4
ENDBRANCH   2   3
ENDBRANCH   1   2
BRANCH   1  66
ATOM     66  C   UNL A   1      33.486  30.139  26.827  1.00  0.00     0.188 C 
BRANCH  66  67
ATOM     67  C   UNL A   1      33.934  28.668  26.736  1.00  0.00     0.188 C 
BRANCH  67  68
ATOM     68  O   UNL A   1      33.621  27.866  25.608  1.00  0.00    -0.376 OA
BRANCH  68  69
ATOM     69  C   UNL A   1      33.522  28.436  24.313  1.00  0.00     0.202 C 
BRANCH  69  70
ATOM     70  C   UNL A   1      32.283  29.239  23.879  1.00  0.00     0.261 C 
BRANCH  70  71
ATOM     71  O   UNL A   1      31.061  28.972  24.576  1.00  0.00    -0.460 OA
BRANCH  71  72
ATOM     72  C   UNL A   1      30.130  28.278  23.891  1.00  0.00     0.338 C 
ATOM     73  O   UNL A   1      29.234  28.728  23.179  1.00  0.00    -0.246 OA
BRANCH  72  74
ATOM     74  C   UNL A   1      30.446  26.841  23.965  1.00  0.00     0.060 A 
ATOM     75  C   UNL A   1      30.478  26.231  25.224  1.00  0.00     0.016 A 
ATOM     76  C   UNL A   1      30.712  26.100  22.816  1.00  0.00     0.016 A 
ATOM     77  C   UNL A   1      30.762  24.875  25.334  1.00  0.00     0.005 A 
ATOM     78  C   UNL A   1      31.065  24.751  22.936  1.00  0.00     0.005 A 
ATOM     79  C   UNL A   1      31.100  24.123  24.197  1.00  0.00    -0.038 A 
BRANCH  79  80
ATOM     80  C   UNL A   1      31.667  22.733  24.435  1.00  0.00     0.081 C 
ATOM     81  C   UNL A   1      31.402  22.312  25.896  1.00  0.00     0.111 C 
ATOM     82  C   UNL A   1      33.113  22.738  24.127  1.00  0.00     0.093 A 
ATOM     83  C   UNL A   1      32.613  22.421  26.807  1.00  0.00     0.188 C 
ATOM     84  C   UNL A   1      34.052  22.550  25.116  1.00  0.00     0.164 A 
ATOM     85  N   UNL A   1      33.691  22.950  22.907  1.00  0.00    -0.238 NA
ATOM     86  N   UNL A   1      33.858  22.459  26.455  1.00  0.00    -0.198 NA
ATOM     87  N   UNL A   1      35.272  22.638  24.477  1.00  0.00    -0.283 N 
ATOM     88  C   UNL A   1      34.986  22.933  23.157  1.00  0.00     0.206 A 
BRANCH  83  89
ATOM     89  O   UNL A   1      32.320  22.415  28.121  1.00  0.00    -0.496 OA
ATOM     90  H   UNL A   1      32.932  22.761  28.740  1.00  0.00     0.294 HD
ENDBRANCH  83  89
BRANCH  87  91
ATOM     91  C   UNL A   1      36.554  22.465  25.048  1.00  0.00     0.050 A 
ATOM     92  C   UNL A   1      37.218  23.551  25.628  1.00  0.00     0.027 A 
ATOM     93  C   UNL A   1      37.153  21.198  25.024  1.00  0.00     0.047 A 
ATOM     94  C   UNL A   1      38.468  23.356  26.220  1.00  0.00     0.004 A 
ATOM     95  C   UNL A   1      38.421  21.029  25.574  1.00  0.00     0.043 A 
ATOM     96  C   UNL A   1      39.074  22.098  26.183  1.00  0.00     0.020 A 
ATOM     97  Cl  UNL A   1      39.194  19.494  25.479  1.00  0.00    -0.084 Cl
ENDBRANCH  87  91
ENDBRANCH  79  80
ENDBRANCH  72  74
ENDBRANCH  71  72
ENDBRANCH  70  71
ENDBRANCH  69  70
ENDBRANCH  68  69
ENDBRANCH  67  68
ENDBRANCH  66  67
ENDBRANCH   1  66
TORSDOF 23
ENDMDL
MODEL 3
REMARK VINA RESULT:     -10.2      1.960      3.276
REMARK SMILES O=C(OCCOCCOCCOCCOC(=O)c1ccc([C@@H]2CC(O)=Nc3c2ncn3-c2cccc(Cl)c2)cc1)c1ccc(-c2c3nc(c(-c4c(F)cccc4F)c4ccc([nH]4)c(-c4c(F)cccc4F)c4nc(c(-c5c(F)cccc5F)c5ccc2[nH]5)C=C4)C=C3)cc1
REMARK SMILES IDX 9 1 8 2 7 3 6 4 5 5 4 6 3 7 2 8 1 9 41 10 42 11 94 12 43 13
REMARK SMILES IDX 93 14 44 15 45 16 46 17 87 18 47 19 92 20 86 21 88 22 48 23
REMARK SMILES IDX 91 24 85 25 84 26 49 28 75 29 58 30 74 31 59 32 62 33 73 34
REMARK SMILES IDX 89 35 60 36 61 37 72 39 90 40 63 41 50 42 51 43 56 44 52 45
REMARK SMILES IDX 53 46 55 47 57 48 54 49 76 50 77 51 82 52 78 53 79 54 81 55
REMARK SMILES IDX 83 56 80 57 64 58 65 59 70 60 66 61 67 62 69 63 71 64 68 65
REMARK SMILES IDX 10 66 11 67 12 68 13 69 14 70 15 71 16 72 17 73 18 74 19 75
REMARK SMILES IDX 40 76 20 77 39 78 21 79 22 80 23 81 28 82 24 83 27 84 29 85
REMARK SMILES IDX 26 86 31 87 30 88 25 89 32 91 33 92 38 93 34 94 36 95 35 96
REMARK SMILES IDX 37 97
REMARK H PARENT 88 27 62 38 25 90
REMARK Flexibility Score: inf
ROOT
ATOM      1  O   UNL A   1      33.746  30.112  26.569  1.00  0.00    -0.377 OA
ENDROOT
BRANCH   1   2
ATOM      2  C   UNL A   1      33.137  31.176  27.279  1.00  0.00     0.188 C 
BRANCH   2   3
ATOM      3  C   UNL A   1      34.056  32.032  28.170  1.00  0.00     0.188 C 
BRANCH   3   4
ATOM      4  O   UNL A   1      33.949  33.430  28.407  1.00  0.00    -0.376 OA
BRANCH   4   5
ATOM      5  C   UNL A   1      34.317  34.149  29.561  1.00  0.00     0.202 C 
BRANCH   5   6
ATOM      6  C   UNL A   1      33.350  35.085  30.284  1.00  0.00     0.261 C 
BRANCH   6   7
ATOM      7  O   UNL A   1      33.337  35.007  31.705  1.00  0.00    -0.460 OA
BRANCH   7   8
ATOM      8  C   UNL A   1      33.817  34.058  32.531  1.00  0.00     0.338 C 
ATOM      9  O   UNL A   1      33.013  33.465  33.251  1.00  0.00    -0.246 OA
BRANCH   8  10
ATOM     10  C   UNL A   1      35.254  33.702  32.678  1.00  0.00     0.060 A 
ATOM     11  C   UNL A   1      36.334  34.574  32.573  1.00  0.00     0.016 A 
ATOM     12  C   UNL A   1      35.512  32.328  32.872  1.00  0.00     0.016 A 
ATOM     13  C   UNL A   1      37.620  34.075  32.475  1.00  0.00     0.010 A 
ATOM     14  C   UNL A   1      36.800  31.822  32.802  1.00  0.00     0.010 A 
ATOM     15  C   UNL A   1      37.835  32.698  32.518  1.00  0.00    -0.014 A 
BRANCH  15  16
ATOM     16  C   UNL A   1      39.184  32.246  32.240  1.00  0.00     0.031 A 
ATOM     17  C   UNL A   1      40.164  32.484  33.324  1.00  0.00     0.074 A 
ATOM     18  C   UNL A   1      39.534  31.695  31.065  1.00  0.00     0.049 A 
ATOM     19  N   UNL A   1      41.143  33.327  33.327  1.00  0.00    -0.248 NA
ATOM     20  C   UNL A   1      39.959  31.788  34.601  1.00  0.00     0.031 C 
ATOM     21  C   UNL A   1      38.670  31.181  30.000  1.00  0.00     0.029 A 
ATOM     22  N   UNL A   1      40.786  31.418  30.609  1.00  0.00    -0.354 N 
ATOM     23  C   UNL A   1      41.800  33.145  34.538  1.00  0.00     0.074 A 
ATOM     24  C   UNL A   1      40.958  32.287  35.332  1.00  0.00     0.031 C 
ATOM     25  C   UNL A   1      39.417  30.459  29.134  1.00  0.00     0.029 A 
ATOM     26  C   UNL A   1      40.818  30.585  29.501  1.00  0.00     0.049 A 
ATOM     27  H   UNL A   1      41.600  31.777  31.030  1.00  0.00     0.167 HD
ATOM     28  C   UNL A   1      43.089  33.545  34.707  1.00  0.00     0.037 A 
ATOM     29  C   UNL A   1      41.919  30.000  28.971  1.00  0.00     0.037 A 
ATOM     30  C   UNL A   1      43.471  34.529  33.727  1.00  0.00     0.049 A 
ATOM     31  C   UNL A   1      43.106  30.766  29.424  1.00  0.00     0.074 A 
ATOM     32  C   UNL A   1      43.008  35.784  33.379  1.00  0.00     0.029 A 
ATOM     33  N   UNL A   1      44.272  34.132  32.685  1.00  0.00    -0.354 N 
ATOM     34  N   UNL A   1      43.406  31.962  29.004  1.00  0.00    -0.248 NA
ATOM     35  C   UNL A   1      43.731  30.372  30.679  1.00  0.00     0.031 C 
ATOM     36  C   UNL A   1      43.140  35.848  31.961  1.00  0.00     0.029 A 
ATOM     37  C   UNL A   1      43.726  34.654  31.541  1.00  0.00     0.049 A 
ATOM     38  H   UNL A   1      45.084  33.579  32.748  1.00  0.00     0.167 HD
ATOM     39  C   UNL A   1      43.877  32.621  30.129  1.00  0.00     0.074 A 
ATOM     40  C   UNL A   1      44.149  31.567  31.103  1.00  0.00     0.031 C 
ATOM     41  C   UNL A   1      43.735  33.972  30.269  1.00  0.00     0.037 A 
BRANCH  28  42
ATOM     42  C   UNL A   1      44.105  32.775  35.513  1.00  0.00     0.057 A 
ATOM     43  C   UNL A   1      44.286  31.403  35.264  1.00  0.00     0.134 A 
ATOM     44  C   UNL A   1      44.678  33.247  36.711  1.00  0.00     0.134 A 
ATOM     45  F   UNL A   1      43.777  30.830  34.162  1.00  0.00    -0.206 F 
ATOM     46  C   UNL A   1      44.911  30.550  36.181  1.00  0.00     0.040 A 
ATOM     47  C   UNL A   1      45.349  32.414  37.610  1.00  0.00     0.040 A 
ATOM     48  F   UNL A   1      44.530  34.510  37.129  1.00  0.00    -0.206 F 
ATOM     49  C   UNL A   1      45.436  31.054  37.363  1.00  0.00     0.006 A 
ENDBRANCH  28  42
BRANCH  29  50
ATOM     50  C   UNL A   1      42.035  28.667  28.342  1.00  0.00     0.057 A 
ATOM     51  C   UNL A   1      41.798  27.498  29.076  1.00  0.00     0.134 A 
ATOM     52  C   UNL A   1      42.101  28.520  26.945  1.00  0.00     0.134 A 
ATOM     53  F   UNL A   1      41.680  27.543  30.411  1.00  0.00    -0.206 F 
ATOM     54  C   UNL A   1      41.606  26.257  28.456  1.00  0.00     0.040 A 
ATOM     55  C   UNL A   1      41.921  27.286  26.314  1.00  0.00     0.040 A 
ATOM     56  F   UNL A   1      42.251  29.581  26.141  1.00  0.00    -0.206 F 
ATOM     57  C   UNL A   1      41.654  26.151  27.069  1.00  0.00     0.006 A 
ENDBRANCH  29  50
BRANCH  41  58
ATOM     58  C   UNL A   1      43.316  34.766  29.064  1.00  0.00     0.057 A 
ATOM     59  C   UNL A   1      41.983  35.057  28.733  1.00  0.00     0.134 A 
ATOM     60  C   UNL A   1      44.307  35.367  28.278  1.00  0.00     0.134 A 
ATOM     61  F   UNL A   1      40.966  34.621  29.490  1.00  0.00    -0.206 F 
ATOM     62  C   UNL A   1      41.655  35.859  27.635  1.00  0.00     0.040 A 
ATOM     63  C   UNL A   1      43.993  36.200  27.203  1.00  0.00     0.040 A 
ATOM     64  F   UNL A   1      45.605  35.185  28.571  1.00  0.00    -0.206 F 
ATOM     65  C   UNL A   1      42.663  36.436  26.868  1.00  0.00     0.006 A 
ENDBRANCH  41  58
ENDBRANCH  15  16
ENDBRANCH   8  10
ENDBRANCH   7   8
ENDBRANCH   6   7
ENDBRANCH   5   6
ENDBRANCH   4   5
ENDBRANCH   3   4
ENDBRANCH   2   3
ENDBRANCH   1   2
BRANCH   1  66
ATOM     66  C   UNL A   1      32.986  29.637  25.481  1.00  0.00     0.188 C 
BRANCH  66  67
ATOM     67  C   UNL A   1      33.522  28.319  24.891  1.00  0.00     0.188 C 
BRANCH  67  68
ATOM     68  O   UNL A   1      33.081  27.837  23.631  1.00  0.00    -0.376 OA
BRANCH  68  69
ATOM     69  C   UNL A   1      31.871  28.304  23.055  1.00  0.00     0.202 C 
BRANCH  69  70
ATOM     70  C   UNL A   1      30.547  28.284  23.839  1.00  0.00     0.261 C 
BRANCH  70  71
ATOM     71  O   UNL A   1      30.390  27.253  24.821  1.00  0.00    -0.460 OA
BRANCH  71  72
ATOM     72  C   UNL A   1      29.548  26.251  24.495  1.00  0.00     0.338 C 
ATOM     73  O   UNL A   1      28.343  26.332  24.264  1.00  0.00    -0.246 OA
BRANCH  72  74
ATOM     74  C   UNL A   1      30.325  25.021  24.267  1.00  0.00     0.060 A 
ATOM     75  C   UNL A   1      30.820  24.330  25.378  1.00  0.00     0.016 A 
ATOM     76  C   UNL A   1      30.569  24.550  22.978  1.00  0.00     0.016 A 
ATOM     77  C   UNL A   1      31.549  23.160  25.203  1.00  0.00     0.005 A 
ATOM     78  C   UNL A   1      31.361  23.410  22.803  1.00  0.00     0.005 A 
ATOM     79  C   UNL A   1      31.865  22.703  23.914  1.00  0.00    -0.038 A 
BRANCH  79  80
ATOM     80  C   UNL A   1      32.892  21.588  23.811  1.00  0.00     0.081 C 
ATOM     81  C   UNL A   1      32.674  20.580  24.961  1.00  0.00     0.111 C 
ATOM     82  C   UNL A   1      34.250  22.171  23.854  1.00  0.00     0.093 A 
ATOM     83  C   UNL A   1      33.665  20.714  26.105  1.00  0.00     0.188 C 
ATOM     84  C   UNL A   1      35.096  21.930  24.913  1.00  0.00     0.164 A 
ATOM     85  N   UNL A   1      34.814  23.005  22.930  1.00  0.00    -0.238 NA
ATOM     86  N   UNL A   1      34.829  21.278  26.072  1.00  0.00    -0.198 NA
ATOM     87  N   UNL A   1      36.245  22.640  24.627  1.00  0.00    -0.283 N 
ATOM     88  C   UNL A   1      35.990  23.307  23.444  1.00  0.00     0.206 A 
BRANCH  83  89
ATOM     89  O   UNL A   1      33.277  20.114  27.245  1.00  0.00    -0.496 OA
ATOM     90  H   UNL A   1      33.809  20.178  28.014  1.00  0.00     0.294 HD
ENDBRANCH  83  89
BRANCH  87  91
ATOM     91  C   UNL A   1      37.438  22.681  25.384  1.00  0.00     0.050 A 
ATOM     92  C   UNL A   1      37.785  23.839  26.089  1.00  0.00     0.027 A 
ATOM     93  C   UNL A   1      38.270  21.554  25.418  1.00  0.00     0.047 A 
ATOM     94  C   UNL A   1      38.949  23.851  26.861  1.00  0.00     0.004 A 
ATOM     95  C   UNL A   1      39.453  21.597  26.151  1.00  0.00     0.043 A 
ATOM     96  C   UNL A   1      39.789  22.735  26.883  1.00  0.00     0.020 A 
ATOM     97  Cl  UNL A   1      40.518  20.245  26.136  1.00  0.00    -0.084 Cl
ENDBRANCH  87  91
ENDBRANCH  79  80
ENDBRANCH  72  74
ENDBRANCH  71  72
ENDBRANCH  70  71
ENDBRANCH  69  70
ENDBRANCH  68  69
ENDBRANCH  67  68
ENDBRANCH  66  67
ENDBRANCH   1  66
TORSDOF 23
ENDMDL
