MODEL 1
REMARK VINA RESULT:      -9.7      0.000      0.000
REMARK SMILES C[C@H](NC(=O)OC(C)(C)C)C(=O)N[C@@H](C)C(=O)N1CCC[C@H]1C(=O)OCCOCCOCCOCCOC(=O)c1ccc(-c2c3nc(c(-c4c(F)cccc4F)c4ccc([nH]4)c(-c4c(F)cccc4F)c4nc(c(-c5c(F)cccc5F)c5ccc2[nH]5)C=C4)C=C3)cc1
REMARK SMILES IDX 29 1 28 2 27 3 26 4 25 5 23 6 24 7 22 8 18 9 19 10 20 11
REMARK SMILES IDX 21 12 16 13 17 14 14 15 15 16 13 17 11 18 12 19 2 21 1 22
REMARK SMILES IDX 3 23 4 24 5 26 6 27 7 28 8 29 9 30 10 31 30 32 31 33 32 34
REMARK SMILES IDX 33 35 34 36 35 37 36 38 37 39 38 40 39 41 40 42 41 43 93 44
REMARK SMILES IDX 42 45 92 46 43 47 44 48 45 49 86 50 46 51 91 52 85 53 87 54
REMARK SMILES IDX 47 55 90 56 84 57 83 58 48 60 74 61 57 62 73 63 58 64 61 65
REMARK SMILES IDX 72 66 88 67 59 68 60 69 71 71 89 72 62 73 49 74 50 75 55 76
REMARK SMILES IDX 51 77 52 78 54 79 56 80 53 81 75 82 76 83 81 84 77 85 78 86
REMARK SMILES IDX 80 87 82 88 79 89 63 90 64 91 69 92 65 93 66 94 68 95 70 96
REMARK SMILES IDX 67 97
REMARK H PARENT 13 20 3 25 87 59 61 70
REMARK Flexibility Score: inf
ROOT
ATOM      1  C   UNL A   1      40.218  22.374  27.597  1.00  0.00     0.188 C 
ENDROOT
BRANCH   1   2
ATOM      2  O   UNL A   1      39.582  22.438  26.335  1.00  0.00    -0.376 OA
BRANCH   2   3
ATOM      3  C   UNL A   1      38.513  23.340  26.130  1.00  0.00     0.202 C 
BRANCH   3   4
ATOM      4  C   UNL A   1      37.342  22.845  25.268  1.00  0.00     0.261 C 
BRANCH   4   5
ATOM      5  O   UNL A   1      36.310  22.149  25.979  1.00  0.00    -0.462 OA
BRANCH   5   6
ATOM      6  C   UNL A   1      35.627  21.202  25.292  1.00  0.00     0.328 C 
ATOM      7  O   UNL A   1      36.103  20.112  24.994  1.00  0.00    -0.250 OA
BRANCH   6   8
ATOM      8  C   UNL A   1      34.128  21.560  25.189  1.00  0.00     0.195 C 
ATOM      9  N   UNL A   1      33.540  21.755  23.858  1.00  0.00    -0.327 N 
ATOM     10  C   UNL A   1      32.791  20.574  23.497  1.00  0.00     0.120 C 
ATOM     11  C   UNL A   1      32.237  20.069  24.814  1.00  0.00     0.024 C 
ATOM     12  C   UNL A   1      33.249  20.498  25.864  1.00  0.00     0.039 C 
BRANCH   9  13
ATOM     13  C   UNL A   1      33.648  22.959  23.192  1.00  0.00     0.245 C 
ATOM     14  O   UNL A   1      34.707  23.287  22.651  1.00  0.00    -0.272 OA
BRANCH  13  15
ATOM     15  C   UNL A   1      32.528  24.024  23.277  1.00  0.00     0.168 C 
ATOM     16  C   UNL A   1      31.378  23.502  24.135  1.00  0.00     0.041 C 
BRANCH  15  17
ATOM     17  N   UNL A   1      32.067  24.553  21.998  1.00  0.00    -0.343 N 
ATOM     18  C   UNL A   1      31.711  25.823  21.657  1.00  0.00     0.243 C 
ATOM     19  O   UNL A   1      31.528  26.047  20.457  1.00  0.00    -0.273 OA
ATOM     20  H   UNL A   1      32.005  23.892  21.271  1.00  0.00     0.164 HD
BRANCH  18  21
ATOM     21  C   UNL A   1      31.569  26.947  22.700  1.00  0.00     0.171 C 
ATOM     22  C   UNL A   1      30.315  27.775  22.447  1.00  0.00     0.042 C 
BRANCH  21  23
ATOM     23  N   UNL A   1      32.866  27.613  22.850  1.00  0.00    -0.310 N 
ATOM     24  C   UNL A   1      33.420  28.319  23.866  1.00  0.00     0.408 C 
ATOM     25  H   UNL A   1      33.447  27.532  22.060  1.00  0.00     0.167 HD
ATOM     26  O   UNL A   1      34.539  28.806  23.739  1.00  0.00    -0.225 OA
BRANCH  24  27
ATOM     27  O   UNL A   1      32.632  28.424  24.949  1.00  0.00    -0.444 OA
BRANCH  27  28
ATOM     28  C   UNL A   1      32.933  27.702  26.167  1.00  0.00     0.106 C 
ATOM     29  C   UNL A   1      31.709  27.611  27.084  1.00  0.00     0.056 C 
ATOM     30  C   UNL A   1      33.533  26.323  25.871  1.00  0.00     0.056 C 
ATOM     31  C   UNL A   1      33.996  28.558  26.865  1.00  0.00     0.056 C 
ENDBRANCH  27  28
ENDBRANCH  24  27
ENDBRANCH  21  23
ENDBRANCH  18  21
ENDBRANCH  15  17
ENDBRANCH  13  15
ENDBRANCH   9  13
ENDBRANCH   6   8
ENDBRANCH   5   6
ENDBRANCH   4   5
ENDBRANCH   3   4
ENDBRANCH   2   3
ENDBRANCH   1   2
BRANCH   1  32
ATOM     32  C   UNL A   1      41.198  21.188  27.793  1.00  0.00     0.188 C 
BRANCH  32  33
ATOM     33  O   UNL A   1      41.188  20.007  27.000  1.00  0.00    -0.377 OA
BRANCH  33  34
ATOM     34  C   UNL A   1      42.232  19.787  26.071  1.00  0.00     0.188 C 
BRANCH  34  35
ATOM     35  C   UNL A   1      43.139  21.001  25.792  1.00  0.00     0.188 C 
BRANCH  35  36
ATOM     36  O   UNL A   1      44.079  20.772  24.751  1.00  0.00    -0.376 OA
BRANCH  36  37
ATOM     37  C   UNL A   1      44.721  21.904  24.183  1.00  0.00     0.202 C 
BRANCH  37  38
ATOM     38  C   UNL A   1      44.108  23.308  24.354  1.00  0.00     0.261 C 
BRANCH  38  39
ATOM     39  O   UNL A   1      44.878  24.283  25.073  1.00  0.00    -0.460 OA
BRANCH  39  40
ATOM     40  C   UNL A   1      45.162  24.042  26.369  1.00  0.00     0.338 C 
ATOM     41  O   UNL A   1      46.044  23.332  26.813  1.00  0.00    -0.246 OA
BRANCH  40  42
ATOM     42  C   UNL A   1      44.324  24.954  27.178  1.00  0.00     0.060 A 
ATOM     43  C   UNL A   1      44.634  26.318  27.221  1.00  0.00     0.016 A 
ATOM     44  C   UNL A   1      43.224  24.460  27.881  1.00  0.00     0.016 A 
ATOM     45  C   UNL A   1      43.865  27.185  27.999  1.00  0.00     0.010 A 
ATOM     46  C   UNL A   1      42.457  25.326  28.666  1.00  0.00     0.010 A 
ATOM     47  C   UNL A   1      42.804  26.684  28.766  1.00  0.00    -0.014 A 
BRANCH  47  48
ATOM     48  C   UNL A   1      42.232  27.528  29.843  1.00  0.00     0.031 A 
ATOM     49  C   UNL A   1      42.904  27.504  31.191  1.00  0.00     0.074 A 
ATOM     50  C   UNL A   1      41.187  28.345  29.623  1.00  0.00     0.049 A 
ATOM     51  N   UNL A   1      42.608  28.163  32.283  1.00  0.00    -0.248 NA
ATOM     52  C   UNL A   1      44.068  26.612  31.325  1.00  0.00     0.031 C 
ATOM     53  C   UNL A   1      40.473  28.486  28.356  1.00  0.00     0.029 A 
ATOM     54  N   UNL A   1      40.547  29.215  30.470  1.00  0.00    -0.354 N 
ATOM     55  C   UNL A   1      43.545  27.762  33.228  1.00  0.00     0.074 A 
ATOM     56  C   UNL A   1      44.387  26.770  32.599  1.00  0.00     0.031 C 
ATOM     57  C   UNL A   1      39.492  29.393  28.509  1.00  0.00     0.029 A 
ATOM     58  C   UNL A   1      39.492  29.875  29.889  1.00  0.00     0.049 A 
ATOM     59  H   UNL A   1      40.819  29.354  31.406  1.00  0.00     0.167 HD
ATOM     60  C   UNL A   1      43.701  28.192  34.502  1.00  0.00     0.037 A 
ATOM     61  C   UNL A   1      38.621  30.756  30.420  1.00  0.00     0.037 A 
ATOM     62  C   UNL A   1      42.862  29.179  35.127  1.00  0.00     0.049 A 
ATOM     63  C   UNL A   1      38.772  31.168  31.862  1.00  0.00     0.074 A 
ATOM     64  C   UNL A   1      42.945  29.693  36.409  1.00  0.00     0.029 A 
ATOM     65  N   UNL A   1      41.780  29.795  34.516  1.00  0.00    -0.354 N 
ATOM     66  N   UNL A   1      39.677  30.806  32.739  1.00  0.00    -0.248 NA
ATOM     67  C   UNL A   1      37.783  32.122  32.385  1.00  0.00     0.031 C 
ATOM     68  C   UNL A   1      41.877  30.576  36.594  1.00  0.00     0.029 A 
ATOM     69  C   UNL A   1      41.170  30.665  35.405  1.00  0.00     0.049 A 
ATOM     70  H   UNL A   1      41.489  29.637  33.589  1.00  0.00     0.167 HD
ATOM     71  C   UNL A   1      39.390  31.512  33.902  1.00  0.00     0.074 A 
ATOM     72  C   UNL A   1      38.234  32.335  33.612  1.00  0.00     0.031 C 
ATOM     73  C   UNL A   1      40.025  31.486  35.101  1.00  0.00     0.037 A 
BRANCH  60  74
ATOM     74  C   UNL A   1      44.805  27.572  35.309  1.00  0.00     0.057 A 
ATOM     75  C   UNL A   1      44.648  26.342  35.964  1.00  0.00     0.134 A 
ATOM     76  C   UNL A   1      46.049  28.206  35.420  1.00  0.00     0.134 A 
ATOM     77  F   UNL A   1      43.477  25.689  35.916  1.00  0.00    -0.206 F 
ATOM     78  C   UNL A   1      45.680  25.780  36.719  1.00  0.00     0.040 A 
ATOM     79  C   UNL A   1      47.097  27.640  36.146  1.00  0.00     0.040 A 
ATOM     80  F   UNL A   1      46.268  29.385  34.818  1.00  0.00    -0.206 F 
ATOM     81  C   UNL A   1      46.911  26.427  36.805  1.00  0.00     0.006 A 
ENDBRANCH  60  74
BRANCH  61  82
ATOM     82  C   UNL A   1      37.519  31.311  29.589  1.00  0.00     0.057 A 
ATOM     83  C   UNL A   1      36.331  30.599  29.383  1.00  0.00     0.134 A 
ATOM     84  C   UNL A   1      37.641  32.553  28.954  1.00  0.00     0.134 A 
ATOM     85  F   UNL A   1      36.161  29.393  29.943  1.00  0.00    -0.206 F 
ATOM     86  C   UNL A   1      35.317  31.089  28.558  1.00  0.00     0.040 A 
ATOM     87  C   UNL A   1      36.624  33.069  28.150  1.00  0.00     0.040 A 
ATOM     88  F   UNL A   1      38.754  33.286  29.108  1.00  0.00    -0.206 F 
ATOM     89  C   UNL A   1      35.461  32.331  27.942  1.00  0.00     0.006 A 
ENDBRANCH  61  82
BRANCH  73  90
ATOM     90  C   UNL A   1      39.517  32.409  36.172  1.00  0.00     0.057 A 
ATOM     91  C   UNL A   1      38.477  32.048  37.039  1.00  0.00     0.134 A 
ATOM     92  C   UNL A   1      40.102  33.669  36.357  1.00  0.00     0.134 A 
ATOM     93  F   UNL A   1      37.868  30.860  36.914  1.00  0.00    -0.206 F 
ATOM     94  C   UNL A   1      38.012  32.922  38.025  1.00  0.00     0.040 A 
ATOM     95  C   UNL A   1      39.669  34.538  37.361  1.00  0.00     0.040 A 
ATOM     96  F   UNL A   1      41.113  34.075  35.574  1.00  0.00    -0.206 F 
ATOM     97  C   UNL A   1      38.612  34.169  38.191  1.00  0.00     0.006 A 
ENDBRANCH  73  90
ENDBRANCH  47  48
ENDBRANCH  40  42
ENDBRANCH  39  40
ENDBRANCH  38  39
ENDBRANCH  37  38
ENDBRANCH  36  37
ENDBRANCH  35  36
ENDBRANCH  34  35
ENDBRANCH  33  34
ENDBRANCH  32  33
ENDBRANCH   1  32
TORSDOF 27
ENDMDL
MODEL 2
REMARK VINA RESULT:      -9.5      1.391      3.713
REMARK SMILES C[C@H](NC(=O)OC(C)(C)C)C(=O)N[C@@H](C)C(=O)N1CCC[C@H]1C(=O)OCCOCCOCCOCCOC(=O)c1ccc(-c2c3nc(c(-c4c(F)cccc4F)c4ccc([nH]4)c(-c4c(F)cccc4F)c4nc(c(-c5c(F)cccc5F)c5ccc2[nH]5)C=C4)C=C3)cc1
REMARK SMILES IDX 29 1 28 2 27 3 26 4 25 5 23 6 24 7 22 8 18 9 19 10 20 11
REMARK SMILES IDX 21 12 16 13 17 14 14 15 15 16 13 17 11 18 12 19 2 21 1 22
REMARK SMILES IDX 3 23 4 24 5 26 6 27 7 28 8 29 9 30 10 31 30 32 31 33 32 34
REMARK SMILES IDX 33 35 34 36 35 37 36 38 37 39 38 40 39 41 40 42 41 43 93 44
REMARK SMILES IDX 42 45 92 46 43 47 44 48 45 49 86 50 46 51 91 52 85 53 87 54
REMARK SMILES IDX 47 55 90 56 84 57 83 58 48 60 74 61 57 62 73 63 58 64 61 65
REMARK SMILES IDX 72 66 88 67 59 68 60 69 71 71 89 72 62 73 49 74 50 75 55 76
REMARK SMILES IDX 51 77 52 78 54 79 56 80 53 81 75 82 76 83 81 84 77 85 78 86
REMARK SMILES IDX 80 87 82 88 79 89 63 90 64 91 69 92 65 93 66 94 68 95 70 96
REMARK SMILES IDX 67 97
REMARK H PARENT 13 20 3 25 87 59 61 70
REMARK Flexibility Score: inf
ROOT
ATOM      1  C   UNL A   1      39.245  21.861  26.108  1.00  0.00     0.188 C 
ENDROOT
BRANCH   1   2
ATOM      2  O   UNL A   1      38.530  23.011  26.521  1.00  0.00    -0.376 OA
BRANCH   2   3
ATOM      3  C   UNL A   1      37.740  23.720  25.588  1.00  0.00     0.202 C 
BRANCH   3   4
ATOM      4  C   UNL A   1      36.306  23.215  25.367  1.00  0.00     0.261 C 
BRANCH   4   5
ATOM      5  O   UNL A   1      35.409  24.161  24.772  1.00  0.00    -0.462 OA
BRANCH   5   6
ATOM      6  C   UNL A   1      35.099  23.972  23.466  1.00  0.00     0.328 C 
ATOM      7  O   UNL A   1      35.798  23.323  22.696  1.00  0.00    -0.250 OA
BRANCH   6   8
ATOM      8  C   UNL A   1      33.656  24.430  23.164  1.00  0.00     0.195 C 
ATOM      9  N   UNL A   1      33.321  25.851  23.313  1.00  0.00    -0.327 N 
ATOM     10  C   UNL A   1      33.279  26.466  22.007  1.00  0.00     0.120 C 
ATOM     11  C   UNL A   1      32.766  25.368  21.096  1.00  0.00     0.024 C 
ATOM     12  C   UNL A   1      33.241  24.070  21.730  1.00  0.00     0.039 C 
BRANCH   9  13
ATOM     13  C   UNL A   1      33.000  26.390  24.543  1.00  0.00     0.245 C 
ATOM     14  O   UNL A   1      33.523  27.439  24.928  1.00  0.00    -0.272 OA
BRANCH  13  15
ATOM     15  C   UNL A   1      32.143  25.602  25.563  1.00  0.00     0.168 C 
ATOM     16  C   UNL A   1      31.063  26.510  26.148  1.00  0.00     0.041 C 
BRANCH  15  17
ATOM     17  N   UNL A   1      32.890  24.895  26.597  1.00  0.00    -0.343 N 
ATOM     18  C   UNL A   1      32.918  23.567  26.900  1.00  0.00     0.243 C 
ATOM     19  O   UNL A   1      33.774  23.197  27.709  1.00  0.00    -0.273 OA
ATOM     20  H   UNL A   1      33.462  25.464  27.162  1.00  0.00     0.164 HD
BRANCH  18  21
ATOM     21  C   UNL A   1      31.956  22.554  26.250  1.00  0.00     0.171 C 
ATOM     22  C   UNL A   1      30.505  22.885  26.581  1.00  0.00     0.042 C 
BRANCH  21  23
ATOM     23  N   UNL A   1      32.469  21.202  26.489  1.00  0.00    -0.310 N 
ATOM     24  C   UNL A   1      32.407  20.059  25.764  1.00  0.00     0.408 C 
ATOM     25  H   UNL A   1      32.953  21.106  27.341  1.00  0.00     0.167 HD
ATOM     26  O   UNL A   1      32.907  19.026  26.197  1.00  0.00    -0.225 OA
BRANCH  24  27
ATOM     27  O   UNL A   1      31.753  20.189  24.597  1.00  0.00    -0.444 OA
BRANCH  27  28
ATOM     28  C   UNL A   1      32.440  20.029  23.333  1.00  0.00     0.106 C 
ATOM     29  C   UNL A   1      32.501  18.557  22.909  1.00  0.00     0.056 C 
ATOM     30  C   UNL A   1      31.830  20.916  22.243  1.00  0.00     0.056 C 
ATOM     31  C   UNL A   1      33.869  20.509  23.611  1.00  0.00     0.056 C 
ENDBRANCH  27  28
ENDBRANCH  24  27
ENDBRANCH  21  23
ENDBRANCH  18  21
ENDBRANCH  15  17
ENDBRANCH  13  15
ENDBRANCH   9  13
ENDBRANCH   6   8
ENDBRANCH   5   6
ENDBRANCH   4   5
ENDBRANCH   3   4
ENDBRANCH   2   3
ENDBRANCH   1   2
BRANCH   1  32
ATOM     32  C   UNL A   1      40.423  21.440  27.025  1.00  0.00     0.188 C 
BRANCH  32  33
ATOM     33  O   UNL A   1      41.078  20.179  26.951  1.00  0.00    -0.377 OA
BRANCH  33  34
ATOM     34  C   UNL A   1      42.481  20.138  26.774  1.00  0.00     0.188 C 
BRANCH  34  35
ATOM     35  C   UNL A   1      42.963  19.618  25.406  1.00  0.00     0.188 C 
BRANCH  35  36
ATOM     36  O   UNL A   1      43.915  20.473  24.785  1.00  0.00    -0.376 OA
BRANCH  36  37
ATOM     37  C   UNL A   1      45.179  20.619  25.417  1.00  0.00     0.202 C 
BRANCH  37  38
ATOM     38  C   UNL A   1      45.747  22.024  25.695  1.00  0.00     0.261 C 
BRANCH  38  39
ATOM     39  O   UNL A   1      44.854  23.000  26.253  1.00  0.00    -0.460 OA
BRANCH  39  40
ATOM     40  C   UNL A   1      44.502  24.053  25.488  1.00  0.00     0.338 C 
ATOM     41  O   UNL A   1      44.644  24.175  24.286  1.00  0.00    -0.246 OA
BRANCH  40  42
ATOM     42  C   UNL A   1      43.723  24.976  26.344  1.00  0.00     0.060 A 
ATOM     43  C   UNL A   1      44.166  26.292  26.519  1.00  0.00     0.016 A 
ATOM     44  C   UNL A   1      42.549  24.540  26.960  1.00  0.00     0.016 A 
ATOM     45  C   UNL A   1      43.454  27.164  27.342  1.00  0.00     0.010 A 
ATOM     46  C   UNL A   1      41.837  25.411  27.790  1.00  0.00     0.010 A 
ATOM     47  C   UNL A   1      42.314  26.713  28.023  1.00  0.00    -0.014 A 
BRANCH  47  48
ATOM     48  C   UNL A   1      41.782  27.518  29.149  1.00  0.00     0.031 A 
ATOM     49  C   UNL A   1      42.492  27.435  30.475  1.00  0.00     0.074 A 
ATOM     50  C   UNL A   1      40.737  28.350  28.993  1.00  0.00     0.049 A 
ATOM     51  N   UNL A   1      42.234  28.051  31.600  1.00  0.00    -0.248 NA
ATOM     52  C   UNL A   1      43.651  26.529  30.539  1.00  0.00     0.031 C 
ATOM     53  C   UNL A   1      39.988  28.547  27.754  1.00  0.00     0.029 A 
ATOM     54  N   UNL A   1      40.131  29.191  29.892  1.00  0.00    -0.354 N 
ATOM     55  C   UNL A   1      43.195  27.606  32.500  1.00  0.00     0.074 A 
ATOM     56  C   UNL A   1      44.010  26.633  31.808  1.00  0.00     0.031 C 
ATOM     57  C   UNL A   1      39.020  29.455  27.972  1.00  0.00     0.029 A 
ATOM     58  C   UNL A   1      39.065  29.882  29.370  1.00  0.00     0.049 A 
ATOM     59  H   UNL A   1      40.431  29.290  30.825  1.00  0.00     0.167 HD
ATOM     60  C   UNL A   1      43.392  27.983  33.785  1.00  0.00     0.037 A 
ATOM     61  C   UNL A   1      38.218  30.748  29.961  1.00  0.00     0.037 A 
ATOM     62  C   UNL A   1      42.581  28.950  34.474  1.00  0.00     0.049 A 
ATOM     63  C   UNL A   1      38.414  31.101  31.413  1.00  0.00     0.074 A 
ATOM     64  C   UNL A   1      42.706  29.412  35.772  1.00  0.00     0.029 A 
ATOM     65  N   UNL A   1      41.487  29.599  33.920  1.00  0.00    -0.354 N 
ATOM     66  N   UNL A   1      39.342  30.696  32.248  1.00  0.00    -0.248 NA
ATOM     67  C   UNL A   1      37.450  32.040  32.003  1.00  0.00     0.031 C 
ATOM     68  C   UNL A   1      41.651  30.295  36.023  1.00  0.00     0.029 A 
ATOM     69  C   UNL A   1      40.911  30.438  34.861  1.00  0.00     0.049 A 
ATOM     70  H   UNL A   1      41.168  29.481  32.997  1.00  0.00     0.167 HD
ATOM     71  C   UNL A   1      39.095  31.358  33.446  1.00  0.00     0.074 A 
ATOM     72  C   UNL A   1      37.938  32.201  33.224  1.00  0.00     0.031 C 
ATOM     73  C   UNL A   1      39.765  31.278  34.623  1.00  0.00     0.037 A 
BRANCH  60  74
ATOM     74  C   UNL A   1      44.514  27.322  34.534  1.00  0.00     0.057 A 
ATOM     75  C   UNL A   1      45.783  27.907  34.643  1.00  0.00     0.134 A 
ATOM     76  C   UNL A   1      44.316  26.091  35.171  1.00  0.00     0.134 A 
ATOM     77  F   UNL A   1      46.047  29.077  34.041  1.00  0.00    -0.206 F 
ATOM     78  C   UNL A   1      46.820  27.279  35.336  1.00  0.00     0.040 A 
ATOM     79  C   UNL A   1      45.335  25.468  35.892  1.00  0.00     0.040 A 
ATOM     80  F   UNL A   1      43.125  25.475  35.109  1.00  0.00    -0.206 F 
ATOM     81  C   UNL A   1      46.595  26.058  35.969  1.00  0.00     0.006 A 
ENDBRANCH  60  74
BRANCH  61  82
ATOM     82  C   UNL A   1      37.097  31.344  29.186  1.00  0.00     0.057 A 
ATOM     83  C   UNL A   1      37.149  32.666  28.726  1.00  0.00     0.134 A 
ATOM     84  C   UNL A   1      35.931  30.617  28.917  1.00  0.00     0.134 A 
ATOM     85  F   UNL A   1      38.227  33.424  28.973  1.00  0.00    -0.206 F 
ATOM     86  C   UNL A   1      36.076  33.249  28.050  1.00  0.00     0.040 A 
ATOM     87  C   UNL A   1      34.862  31.177  28.216  1.00  0.00     0.040 A 
ATOM     88  F   UNL A   1      35.814  29.346  29.331  1.00  0.00    -0.206 F 
ATOM     89  C   UNL A   1      34.930  32.502  27.788  1.00  0.00     0.006 A 
ENDBRANCH  61  82
BRANCH  73  90
ATOM     90  C   UNL A   1      39.297  32.162  35.746  1.00  0.00     0.057 A 
ATOM     91  C   UNL A   1      39.747  33.481  35.896  1.00  0.00     0.134 A 
ATOM     92  C   UNL A   1      38.357  31.693  36.673  1.00  0.00     0.134 A 
ATOM     93  F   UNL A   1      40.652  33.992  35.049  1.00  0.00    -0.206 F 
ATOM     94  C   UNL A   1      39.307  34.286  36.950  1.00  0.00     0.040 A 
ATOM     95  C   UNL A   1      37.884  32.499  37.709  1.00  0.00     0.040 A 
ATOM     96  F   UNL A   1      37.871  30.445  36.580  1.00  0.00    -0.206 F 
ATOM     97  C   UNL A   1      38.370  33.797  37.857  1.00  0.00     0.006 A 
ENDBRANCH  73  90
ENDBRANCH  47  48
ENDBRANCH  40  42
ENDBRANCH  39  40
ENDBRANCH  38  39
ENDBRANCH  37  38
ENDBRANCH  36  37
ENDBRANCH  35  36
ENDBRANCH  34  35
ENDBRANCH  33  34
ENDBRANCH  32  33
ENDBRANCH   1  32
TORSDOF 27
ENDMDL
MODEL 3
REMARK VINA RESULT:      -9.2      1.352      2.039
REMARK SMILES C[C@H](NC(=O)OC(C)(C)C)C(=O)N[C@@H](C)C(=O)N1CCC[C@H]1C(=O)OCCOCCOCCOCCOC(=O)c1ccc(-c2c3nc(c(-c4c(F)cccc4F)c4ccc([nH]4)c(-c4c(F)cccc4F)c4nc(c(-c5c(F)cccc5F)c5ccc2[nH]5)C=C4)C=C3)cc1
REMARK SMILES IDX 29 1 28 2 27 3 26 4 25 5 23 6 24 7 22 8 18 9 19 10 20 11
REMARK SMILES IDX 21 12 16 13 17 14 14 15 15 16 13 17 11 18 12 19 2 21 1 22
REMARK SMILES IDX 3 23 4 24 5 26 6 27 7 28 8 29 9 30 10 31 30 32 31 33 32 34
REMARK SMILES IDX 33 35 34 36 35 37 36 38 37 39 38 40 39 41 40 42 41 43 93 44
REMARK SMILES IDX 42 45 92 46 43 47 44 48 45 49 86 50 46 51 91 52 85 53 87 54
REMARK SMILES IDX 47 55 90 56 84 57 83 58 48 60 74 61 57 62 73 63 58 64 61 65
REMARK SMILES IDX 72 66 88 67 59 68 60 69 71 71 89 72 62 73 49 74 50 75 55 76
REMARK SMILES IDX 51 77 52 78 54 79 56 80 53 81 75 82 76 83 81 84 77 85 78 86
REMARK SMILES IDX 80 87 82 88 79 89 63 90 64 91 69 92 65 93 66 94 68 95 70 96
REMARK SMILES IDX 67 97
REMARK H PARENT 13 20 3 25 87 59 61 70
REMARK Flexibility Score: inf
ROOT
ATOM      1  C   UNL A   1      38.906  21.462  25.614  1.00  0.00     0.188 C 
ENDROOT
BRANCH   1   2
ATOM      2  O   UNL A   1      38.020  22.546  25.820  1.00  0.00    -0.376 OA
BRANCH   2   3
ATOM      3  C   UNL A   1      36.635  22.376  25.594  1.00  0.00     0.202 C 
BRANCH   3   4
ATOM      4  C   UNL A   1      35.682  23.184  26.489  1.00  0.00     0.261 C 
BRANCH   4   5
ATOM      5  O   UNL A   1      34.329  23.264  26.024  1.00  0.00    -0.462 OA
BRANCH   5   6
ATOM      6  C   UNL A   1      33.409  22.525  26.689  1.00  0.00     0.328 C 
ATOM      7  O   UNL A   1      33.240  22.594  27.902  1.00  0.00    -0.250 OA
BRANCH   6   8
ATOM      8  C   UNL A   1      32.446  21.819  25.710  1.00  0.00     0.195 C 
ATOM      9  N   UNL A   1      32.086  22.499  24.461  1.00  0.00    -0.327 N 
ATOM     10  C   UNL A   1      32.845  21.925  23.375  1.00  0.00     0.120 C 
ATOM     11  C   UNL A   1      32.994  20.466  23.757  1.00  0.00     0.024 C 
ATOM     12  C   UNL A   1      32.989  20.449  25.278  1.00  0.00     0.039 C 
BRANCH   9  13
ATOM     13  C   UNL A   1      31.082  23.446  24.420  1.00  0.00     0.245 C 
ATOM     14  O   UNL A   1      30.413  23.613  23.397  1.00  0.00    -0.272 OA
BRANCH  13  15
ATOM     15  C   UNL A   1      30.898  24.466  25.569  1.00  0.00     0.168 C 
ATOM     16  C   UNL A   1      30.129  23.820  26.721  1.00  0.00     0.041 C 
BRANCH  15  17
ATOM     17  N   UNL A   1      30.331  25.753  25.181  1.00  0.00    -0.343 N 
ATOM     18  C   UNL A   1      30.763  27.015  25.458  1.00  0.00     0.243 C 
ATOM     19  O   UNL A   1      30.205  27.940  24.860  1.00  0.00    -0.273 OA
ATOM     20  H   UNL A   1      29.513  25.702  24.635  1.00  0.00     0.164 HD
BRANCH  18  21
ATOM     21  C   UNL A   1      31.912  27.295  26.446  1.00  0.00     0.171 C 
ATOM     22  C   UNL A   1      31.388  27.906  27.740  1.00  0.00     0.042 C 
BRANCH  21  23
ATOM     23  N   UNL A   1      33.004  27.949  25.719  1.00  0.00    -0.310 N 
ATOM     24  C   UNL A   1      33.599  27.685  24.531  1.00  0.00     0.408 C 
ATOM     25  H   UNL A   1      33.379  28.730  26.186  1.00  0.00     0.167 HD
ATOM     26  O   UNL A   1      34.529  28.382  24.139  1.00  0.00    -0.225 OA
BRANCH  24  27
ATOM     27  O   UNL A   1      33.084  26.623  23.888  1.00  0.00    -0.444 OA
BRANCH  27  28
ATOM     28  C   UNL A   1      32.976  26.602  22.445  1.00  0.00     0.106 C 
ATOM     29  C   UNL A   1      31.513  26.628  21.989  1.00  0.00     0.056 C 
ATOM     30  C   UNL A   1      33.798  27.724  21.802  1.00  0.00     0.056 C 
ATOM     31  C   UNL A   1      33.583  25.255  22.037  1.00  0.00     0.056 C 
ENDBRANCH  27  28
ENDBRANCH  24  27
ENDBRANCH  21  23
ENDBRANCH  18  21
ENDBRANCH  15  17
ENDBRANCH  13  15
ENDBRANCH   9  13
ENDBRANCH   6   8
ENDBRANCH   5   6
ENDBRANCH   4   5
ENDBRANCH   3   4
ENDBRANCH   2   3
ENDBRANCH   1   2
BRANCH   1  32
ATOM     32  C   UNL A   1      40.261  21.552  26.363  1.00  0.00     0.188 C 
BRANCH  32  33
ATOM     33  O   UNL A   1      40.659  20.662  27.398  1.00  0.00    -0.377 OA
BRANCH  33  34
ATOM     34  C   UNL A   1      41.826  19.880  27.229  1.00  0.00     0.188 C 
BRANCH  34  35
ATOM     35  C   UNL A   1      41.878  19.034  25.942  1.00  0.00     0.188 C 
BRANCH  35  36
ATOM     36  O   UNL A   1      42.916  19.427  25.053  1.00  0.00    -0.376 OA
BRANCH  36  37
ATOM     37  C   UNL A   1      43.900  20.324  25.547  1.00  0.00     0.202 C 
BRANCH  37  38
ATOM     38  C   UNL A   1      43.972  21.766  25.009  1.00  0.00     0.261 C 
BRANCH  38  39
ATOM     39  O   UNL A   1      44.112  22.824  25.970  1.00  0.00    -0.460 OA
BRANCH  39  40
ATOM     40  C   UNL A   1      44.349  24.071  25.516  1.00  0.00     0.338 C 
ATOM     41  O   UNL A   1      44.950  24.389  24.507  1.00  0.00    -0.246 OA
BRANCH  40  42
ATOM     42  C   UNL A   1      43.576  25.003  26.367  1.00  0.00     0.060 A 
ATOM     43  C   UNL A   1      44.017  26.322  26.522  1.00  0.00     0.016 A 
ATOM     44  C   UNL A   1      42.409  24.572  27.000  1.00  0.00     0.016 A 
ATOM     45  C   UNL A   1      43.311  27.203  27.341  1.00  0.00     0.010 A 
ATOM     46  C   UNL A   1      41.703  25.452  27.826  1.00  0.00     0.010 A 
ATOM     47  C   UNL A   1      42.179  26.758  28.037  1.00  0.00    -0.014 A 
BRANCH  47  48
ATOM     48  C   UNL A   1      41.655  27.575  29.158  1.00  0.00     0.031 A 
ATOM     49  C   UNL A   1      42.386  27.521  30.474  1.00  0.00     0.074 A 
ATOM     50  C   UNL A   1      40.600  28.395  29.004  1.00  0.00     0.049 A 
ATOM     51  N   UNL A   1      42.138  28.153  31.593  1.00  0.00    -0.248 NA
ATOM     52  C   UNL A   1      43.555  26.628  30.536  1.00  0.00     0.031 C 
ATOM     53  C   UNL A   1      39.831  28.564  27.774  1.00  0.00     0.029 A 
ATOM     54  N   UNL A   1      39.998  29.244  29.899  1.00  0.00    -0.354 N 
ATOM     55  C   UNL A   1      43.116  27.732  32.486  1.00  0.00     0.074 A 
ATOM     56  C   UNL A   1      43.931  26.756  31.797  1.00  0.00     0.031 C 
ATOM     57  C   UNL A   1      38.856  29.466  27.992  1.00  0.00     0.029 A 
ATOM     58  C   UNL A   1      38.917  29.915  29.382  1.00  0.00     0.049 A 
ATOM     59  H   UNL A   1      40.312  29.361  30.825  1.00  0.00     0.167 HD
ATOM     60  C   UNL A   1      43.329  28.132  33.761  1.00  0.00     0.037 A 
ATOM     61  C   UNL A   1      38.070  30.783  29.971  1.00  0.00     0.037 A 
ATOM     62  C   UNL A   1      42.518  29.103  34.447  1.00  0.00     0.049 A 
ATOM     63  C   UNL A   1      38.285  31.161  31.414  1.00  0.00     0.074 A 
ATOM     64  C   UNL A   1      42.657  29.587  35.735  1.00  0.00     0.029 A 
ATOM     65  N   UNL A   1      41.410  29.731  33.899  1.00  0.00    -0.354 N 
ATOM     66  N   UNL A   1      39.229  30.779  32.241  1.00  0.00    -0.248 NA
ATOM     67  C   UNL A   1      37.319  32.101  32.003  1.00  0.00     0.031 C 
ATOM     68  C   UNL A   1      41.598  30.463  35.988  1.00  0.00     0.029 A 
ATOM     69  C   UNL A   1      40.839  30.579  34.834  1.00  0.00     0.049 A 
ATOM     70  H   UNL A   1      41.078  29.595  32.982  1.00  0.00     0.167 HD
ATOM     71  C   UNL A   1      38.993  31.458  33.432  1.00  0.00     0.074 A 
ATOM     72  C   UNL A   1      37.824  32.286  33.214  1.00  0.00     0.031 C 
ATOM     73  C   UNL A   1      39.681  31.404  34.601  1.00  0.00     0.037 A 
BRANCH  60  74
ATOM     74  C   UNL A   1      44.468  27.495  34.505  1.00  0.00     0.057 A 
ATOM     75  C   UNL A   1      44.315  26.300  35.221  1.00  0.00     0.134 A 
ATOM     76  C   UNL A   1      45.742  28.077  34.489  1.00  0.00     0.134 A 
ATOM     77  F   UNL A   1      43.118  25.699  35.294  1.00  0.00    -0.206 F 
ATOM     78  C   UNL A   1      45.380  25.723  35.915  1.00  0.00     0.040 A 
ATOM     79  C   UNL A   1      46.822  27.494  35.153  1.00  0.00     0.040 A 
ATOM     80  F   UNL A   1      45.960  29.221  33.822  1.00  0.00    -0.206 F 
ATOM     81  C   UNL A   1      46.640  26.316  35.876  1.00  0.00     0.006 A 
ENDBRANCH  60  74
BRANCH  61  82
ATOM     82  C   UNL A   1      36.932  31.355  29.204  1.00  0.00     0.057 A 
ATOM     83  C   UNL A   1      35.794  30.593  28.908  1.00  0.00     0.134 A 
ATOM     84  C   UNL A   1      36.969  32.667  28.717  1.00  0.00     0.134 A 
ATOM     85  F   UNL A   1      35.708  29.321  29.323  1.00  0.00    -0.206 F 
ATOM     86  C   UNL A   1      34.749  31.107  28.139  1.00  0.00     0.040 A 
ATOM     87  C   UNL A   1      35.918  33.204  27.973  1.00  0.00     0.040 A 
ATOM     88  F   UNL A   1      38.030  33.451  28.963  1.00  0.00    -0.206 F 
ATOM     89  C   UNL A   1      34.807  32.418  27.673  1.00  0.00     0.006 A 
ENDBRANCH  61  82
BRANCH  73  90
ATOM     90  C   UNL A   1      39.220  32.302  35.715  1.00  0.00     0.057 A 
ATOM     91  C   UNL A   1      38.354  31.857  36.724  1.00  0.00     0.134 A 
ATOM     92  C   UNL A   1      39.677  33.624  35.795  1.00  0.00     0.134 A 
ATOM     93  F   UNL A   1      37.874  30.606  36.705  1.00  0.00    -0.206 F 
ATOM     94  C   UNL A   1      37.931  32.707  37.748  1.00  0.00     0.040 A 
ATOM     95  C   UNL A   1      39.288  34.472  36.833  1.00  0.00     0.040 A 
ATOM     96  F   UNL A   1      40.520  34.112  34.872  1.00  0.00    -0.206 F 
ATOM     97  C   UNL A   1      38.402  34.017  37.807  1.00  0.00     0.006 A 
ENDBRANCH  73  90
ENDBRANCH  47  48
ENDBRANCH  40  42
ENDBRANCH  39  40
ENDBRANCH  38  39
ENDBRANCH  37  38
ENDBRANCH  36  37
ENDBRANCH  35  36
ENDBRANCH  34  35
ENDBRANCH  33  34
ENDBRANCH  32  33
ENDBRANCH   1  32
TORSDOF 27
ENDMDL
