MODEL 1
REMARK VINA RESULT:     -10.2      0.000      0.000
REMARK SMILES O=C(OCCOCCOCCOCCOC(=O)[C@H]1CCCC[N@H+]1Cc1ccc(F)cc1Cl)c1ccc(-c2c3nc(c(-c4c(F)cccc4F)c4ccc([nH]4)c(-c4c(F)cccc4F)c4nc(c(-c5c(F)cccc5F)c5ccc2[nH]5)C=C4)C=C3)cc1
REMARK SMILES IDX 9 1 8 2 7 3 6 4 5 5 4 6 3 7 2 8 1 9 33 10 34 11 86 12 35 13
REMARK SMILES IDX 85 14 36 15 37 16 38 17 79 18 39 19 84 20 78 21 80 22 40 23
REMARK SMILES IDX 83 24 77 25 76 26 41 28 67 29 50 30 66 31 51 32 54 33 65 34
REMARK SMILES IDX 81 35 52 36 53 37 64 39 82 40 55 41 42 42 43 43 48 44 44 45
REMARK SMILES IDX 45 46 47 47 49 48 46 49 68 50 69 51 74 52 70 53 71 54 73 55
REMARK SMILES IDX 75 56 72 57 56 58 57 59 62 60 58 61 59 62 61 63 63 64 60 65
REMARK SMILES IDX 10 66 11 67 12 68 13 69 14 70 15 71 16 72 17 73 18 74 19 75
REMARK SMILES IDX 23 76 20 77 22 78 21 80 24 81 25 82 26 83 31 84 27 85 30 86
REMARK SMILES IDX 32 87 28 88 29 89
REMARK H PARENT 80 27 54 38 23 79
REMARK Flexibility Score: inf
ROOT
ATOM      1  O   UNL A   1      32.848  29.201  24.237  1.00  0.00    -0.377 OA
ENDROOT
BRANCH   1   2
ATOM      2  C   UNL A   1      32.768  28.222  25.270  1.00  0.00     0.188 C 
BRANCH   2   3
ATOM      3  C   UNL A   1      33.260  28.699  26.628  1.00  0.00     0.188 C 
BRANCH   3   4
ATOM      4  O   UNL A   1      32.398  29.727  27.061  1.00  0.00    -0.376 OA
BRANCH   4   5
ATOM      5  C   UNL A   1      32.873  31.050  27.180  1.00  0.00     0.202 C 
BRANCH   5   6
ATOM      6  C   UNL A   1      31.791  32.107  27.174  1.00  0.00     0.261 C 
BRANCH   6   7
ATOM      7  O   UNL A   1      32.232  33.482  27.237  1.00  0.00    -0.460 OA
BRANCH   7   8
ATOM      8  C   UNL A   1      32.933  34.217  28.126  1.00  0.00     0.338 C 
ATOM      9  O   UNL A   1      32.439  35.273  28.530  1.00  0.00    -0.246 OA
BRANCH   8  10
ATOM     10  C   UNL A   1      34.210  33.794  28.748  1.00  0.00     0.060 A 
ATOM     11  C   UNL A   1      35.472  34.018  28.212  1.00  0.00     0.016 A 
ATOM     12  C   UNL A   1      34.147  33.263  30.044  1.00  0.00     0.016 A 
ATOM     13  C   UNL A   1      36.625  33.578  28.823  1.00  0.00     0.010 A 
ATOM     14  C   UNL A   1      35.313  32.889  30.720  1.00  0.00     0.010 A 
ATOM     15  C   UNL A   1      36.551  32.996  30.076  1.00  0.00    -0.014 A 
BRANCH  15  16
ATOM     16  C   UNL A   1      37.766  32.319  30.551  1.00  0.00     0.031 A 
ATOM     17  C   UNL A   1      38.361  32.819  31.831  1.00  0.00     0.074 A 
ATOM     18  C   UNL A   1      38.167  31.172  29.974  1.00  0.00     0.049 A 
ATOM     19  N   UNL A   1      39.461  32.462  32.430  1.00  0.00    -0.248 NA
ATOM     20  C   UNL A   1      37.598  33.861  32.545  1.00  0.00     0.031 C 
ATOM     21  C   UNL A   1      37.508  30.515  28.838  1.00  0.00     0.029 A 
ATOM     22  N   UNL A   1      39.194  30.327  30.293  1.00  0.00    -0.354 N 
ATOM     23  C   UNL A   1      39.543  33.262  33.560  1.00  0.00     0.074 A 
ATOM     24  C   UNL A   1      38.393  34.134  33.566  1.00  0.00     0.031 C 
ATOM     25  C   UNL A   1      38.140  29.361  28.571  1.00  0.00     0.029 A 
ATOM     26  C   UNL A   1      39.295  29.248  29.449  1.00  0.00     0.049 A 
ATOM     27  H   UNL A   1      39.800  30.478  31.054  1.00  0.00     0.167 HD
ATOM     28  C   UNL A   1      40.507  33.261  34.506  1.00  0.00     0.037 A 
ATOM     29  C   UNL A   1      40.262  28.316  29.369  1.00  0.00     0.037 A 
ATOM     30  C   UNL A   1      41.629  32.368  34.460  1.00  0.00     0.049 A 
ATOM     31  C   UNL A   1      41.398  28.422  30.350  1.00  0.00     0.074 A 
ATOM     32  C   UNL A   1      42.742  32.324  35.273  1.00  0.00     0.029 A 
ATOM     33  N   UNL A   1      41.762  31.342  33.529  1.00  0.00    -0.354 N 
ATOM     34  N   UNL A   1      41.555  29.267  31.345  1.00  0.00    -0.248 NA
ATOM     35  C   UNL A   1      42.499  27.469  30.190  1.00  0.00     0.031 C 
ATOM     36  C   UNL A   1      43.569  31.293  34.810  1.00  0.00     0.029 A 
ATOM     37  C   UNL A   1      42.943  30.661  33.743  1.00  0.00     0.049 A 
ATOM     38  H   UNL A   1      41.108  31.132  32.824  1.00  0.00     0.167 HD
ATOM     39  C   UNL A   1      42.762  28.936  31.941  1.00  0.00     0.074 A 
ATOM     40  C   UNL A   1      43.281  27.795  31.209  1.00  0.00     0.031 C 
ATOM     41  C   UNL A   1      43.399  29.520  32.987  1.00  0.00     0.037 A 
BRANCH  28  42
ATOM     42  C   UNL A   1      40.405  34.301  35.581  1.00  0.00     0.057 A 
ATOM     43  C   UNL A   1      40.971  35.575  35.446  1.00  0.00     0.134 A 
ATOM     44  C   UNL A   1      39.791  33.994  36.802  1.00  0.00     0.134 A 
ATOM     45  F   UNL A   1      41.614  35.919  34.320  1.00  0.00    -0.206 F 
ATOM     46  C   UNL A   1      40.950  36.499  36.495  1.00  0.00     0.040 A 
ATOM     47  C   UNL A   1      39.741  34.916  37.849  1.00  0.00     0.040 A 
ATOM     48  F   UNL A   1      39.246  32.785  37.006  1.00  0.00    -0.206 F 
ATOM     49  C   UNL A   1      40.330  36.170  37.700  1.00  0.00     0.006 A 
ENDBRANCH  28  42
BRANCH  29  50
ATOM     50  C   UNL A   1      40.250  27.293  28.290  1.00  0.00     0.057 A 
ATOM     51  C   UNL A   1      39.597  26.065  28.443  1.00  0.00     0.134 A 
ATOM     52  C   UNL A   1      40.934  27.502  27.082  1.00  0.00     0.134 A 
ATOM     53  F   UNL A   1      38.935  25.789  29.577  1.00  0.00    -0.206 F 
ATOM     54  C   UNL A   1      39.647  25.077  27.456  1.00  0.00     0.040 A 
ATOM     55  C   UNL A   1      40.965  26.538  26.073  1.00  0.00     0.040 A 
ATOM     56  F   UNL A   1      41.584  28.655  26.862  1.00  0.00    -0.206 F 
ATOM     57  C   UNL A   1      40.331  25.315  26.265  1.00  0.00     0.006 A 
ENDBRANCH  29  50
BRANCH  41  58
ATOM     58  C   UNL A   1      44.690  28.895  33.415  1.00  0.00     0.057 A 
ATOM     59  C   UNL A   1      45.922  29.326  32.911  1.00  0.00     0.134 A 
ATOM     60  C   UNL A   1      44.695  27.875  34.373  1.00  0.00     0.134 A 
ATOM     61  F   UNL A   1      45.977  30.292  31.979  1.00  0.00    -0.206 F 
ATOM     62  C   UNL A   1      47.117  28.743  33.326  1.00  0.00     0.040 A 
ATOM     63  C   UNL A   1      45.886  27.306  34.820  1.00  0.00     0.040 A 
ATOM     64  F   UNL A   1      43.545  27.427  34.901  1.00  0.00    -0.206 F 
ATOM     65  C   UNL A   1      47.101  27.736  34.289  1.00  0.00     0.006 A 
ENDBRANCH  41  58
ENDBRANCH  15  16
ENDBRANCH   8  10
ENDBRANCH   7   8
ENDBRANCH   6   7
ENDBRANCH   5   6
ENDBRANCH   4   5
ENDBRANCH   3   4
ENDBRANCH   2   3
ENDBRANCH   1   2
BRANCH   1  66
ATOM     66  C   UNL A   1      32.471  28.846  22.906  1.00  0.00     0.188 C 
BRANCH  66  67
ATOM     67  C   UNL A   1      31.020  28.415  22.613  1.00  0.00     0.188 C 
BRANCH  67  68
ATOM     68  O   UNL A   1      30.847  27.057  22.229  1.00  0.00    -0.376 OA
BRANCH  68  69
ATOM     69  C   UNL A   1      31.982  26.451  21.621  1.00  0.00     0.202 C 
BRANCH  69  70
ATOM     70  C   UNL A   1      32.386  25.076  22.175  1.00  0.00     0.261 C 
BRANCH  70  71
ATOM     71  O   UNL A   1      33.766  24.684  22.309  1.00  0.00    -0.459 OA
BRANCH  71  72
ATOM     72  C   UNL A   1      34.340  24.439  23.505  1.00  0.00     0.364 C 
ATOM     73  O   UNL A   1      34.347  25.227  24.445  1.00  0.00    -0.245 OA
BRANCH  72  74
ATOM     74  C   UNL A   1      35.042  23.069  23.594  1.00  0.00     0.295 C 
ATOM     75  C   UNL A   1      36.578  23.113  23.486  1.00  0.00     0.078 C 
ATOM     76  N   UNL A   1      34.632  22.280  24.774  1.00  0.00    -0.319 N 
ATOM     77  C   UNL A   1      37.252  23.634  24.749  1.00  0.00     0.013 C 
ATOM     78  C   UNL A   1      35.241  22.733  26.022  1.00  0.00     0.263 C 
ATOM     79  H   UNL A   1      35.054  21.365  24.617  1.00  0.00     0.349 HD
ATOM     80  C   UNL A   1      36.772  22.829  25.946  1.00  0.00     0.062 C 
BRANCH  76  81
ATOM     81  C   UNL A   1      33.208  21.890  24.839  1.00  0.00     0.301 C 
BRANCH  81  82
ATOM     82  C   UNL A   1      32.837  20.433  24.610  1.00  0.00     0.025 A 
ATOM     83  C   UNL A   1      32.948  19.526  25.687  1.00  0.00     0.014 A 
ATOM     84  C   UNL A   1      32.428  19.914  23.371  1.00  0.00     0.052 A 
ATOM     85  C   UNL A   1      32.859  18.145  25.487  1.00  0.00     0.040 A 
ATOM     86  C   UNL A   1      32.324  18.533  23.171  1.00  0.00     0.060 A 
ATOM     87  Cl  UNL A   1      31.982  20.924  22.044  1.00  0.00    -0.084 Cl
ATOM     88  C   UNL A   1      32.581  17.662  24.220  1.00  0.00     0.124 A 
ATOM     89  F   UNL A   1      32.571  16.341  24.001  1.00  0.00    -0.207 F 
ENDBRANCH  81  82
ENDBRANCH  76  81
ENDBRANCH  72  74
ENDBRANCH  71  72
ENDBRANCH  70  71
ENDBRANCH  69  70
ENDBRANCH  68  69
ENDBRANCH  67  68
ENDBRANCH  66  67
ENDBRANCH   1  66
TORSDOF 22
ENDMDL
MODEL 2
REMARK VINA RESULT:      -9.9      2.283      3.616
REMARK SMILES O=C(OCCOCCOCCOCCOC(=O)[C@H]1CCCC[N@H+]1Cc1ccc(F)cc1Cl)c1ccc(-c2c3nc(c(-c4c(F)cccc4F)c4ccc([nH]4)c(-c4c(F)cccc4F)c4nc(c(-c5c(F)cccc5F)c5ccc2[nH]5)C=C4)C=C3)cc1
REMARK SMILES IDX 9 1 8 2 7 3 6 4 5 5 4 6 3 7 2 8 1 9 33 10 34 11 86 12 35 13
REMARK SMILES IDX 85 14 36 15 37 16 38 17 79 18 39 19 84 20 78 21 80 22 40 23
REMARK SMILES IDX 83 24 77 25 76 26 41 28 67 29 50 30 66 31 51 32 54 33 65 34
REMARK SMILES IDX 81 35 52 36 53 37 64 39 82 40 55 41 42 42 43 43 48 44 44 45
REMARK SMILES IDX 45 46 47 47 49 48 46 49 68 50 69 51 74 52 70 53 71 54 73 55
REMARK SMILES IDX 75 56 72 57 56 58 57 59 62 60 58 61 59 62 61 63 63 64 60 65
REMARK SMILES IDX 10 66 11 67 12 68 13 69 14 70 15 71 16 72 17 73 18 74 19 75
REMARK SMILES IDX 23 76 20 77 22 78 21 80 24 81 25 82 26 83 31 84 27 85 30 86
REMARK SMILES IDX 32 87 28 88 29 89
REMARK H PARENT 80 27 54 38 23 79
REMARK Flexibility Score: inf
ROOT
ATOM      1  O   UNL A   1      32.618  28.433  25.826  1.00  0.00    -0.377 OA
ENDROOT
BRANCH   1   2
ATOM      2  C   UNL A   1      33.580  28.910  26.765  1.00  0.00     0.188 C 
BRANCH   2   3
ATOM      3  C   UNL A   1      33.426  30.379  27.131  1.00  0.00     0.188 C 
BRANCH   3   4
ATOM      4  O   UNL A   1      32.231  30.845  26.547  1.00  0.00    -0.376 OA
BRANCH   4   5
ATOM      5  C   UNL A   1      31.542  31.938  27.113  1.00  0.00     0.202 C 
BRANCH   5   6
ATOM      6  C   UNL A   1      32.176  33.285  26.845  1.00  0.00     0.261 C 
BRANCH   6   7
ATOM      7  O   UNL A   1      32.300  34.177  27.975  1.00  0.00    -0.460 OA
BRANCH   7   8
ATOM      8  C   UNL A   1      33.309  34.536  28.797  1.00  0.00     0.338 C 
ATOM      9  O   UNL A   1      33.225  35.616  29.388  1.00  0.00    -0.246 OA
BRANCH   8  10
ATOM     10  C   UNL A   1      34.468  33.676  29.137  1.00  0.00     0.060 A 
ATOM     11  C   UNL A   1      34.382  32.392  29.658  1.00  0.00     0.016 A 
ATOM     12  C   UNL A   1      35.739  34.137  28.768  1.00  0.00     0.016 A 
ATOM     13  C   UNL A   1      35.495  31.648  29.982  1.00  0.00     0.010 A 
ATOM     14  C   UNL A   1      36.878  33.361  29.007  1.00  0.00     0.010 A 
ATOM     15  C   UNL A   1      36.753  32.136  29.672  1.00  0.00    -0.014 A 
BRANCH  15  16
ATOM     16  C   UNL A   1      37.891  31.427  30.273  1.00  0.00     0.031 A 
ATOM     17  C   UNL A   1      38.118  31.637  31.738  1.00  0.00     0.074 A 
ATOM     18  C   UNL A   1      38.535  30.473  29.577  1.00  0.00     0.049 A 
ATOM     19  N   UNL A   1      39.083  31.203  32.498  1.00  0.00    -0.248 NA
ATOM     20  C   UNL A   1      37.104  32.437  32.451  1.00  0.00     0.031 C 
ATOM     21  C   UNL A   1      38.230  30.075  28.197  1.00  0.00     0.029 A 
ATOM     22  N   UNL A   1      39.546  29.630  29.948  1.00  0.00    -0.354 N 
ATOM     23  C   UNL A   1      38.817  31.713  33.761  1.00  0.00     0.074 A 
ATOM     24  C   UNL A   1      37.609  32.498  33.672  1.00  0.00     0.031 C 
ATOM     25  C   UNL A   1      39.026  29.051  27.849  1.00  0.00     0.029 A 
ATOM     26  C   UNL A   1      39.954  28.791  28.940  1.00  0.00     0.049 A 
ATOM     27  H   UNL A   1      39.941  29.625  30.849  1.00  0.00     0.167 HD
ATOM     28  C   UNL A   1      39.531  31.535  34.893  1.00  0.00     0.037 A 
ATOM     29  C   UNL A   1      41.007  27.956  28.900  1.00  0.00     0.037 A 
ATOM     30  C   UNL A   1      40.724  30.737  34.932  1.00  0.00     0.049 A 
ATOM     31  C   UNL A   1      41.870  27.882  30.131  1.00  0.00     0.074 A 
ATOM     32  C   UNL A   1      41.617  30.556  35.967  1.00  0.00     0.029 A 
ATOM     33  N   UNL A   1      41.176  29.971  33.862  1.00  0.00    -0.354 N 
ATOM     34  N   UNL A   1      41.701  28.470  31.294  1.00  0.00    -0.248 NA
ATOM     35  C   UNL A   1      43.073  27.051  30.045  1.00  0.00     0.031 C 
ATOM     36  C   UNL A   1      42.634  29.710  35.508  1.00  0.00     0.029 A 
ATOM     37  C   UNL A   1      42.342  29.320  34.208  1.00  0.00     0.049 A 
ATOM     38  H   UNL A   1      40.729  29.903  32.988  1.00  0.00     0.167 HD
ATOM     39  C   UNL A   1      42.767  28.069  32.084  1.00  0.00     0.074 A 
ATOM     40  C   UNL A   1      43.560  27.164  31.273  1.00  0.00     0.031 C 
ATOM     41  C   UNL A   1      43.080  28.417  33.358  1.00  0.00     0.037 A 
BRANCH  28  42
ATOM     42  C   UNL A   1      39.074  32.280  36.110  1.00  0.00     0.057 A 
ATOM     43  C   UNL A   1      38.176  31.728  37.033  1.00  0.00     0.134 A 
ATOM     44  C   UNL A   1      39.487  33.602  36.324  1.00  0.00     0.134 A 
ATOM     45  F   UNL A   1      37.706  30.483  36.863  1.00  0.00    -0.206 F 
ATOM     46  C   UNL A   1      37.686  32.471  38.110  1.00  0.00     0.040 A 
ATOM     47  C   UNL A   1      39.025  34.346  37.411  1.00  0.00     0.040 A 
ATOM     48  F   UNL A   1      40.331  34.198  35.469  1.00  0.00    -0.206 F 
ATOM     49  C   UNL A   1      38.114  33.784  38.302  1.00  0.00     0.006 A 
ENDBRANCH  28  42
BRANCH  29  50
ATOM     50  C   UNL A   1      41.354  27.221  27.654  1.00  0.00     0.057 A 
ATOM     51  C   UNL A   1      40.976  25.889  27.453  1.00  0.00     0.134 A 
ATOM     52  C   UNL A   1      42.116  27.825  26.642  1.00  0.00     0.134 A 
ATOM     53  F   UNL A   1      40.260  25.241  28.385  1.00  0.00    -0.206 F 
ATOM     54  C   UNL A   1      41.364  25.179  26.314  1.00  0.00     0.040 A 
ATOM     55  C   UNL A   1      42.482  27.139  25.483  1.00  0.00     0.040 A 
ATOM     56  F   UNL A   1      42.515  29.100  26.763  1.00  0.00    -0.206 F 
ATOM     57  C   UNL A   1      42.117  25.806  25.323  1.00  0.00     0.006 A 
ENDBRANCH  29  50
BRANCH  41  58
ATOM     58  C   UNL A   1      44.297  27.775  33.945  1.00  0.00     0.057 A 
ATOM     59  C   UNL A   1      44.232  26.552  34.622  1.00  0.00     0.134 A 
ATOM     60  C   UNL A   1      45.553  28.374  33.794  1.00  0.00     0.134 A 
ATOM     61  F   UNL A   1      43.054  25.937  34.810  1.00  0.00    -0.206 F 
ATOM     62  C   UNL A   1      45.376  25.959  35.156  1.00  0.00     0.040 A 
ATOM     63  C   UNL A   1      46.707  27.775  34.295  1.00  0.00     0.040 A 
ATOM     64  F   UNL A   1      45.678  29.542  33.145  1.00  0.00    -0.206 F 
ATOM     65  C   UNL A   1      46.617  26.568  34.984  1.00  0.00     0.006 A 
ENDBRANCH  41  58
ENDBRANCH  15  16
ENDBRANCH   8  10
ENDBRANCH   7   8
ENDBRANCH   6   7
ENDBRANCH   5   6
ENDBRANCH   4   5
ENDBRANCH   3   4
ENDBRANCH   2   3
ENDBRANCH   1   2
BRANCH   1  66
ATOM     66  C   UNL A   1      31.636  27.487  26.251  1.00  0.00     0.188 C 
BRANCH  66  67
ATOM     67  C   UNL A   1      32.052  26.030  26.532  1.00  0.00     0.188 C 
BRANCH  67  68
ATOM     68  O   UNL A   1      30.999  25.149  26.901  1.00  0.00    -0.376 OA
BRANCH  68  69
ATOM     69  C   UNL A   1      31.383  23.791  27.085  1.00  0.00     0.202 C 
BRANCH  69  70
ATOM     70  C   UNL A   1      30.918  22.809  26.000  1.00  0.00     0.261 C 
BRANCH  70  71
ATOM     71  O   UNL A   1      31.732  21.698  25.577  1.00  0.00    -0.459 OA
BRANCH  71  72
ATOM     72  C   UNL A   1      32.736  21.830  24.687  1.00  0.00     0.364 C 
ATOM     73  O   UNL A   1      33.116  20.940  23.932  1.00  0.00    -0.245 OA
BRANCH  72  74
ATOM     74  C   UNL A   1      33.420  23.212  24.713  1.00  0.00     0.295 C 
ATOM     75  C   UNL A   1      34.699  23.293  25.566  1.00  0.00     0.078 C 
ATOM     76  N   UNL A   1      33.665  23.766  23.364  1.00  0.00    -0.319 N 
ATOM     77  C   UNL A   1      35.899  22.620  24.912  1.00  0.00     0.013 C 
ATOM     78  C   UNL A   1      34.802  23.157  22.680  1.00  0.00     0.263 C 
ATOM     79  H   UNL A   1      33.973  24.721  23.544  1.00  0.00     0.349 HD
ATOM     80  C   UNL A   1      36.092  23.181  23.512  1.00  0.00     0.062 C 
BRANCH  76  81
ATOM     81  C   UNL A   1      32.469  24.039  22.541  1.00  0.00     0.301 C 
BRANCH  81  82
ATOM     82  C   UNL A   1      31.621  25.261  22.866  1.00  0.00     0.025 A 
ATOM     83  C   UNL A   1      30.371  25.074  23.495  1.00  0.00     0.014 A 
ATOM     84  C   UNL A   1      31.987  26.576  22.537  1.00  0.00     0.052 A 
ATOM     85  C   UNL A   1      29.447  26.118  23.600  1.00  0.00     0.040 A 
ATOM     86  C   UNL A   1      31.068  27.625  22.653  1.00  0.00     0.060 A 
ATOM     87  Cl  UNL A   1      33.580  26.996  22.023  1.00  0.00    -0.084 Cl
ATOM     88  C   UNL A   1      29.795  27.377  23.145  1.00  0.00     0.124 A 
ATOM     89  F   UNL A   1      28.890  28.365  23.168  1.00  0.00    -0.207 F 
ENDBRANCH  81  82
ENDBRANCH  76  81
ENDBRANCH  72  74
ENDBRANCH  71  72
ENDBRANCH  70  71
ENDBRANCH  69  70
ENDBRANCH  68  69
ENDBRANCH  67  68
ENDBRANCH  66  67
ENDBRANCH   1  66
TORSDOF 22
ENDMDL
MODEL 3
REMARK VINA RESULT:      -9.9      0.648      6.205
REMARK SMILES O=C(OCCOCCOCCOCCOC(=O)[C@H]1CCCC[N@H+]1Cc1ccc(F)cc1Cl)c1ccc(-c2c3nc(c(-c4c(F)cccc4F)c4ccc([nH]4)c(-c4c(F)cccc4F)c4nc(c(-c5c(F)cccc5F)c5ccc2[nH]5)C=C4)C=C3)cc1
REMARK SMILES IDX 9 1 8 2 7 3 6 4 5 5 4 6 3 7 2 8 1 9 33 10 34 11 86 12 35 13
REMARK SMILES IDX 85 14 36 15 37 16 38 17 79 18 39 19 84 20 78 21 80 22 40 23
REMARK SMILES IDX 83 24 77 25 76 26 41 28 67 29 50 30 66 31 51 32 54 33 65 34
REMARK SMILES IDX 81 35 52 36 53 37 64 39 82 40 55 41 42 42 43 43 48 44 44 45
REMARK SMILES IDX 45 46 47 47 49 48 46 49 68 50 69 51 74 52 70 53 71 54 73 55
REMARK SMILES IDX 75 56 72 57 56 58 57 59 62 60 58 61 59 62 61 63 63 64 60 65
REMARK SMILES IDX 10 66 11 67 12 68 13 69 14 70 15 71 16 72 17 73 18 74 19 75
REMARK SMILES IDX 23 76 20 77 22 78 21 80 24 81 25 82 26 83 31 84 27 85 30 86
REMARK SMILES IDX 32 87 28 88 29 89
REMARK H PARENT 80 27 54 38 23 79
REMARK Flexibility Score: inf
ROOT
ATOM      1  O   UNL A   1      32.998  29.159  24.267  1.00  0.00    -0.377 OA
ENDROOT
BRANCH   1   2
ATOM      2  C   UNL A   1      33.065  28.152  25.275  1.00  0.00     0.188 C 
BRANCH   2   3
ATOM      3  C   UNL A   1      33.753  28.592  26.559  1.00  0.00     0.188 C 
BRANCH   3   4
ATOM      4  O   UNL A   1      32.947  29.579  27.161  1.00  0.00    -0.376 OA
BRANCH   4   5
ATOM      5  C   UNL A   1      33.414  30.905  27.275  1.00  0.00     0.202 C 
BRANCH   5   6
ATOM      6  C   UNL A   1      32.323  31.954  27.294  1.00  0.00     0.261 C 
BRANCH   6   7
ATOM      7  O   UNL A   1      32.752  33.330  27.391  1.00  0.00    -0.460 OA
BRANCH   7   8
ATOM      8  C   UNL A   1      33.291  34.091  28.366  1.00  0.00     0.338 C 
ATOM      9  O   UNL A   1      32.674  35.096  28.732  1.00  0.00    -0.246 OA
BRANCH   8  10
ATOM     10  C   UNL A   1      34.521  33.751  29.120  1.00  0.00     0.060 A 
ATOM     11  C   UNL A   1      35.802  34.175  28.791  1.00  0.00     0.016 A 
ATOM     12  C   UNL A   1      34.361  33.074  30.338  1.00  0.00     0.016 A 
ATOM     13  C   UNL A   1      36.914  33.804  29.514  1.00  0.00     0.010 A 
ATOM     14  C   UNL A   1      35.468  32.763  31.133  1.00  0.00     0.010 A 
ATOM     15  C   UNL A   1      36.755  33.081  30.683  1.00  0.00    -0.014 A 
BRANCH  15  16
ATOM     16  C   UNL A   1      37.975  32.498  31.258  1.00  0.00     0.031 A 
ATOM     17  C   UNL A   1      38.587  31.350  30.517  1.00  0.00     0.074 A 
ATOM     18  C   UNL A   1      38.613  33.125  32.263  1.00  0.00     0.049 A 
ATOM     19  N   UNL A   1      39.607  30.606  30.837  1.00  0.00    -0.248 NA
ATOM     20  C   UNL A   1      37.970  31.001  29.223  1.00  0.00     0.031 C 
ATOM     21  C   UNL A   1      38.173  34.370  32.904  1.00  0.00     0.029 A 
ATOM     22  N   UNL A   1      39.792  32.829  32.890  1.00  0.00    -0.354 N 
ATOM     23  C   UNL A   1      39.724  29.678  29.812  1.00  0.00     0.074 A 
ATOM     24  C   UNL A   1      38.670  29.939  28.861  1.00  0.00     0.031 C 
ATOM     25  C   UNL A   1      39.084  34.738  33.820  1.00  0.00     0.029 A 
ATOM     26  C   UNL A   1      40.112  33.711  33.894  1.00  0.00     0.049 A 
ATOM     27  H   UNL A   1      40.356  32.061  32.644  1.00  0.00     0.167 HD
ATOM     28  C   UNL A   1      40.640  28.693  29.687  1.00  0.00     0.037 A 
ATOM     29  C   UNL A   1      41.098  33.642  34.806  1.00  0.00     0.037 A 
ATOM     30  C   UNL A   1      41.676  28.480  30.657  1.00  0.00     0.049 A 
ATOM     31  C   UNL A   1      42.021  32.457  34.729  1.00  0.00     0.074 A 
ATOM     32  C   UNL A   1      42.601  27.460  30.733  1.00  0.00     0.029 A 
ATOM     33  N   UNL A   1      41.919  29.333  31.729  1.00  0.00    -0.354 N 
ATOM     34  N   UNL A   1      42.055  31.493  33.835  1.00  0.00    -0.248 NA
ATOM     35  C   UNL A   1      43.026  32.332  35.788  1.00  0.00     0.031 C 
ATOM     36  C   UNL A   1      43.381  27.676  31.876  1.00  0.00     0.029 A 
ATOM     37  C   UNL A   1      42.977  28.860  32.478  1.00  0.00     0.049 A 
ATOM     38  H   UNL A   1      41.412  30.154  31.922  1.00  0.00     0.167 HD
ATOM     39  C   UNL A   1      43.094  30.656  34.214  1.00  0.00     0.074 A 
ATOM     40  C   UNL A   1      43.681  31.246  35.404  1.00  0.00     0.031 C 
ATOM     41  C   UNL A   1      43.525  29.502  33.648  1.00  0.00     0.037 A 
BRANCH  28  42
ATOM     42  C   UNL A   1      40.484  27.763  28.523  1.00  0.00     0.057 A 
ATOM     43  C   UNL A   1      39.729  26.586  28.601  1.00  0.00     0.134 A 
ATOM     44  C   UNL A   1      41.161  28.016  27.323  1.00  0.00     0.134 A 
ATOM     45  F   UNL A   1      39.091  26.260  29.736  1.00  0.00    -0.206 F 
ATOM     46  C   UNL A   1      39.672  25.681  27.537  1.00  0.00     0.040 A 
ATOM     47  C   UNL A   1      41.092  27.134  26.243  1.00  0.00     0.040 A 
ATOM     48  F   UNL A   1      41.917  29.115  27.186  1.00  0.00    -0.206 F 
ATOM     49  C   UNL A   1      40.353  25.958  26.352  1.00  0.00     0.006 A 
ENDBRANCH  28  42
BRANCH  29  50
ATOM     50  C   UNL A   1      41.197  34.643  35.902  1.00  0.00     0.057 A 
ATOM     51  C   UNL A   1      42.063  35.740  35.822  1.00  0.00     0.134 A 
ATOM     52  C   UNL A   1      40.453  34.505  37.083  1.00  0.00     0.134 A 
ATOM     53  F   UNL A   1      42.817  35.928  34.729  1.00  0.00    -0.206 F 
ATOM     54  C   UNL A   1      42.207  36.640  36.882  1.00  0.00     0.040 A 
ATOM     55  C   UNL A   1      40.561  35.415  38.136  1.00  0.00     0.040 A 
ATOM     56  F   UNL A   1      39.601  33.480  37.232  1.00  0.00    -0.206 F 
ATOM     57  C   UNL A   1      41.452  36.480  38.042  1.00  0.00     0.006 A 
ENDBRANCH  29  50
BRANCH  41  58
ATOM     58  C   UNL A   1      44.709  28.846  34.288  1.00  0.00     0.057 A 
ATOM     59  C   UNL A   1      44.566  27.858  35.268  1.00  0.00     0.134 A 
ATOM     60  C   UNL A   1      46.006  29.187  33.886  1.00  0.00     0.134 A 
ATOM     61  F   UNL A   1      43.347  27.501  35.703  1.00  0.00    -0.206 F 
ATOM     62  C   UNL A   1      45.677  27.248  35.848  1.00  0.00     0.040 A 
ATOM     63  C   UNL A   1      47.123  28.562  34.436  1.00  0.00     0.040 A 
ATOM     64  F   UNL A   1      46.206  30.120  32.943  1.00  0.00    -0.206 F 
ATOM     65  C   UNL A   1      46.958  27.594  35.425  1.00  0.00     0.006 A 
ENDBRANCH  41  58
ENDBRANCH  15  16
ENDBRANCH   8  10
ENDBRANCH   7   8
ENDBRANCH   6   7
ENDBRANCH   5   6
ENDBRANCH   4   5
ENDBRANCH   3   4
ENDBRANCH   2   3
ENDBRANCH   1   2
BRANCH   1  66
ATOM     66  C   UNL A   1      32.505  28.819  22.971  1.00  0.00     0.188 C 
BRANCH  66  67
ATOM     67  C   UNL A   1      31.026  28.419  22.797  1.00  0.00     0.188 C 
BRANCH  67  68
ATOM     68  O   UNL A   1      30.793  27.069  22.419  1.00  0.00    -0.376 OA
BRANCH  68  69
ATOM     69  C   UNL A   1      31.859  26.447  21.710  1.00  0.00     0.202 C 
BRANCH  69  70
ATOM     70  C   UNL A   1      32.324  25.088  22.254  1.00  0.00     0.261 C 
BRANCH  70  71
ATOM     71  O   UNL A   1      33.717  24.723  22.303  1.00  0.00    -0.459 OA
BRANCH  71  72
ATOM     72  C   UNL A   1      34.350  24.421  23.454  1.00  0.00     0.364 C 
ATOM     73  O   UNL A   1      34.387  25.153  24.438  1.00  0.00    -0.245 OA
BRANCH  72  74
ATOM     74  C   UNL A   1      35.081  23.063  23.431  1.00  0.00     0.295 C 
ATOM     75  C   UNL A   1      36.619  23.147  23.416  1.00  0.00     0.078 C 
ATOM     76  N   UNL A   1      34.627  22.139  24.491  1.00  0.00    -0.319 N 
ATOM     77  C   UNL A   1      37.210  23.536  24.765  1.00  0.00     0.013 C 
ATOM     78  C   UNL A   1      35.156  22.461  25.814  1.00  0.00     0.263 C 
ATOM     79  H   UNL A   1      35.080  21.255  24.257  1.00  0.00     0.349 HD
ATOM     80  C   UNL A   1      36.685  22.594  25.837  1.00  0.00     0.062 C 
BRANCH  76  81
ATOM     81  C   UNL A   1      33.212  21.718  24.431  1.00  0.00     0.301 C 
BRANCH  81  82
ATOM     82  C   UNL A   1      32.895  20.234  24.322  1.00  0.00     0.025 A 
ATOM     83  C   UNL A   1      33.128  19.404  25.440  1.00  0.00     0.014 A 
ATOM     84  C   UNL A   1      32.419  19.619  23.152  1.00  0.00     0.052 A 
ATOM     85  C   UNL A   1      33.089  18.011  25.333  1.00  0.00     0.040 A 
ATOM     86  C   UNL A   1      32.366  18.225  23.046  1.00  0.00     0.060 A 
ATOM     87  Cl  UNL A   1      31.829  20.521  21.804  1.00  0.00    -0.084 Cl
ATOM     88  C   UNL A   1      32.741  17.435  24.123  1.00  0.00     0.124 A 
ATOM     89  F   UNL A   1      32.776  16.103  23.988  1.00  0.00    -0.207 F 
ENDBRANCH  81  82
ENDBRANCH  76  81
ENDBRANCH  72  74
ENDBRANCH  71  72
ENDBRANCH  70  71
ENDBRANCH  69  70
ENDBRANCH  68  69
ENDBRANCH  67  68
ENDBRANCH  66  67
ENDBRANCH   1  66
TORSDOF 22
ENDMDL
