MODEL 1
REMARK VINA RESULT:     -10.6      0.000      0.000
REMARK SMILES O=C(OCCOCCOCCOCCOC(=O)[C@@H]1[C@@H](C(=O)Nc2cccc([N+](=O)[O-])c2)[C@@H]2C=C[C@H]1O2)c1ccc(-c2c3nc(c(-c4c(F)cccc4F)c4ccc([nH]4)c(-c4c(F)cccc4F)c4nc(c(-c5c(F)cccc5F)c5ccc2[nH]5)C=C4)C=C3)cc1
REMARK SMILES IDX 10 1 9 2 8 3 7 4 6 5 5 6 4 7 3 8 2 9 1 10 37 11 38 12 90 13
REMARK SMILES IDX 39 14 89 15 40 16 41 17 42 18 83 19 43 20 88 21 82 22 84 23
REMARK SMILES IDX 44 24 87 25 81 26 80 27 45 29 71 30 54 31 70 32 55 33 58 34
REMARK SMILES IDX 69 35 85 36 56 37 57 38 68 40 86 41 59 42 46 43 47 44 52 45
REMARK SMILES IDX 48 46 49 47 51 48 53 49 50 50 72 51 73 52 78 53 74 54 75 55
REMARK SMILES IDX 77 56 79 57 76 58 60 59 61 60 66 61 62 62 63 63 65 64 67 65
REMARK SMILES IDX 64 66 11 67 12 68 13 69 14 70 15 71 16 72 17 73 18 74 19 75
REMARK SMILES IDX 35 76 32 77 34 78 36 79 33 80 20 81 21 82 22 83 23 85 24 86
REMARK SMILES IDX 31 87 25 88 27 89 26 90 28 91 29 92 30 93
REMARK H PARENT 84 28 58 39 22 84
REMARK Flexibility Score: inf
ROOT
ATOM      1  C   UNL A   1      34.588  33.365  28.127  1.00  0.00     0.188 C 
ENDROOT
BRANCH   1   2
ATOM      2  O   UNL A   1      34.524  34.282  29.213  1.00  0.00    -0.377 OA
BRANCH   2   3
ATOM      3  C   UNL A   1      33.454  35.227  29.161  1.00  0.00     0.188 C 
BRANCH   3   4
ATOM      4  C   UNL A   1      32.909  35.689  30.517  1.00  0.00     0.188 C 
BRANCH   4   5
ATOM      5  O   UNL A   1      33.959  36.123  31.377  1.00  0.00    -0.376 OA
BRANCH   5   6
ATOM      6  C   UNL A   1      34.280  35.342  32.526  1.00  0.00     0.202 C 
BRANCH   6   7
ATOM      7  C   UNL A   1      35.740  34.950  32.661  1.00  0.00     0.261 C 
BRANCH   7   8
ATOM      8  O   UNL A   1      35.963  33.554  32.899  1.00  0.00    -0.460 OA
BRANCH   8   9
ATOM      9  C   UNL A   1      35.861  32.500  32.060  1.00  0.00     0.338 C 
ATOM     10  O   UNL A   1      34.734  32.145  31.714  1.00  0.00    -0.246 OA
BRANCH   9  11
ATOM     11  C   UNL A   1      37.014  31.744  31.492  1.00  0.00     0.060 A 
ATOM     12  C   UNL A   1      37.915  30.956  32.207  1.00  0.00     0.016 A 
ATOM     13  C   UNL A   1      37.125  31.748  30.092  1.00  0.00     0.016 A 
ATOM     14  C   UNL A   1      38.918  30.236  31.593  1.00  0.00     0.010 A 
ATOM     15  C   UNL A   1      38.127  31.020  29.451  1.00  0.00     0.010 A 
ATOM     16  C   UNL A   1      39.039  30.286  30.215  1.00  0.00    -0.014 A 
BRANCH  16  17
ATOM     17  C   UNL A   1      40.280  29.755  29.652  1.00  0.00     0.031 A 
ATOM     18  C   UNL A   1      41.449  30.681  29.617  1.00  0.00     0.074 A 
ATOM     19  C   UNL A   1      40.378  28.450  29.359  1.00  0.00     0.049 A 
ATOM     20  N   UNL A   1      42.614  30.526  29.059  1.00  0.00    -0.248 NA
ATOM     21  C   UNL A   1      41.279  31.968  30.320  1.00  0.00     0.031 C 
ATOM     22  C   UNL A   1      39.323  27.454  29.569  1.00  0.00     0.029 A 
ATOM     23  N   UNL A   1      41.419  27.736  28.840  1.00  0.00    -0.354 N 
ATOM     24  C   UNL A   1      43.291  31.715  29.289  1.00  0.00     0.074 A 
ATOM     25  C   UNL A   1      42.419  32.578  30.047  1.00  0.00     0.031 C 
ATOM     26  C   UNL A   1      39.770  26.256  29.162  1.00  0.00     0.029 A 
ATOM     27  C   UNL A   1      41.096  26.426  28.586  1.00  0.00     0.049 A 
ATOM     28  H   UNL A   1      42.308  28.119  28.667  1.00  0.00     0.167 HD
ATOM     29  C   UNL A   1      44.530  32.045  28.867  1.00  0.00     0.037 A 
ATOM     30  C   UNL A   1      41.786  25.504  27.891  1.00  0.00     0.037 A 
ATOM     31  C   UNL A   1      45.347  31.135  28.114  1.00  0.00     0.049 A 
ATOM     32  C   UNL A   1      43.115  25.923  27.328  1.00  0.00     0.074 A 
ATOM     33  C   UNL A   1      46.593  31.339  27.560  1.00  0.00     0.029 A 
ATOM     34  N   UNL A   1      44.972  29.829  27.809  1.00  0.00    -0.354 N 
ATOM     35  N   UNL A   1      43.732  27.078  27.447  1.00  0.00    -0.248 NA
ATOM     36  C   UNL A   1      43.837  24.934  26.523  1.00  0.00     0.031 C 
ATOM     37  C   UNL A   1      46.945  30.174  26.870  1.00  0.00     0.029 A 
ATOM     38  C   UNL A   1      45.950  29.220  27.050  1.00  0.00     0.049 A 
ATOM     39  H   UNL A   1      44.131  29.403  28.095  1.00  0.00     0.167 HD
ATOM     40  C   UNL A   1      44.923  26.953  26.749  1.00  0.00     0.074 A 
ATOM     41  C   UNL A   1      44.942  25.601  26.217  1.00  0.00     0.031 C 
ATOM     42  C   UNL A   1      45.912  27.862  26.559  1.00  0.00     0.037 A 
BRANCH  29  43
ATOM     43  C   UNL A   1      44.972  33.458  29.112  1.00  0.00     0.057 A 
ATOM     44  C   UNL A   1      45.625  33.856  30.286  1.00  0.00     0.134 A 
ATOM     45  C   UNL A   1      44.639  34.460  28.191  1.00  0.00     0.134 A 
ATOM     46  F   UNL A   1      45.938  32.955  31.230  1.00  0.00    -0.206 F 
ATOM     47  C   UNL A   1      45.889  35.201  30.555  1.00  0.00     0.040 A 
ATOM     48  C   UNL A   1      44.924  35.805  28.435  1.00  0.00     0.040 A 
ATOM     49  F   UNL A   1      44.000  34.154  27.052  1.00  0.00    -0.206 F 
ATOM     50  C   UNL A   1      45.538  36.180  29.627  1.00  0.00     0.006 A 
ENDBRANCH  29  43
BRANCH  30  51
ATOM     51  C   UNL A   1      41.183  24.172  27.629  1.00  0.00     0.057 A 
ATOM     52  C   UNL A   1      40.148  24.002  26.705  1.00  0.00     0.134 A 
ATOM     53  C   UNL A   1      41.660  23.022  28.276  1.00  0.00     0.134 A 
ATOM     54  F   UNL A   1      39.637  25.062  26.061  1.00  0.00    -0.206 F 
ATOM     55  C   UNL A   1      39.606  22.742  26.437  1.00  0.00     0.040 A 
ATOM     56  C   UNL A   1      41.147  21.755  27.998  1.00  0.00     0.040 A 
ATOM     57  F   UNL A   1      42.656  23.111  29.170  1.00  0.00    -0.206 F 
ATOM     58  C   UNL A   1      40.113  21.612  27.079  1.00  0.00     0.006 A 
ENDBRANCH  30  51
BRANCH  42  59
ATOM     59  C   UNL A   1      47.106  27.405  25.782  1.00  0.00     0.057 A 
ATOM     60  C   UNL A   1      48.164  26.719  26.389  1.00  0.00     0.134 A 
ATOM     61  C   UNL A   1      47.145  27.573  24.393  1.00  0.00     0.134 A 
ATOM     62  F   UNL A   1      48.186  26.540  27.719  1.00  0.00    -0.206 F 
ATOM     63  C   UNL A   1      49.228  26.223  25.638  1.00  0.00     0.040 A 
ATOM     64  C   UNL A   1      48.187  27.055  23.628  1.00  0.00     0.040 A 
ATOM     65  F   UNL A   1      46.151  28.212  23.756  1.00  0.00    -0.206 F 
ATOM     66  C   UNL A   1      49.233  26.378  24.252  1.00  0.00     0.006 A 
ENDBRANCH  42  59
ENDBRANCH  16  17
ENDBRANCH   9  11
ENDBRANCH   8   9
ENDBRANCH   7   8
ENDBRANCH   6   7
ENDBRANCH   5   6
ENDBRANCH   4   5
ENDBRANCH   3   4
ENDBRANCH   2   3
ENDBRANCH   1   2
BRANCH   1  67
ATOM     67  C   UNL A   1      33.974  31.950  28.314  1.00  0.00     0.188 C 
BRANCH  67  68
ATOM     68  O   UNL A   1      34.123  31.110  27.182  1.00  0.00    -0.376 OA
BRANCH  68  69
ATOM     69  C   UNL A   1      34.160  29.697  27.329  1.00  0.00     0.202 C 
BRANCH  69  70
ATOM     70  C   UNL A   1      32.924  28.785  27.165  1.00  0.00     0.261 C 
BRANCH  70  71
ATOM     71  O   UNL A   1      32.559  28.457  25.825  1.00  0.00    -0.463 OA
BRANCH  71  72
ATOM     72  C   UNL A   1      31.581  29.194  25.255  1.00  0.00     0.312 C 
ATOM     73  O   UNL A   1      31.388  30.393  25.473  1.00  0.00    -0.252 OA
BRANCH  72  74
ATOM     74  C   UNL A   1      30.934  28.440  24.129  1.00  0.00     0.147 C 
ATOM     75  C   UNL A   1      31.187  26.931  24.190  1.00  0.00     0.129 C 
ATOM     76  C   UNL A   1      31.393  28.801  22.715  1.00  0.00     0.157 C 
ATOM     77  C   UNL A   1      31.769  26.665  22.799  1.00  0.00     0.155 C 
ATOM     78  C   UNL A   1      32.877  28.648  22.600  1.00  0.00     0.004 C 
ATOM     79  O   UNL A   1      30.988  27.594  22.005  1.00  0.00    -0.365 OA
ATOM     80  C   UNL A   1      33.115  27.332  22.679  1.00  0.00     0.004 C 
BRANCH  75  81
ATOM     81  C   UNL A   1      29.879  26.147  24.408  1.00  0.00     0.231 C 
ATOM     82  O   UNL A   1      28.763  26.613  24.173  1.00  0.00    -0.274 OA
ATOM     83  N   UNL A   1      29.958  24.833  24.800  1.00  0.00    -0.325 N 
ATOM     84  H   UNL A   1      29.124  24.310  24.798  1.00  0.00     0.169 HD
BRANCH  83  85
ATOM     85  C   UNL A   1      31.123  24.183  25.201  1.00  0.00     0.048 A 
ATOM     86  C   UNL A   1      31.627  24.457  26.468  1.00  0.00     0.026 A 
ATOM     87  C   UNL A   1      31.671  23.168  24.417  1.00  0.00     0.111 A 
ATOM     88  C   UNL A   1      32.569  23.592  27.024  1.00  0.00     0.009 A 
ATOM     89  C   UNL A   1      32.567  22.274  24.996  1.00  0.00     0.271 A 
ATOM     90  C   UNL A   1      33.013  22.476  26.307  1.00  0.00     0.086 A 
BRANCH  89  91
ATOM     91  N   UNL A   1      32.935  21.055  24.267  1.00  0.00     0.062 N 
ATOM     92  O   UNL A   1      33.983  20.483  24.599  1.00  0.00    -0.258 OA
ATOM     93  O   UNL A   1      32.163  20.653  23.387  1.00  0.00    -0.258 OA
ENDBRANCH  89  91
ENDBRANCH  83  85
ENDBRANCH  75  81
ENDBRANCH  72  74
ENDBRANCH  71  72
ENDBRANCH  70  71
ENDBRANCH  69  70
ENDBRANCH  68  69
ENDBRANCH  67  68
ENDBRANCH   1  67
TORSDOF 23
ENDMDL
MODEL 2
REMARK VINA RESULT:     -10.3      4.627     10.350
REMARK SMILES O=C(OCCOCCOCCOCCOC(=O)[C@@H]1[C@@H](C(=O)Nc2cccc([N+](=O)[O-])c2)[C@@H]2C=C[C@H]1O2)c1ccc(-c2c3nc(c(-c4c(F)cccc4F)c4ccc([nH]4)c(-c4c(F)cccc4F)c4nc(c(-c5c(F)cccc5F)c5ccc2[nH]5)C=C4)C=C3)cc1
REMARK SMILES IDX 10 1 9 2 8 3 7 4 6 5 5 6 4 7 3 8 2 9 1 10 37 11 38 12 90 13
REMARK SMILES IDX 39 14 89 15 40 16 41 17 42 18 83 19 43 20 88 21 82 22 84 23
REMARK SMILES IDX 44 24 87 25 81 26 80 27 45 29 71 30 54 31 70 32 55 33 58 34
REMARK SMILES IDX 69 35 85 36 56 37 57 38 68 40 86 41 59 42 46 43 47 44 52 45
REMARK SMILES IDX 48 46 49 47 51 48 53 49 50 50 72 51 73 52 78 53 74 54 75 55
REMARK SMILES IDX 77 56 79 57 76 58 60 59 61 60 66 61 62 62 63 63 65 64 67 65
REMARK SMILES IDX 64 66 11 67 12 68 13 69 14 70 15 71 16 72 17 73 18 74 19 75
REMARK SMILES IDX 35 76 32 77 34 78 36 79 33 80 20 81 21 82 22 83 23 85 24 86
REMARK SMILES IDX 31 87 25 88 27 89 26 90 28 91 29 92 30 93
REMARK H PARENT 84 28 58 39 22 84
REMARK Flexibility Score: inf
ROOT
ATOM      1  C   UNL A   1      40.973  19.857  26.361  1.00  0.00     0.188 C 
ENDROOT
BRANCH   1   2
ATOM      2  O   UNL A   1      41.886  19.502  25.329  1.00  0.00    -0.377 OA
BRANCH   2   3
ATOM      3  C   UNL A   1      43.219  19.216  25.755  1.00  0.00     0.188 C 
BRANCH   3   4
ATOM      4  C   UNL A   1      44.333  19.684  24.812  1.00  0.00     0.188 C 
BRANCH   4   5
ATOM      5  O   UNL A   1      44.932  20.890  25.278  1.00  0.00    -0.376 OA
BRANCH   5   6
ATOM      6  C   UNL A   1      44.866  22.056  24.460  1.00  0.00     0.202 C 
BRANCH   6   7
ATOM      7  C   UNL A   1      43.614  22.899  24.626  1.00  0.00     0.261 C 
BRANCH   7   8
ATOM      8  O   UNL A   1      43.841  24.314  24.613  1.00  0.00    -0.460 OA
BRANCH   8   9
ATOM      9  C   UNL A   1      44.502  25.098  25.492  1.00  0.00     0.338 C 
ATOM     10  O   UNL A   1      45.725  25.185  25.381  1.00  0.00    -0.246 OA
BRANCH   9  11
ATOM     11  C   UNL A   1      43.861  25.894  26.579  1.00  0.00     0.060 A 
ATOM     12  C   UNL A   1      44.167  27.208  26.927  1.00  0.00     0.016 A 
ATOM     13  C   UNL A   1      42.776  25.286  27.231  1.00  0.00     0.016 A 
ATOM     14  C   UNL A   1      43.478  27.893  27.906  1.00  0.00     0.010 A 
ATOM     15  C   UNL A   1      42.061  25.964  28.218  1.00  0.00     0.010 A 
ATOM     16  C   UNL A   1      42.440  27.263  28.568  1.00  0.00    -0.014 A 
BRANCH  16  17
ATOM     17  C   UNL A   1      41.949  27.918  29.781  1.00  0.00     0.031 A 
ATOM     18  C   UNL A   1      40.685  28.699  29.655  1.00  0.00     0.074 A 
ATOM     19  C   UNL A   1      42.531  27.664  30.962  1.00  0.00     0.049 A 
ATOM     20  N   UNL A   1      40.102  29.480  30.516  1.00  0.00    -0.248 NA
ATOM     21  C   UNL A   1      39.970  28.573  28.369  1.00  0.00     0.031 C 
ATOM     22  C   UNL A   1      43.651  26.741  31.172  1.00  0.00     0.029 A 
ATOM     23  N   UNL A   1      42.249  28.142  32.209  1.00  0.00    -0.354 N 
ATOM     24  C   UNL A   1      38.991  29.987  29.858  1.00  0.00     0.074 A 
ATOM     25  C   UNL A   1      38.967  29.418  28.533  1.00  0.00     0.031 C 
ATOM     26  C   UNL A   1      43.972  26.738  32.476  1.00  0.00     0.029 A 
ATOM     27  C   UNL A   1      43.142  27.719  33.161  1.00  0.00     0.049 A 
ATOM     28  H   UNL A   1      41.484  28.730  32.405  1.00  0.00     0.167 HD
ATOM     29  C   UNL A   1      38.092  30.875  30.335  1.00  0.00     0.037 A 
ATOM     30  C   UNL A   1      43.302  28.153  34.424  1.00  0.00     0.037 A 
ATOM     31  C   UNL A   1      38.175  31.403  31.667  1.00  0.00     0.049 A 
ATOM     32  C   UNL A   1      42.366  29.226  34.904  1.00  0.00     0.074 A 
ATOM     33  C   UNL A   1      37.385  32.354  32.278  1.00  0.00     0.029 A 
ATOM     34  N   UNL A   1      39.133  31.008  32.598  1.00  0.00    -0.354 N 
ATOM     35  N   UNL A   1      41.368  29.795  34.262  1.00  0.00    -0.248 NA
ATOM     36  C   UNL A   1      42.579  29.737  36.261  1.00  0.00     0.031 C 
ATOM     37  C   UNL A   1      37.903  32.577  33.559  1.00  0.00     0.029 A 
ATOM     38  C   UNL A   1      38.973  31.716  33.772  1.00  0.00     0.049 A 
ATOM     39  H   UNL A   1      39.822  30.323  32.441  1.00  0.00     0.167 HD
ATOM     40  C   UNL A   1      40.821  30.717  35.141  1.00  0.00     0.074 A 
ATOM     41  C   UNL A   1      41.597  30.622  36.366  1.00  0.00     0.031 C 
ATOM     42  C   UNL A   1      39.778  31.565  34.962  1.00  0.00     0.037 A 
BRANCH  29  43
ATOM     43  C   UNL A   1      37.069  31.386  29.364  1.00  0.00     0.057 A 
ATOM     44  C   UNL A   1      37.145  32.659  28.782  1.00  0.00     0.134 A 
ATOM     45  C   UNL A   1      35.928  30.621  29.089  1.00  0.00     0.134 A 
ATOM     46  F   UNL A   1      38.190  33.462  29.034  1.00  0.00    -0.206 F 
ATOM     47  C   UNL A   1      36.104  33.169  28.001  1.00  0.00     0.040 A 
ATOM     48  C   UNL A   1      34.894  31.108  28.286  1.00  0.00     0.040 A 
ATOM     49  F   UNL A   1      35.781  29.400  29.623  1.00  0.00    -0.206 F 
ATOM     50  C   UNL A   1      34.974  32.392  27.752  1.00  0.00     0.006 A 
ENDBRANCH  29  43
BRANCH  30  51
ATOM     51  C   UNL A   1      44.427  27.639  35.245  1.00  0.00     0.057 A 
ATOM     52  C   UNL A   1      45.674  28.271  35.262  1.00  0.00     0.134 A 
ATOM     53  C   UNL A   1      44.268  26.514  36.068  1.00  0.00     0.134 A 
ATOM     54  F   UNL A   1      45.898  29.344  34.489  1.00  0.00    -0.206 F 
ATOM     55  C   UNL A   1      46.720  27.803  36.062  1.00  0.00     0.040 A 
ATOM     56  C   UNL A   1      45.294  26.053  36.892  1.00  0.00     0.040 A 
ATOM     57  F   UNL A   1      43.096  25.863  36.106  1.00  0.00    -0.206 F 
ATOM     58  C   UNL A   1      46.528  26.696  36.887  1.00  0.00     0.006 A 
ENDBRANCH  30  51
BRANCH  42  59
ATOM     59  C   UNL A   1      39.397  32.419  36.131  1.00  0.00     0.057 A 
ATOM     60  C   UNL A   1      39.954  33.686  36.333  1.00  0.00     0.134 A 
ATOM     61  C   UNL A   1      38.387  31.999  37.007  1.00  0.00     0.134 A 
ATOM     62  F   UNL A   1      40.933  34.135  35.533  1.00  0.00    -0.206 F 
ATOM     63  C   UNL A   1      39.525  34.506  37.376  1.00  0.00     0.040 A 
ATOM     64  C   UNL A   1      37.929  32.821  38.033  1.00  0.00     0.040 A 
ATOM     65  F   UNL A   1      37.809  30.798  36.853  1.00  0.00    -0.206 F 
ATOM     66  C   UNL A   1      38.500  34.078  38.220  1.00  0.00     0.006 A 
ENDBRANCH  42  59
ENDBRANCH  16  17
ENDBRANCH   9  11
ENDBRANCH   8   9
ENDBRANCH   7   8
ENDBRANCH   6   7
ENDBRANCH   5   6
ENDBRANCH   4   5
ENDBRANCH   3   4
ENDBRANCH   2   3
ENDBRANCH   1   2
BRANCH   1  67
ATOM     67  C   UNL A   1      40.160  21.172  26.211  1.00  0.00     0.188 C 
BRANCH  67  68
ATOM     68  O   UNL A   1      38.927  21.006  25.532  1.00  0.00    -0.376 OA
BRANCH  68  69
ATOM     69  C   UNL A   1      37.819  21.845  25.826  1.00  0.00     0.202 C 
BRANCH  69  70
ATOM     70  C   UNL A   1      37.736  23.333  25.415  1.00  0.00     0.261 C 
BRANCH  70  71
ATOM     71  O   UNL A   1      36.683  23.678  24.518  1.00  0.00    -0.463 OA
BRANCH  71  72
ATOM     72  C   UNL A   1      35.419  23.573  24.983  1.00  0.00     0.312 C 
ATOM     73  O   UNL A   1      34.966  24.215  25.935  1.00  0.00    -0.252 OA
BRANCH  72  74
ATOM     74  C   UNL A   1      34.566  22.782  24.034  1.00  0.00     0.147 C 
ATOM     75  C   UNL A   1      33.190  23.409  23.794  1.00  0.00     0.129 C 
ATOM     76  C   UNL A   1      34.215  21.356  24.461  1.00  0.00     0.157 C 
ATOM     77  C   UNL A   1      32.260  22.242  24.139  1.00  0.00     0.155 C 
ATOM     78  C   UNL A   1      33.551  21.368  25.803  1.00  0.00     0.004 C 
ATOM     79  O   UNL A   1      33.038  21.128  23.632  1.00  0.00    -0.365 OA
ATOM     80  C   UNL A   1      32.354  21.939  25.612  1.00  0.00     0.004 C 
BRANCH  75  81
ATOM     81  C   UNL A   1      33.017  23.849  22.328  1.00  0.00     0.231 C 
ATOM     82  O   UNL A   1      33.497  23.233  21.375  1.00  0.00    -0.274 OA
ATOM     83  N   UNL A   1      32.213  24.929  22.056  1.00  0.00    -0.325 N 
ATOM     84  H   UNL A   1      32.001  25.109  21.111  1.00  0.00     0.169 HD
BRANCH  83  85
ATOM     85  C   UNL A   1      31.676  25.791  23.009  1.00  0.00     0.048 A 
ATOM     86  C   UNL A   1      30.449  25.462  23.576  1.00  0.00     0.026 A 
ATOM     87  C   UNL A   1      32.426  26.862  23.496  1.00  0.00     0.111 A 
ATOM     88  C   UNL A   1      30.054  26.100  24.751  1.00  0.00     0.009 A 
ATOM     89  C   UNL A   1      32.057  27.454  24.700  1.00  0.00     0.271 A 
ATOM     90  C   UNL A   1      30.873  27.069  25.340  1.00  0.00     0.086 A 
BRANCH  89  91
ATOM     91  N   UNL A   1      32.982  28.388  25.352  1.00  0.00     0.062 N 
ATOM     92  O   UNL A   1      33.064  29.532  24.885  1.00  0.00    -0.258 OA
ATOM     93  O   UNL A   1      33.600  27.989  26.348  1.00  0.00    -0.258 OA
ENDBRANCH  89  91
ENDBRANCH  83  85
ENDBRANCH  75  81
ENDBRANCH  72  74
ENDBRANCH  71  72
ENDBRANCH  70  71
ENDBRANCH  69  70
ENDBRANCH  68  69
ENDBRANCH  67  68
ENDBRANCH   1  67
TORSDOF 23
ENDMDL
MODEL 3
REMARK VINA RESULT:     -10.2      4.597     10.310
REMARK SMILES O=C(OCCOCCOCCOCCOC(=O)[C@@H]1[C@@H](C(=O)Nc2cccc([N+](=O)[O-])c2)[C@@H]2C=C[C@H]1O2)c1ccc(-c2c3nc(c(-c4c(F)cccc4F)c4ccc([nH]4)c(-c4c(F)cccc4F)c4nc(c(-c5c(F)cccc5F)c5ccc2[nH]5)C=C4)C=C3)cc1
REMARK SMILES IDX 10 1 9 2 8 3 7 4 6 5 5 6 4 7 3 8 2 9 1 10 37 11 38 12 90 13
REMARK SMILES IDX 39 14 89 15 40 16 41 17 42 18 83 19 43 20 88 21 82 22 84 23
REMARK SMILES IDX 44 24 87 25 81 26 80 27 45 29 71 30 54 31 70 32 55 33 58 34
REMARK SMILES IDX 69 35 85 36 56 37 57 38 68 40 86 41 59 42 46 43 47 44 52 45
REMARK SMILES IDX 48 46 49 47 51 48 53 49 50 50 72 51 73 52 78 53 74 54 75 55
REMARK SMILES IDX 77 56 79 57 76 58 60 59 61 60 66 61 62 62 63 63 65 64 67 65
REMARK SMILES IDX 64 66 11 67 12 68 13 69 14 70 15 71 16 72 17 73 18 74 19 75
REMARK SMILES IDX 35 76 32 77 34 78 36 79 33 80 20 81 21 82 22 83 23 85 24 86
REMARK SMILES IDX 31 87 25 88 27 89 26 90 28 91 29 92 30 93
REMARK H PARENT 84 28 58 39 22 84
REMARK Flexibility Score: inf
ROOT
ATOM      1  C   UNL A   1      40.666  19.980  26.310  1.00  0.00     0.188 C 
ENDROOT
BRANCH   1   2
ATOM      2  O   UNL A   1      41.670  19.597  25.380  1.00  0.00    -0.377 OA
BRANCH   2   3
ATOM      3  C   UNL A   1      42.774  18.874  25.925  1.00  0.00     0.188 C 
BRANCH   3   4
ATOM      4  C   UNL A   1      44.163  19.442  25.610  1.00  0.00     0.188 C 
BRANCH   4   5
ATOM      5  O   UNL A   1      44.136  20.253  24.439  1.00  0.00    -0.376 OA
BRANCH   5   6
ATOM      6  C   UNL A   1      45.117  21.276  24.283  1.00  0.00     0.202 C 
BRANCH   6   7
ATOM      7  C   UNL A   1      45.231  22.252  25.440  1.00  0.00     0.261 C 
BRANCH   7   8
ATOM      8  O   UNL A   1      44.425  23.429  25.309  1.00  0.00    -0.460 OA
BRANCH   8   9
ATOM      9  C   UNL A   1      43.186  23.693  25.777  1.00  0.00     0.338 C 
ATOM     10  O   UNL A   1      42.235  23.116  25.247  1.00  0.00    -0.246 OA
BRANCH   9  11
ATOM     11  C   UNL A   1      42.875  24.612  26.909  1.00  0.00     0.060 A 
ATOM     12  C   UNL A   1      42.162  24.287  28.062  1.00  0.00     0.016 A 
ATOM     13  C   UNL A   1      43.455  25.889  26.843  1.00  0.00     0.016 A 
ATOM     14  C   UNL A   1      41.975  25.184  29.094  1.00  0.00     0.010 A 
ATOM     15  C   UNL A   1      43.284  26.808  27.879  1.00  0.00     0.010 A 
ATOM     16  C   UNL A   1      42.517  26.453  28.992  1.00  0.00    -0.014 A 
BRANCH  16  17
ATOM     17  C   UNL A   1      42.043  27.442  29.960  1.00  0.00     0.031 A 
ATOM     18  C   UNL A   1      42.844  27.590  31.210  1.00  0.00     0.074 A 
ATOM     19  C   UNL A   1      41.046  28.276  29.633  1.00  0.00     0.049 A 
ATOM     20  N   UNL A   1      42.586  28.280  32.283  1.00  0.00    -0.248 NA
ATOM     21  C   UNL A   1      44.126  26.860  31.251  1.00  0.00     0.031 C 
ATOM     22  C   UNL A   1      40.360  28.308  28.337  1.00  0.00     0.029 A 
ATOM     23  N   UNL A   1      40.449  29.268  30.356  1.00  0.00    -0.354 N 
ATOM     24  C   UNL A   1      43.639  28.017  33.148  1.00  0.00     0.074 A 
ATOM     25  C   UNL A   1      44.546  27.119  32.476  1.00  0.00     0.031 C 
ATOM     26  C   UNL A   1      39.419  29.265  28.367  1.00  0.00     0.029 A 
ATOM     27  C   UNL A   1      39.384  29.839  29.706  1.00  0.00     0.049 A 
ATOM     28  H   UNL A   1      40.750  29.545  31.251  1.00  0.00     0.167 HD
ATOM     29  C   UNL A   1      43.799  28.478  34.407  1.00  0.00     0.037 A 
ATOM     30  C   UNL A   1      38.447  30.675  30.187  1.00  0.00     0.037 A 
ATOM     31  C   UNL A   1      42.854  29.372  35.016  1.00  0.00     0.049 A 
ATOM     32  C   UNL A   1      38.573  31.090  31.626  1.00  0.00     0.074 A 
ATOM     33  C   UNL A   1      42.837  29.878  36.299  1.00  0.00     0.029 A 
ATOM     34  N   UNL A   1      41.741  29.888  34.358  1.00  0.00    -0.354 N 
ATOM     35  N   UNL A   1      39.508  30.772  32.495  1.00  0.00    -0.248 NA
ATOM     36  C   UNL A   1      37.520  31.955  32.163  1.00  0.00     0.031 C 
ATOM     37  C   UNL A   1      41.680  30.654  36.433  1.00  0.00     0.029 A 
ATOM     38  C   UNL A   1      41.011  30.687  35.215  1.00  0.00     0.049 A 
ATOM     39  H   UNL A   1      41.509  29.710  33.418  1.00  0.00     0.167 HD
ATOM     40  C   UNL A   1      39.167  31.411  33.677  1.00  0.00     0.074 A 
ATOM     41  C   UNL A   1      37.943  32.143  33.406  1.00  0.00     0.031 C 
ATOM     42  C   UNL A   1      39.801  31.399  34.877  1.00  0.00     0.037 A 
BRANCH  29  43
ATOM     43  C   UNL A   1      44.946  27.915  35.192  1.00  0.00     0.057 A 
ATOM     44  C   UNL A   1      44.851  26.723  35.925  1.00  0.00     0.134 A 
ATOM     45  C   UNL A   1      46.140  28.641  35.297  1.00  0.00     0.134 A 
ATOM     46  F   UNL A   1      43.722  25.998  35.903  1.00  0.00    -0.206 F 
ATOM     47  C   UNL A   1      45.883  26.300  36.767  1.00  0.00     0.040 A 
ATOM     48  C   UNL A   1      47.189  28.212  36.112  1.00  0.00     0.040 A 
ATOM     49  F   UNL A   1      46.295  29.796  34.635  1.00  0.00    -0.206 F 
ATOM     50  C   UNL A   1      47.056  27.046  36.862  1.00  0.00     0.006 A 
ENDBRANCH  29  43
BRANCH  30  51
ATOM     51  C   UNL A   1      37.300  31.072  29.332  1.00  0.00     0.057 A 
ATOM     52  C   UNL A   1      37.231  32.332  28.732  1.00  0.00     0.134 A 
ATOM     53  C   UNL A   1      36.253  30.176  29.064  1.00  0.00     0.134 A 
ATOM     54  F   UNL A   1      38.192  33.240  28.956  1.00  0.00    -0.206 F 
ATOM     55  C   UNL A   1      36.166  32.690  27.900  1.00  0.00     0.040 A 
ATOM     56  C   UNL A   1      35.198  30.510  28.214  1.00  0.00     0.040 A 
ATOM     57  F   UNL A   1      36.258  28.948  29.601  1.00  0.00    -0.206 F 
ATOM     58  C   UNL A   1      35.150  31.773  27.632  1.00  0.00     0.006 A 
ENDBRANCH  30  51
BRANCH  42  59
ATOM     59  C   UNL A   1      39.199  32.235  35.964  1.00  0.00     0.057 A 
ATOM     60  C   UNL A   1      38.256  31.717  36.858  1.00  0.00     0.134 A 
ATOM     61  C   UNL A   1      39.648  33.546  36.169  1.00  0.00     0.134 A 
ATOM     62  F   UNL A   1      37.782  30.472  36.702  1.00  0.00    -0.206 F 
ATOM     63  C   UNL A   1      37.771  32.481  37.918  1.00  0.00     0.040 A 
ATOM     64  C   UNL A   1      39.194  34.307  37.242  1.00  0.00     0.040 A 
ATOM     65  F   UNL A   1      40.561  34.089  35.349  1.00  0.00    -0.206 F 
ATOM     66  C   UNL A   1      38.252  33.775  38.119  1.00  0.00     0.006 A 
ENDBRANCH  42  59
ENDBRANCH  16  17
ENDBRANCH   9  11
ENDBRANCH   8   9
ENDBRANCH   7   8
ENDBRANCH   6   7
ENDBRANCH   5   6
ENDBRANCH   4   5
ENDBRANCH   3   4
ENDBRANCH   2   3
ENDBRANCH   1   2
BRANCH   1  67
ATOM     67  C   UNL A   1      39.526  20.919  25.827  1.00  0.00     0.188 C 
BRANCH  67  68
ATOM     68  O   UNL A   1      38.361  20.231  25.404  1.00  0.00    -0.376 OA
BRANCH  68  69
ATOM     69  C   UNL A   1      37.229  20.947  24.929  1.00  0.00     0.202 C 
BRANCH  69  70
ATOM     70  C   UNL A   1      36.684  22.229  25.596  1.00  0.00     0.261 C 
BRANCH  70  71
ATOM     71  O   UNL A   1      36.365  23.307  24.717  1.00  0.00    -0.463 OA
BRANCH  71  72
ATOM     72  C   UNL A   1      35.095  23.765  24.739  1.00  0.00     0.312 C 
ATOM     73  O   UNL A   1      34.732  24.802  25.301  1.00  0.00    -0.252 OA
BRANCH  72  74
ATOM     74  C   UNL A   1      34.236  23.000  23.774  1.00  0.00     0.147 C 
ATOM     75  C   UNL A   1      33.048  23.811  23.250  1.00  0.00     0.129 C 
ATOM     76  C   UNL A   1      33.566  21.735  24.314  1.00  0.00     0.157 C 
ATOM     77  C   UNL A   1      31.876  22.887  23.587  1.00  0.00     0.155 C 
ATOM     78  C   UNL A   1      32.749  22.061  25.525  1.00  0.00     0.004 C 
ATOM     79  O   UNL A   1      32.484  21.593  23.347  1.00  0.00    -0.365 OA
ATOM     80  C   UNL A   1      31.719  22.795  25.083  1.00  0.00     0.004 C 
BRANCH  75  81
ATOM     81  C   UNL A   1      33.154  24.051  21.732  1.00  0.00     0.231 C 
ATOM     82  O   UNL A   1      33.475  23.174  20.928  1.00  0.00    -0.274 OA
ATOM     83  N   UNL A   1      32.786  25.276  21.232  1.00  0.00    -0.325 N 
ATOM     84  H   UNL A   1      32.724  25.366  20.253  1.00  0.00     0.169 HD
BRANCH  83  85
ATOM     85  C   UNL A   1      32.494  26.402  21.999  1.00  0.00     0.048 A 
ATOM     86  C   UNL A   1      33.554  27.161  22.483  1.00  0.00     0.026 A 
ATOM     87  C   UNL A   1      31.177  26.841  22.136  1.00  0.00     0.111 A 
ATOM     88  C   UNL A   1      33.305  28.451  22.950  1.00  0.00     0.009 A 
ATOM     89  C   UNL A   1      30.940  28.150  22.546  1.00  0.00     0.271 A 
ATOM     90  C   UNL A   1      32.004  28.965  22.946  1.00  0.00     0.086 A 
BRANCH  89  91
ATOM     91  N   UNL A   1      29.585  28.701  22.434  1.00  0.00     0.062 N 
ATOM     92  O   UNL A   1      29.407  29.624  21.628  1.00  0.00    -0.258 OA
ATOM     93  O   UNL A   1      28.694  28.190  23.125  1.00  0.00    -0.258 OA
ENDBRANCH  89  91
ENDBRANCH  83  85
ENDBRANCH  75  81
ENDBRANCH  72  74
ENDBRANCH  71  72
ENDBRANCH  70  71
ENDBRANCH  69  70
ENDBRANCH  68  69
ENDBRANCH  67  68
ENDBRANCH   1  67
TORSDOF 23
ENDMDL
