MODEL 1
REMARK VINA RESULT:      -9.4      0.000      0.000
REMARK SMILES C=CCN1C(=O)/C(=C/c2ccc(OCc3cccc(C(=O)OCCOCCOCCOCCOC(=O)c4ccc(-c5c6nc(c(-c7c(F)cccc7F)c7ccc([nH]7)c(-c7c(F)cccc7F)c7nc(c(-c8c(F)cccc8F)c8ccc5[nH]8)C=C7)C=C6)cc4)c3)cc2)C(=O)NC1=S
REMARK SMILES IDX 26 1 25 2 24 3 23 4 22 5 20 6 21 7 19 8 15 9 16 10 91 11
REMARK SMILES IDX 17 12 18 13 14 14 13 15 12 16 9 17 10 18 93 19 11 20 92 21
REMARK SMILES IDX 8 22 4 23 5 24 97 25 6 26 7 27 96 28 98 29 94 30 95 32 3 33
REMARK SMILES IDX 2 34 1 35 27 36 28 37 29 38 30 39 31 40 32 41 33 42 34 43
REMARK SMILES IDX 35 44 36 45 37 46 38 47 90 48 39 49 89 50 40 51 41 52 42 53
REMARK SMILES IDX 83 54 43 55 88 56 82 57 84 58 44 59 87 60 81 61 80 62 45 64
REMARK SMILES IDX 71 65 54 66 70 67 55 68 58 69 69 70 85 71 56 72 57 73 68 75
REMARK SMILES IDX 86 76 59 77 46 78 47 79 52 80 48 81 49 82 51 83 53 84 50 85
REMARK SMILES IDX 72 86 73 87 78 88 74 89 75 90 77 91 79 92 76 93 60 94 61 95
REMARK SMILES IDX 66 96 62 97 63 98 65 99 67 100 64 101
REMARK H PARENT 96 31 84 63 58 74
REMARK Flexibility Score: inf
ROOT
ATOM      1  C   UNL A   1      37.547  21.103  25.070  1.00  0.00     0.188 C 
ENDROOT
BRANCH   1   2
ATOM      2  O   UNL A   1      36.225  21.141  24.559  1.00  0.00    -0.376 OA
BRANCH   2   3
ATOM      3  C   UNL A   1      35.235  20.328  25.160  1.00  0.00     0.202 C 
BRANCH   3   4
ATOM      4  C   UNL A   1      33.761  20.563  24.796  1.00  0.00     0.261 C 
BRANCH   4   5
ATOM      5  O   UNL A   1      32.944  21.139  25.821  1.00  0.00    -0.460 OA
BRANCH   5   6
ATOM      6  C   UNL A   1      33.435  22.210  26.487  1.00  0.00     0.338 C 
ATOM      7  O   UNL A   1      34.055  22.196  27.535  1.00  0.00    -0.246 OA
BRANCH   6   8
ATOM      8  C   UNL A   1      33.304  23.376  25.580  1.00  0.00     0.060 A 
ATOM      9  C   UNL A   1      31.948  24.850  24.202  1.00  0.00    -0.010 A 
ATOM     10  C   UNL A   1      33.123  25.335  23.607  1.00  0.00     0.007 A 
ATOM     11  C   UNL A   1      32.046  23.828  25.158  1.00  0.00     0.023 A 
ATOM     12  C   UNL A   1      34.376  24.900  24.043  1.00  0.00     0.001 A 
ATOM     13  C   UNL A   1      34.469  23.939  25.047  1.00  0.00     0.016 A 
BRANCH   9  14
ATOM     14  C   UNL A   1      30.582  25.432  23.880  1.00  0.00     0.265 C 
BRANCH  14  15
ATOM     15  O   UNL A   1      30.131  26.497  24.729  1.00  0.00    -0.489 OA
BRANCH  15  16
ATOM     16  C   UNL A   1      31.063  27.255  25.387  1.00  0.00     0.119 A 
ATOM     17  C   UNL A   1      33.277  28.636  26.406  1.00  0.00    -0.024 A 
ATOM     18  C   UNL A   1      32.886  28.817  25.075  1.00  0.00     0.012 A 
ATOM     19  C   UNL A   1      32.507  27.831  27.245  1.00  0.00     0.012 A 
ATOM     20  C   UNL A   1      31.785  28.127  24.569  1.00  0.00     0.047 A 
ATOM     21  C   UNL A   1      31.392  27.158  26.740  1.00  0.00     0.047 A 
BRANCH  17  22
ATOM     22  C   UNL A   1      34.490  29.291  26.886  1.00  0.00     0.027 C 
ATOM     23  N   UNL A   1      35.838  31.757  29.084  1.00  0.00    -0.281 N 
ATOM     24  C   UNL A   1      35.895  30.856  28.020  1.00  0.00     0.265 C 
ATOM     25  C   UNL A   1      34.783  32.639  29.274  1.00  0.00     0.183 C 
ATOM     26  O   UNL A   1      36.930  30.325  27.623  1.00  0.00    -0.268 OA
ATOM     27  C   UNL A   1      34.585  30.532  27.405  1.00  0.00     0.106 C 
ATOM     28  N   UNL A   1      33.706  32.494  28.439  1.00  0.00    -0.298 N 
ATOM     29  S   UNL A   1      34.677  33.864  30.416  1.00  0.00    -0.040 S 
ATOM     30  C   UNL A   1      33.482  31.504  27.522  1.00  0.00     0.263 C 
ATOM     31  H   UNL A   1      33.010  33.187  28.507  1.00  0.00     0.172 HD
ATOM     32  O   UNL A   1      32.438  31.477  26.884  1.00  0.00    -0.269 OA
BRANCH  23  33
ATOM     33  C   UNL A   1      36.979  31.696  30.000  1.00  0.00     0.155 C 
BRANCH  33  34
ATOM     34  C   UNL A   1      38.078  32.529  29.389  1.00  0.00    -0.013 C 
ATOM     35  C   UNL A   1      38.348  33.800  29.718  1.00  0.00     0.006 C 
ENDBRANCH  33  34
ENDBRANCH  23  33
ENDBRANCH  17  22
ENDBRANCH  15  16
ENDBRANCH  14  15
ENDBRANCH   9  14
ENDBRANCH   6   8
ENDBRANCH   5   6
ENDBRANCH   4   5
ENDBRANCH   3   4
ENDBRANCH   2   3
ENDBRANCH   1   2
BRANCH   1  36
ATOM     36  C   UNL A   1      38.199  19.706  24.990  1.00  0.00     0.188 C 
BRANCH  36  37
ATOM     37  O   UNL A   1      39.508  19.533  25.516  1.00  0.00    -0.377 OA
BRANCH  37  38
ATOM     38  C   UNL A   1      40.042  20.503  26.414  1.00  0.00     0.188 C 
BRANCH  38  39
ATOM     39  C   UNL A   1      41.485  21.050  26.268  1.00  0.00     0.188 C 
BRANCH  39  40
ATOM     40  O   UNL A   1      42.133  21.361  27.489  1.00  0.00    -0.376 OA
BRANCH  40  41
ATOM     41  C   UNL A   1      42.349  22.725  27.796  1.00  0.00     0.202 C 
BRANCH  41  42
ATOM     42  C   UNL A   1      41.157  23.676  27.624  1.00  0.00     0.261 C 
BRANCH  42  43
ATOM     43  O   UNL A   1      41.325  25.000  28.152  1.00  0.00    -0.460 OA
BRANCH  43  44
ATOM     44  C   UNL A   1      40.961  26.032  27.363  1.00  0.00     0.338 C 
ATOM     45  O   UNL A   1      40.496  25.974  26.236  1.00  0.00    -0.246 OA
BRANCH  44  46
ATOM     46  C   UNL A   1      41.049  27.262  28.173  1.00  0.00     0.060 A 
ATOM     47  C   UNL A   1      40.267  28.372  27.825  1.00  0.00     0.016 A 
ATOM     48  C   UNL A   1      41.891  27.310  29.286  1.00  0.00     0.016 A 
ATOM     49  C   UNL A   1      40.350  29.546  28.573  1.00  0.00     0.010 A 
ATOM     50  C   UNL A   1      41.991  28.493  30.021  1.00  0.00     0.010 A 
ATOM     51  C   UNL A   1      41.246  29.626  29.647  1.00  0.00    -0.014 A 
BRANCH  51  52
ATOM     52  C   UNL A   1      41.556  30.942  30.253  1.00  0.00     0.031 A 
ATOM     53  C   UNL A   1      42.630  31.782  29.618  1.00  0.00     0.074 A 
ATOM     54  C   UNL A   1      40.900  31.390  31.336  1.00  0.00     0.049 A 
ATOM     55  N   UNL A   1      43.122  32.932  29.996  1.00  0.00    -0.248 NA
ATOM     56  C   UNL A   1      43.234  31.240  28.389  1.00  0.00     0.031 C 
ATOM     57  C   UNL A   1      39.816  30.688  32.019  1.00  0.00     0.029 A 
ATOM     58  N   UNL A   1      41.067  32.544  32.060  1.00  0.00    -0.354 N 
ATOM     59  C   UNL A   1      44.099  33.248  29.061  1.00  0.00     0.074 A 
ATOM     60  C   UNL A   1      44.155  32.152  28.118  1.00  0.00     0.031 C 
ATOM     61  C   UNL A   1      39.422  31.422  33.075  1.00  0.00     0.029 A 
ATOM     62  C   UNL A   1      40.250  32.624  33.161  1.00  0.00     0.049 A 
ATOM     63  H   UNL A   1      41.709  33.248  31.812  1.00  0.00     0.167 HD
ATOM     64  C   UNL A   1      44.878  34.353  28.992  1.00  0.00     0.037 A 
ATOM     65  C   UNL A   1      40.200  33.549  34.139  1.00  0.00     0.037 A 
ATOM     66  C   UNL A   1      44.825  35.436  29.937  1.00  0.00     0.049 A 
ATOM     67  C   UNL A   1      41.129  34.736  34.085  1.00  0.00     0.074 A 
ATOM     68  C   UNL A   1      45.554  36.612  29.943  1.00  0.00     0.029 A 
ATOM     69  N   UNL A   1      44.005  35.468  31.056  1.00  0.00    -0.354 N 
ATOM     70  N   UNL A   1      42.028  35.044  33.182  1.00  0.00    -0.248 NA
ATOM     71  C   UNL A   1      41.031  35.706  35.187  1.00  0.00     0.031 C 
ATOM     72  C   UNL A   1      45.223  37.325  31.099  1.00  0.00     0.029 A 
ATOM     73  C   UNL A   1      44.236  36.627  31.778  1.00  0.00     0.049 A 
ATOM     74  H   UNL A   1      43.356  34.769  31.302  1.00  0.00     0.167 HD
ATOM     75  C   UNL A   1      42.581  36.253  33.588  1.00  0.00     0.074 A 
ATOM     76  C   UNL A   1      41.907  36.628  34.813  1.00  0.00     0.031 C 
ATOM     77  C   UNL A   1      43.556  36.990  32.997  1.00  0.00     0.037 A 
BRANCH  64  78
ATOM     78  C   UNL A   1      45.882  34.419  27.876  1.00  0.00     0.057 A 
ATOM     79  C   UNL A   1      47.173  33.886  28.000  1.00  0.00     0.134 A 
ATOM     80  C   UNL A   1      45.548  35.021  26.656  1.00  0.00     0.134 A 
ATOM     81  F   UNL A   1      47.564  33.310  29.148  1.00  0.00    -0.206 F 
ATOM     82  C   UNL A   1      48.104  33.979  26.964  1.00  0.00     0.040 A 
ATOM     83  C   UNL A   1      46.460  35.090  25.602  1.00  0.00     0.040 A 
ATOM     84  F   UNL A   1      44.330  35.549  26.467  1.00  0.00    -0.206 F 
ATOM     85  C   UNL A   1      47.746  34.578  25.758  1.00  0.00     0.006 A 
ENDBRANCH  64  78
BRANCH  65  86
ATOM     86  C   UNL A   1      39.245  33.385  35.266  1.00  0.00     0.057 A 
ATOM     87  C   UNL A   1      37.943  33.893  35.195  1.00  0.00     0.134 A 
ATOM     88  C   UNL A   1      39.615  32.724  36.444  1.00  0.00     0.134 A 
ATOM     89  F   UNL A   1      37.536  34.558  34.104  1.00  0.00    -0.206 F 
ATOM     90  C   UNL A   1      37.048  33.762  36.259  1.00  0.00     0.040 A 
ATOM     91  C   UNL A   1      38.722  32.562  37.504  1.00  0.00     0.040 A 
ATOM     92  F   UNL A   1      40.849  32.216  36.576  1.00  0.00    -0.206 F 
ATOM     93  C   UNL A   1      37.436  33.088  37.415  1.00  0.00     0.006 A 
ENDBRANCH  65  86
BRANCH  77  94
ATOM     94  C   UNL A   1      43.926  38.296  33.642  1.00  0.00     0.057 A 
ATOM     95  C   UNL A   1      43.461  39.525  33.158  1.00  0.00     0.134 A 
ATOM     96  C   UNL A   1      44.725  38.318  34.795  1.00  0.00     0.134 A 
ATOM     97  F   UNL A   1      42.702  39.578  32.054  1.00  0.00    -0.206 F 
ATOM     98  C   UNL A   1      43.797  40.730  33.781  1.00  0.00     0.040 A 
ATOM     99  C   UNL A   1      45.040  39.513  35.444  1.00  0.00     0.040 A 
ATOM    100  F   UNL A   1      45.195  37.177  35.320  1.00  0.00    -0.206 F 
ATOM    101  C   UNL A   1      44.582  40.724  34.932  1.00  0.00     0.006 A 
ENDBRANCH  77  94
ENDBRANCH  51  52
ENDBRANCH  44  46
ENDBRANCH  43  44
ENDBRANCH  42  43
ENDBRANCH  41  42
ENDBRANCH  40  41
ENDBRANCH  39  40
ENDBRANCH  38  39
ENDBRANCH  37  38
ENDBRANCH  36  37
ENDBRANCH   1  36
TORSDOF 26
ENDMDL
MODEL 2
REMARK VINA RESULT:      -8.9      4.320      7.806
REMARK SMILES C=CCN1C(=O)/C(=C/c2ccc(OCc3cccc(C(=O)OCCOCCOCCOCCOC(=O)c4ccc(-c5c6nc(c(-c7c(F)cccc7F)c7ccc([nH]7)c(-c7c(F)cccc7F)c7nc(c(-c8c(F)cccc8F)c8ccc5[nH]8)C=C7)C=C6)cc4)c3)cc2)C(=O)NC1=S
REMARK SMILES IDX 26 1 25 2 24 3 23 4 22 5 20 6 21 7 19 8 15 9 16 10 91 11
REMARK SMILES IDX 17 12 18 13 14 14 13 15 12 16 9 17 10 18 93 19 11 20 92 21
REMARK SMILES IDX 8 22 4 23 5 24 97 25 6 26 7 27 96 28 98 29 94 30 95 32 3 33
REMARK SMILES IDX 2 34 1 35 27 36 28 37 29 38 30 39 31 40 32 41 33 42 34 43
REMARK SMILES IDX 35 44 36 45 37 46 38 47 90 48 39 49 89 50 40 51 41 52 42 53
REMARK SMILES IDX 83 54 43 55 88 56 82 57 84 58 44 59 87 60 81 61 80 62 45 64
REMARK SMILES IDX 71 65 54 66 70 67 55 68 58 69 69 70 85 71 56 72 57 73 68 75
REMARK SMILES IDX 86 76 59 77 46 78 47 79 52 80 48 81 49 82 51 83 53 84 50 85
REMARK SMILES IDX 72 86 73 87 78 88 74 89 75 90 77 91 79 92 76 93 60 94 61 95
REMARK SMILES IDX 66 96 62 97 63 98 65 99 67 100 64 101
REMARK H PARENT 96 31 84 63 58 74
REMARK Flexibility Score: inf
ROOT
ATOM      1  C   UNL A   1      34.906  23.662  24.166  1.00  0.00     0.188 C 
ENDROOT
BRANCH   1   2
ATOM      2  O   UNL A   1      34.611  23.971  22.814  1.00  0.00    -0.376 OA
BRANCH   2   3
ATOM      3  C   UNL A   1      33.296  23.760  22.335  1.00  0.00     0.202 C 
BRANCH   3   4
ATOM      4  C   UNL A   1      32.778  24.632  21.181  1.00  0.00     0.261 C 
BRANCH   4   5
ATOM      5  O   UNL A   1      32.187  25.881  21.552  1.00  0.00    -0.460 OA
BRANCH   5   6
ATOM      6  C   UNL A   1      32.980  26.796  22.157  1.00  0.00     0.338 C 
ATOM      7  O   UNL A   1      33.854  27.463  21.635  1.00  0.00    -0.246 OA
BRANCH   6   8
ATOM      8  C   UNL A   1      32.420  27.021  23.512  1.00  0.00     0.060 A 
ATOM      9  C   UNL A   1      32.704  27.608  25.855  1.00  0.00    -0.010 A 
ATOM     10  C   UNL A   1      31.426  27.091  26.114  1.00  0.00     0.007 A 
ATOM     11  C   UNL A   1      33.217  27.522  24.551  1.00  0.00     0.023 A 
ATOM     12  C   UNL A   1      30.625  26.611  25.076  1.00  0.00     0.001 A 
ATOM     13  C   UNL A   1      31.111  26.598  23.770  1.00  0.00     0.016 A 
BRANCH   9  14
ATOM     14  C   UNL A   1      33.526  28.300  26.928  1.00  0.00     0.265 C 
BRANCH  14  15
ATOM     15  O   UNL A   1      33.946  29.642  26.637  1.00  0.00    -0.489 OA
BRANCH  15  16
ATOM     16  C   UNL A   1      34.604  30.351  27.607  1.00  0.00     0.119 A 
ATOM     17  C   UNL A   1      36.079  32.089  29.234  1.00  0.00    -0.024 A 
ATOM     18  C   UNL A   1      35.029  32.580  28.452  1.00  0.00     0.012 A 
ATOM     19  C   UNL A   1      36.332  30.718  29.265  1.00  0.00     0.012 A 
ATOM     20  C   UNL A   1      34.296  31.712  27.641  1.00  0.00     0.047 A 
ATOM     21  C   UNL A   1      35.582  29.850  28.467  1.00  0.00     0.047 A 
BRANCH  17  22
ATOM     22  C   UNL A   1      36.896  33.028  29.998  1.00  0.00     0.027 C 
ATOM     23  N   UNL A   1      37.997  34.016  33.244  1.00  0.00    -0.281 N 
ATOM     24  C   UNL A   1      37.818  34.189  31.871  1.00  0.00     0.265 C 
ATOM     25  C   UNL A   1      36.995  33.552  34.086  1.00  0.00     0.183 C 
ATOM     26  O   UNL A   1      38.530  34.905  31.170  1.00  0.00    -0.268 OA
ATOM     27  C   UNL A   1      36.711  33.399  31.280  1.00  0.00     0.106 C 
ATOM     28  N   UNL A   1      35.840  33.125  33.485  1.00  0.00    -0.298 N 
ATOM     29  S   UNL A   1      37.042  33.451  35.760  1.00  0.00    -0.040 S 
ATOM     30  C   UNL A   1      35.594  32.977  32.148  1.00  0.00     0.263 C 
ATOM     31  H   UNL A   1      35.096  32.898  34.089  1.00  0.00     0.172 HD
ATOM     32  O   UNL A   1      34.524  32.528  31.761  1.00  0.00    -0.269 OA
BRANCH  23  33
ATOM     33  C   UNL A   1      39.334  34.354  33.735  1.00  0.00     0.155 C 
BRANCH  33  34
ATOM     34  C   UNL A   1      40.120  33.067  33.793  1.00  0.00    -0.013 C 
ATOM     35  C   UNL A   1      39.935  32.021  32.978  1.00  0.00     0.006 C 
ENDBRANCH  33  34
ENDBRANCH  23  33
ENDBRANCH  17  22
ENDBRANCH  15  16
ENDBRANCH  14  15
ENDBRANCH   9  14
ENDBRANCH   6   8
ENDBRANCH   5   6
ENDBRANCH   4   5
ENDBRANCH   3   4
ENDBRANCH   2   3
ENDBRANCH   1   2
BRANCH   1  36
ATOM     36  C   UNL A   1      34.601  22.196  24.545  1.00  0.00     0.188 C 
BRANCH  36  37
ATOM     37  O   UNL A   1      35.647  21.400  25.085  1.00  0.00    -0.377 OA
BRANCH  37  38
ATOM     38  C   UNL A   1      37.005  21.785  24.882  1.00  0.00     0.188 C 
BRANCH  38  39
ATOM     39  C   UNL A   1      38.188  20.914  25.376  1.00  0.00     0.188 C 
BRANCH  39  40
ATOM     40  O   UNL A   1      39.174  21.610  26.117  1.00  0.00    -0.376 OA
BRANCH  40  41
ATOM     41  C   UNL A   1      40.419  20.971  26.328  1.00  0.00     0.202 C 
BRANCH  41  42
ATOM     42  C   UNL A   1      41.681  21.783  26.010  1.00  0.00     0.261 C 
BRANCH  42  43
ATOM     43  O   UNL A   1      42.099  22.720  27.014  1.00  0.00    -0.460 OA
BRANCH  43  44
ATOM     44  C   UNL A   1      41.601  23.971  26.940  1.00  0.00     0.338 C 
ATOM     45  O   UNL A   1      40.440  24.317  27.094  1.00  0.00    -0.246 OA
BRANCH  44  46
ATOM     46  C   UNL A   1      42.743  24.898  26.819  1.00  0.00     0.060 A 
ATOM     47  C   UNL A   1      43.408  25.324  27.977  1.00  0.00     0.016 A 
ATOM     48  C   UNL A   1      43.166  25.328  25.560  1.00  0.00     0.016 A 
ATOM     49  C   UNL A   1      44.480  26.210  27.880  1.00  0.00     0.010 A 
ATOM     50  C   UNL A   1      44.225  26.233  25.464  1.00  0.00     0.010 A 
ATOM     51  C   UNL A   1      44.865  26.703  26.626  1.00  0.00    -0.014 A 
BRANCH  51  52
ATOM     52  C   UNL A   1      45.792  27.855  26.539  1.00  0.00     0.031 A 
ATOM     53  C   UNL A   1      47.262  27.575  26.387  1.00  0.00     0.074 A 
ATOM     54  C   UNL A   1      45.347  29.122  26.585  1.00  0.00     0.049 A 
ATOM     55  N   UNL A   1      48.270  28.406  26.353  1.00  0.00    -0.248 NA
ATOM     56  C   UNL A   1      47.643  26.158  26.267  1.00  0.00     0.031 C 
ATOM     57  C   UNL A   1      43.947  29.523  26.690  1.00  0.00     0.029 A 
ATOM     58  N   UNL A   1      46.039  30.307  26.562  1.00  0.00    -0.354 N 
ATOM     59  C   UNL A   1      49.404  27.616  26.217  1.00  0.00     0.074 A 
ATOM     60  C   UNL A   1      48.963  26.238  26.211  1.00  0.00     0.031 C 
ATOM     61  C   UNL A   1      43.882  30.865  26.738  1.00  0.00     0.029 A 
ATOM     62  C   UNL A   1      45.238  31.413  26.703  1.00  0.00     0.049 A 
ATOM     63  H   UNL A   1      47.016  30.359  26.453  1.00  0.00     0.167 HD
ATOM     64  C   UNL A   1      50.697  28.003  26.104  1.00  0.00     0.037 A 
ATOM     65  C   UNL A   1      45.567  32.714  26.818  1.00  0.00     0.037 A 
ATOM     66  C   UNL A   1      51.131  29.374  26.119  1.00  0.00     0.049 A 
ATOM     67  C   UNL A   1      47.018  33.119  26.766  1.00  0.00     0.074 A 
ATOM     68  C   UNL A   1      52.415  29.874  25.987  1.00  0.00     0.029 A 
ATOM     69  N   UNL A   1      50.293  30.466  26.293  1.00  0.00    -0.354 N 
ATOM     70  N   UNL A   1      48.083  32.370  26.606  1.00  0.00    -0.248 NA
ATOM     71  C   UNL A   1      47.313  34.553  26.906  1.00  0.00     0.031 C 
ATOM     72  C   UNL A   1      52.361  31.261  26.146  1.00  0.00     0.029 A 
ATOM     73  C   UNL A   1      51.036  31.635  26.307  1.00  0.00     0.049 A 
ATOM     74  H   UNL A   1      49.314  30.417  26.393  1.00  0.00     0.167 HD
ATOM     75  C   UNL A   1      49.167  33.240  26.597  1.00  0.00     0.074 A 
ATOM     76  C   UNL A   1      48.630  34.575  26.755  1.00  0.00     0.031 C 
ATOM     77  C   UNL A   1      50.488  32.959  26.464  1.00  0.00     0.037 A 
BRANCH  64  78
ATOM     78  C   UNL A   1      51.733  26.920  25.997  1.00  0.00     0.057 A 
ATOM     79  C   UNL A   1      52.116  26.371  24.765  1.00  0.00     0.134 A 
ATOM     80  C   UNL A   1      52.360  26.423  27.147  1.00  0.00     0.134 A 
ATOM     81  F   UNL A   1      51.542  26.789  23.626  1.00  0.00    -0.206 F 
ATOM     82  C   UNL A   1      53.060  25.346  24.684  1.00  0.00     0.040 A 
ATOM     83  C   UNL A   1      53.330  25.421  27.075  1.00  0.00     0.040 A 
ATOM     84  F   UNL A   1      52.046  26.904  28.358  1.00  0.00    -0.206 F 
ATOM     85  C   UNL A   1      53.674  24.872  25.842  1.00  0.00     0.006 A 
ENDBRANCH  64  78
BRANCH  65  86
ATOM     86  C   UNL A   1      44.503  33.733  27.011  1.00  0.00     0.057 A 
ATOM     87  C   UNL A   1      43.875  34.345  25.919  1.00  0.00     0.134 A 
ATOM     88  C   UNL A   1      44.094  34.127  28.292  1.00  0.00     0.134 A 
ATOM     89  F   UNL A   1      44.239  34.029  24.668  1.00  0.00    -0.206 F 
ATOM     90  C   UNL A   1      42.890  35.319  26.093  1.00  0.00     0.040 A 
ATOM     91  C   UNL A   1      43.092  35.079  28.481  1.00  0.00     0.040 A 
ATOM     92  F   UNL A   1      44.657  33.581  29.379  1.00  0.00    -0.206 F 
ATOM     93  C   UNL A   1      42.491  35.683  27.379  1.00  0.00     0.006 A 
ENDBRANCH  65  86
BRANCH  77  94
ATOM     94  C   UNL A   1      51.445  34.119  26.442  1.00  0.00     0.057 A 
ATOM     95  C   UNL A   1      51.712  34.844  25.274  1.00  0.00     0.134 A 
ATOM     96  C   UNL A   1      52.073  34.543  27.622  1.00  0.00     0.134 A 
ATOM     97  F   UNL A   1      51.153  34.486  24.108  1.00  0.00    -0.206 F 
ATOM     98  C   UNL A   1      52.588  35.932  25.274  1.00  0.00     0.040 A 
ATOM     99  C   UNL A   1      52.925  35.649  27.640  1.00  0.00     0.040 A 
ATOM    100  F   UNL A   1      51.854  33.902  28.780  1.00  0.00    -0.206 F 
ATOM    101  C   UNL A   1      53.190  36.342  26.462  1.00  0.00     0.006 A 
ENDBRANCH  77  94
ENDBRANCH  51  52
ENDBRANCH  44  46
ENDBRANCH  43  44
ENDBRANCH  42  43
ENDBRANCH  41  42
ENDBRANCH  40  41
ENDBRANCH  39  40
ENDBRANCH  38  39
ENDBRANCH  37  38
ENDBRANCH  36  37
ENDBRANCH   1  36
TORSDOF 26
ENDMDL
MODEL 3
REMARK VINA RESULT:      -8.6      3.992      6.243
REMARK SMILES C=CCN1C(=O)/C(=C/c2ccc(OCc3cccc(C(=O)OCCOCCOCCOCCOC(=O)c4ccc(-c5c6nc(c(-c7c(F)cccc7F)c7ccc([nH]7)c(-c7c(F)cccc7F)c7nc(c(-c8c(F)cccc8F)c8ccc5[nH]8)C=C7)C=C6)cc4)c3)cc2)C(=O)NC1=S
REMARK SMILES IDX 26 1 25 2 24 3 23 4 22 5 20 6 21 7 19 8 15 9 16 10 91 11
REMARK SMILES IDX 17 12 18 13 14 14 13 15 12 16 9 17 10 18 93 19 11 20 92 21
REMARK SMILES IDX 8 22 4 23 5 24 97 25 6 26 7 27 96 28 98 29 94 30 95 32 3 33
REMARK SMILES IDX 2 34 1 35 27 36 28 37 29 38 30 39 31 40 32 41 33 42 34 43
REMARK SMILES IDX 35 44 36 45 37 46 38 47 90 48 39 49 89 50 40 51 41 52 42 53
REMARK SMILES IDX 83 54 43 55 88 56 82 57 84 58 44 59 87 60 81 61 80 62 45 64
REMARK SMILES IDX 71 65 54 66 70 67 55 68 58 69 69 70 85 71 56 72 57 73 68 75
REMARK SMILES IDX 86 76 59 77 46 78 47 79 52 80 48 81 49 82 51 83 53 84 50 85
REMARK SMILES IDX 72 86 73 87 78 88 74 89 75 90 77 91 79 92 76 93 60 94 61 95
REMARK SMILES IDX 66 96 62 97 63 98 65 99 67 100 64 101
REMARK H PARENT 96 31 84 63 58 74
REMARK Flexibility Score: inf
ROOT
ATOM      1  C   UNL A   1      35.093  23.563  23.801  1.00  0.00     0.188 C 
ENDROOT
BRANCH   1   2
ATOM      2  O   UNL A   1      34.300  23.776  22.646  1.00  0.00    -0.376 OA
BRANCH   2   3
ATOM      3  C   UNL A   1      32.929  24.090  22.805  1.00  0.00     0.202 C 
BRANCH   3   4
ATOM      4  C   UNL A   1      32.332  25.244  21.984  1.00  0.00     0.261 C 
BRANCH   4   5
ATOM      5  O   UNL A   1      32.040  26.444  22.707  1.00  0.00    -0.460 OA
BRANCH   5   6
ATOM      6  C   UNL A   1      33.079  27.247  23.035  1.00  0.00     0.338 C 
ATOM      7  O   UNL A   1      33.899  27.727  22.275  1.00  0.00    -0.246 OA
BRANCH   6   8
ATOM      8  C   UNL A   1      32.885  27.642  24.452  1.00  0.00     0.060 A 
ATOM      9  C   UNL A   1      33.728  28.601  26.521  1.00  0.00    -0.010 A 
ATOM     10  C   UNL A   1      32.628  28.049  27.197  1.00  0.00     0.007 A 
ATOM     11  C   UNL A   1      33.875  28.348  25.149  1.00  0.00     0.023 A 
ATOM     12  C   UNL A   1      31.632  27.364  26.498  1.00  0.00     0.001 A 
ATOM     13  C   UNL A   1      31.746  27.181  25.121  1.00  0.00     0.016 A 
BRANCH   9  14
ATOM     14  C   UNL A   1      34.732  29.502  27.219  1.00  0.00     0.265 C 
BRANCH  14  15
ATOM     15  O   UNL A   1      34.525  30.915  27.072  1.00  0.00    -0.489 OA
BRANCH  15  16
ATOM     16  C   UNL A   1      34.961  31.751  28.065  1.00  0.00     0.119 A 
ATOM     17  C   UNL A   1      36.010  33.063  30.306  1.00  0.00    -0.024 A 
ATOM     18  C   UNL A   1      36.835  32.261  29.510  1.00  0.00     0.012 A 
ATOM     19  C   UNL A   1      34.684  33.273  29.929  1.00  0.00     0.012 A 
ATOM     20  C   UNL A   1      36.310  31.607  28.395  1.00  0.00     0.047 A 
ATOM     21  C   UNL A   1      34.168  32.634  28.800  1.00  0.00     0.047 A 
BRANCH  17  22
ATOM     22  C   UNL A   1      36.556  33.657  31.523  1.00  0.00     0.027 C 
ATOM     23  N   UNL A   1      38.473  33.090  34.478  1.00  0.00    -0.281 N 
ATOM     24  C   UNL A   1      37.607  33.819  33.662  1.00  0.00     0.265 C 
ATOM     25  C   UNL A   1      38.333  31.727  34.704  1.00  0.00     0.183 C 
ATOM     26  O   UNL A   1      37.480  35.041  33.713  1.00  0.00    -0.268 OA
ATOM     27  C   UNL A   1      36.856  33.014  32.669  1.00  0.00     0.106 C 
ATOM     28  N   UNL A   1      37.376  31.080  33.968  1.00  0.00    -0.298 N 
ATOM     29  S   UNL A   1      39.210  30.781  35.776  1.00  0.00    -0.040 S 
ATOM     30  C   UNL A   1      36.624  31.582  32.942  1.00  0.00     0.263 C 
ATOM     31  H   UNL A   1      37.209  30.140  34.207  1.00  0.00     0.172 HD
ATOM     32  O   UNL A   1      35.841  30.861  32.337  1.00  0.00    -0.269 OA
BRANCH  23  33
ATOM     33  C   UNL A   1      39.556  33.874  35.076  1.00  0.00     0.155 C 
BRANCH  33  34
ATOM     34  C   UNL A   1      39.107  34.255  36.465  1.00  0.00    -0.013 C 
ATOM     35  C   UNL A   1      39.698  35.179  37.234  1.00  0.00     0.006 C 
ENDBRANCH  33  34
ENDBRANCH  23  33
ENDBRANCH  17  22
ENDBRANCH  15  16
ENDBRANCH  14  15
ENDBRANCH   9  14
ENDBRANCH   6   8
ENDBRANCH   5   6
ENDBRANCH   4   5
ENDBRANCH   3   4
ENDBRANCH   2   3
ENDBRANCH   1   2
BRANCH   1  36
ATOM     36  C   UNL A   1      35.108  22.094  24.278  1.00  0.00     0.188 C 
BRANCH  36  37
ATOM     37  O   UNL A   1      36.109  21.687  25.200  1.00  0.00    -0.377 OA
BRANCH  37  38
ATOM     38  C   UNL A   1      37.437  22.191  25.071  1.00  0.00     0.188 C 
BRANCH  38  39
ATOM     39  C   UNL A   1      38.634  21.556  25.822  1.00  0.00     0.188 C 
BRANCH  39  40
ATOM     40  O   UNL A   1      39.447  22.471  26.534  1.00  0.00    -0.376 OA
BRANCH  40  41
ATOM     41  C   UNL A   1      40.758  22.065  26.878  1.00  0.00     0.202 C 
BRANCH  41  42
ATOM     42  C   UNL A   1      41.876  22.405  25.884  1.00  0.00     0.261 C 
BRANCH  42  43
ATOM     43  O   UNL A   1      42.457  23.712  26.010  1.00  0.00    -0.460 OA
BRANCH  43  44
ATOM     44  C   UNL A   1      43.665  23.798  26.606  1.00  0.00     0.338 C 
ATOM     45  O   UNL A   1      44.689  23.212  26.293  1.00  0.00    -0.246 OA
BRANCH  44  46
ATOM     46  C   UNL A   1      43.589  24.879  27.608  1.00  0.00     0.060 A 
ATOM     47  C   UNL A   1      44.724  25.662  27.862  1.00  0.00     0.016 A 
ATOM     48  C   UNL A   1      42.391  25.129  28.280  1.00  0.00     0.016 A 
ATOM     49  C   UNL A   1      44.671  26.678  28.816  1.00  0.00     0.010 A 
ATOM     50  C   UNL A   1      42.345  26.130  29.251  1.00  0.00     0.010 A 
ATOM     51  C   UNL A   1      43.494  26.887  29.546  1.00  0.00    -0.014 A 
BRANCH  51  52
ATOM     52  C   UNL A   1      43.516  27.750  30.750  1.00  0.00     0.031 A 
ATOM     53  C   UNL A   1      43.140  29.198  30.595  1.00  0.00     0.074 A 
ATOM     54  C   UNL A   1      43.854  27.265  31.957  1.00  0.00     0.049 A 
ATOM     55  N   UNL A   1      43.143  30.160  31.479  1.00  0.00    -0.248 NA
ATOM     56  C   UNL A   1      42.709  29.615  29.250  1.00  0.00     0.031 C 
ATOM     57  C   UNL A   1      44.200  25.876  32.244  1.00  0.00     0.029 A 
ATOM     58  N   UNL A   1      43.973  27.902  33.167  1.00  0.00    -0.354 N 
ATOM     59  C   UNL A   1      42.726  31.297  30.799  1.00  0.00     0.074 A 
ATOM     60  C   UNL A   1      42.512  30.913  29.422  1.00  0.00     0.031 C 
ATOM     61  C   UNL A   1      44.508  25.766  33.548  1.00  0.00     0.029 A 
ATOM     62  C   UNL A   1      44.416  27.083  34.176  1.00  0.00     0.049 A 
ATOM     63  H   UNL A   1      43.761  28.854  33.298  1.00  0.00     0.167 HD
ATOM     64  C   UNL A   1      42.535  32.548  31.280  1.00  0.00     0.037 A 
ATOM     65  C   UNL A   1      44.736  27.374  35.452  1.00  0.00     0.037 A 
ATOM     66  C   UNL A   1      42.757  32.927  32.650  1.00  0.00     0.049 A 
ATOM     67  C   UNL A   1      44.588  28.789  35.950  1.00  0.00     0.074 A 
ATOM     68  C   UNL A   1      42.570  34.162  33.244  1.00  0.00     0.029 A 
ATOM     69  N   UNL A   1      43.234  32.076  33.637  1.00  0.00    -0.354 N 
ATOM     70  N   UNL A   1      44.163  29.852  35.310  1.00  0.00    -0.248 NA
ATOM     71  C   UNL A   1      44.961  29.043  37.349  1.00  0.00     0.031 C 
ATOM     72  C   UNL A   1      42.994  34.076  34.574  1.00  0.00     0.029 A 
ATOM     73  C   UNL A   1      43.379  32.769  34.828  1.00  0.00     0.049 A 
ATOM     74  H   UNL A   1      43.439  31.121  33.510  1.00  0.00     0.167 HD
ATOM     75  C   UNL A   1      44.189  30.891  36.233  1.00  0.00     0.074 A 
ATOM     76  C   UNL A   1      44.660  30.328  37.481  1.00  0.00     0.031 C 
ATOM     77  C   UNL A   1      43.849  32.194  36.064  1.00  0.00     0.037 A 
BRANCH  64  78
ATOM     78  C   UNL A   1      42.102  33.603  30.302  1.00  0.00     0.057 A 
ATOM     79  C   UNL A   1      43.019  34.319  29.521  1.00  0.00     0.134 A 
ATOM     80  C   UNL A   1      40.743  33.901  30.136  1.00  0.00     0.134 A 
ATOM     81  F   UNL A   1      44.337  34.096  29.643  1.00  0.00    -0.206 F 
ATOM     82  C   UNL A   1      42.603  35.316  28.636  1.00  0.00     0.040 A 
ATOM     83  C   UNL A   1      40.313  34.871  29.230  1.00  0.00     0.040 A 
ATOM     84  F   UNL A   1      39.810  33.251  30.848  1.00  0.00    -0.206 F 
ATOM     85  C   UNL A   1      41.245  35.590  28.485  1.00  0.00     0.006 A 
ENDBRANCH  64  78
BRANCH  65  86
ATOM     86  C   UNL A   1      45.243  26.304  36.351  1.00  0.00     0.057 A 
ATOM     87  C   UNL A   1      44.389  25.624  37.226  1.00  0.00     0.134 A 
ATOM     88  C   UNL A   1      46.597  25.944  36.361  1.00  0.00     0.134 A 
ATOM     89  F   UNL A   1      43.087  25.940  37.281  1.00  0.00    -0.206 F 
ATOM     90  C   UNL A   1      44.864  24.633  38.089  1.00  0.00     0.040 A 
ATOM     91  C   UNL A   1      47.080  24.937  37.198  1.00  0.00     0.040 A 
ATOM     92  F   UNL A   1      47.468  26.558  35.548  1.00  0.00    -0.206 F 
ATOM     93  C   UNL A   1      46.213  24.283  38.070  1.00  0.00     0.006 A 
ENDBRANCH  65  86
BRANCH  77  94
ATOM     94  C   UNL A   1      43.933  33.095  37.266  1.00  0.00     0.057 A 
ATOM     95  C   UNL A   1      42.859  33.262  38.149  1.00  0.00     0.134 A 
ATOM     96  C   UNL A   1      45.125  33.768  37.566  1.00  0.00     0.134 A 
ATOM     97  F   UNL A   1      41.686  32.655  37.917  1.00  0.00    -0.206 F 
ATOM     98  C   UNL A   1      42.959  34.086  39.273  1.00  0.00     0.040 A 
ATOM     99  C   UNL A   1      45.247  34.569  38.703  1.00  0.00     0.040 A 
ATOM    100  F   UNL A   1      46.198  33.644  36.770  1.00  0.00    -0.206 F 
ATOM    101  C   UNL A   1      44.160  34.735  39.556  1.00  0.00     0.006 A 
ENDBRANCH  77  94
ENDBRANCH  51  52
ENDBRANCH  44  46
ENDBRANCH  43  44
ENDBRANCH  42  43
ENDBRANCH  41  42
ENDBRANCH  40  41
ENDBRANCH  39  40
ENDBRANCH  38  39
ENDBRANCH  37  38
ENDBRANCH  36  37
ENDBRANCH   1  36
TORSDOF 26
ENDMDL
