MODEL 1
REMARK VINA RESULT:     -10.5      0.000      0.000
REMARK SMILES C[C@H]1SCCC[C@]1(Nc1ccc(Cl)cc1)C(=O)OCCOCCOCCOCCOC(=O)c1ccc(-c2c3nc(c(-c4c(F)cccc4F)c4ccc([nH]4)c(-c4c(F)cccc4F)c4nc(c(-c5c(F)cccc5F)c5ccc2[nH]5)C=C4)C=C3)cc1
REMARK SMILES IDX 24 1 23 2 22 3 21 4 20 5 19 6 18 7 16 8 17 9 7 10 1 11 2 12
REMARK SMILES IDX 3 13 4 14 6 15 5 16 8 17 9 19 10 20 15 21 11 22 14 23 12 24
REMARK SMILES IDX 13 25 25 26 26 27 27 28 28 29 29 30 30 31 31 32 32 33 33 34
REMARK SMILES IDX 34 35 86 36 35 37 85 38 36 39 37 40 38 41 79 42 39 43 84 44
REMARK SMILES IDX 78 45 80 46 40 47 83 48 77 49 76 50 41 52 67 53 50 54 66 55
REMARK SMILES IDX 51 56 54 57 65 58 81 59 52 60 53 61 64 63 82 64 55 65 42 66
REMARK SMILES IDX 43 67 48 68 44 69 45 70 47 71 49 72 46 73 68 74 69 75 74 76
REMARK SMILES IDX 70 77 71 78 73 79 75 80 72 81 56 82 57 83 62 84 58 85 59 86
REMARK SMILES IDX 61 87 63 88 60 89
REMARK H PARENT 8 18 80 51 54 62
REMARK Flexibility Score: inf
ROOT
ATOM      1  O   UNL A   1      34.481  34.214  27.504  1.00  0.00    -0.377 OA
ENDROOT
BRANCH   1   2
ATOM      2  C   UNL A   1      35.119  33.042  27.970  1.00  0.00     0.188 C 
BRANCH   2   3
ATOM      3  C   UNL A   1      34.218  31.845  28.288  1.00  0.00     0.188 C 
BRANCH   3   4
ATOM      4  O   UNL A   1      34.075  30.869  27.286  1.00  0.00    -0.376 OA
BRANCH   4   5
ATOM      5  C   UNL A   1      32.892  30.135  27.040  1.00  0.00     0.202 C 
BRANCH   5   6
ATOM      6  C   UNL A   1      32.707  28.615  26.860  1.00  0.00     0.261 C 
BRANCH   6   7
ATOM      7  O   UNL A   1      31.939  28.096  25.776  1.00  0.00    -0.461 OA
BRANCH   7   8
ATOM      8  C   UNL A   1      32.676  27.587  24.764  1.00  0.00     0.333 C 
ATOM      9  O   UNL A   1      33.654  28.180  24.307  1.00  0.00    -0.249 OA
BRANCH   8  10
ATOM     10  C   UNL A   1      32.157  26.219  24.193  1.00  0.00     0.147 C 
ATOM     11  C   UNL A   1      30.221  25.620  25.922  1.00  0.00     0.022 C 
ATOM     12  C   UNL A   1      31.529  25.220  25.233  1.00  0.00     0.080 C 
ATOM     13  S   UNL A   1      31.177  23.563  24.467  1.00  0.00    -0.156 SA
ATOM     14  C   UNL A   1      32.860  23.152  23.946  1.00  0.00     0.070 C 
ATOM     15  C   UNL A   1      33.477  25.598  23.617  1.00  0.00     0.042 C 
ATOM     16  C   UNL A   1      33.394  24.209  23.000  1.00  0.00     0.014 C 
BRANCH  10  17
ATOM     17  N   UNL A   1      31.202  26.416  23.049  1.00  0.00    -0.369 N 
ATOM     18  H   UNL A   1      31.094  25.715  22.366  1.00  0.00     0.161 HD
BRANCH  17  19
ATOM     19  C   UNL A   1      30.469  27.598  22.963  1.00  0.00     0.035 A 
ATOM     20  C   UNL A   1      29.132  27.639  23.379  1.00  0.00     0.027 A 
ATOM     21  C   UNL A   1      30.988  28.708  22.294  1.00  0.00     0.027 A 
ATOM     22  C   UNL A   1      28.305  28.716  23.056  1.00  0.00     0.022 A 
ATOM     23  C   UNL A   1      30.172  29.800  21.982  1.00  0.00     0.022 A 
ATOM     24  C   UNL A   1      28.828  29.788  22.344  1.00  0.00     0.041 A 
ATOM     25  Cl  UNL A   1      27.804  31.090  21.883  1.00  0.00    -0.084 Cl
ENDBRANCH  17  19
ENDBRANCH  10  17
ENDBRANCH   8  10
ENDBRANCH   7   8
ENDBRANCH   6   7
ENDBRANCH   5   6
ENDBRANCH   4   5
ENDBRANCH   3   4
ENDBRANCH   2   3
ENDBRANCH   1   2
BRANCH   1  26
ATOM     26  C   UNL A   1      34.417  35.352  28.360  1.00  0.00     0.188 C 
BRANCH  26  27
ATOM     27  C   UNL A   1      33.177  35.626  29.240  1.00  0.00     0.188 C 
BRANCH  27  28
ATOM     28  O   UNL A   1      33.084  34.831  30.409  1.00  0.00    -0.376 OA
BRANCH  28  29
ATOM     29  C   UNL A   1      34.230  34.675  31.230  1.00  0.00     0.202 C 
BRANCH  29  30
ATOM     30  C   UNL A   1      34.167  33.639  32.362  1.00  0.00     0.261 C 
BRANCH  30  31
ATOM     31  O   UNL A   1      34.935  32.440  32.170  1.00  0.00    -0.460 OA
BRANCH  31  32
ATOM     32  C   UNL A   1      36.022  32.257  32.945  1.00  0.00     0.338 C 
ATOM     33  O   UNL A   1      36.148  32.541  34.125  1.00  0.00    -0.246 OA
BRANCH  32  34
ATOM     34  C   UNL A   1      36.994  31.459  32.171  1.00  0.00     0.060 A 
ATOM     35  C   UNL A   1      37.890  30.627  32.855  1.00  0.00     0.016 A 
ATOM     36  C   UNL A   1      37.020  31.539  30.778  1.00  0.00     0.016 A 
ATOM     37  C   UNL A   1      38.847  29.903  32.148  1.00  0.00     0.010 A 
ATOM     38  C   UNL A   1      37.996  30.834  30.071  1.00  0.00     0.010 A 
ATOM     39  C   UNL A   1      38.938  30.045  30.758  1.00  0.00    -0.014 A 
BRANCH  39  40
ATOM     40  C   UNL A   1      40.145  29.557  30.052  1.00  0.00     0.031 A 
ATOM     41  C   UNL A   1      41.292  30.512  29.865  1.00  0.00     0.074 A 
ATOM     42  C   UNL A   1      40.236  28.292  29.610  1.00  0.00     0.049 A 
ATOM     43  N   UNL A   1      42.425  30.340  29.237  1.00  0.00    -0.248 NA
ATOM     44  C   UNL A   1      41.133  31.845  30.468  1.00  0.00     0.031 C 
ATOM     45  C   UNL A   1      39.216  27.260  29.778  1.00  0.00     0.029 A 
ATOM     46  N   UNL A   1      41.242  27.665  28.916  1.00  0.00    -0.354 N 
ATOM     47  C   UNL A   1      43.108  31.544  29.358  1.00  0.00     0.074 A 
ATOM     48  C   UNL A   1      42.250  32.448  30.092  1.00  0.00     0.031 C 
ATOM     49  C   UNL A   1      39.643  26.128  29.192  1.00  0.00     0.029 A 
ATOM     50  C   UNL A   1      40.948  26.369  28.575  1.00  0.00     0.049 A 
ATOM     51  H   UNL A   1      42.091  28.104  28.685  1.00  0.00     0.167 HD
ATOM     52  C   UNL A   1      44.342  31.866  28.906  1.00  0.00     0.037 A 
ATOM     53  C   UNL A   1      41.643  25.490  27.829  1.00  0.00     0.037 A 
ATOM     54  C   UNL A   1      45.189  30.965  28.170  1.00  0.00     0.049 A 
ATOM     55  C   UNL A   1      42.978  25.899  27.259  1.00  0.00     0.074 A 
ATOM     56  C   UNL A   1      46.463  31.186  27.679  1.00  0.00     0.029 A 
ATOM     57  N   UNL A   1      44.839  29.672  27.808  1.00  0.00    -0.354 N 
ATOM     58  N   UNL A   1      43.627  27.030  27.396  1.00  0.00    -0.248 NA
ATOM     59  C   UNL A   1      43.677  24.905  26.431  1.00  0.00     0.031 C 
ATOM     60  C   UNL A   1      46.859  30.051  26.964  1.00  0.00     0.029 A 
ATOM     61  C   UNL A   1      45.860  29.095  27.070  1.00  0.00     0.049 A 
ATOM     62  H   UNL A   1      43.991  29.230  28.042  1.00  0.00     0.167 HD
ATOM     63  C   UNL A   1      44.822  26.872  26.701  1.00  0.00     0.074 A 
ATOM     64  C   UNL A   1      44.811  25.532  26.154  1.00  0.00     0.031 C 
ATOM     65  C   UNL A   1      45.837  27.757  26.536  1.00  0.00     0.037 A 
BRANCH  52  66
ATOM     66  C   UNL A   1      44.826  33.265  29.157  1.00  0.00     0.057 A 
ATOM     67  C   UNL A   1      44.556  34.319  28.274  1.00  0.00     0.134 A 
ATOM     68  C   UNL A   1      45.566  33.564  30.309  1.00  0.00     0.134 A 
ATOM     69  F   UNL A   1      43.869  34.100  27.143  1.00  0.00    -0.206 F 
ATOM     70  C   UNL A   1      45.033  35.610  28.509  1.00  0.00     0.040 A 
ATOM     71  C   UNL A   1      46.019  34.857  30.573  1.00  0.00     0.040 A 
ATOM     72  F   UNL A   1      45.858  32.604  31.199  1.00  0.00    -0.206 F 
ATOM     73  C   UNL A   1      45.761  35.883  29.666  1.00  0.00     0.006 A 
ENDBRANCH  52  66
BRANCH  53  74
ATOM     74  C   UNL A   1      41.090  24.136  27.564  1.00  0.00     0.057 A 
ATOM     75  C   UNL A   1      41.595  23.005  28.214  1.00  0.00     0.134 A 
ATOM     76  C   UNL A   1      40.055  23.940  26.641  1.00  0.00     0.134 A 
ATOM     77  F   UNL A   1      42.603  23.124  29.091  1.00  0.00    -0.206 F 
ATOM     78  C   UNL A   1      41.103  21.726  27.946  1.00  0.00     0.040 A 
ATOM     79  C   UNL A   1      39.534  22.671  26.384  1.00  0.00     0.040 A 
ATOM     80  F   UNL A   1      39.527  24.982  25.982  1.00  0.00    -0.206 F 
ATOM     81  C   UNL A   1      40.064  21.558  27.032  1.00  0.00     0.006 A 
ENDBRANCH  53  74
BRANCH  65  82
ATOM     82  C   UNL A   1      47.044  27.290  25.770  1.00  0.00     0.057 A 
ATOM     83  C   UNL A   1      47.197  27.533  24.398  1.00  0.00     0.134 A 
ATOM     84  C   UNL A   1      48.090  26.627  26.427  1.00  0.00     0.134 A 
ATOM     85  F   UNL A   1      46.230  28.154  23.706  1.00  0.00    -0.206 F 
ATOM     86  C   UNL A   1      48.333  27.111  23.705  1.00  0.00     0.040 A 
ATOM     87  C   UNL A   1      49.244  26.229  25.751  1.00  0.00     0.040 A 
ATOM     88  F   UNL A   1      48.016  26.372  27.742  1.00  0.00    -0.206 F 
ATOM     89  C   UNL A   1      49.364  26.464  24.384  1.00  0.00     0.006 A 
ENDBRANCH  65  82
ENDBRANCH  39  40
ENDBRANCH  32  34
ENDBRANCH  31  32
ENDBRANCH  30  31
ENDBRANCH  29  30
ENDBRANCH  28  29
ENDBRANCH  27  28
ENDBRANCH  26  27
ENDBRANCH   1  26
TORSDOF 22
ENDMDL
MODEL 2
REMARK VINA RESULT:     -10.1      1.888      2.874
REMARK SMILES C[C@H]1SCCC[C@]1(Nc1ccc(Cl)cc1)C(=O)OCCOCCOCCOCCOC(=O)c1ccc(-c2c3nc(c(-c4c(F)cccc4F)c4ccc([nH]4)c(-c4c(F)cccc4F)c4nc(c(-c5c(F)cccc5F)c5ccc2[nH]5)C=C4)C=C3)cc1
REMARK SMILES IDX 24 1 23 2 22 3 21 4 20 5 19 6 18 7 16 8 17 9 7 10 1 11 2 12
REMARK SMILES IDX 3 13 4 14 6 15 5 16 8 17 9 19 10 20 15 21 11 22 14 23 12 24
REMARK SMILES IDX 13 25 25 26 26 27 27 28 28 29 29 30 30 31 31 32 32 33 33 34
REMARK SMILES IDX 34 35 86 36 35 37 85 38 36 39 37 40 38 41 79 42 39 43 84 44
REMARK SMILES IDX 78 45 80 46 40 47 83 48 77 49 76 50 41 52 67 53 50 54 66 55
REMARK SMILES IDX 51 56 54 57 65 58 81 59 52 60 53 61 64 63 82 64 55 65 42 66
REMARK SMILES IDX 43 67 48 68 44 69 45 70 47 71 49 72 46 73 68 74 69 75 74 76
REMARK SMILES IDX 70 77 71 78 73 79 75 80 72 81 56 82 57 83 62 84 58 85 59 86
REMARK SMILES IDX 61 87 63 88 60 89
REMARK H PARENT 8 18 80 51 54 62
REMARK Flexibility Score: inf
ROOT
ATOM      1  O   UNL A   1      34.422  34.272  27.577  1.00  0.00    -0.377 OA
ENDROOT
BRANCH   1   2
ATOM      2  C   UNL A   1      35.167  33.133  27.958  1.00  0.00     0.188 C 
BRANCH   2   3
ATOM      3  C   UNL A   1      34.385  31.972  28.579  1.00  0.00     0.188 C 
BRANCH   3   4
ATOM      4  O   UNL A   1      34.178  30.838  27.775  1.00  0.00    -0.376 OA
BRANCH   4   5
ATOM      5  C   UNL A   1      32.963  30.524  27.123  1.00  0.00     0.202 C 
BRANCH   5   6
ATOM      6  C   UNL A   1      32.166  29.204  27.132  1.00  0.00     0.261 C 
BRANCH   6   7
ATOM      7  O   UNL A   1      32.799  27.967  26.812  1.00  0.00    -0.461 OA
BRANCH   7   8
ATOM      8  C   UNL A   1      31.981  27.050  26.249  1.00  0.00     0.333 C 
ATOM      9  O   UNL A   1      30.962  26.652  26.816  1.00  0.00    -0.249 OA
BRANCH   8  10
ATOM     10  C   UNL A   1      32.457  26.507  24.855  1.00  0.00     0.147 C 
ATOM     11  C   UNL A   1      34.115  28.438  24.069  1.00  0.00     0.022 C 
ATOM     12  C   UNL A   1      32.875  27.586  23.789  1.00  0.00     0.080 C 
ATOM     13  S   UNL A   1      33.187  26.821  22.124  1.00  0.00    -0.156 SA
ATOM     14  C   UNL A   1      31.554  26.090  21.860  1.00  0.00     0.070 C 
ATOM     15  C   UNL A   1      31.173  25.759  24.354  1.00  0.00     0.042 C 
ATOM     16  C   UNL A   1      31.223  25.118  22.974  1.00  0.00     0.014 C 
BRANCH  10  17
ATOM     17  N   UNL A   1      33.557  25.492  24.997  1.00  0.00    -0.369 N 
ATOM     18  H   UNL A   1      34.496  25.784  25.058  1.00  0.00     0.161 HD
BRANCH  17  19
ATOM     19  C   UNL A   1      33.239  24.137  25.042  1.00  0.00     0.035 A 
ATOM     20  C   UNL A   1      32.630  23.586  26.176  1.00  0.00     0.027 A 
ATOM     21  C   UNL A   1      33.686  23.269  24.044  1.00  0.00     0.027 A 
ATOM     22  C   UNL A   1      32.550  22.204  26.357  1.00  0.00     0.022 A 
ATOM     23  C   UNL A   1      33.594  21.883  24.207  1.00  0.00     0.022 A 
ATOM     24  C   UNL A   1      33.048  21.357  25.374  1.00  0.00     0.041 A 
ATOM     25  Cl  UNL A   1      33.016  19.655  25.614  1.00  0.00    -0.084 Cl
ENDBRANCH  17  19
ENDBRANCH  10  17
ENDBRANCH   8  10
ENDBRANCH   7   8
ENDBRANCH   6   7
ENDBRANCH   5   6
ENDBRANCH   4   5
ENDBRANCH   3   4
ENDBRANCH   2   3
ENDBRANCH   1   2
BRANCH   1  26
ATOM     26  C   UNL A   1      34.400  35.404  28.445  1.00  0.00     0.188 C 
BRANCH  26  27
ATOM     27  C   UNL A   1      33.243  35.626  29.444  1.00  0.00     0.188 C 
BRANCH  27  28
ATOM     28  O   UNL A   1      33.159  34.669  30.486  1.00  0.00    -0.376 OA
BRANCH  28  29
ATOM     29  C   UNL A   1      34.267  34.495  31.354  1.00  0.00     0.202 C 
BRANCH  29  30
ATOM     30  C   UNL A   1      34.150  33.442  32.466  1.00  0.00     0.261 C 
BRANCH  30  31
ATOM     31  O   UNL A   1      35.086  32.354  32.411  1.00  0.00    -0.460 OA
BRANCH  31  32
ATOM     32  C   UNL A   1      36.318  32.557  32.918  1.00  0.00     0.338 C 
ATOM     33  O   UNL A   1      36.611  33.163  33.935  1.00  0.00    -0.246 OA
BRANCH  32  34
ATOM     34  C   UNL A   1      37.265  31.742  32.131  1.00  0.00     0.060 A 
ATOM     35  C   UNL A   1      38.136  30.874  32.801  1.00  0.00     0.016 A 
ATOM     36  C   UNL A   1      37.293  31.843  30.739  1.00  0.00     0.016 A 
ATOM     37  C   UNL A   1      39.071  30.133  32.082  1.00  0.00     0.010 A 
ATOM     38  C   UNL A   1      38.246  31.119  30.021  1.00  0.00     0.010 A 
ATOM     39  C   UNL A   1      39.165  30.293  30.694  1.00  0.00    -0.014 A 
BRANCH  39  40
ATOM     40  C   UNL A   1      40.356  29.779  29.979  1.00  0.00     0.031 A 
ATOM     41  C   UNL A   1      41.506  30.721  29.749  1.00  0.00     0.074 A 
ATOM     42  C   UNL A   1      40.431  28.503  29.567  1.00  0.00     0.049 A 
ATOM     43  N   UNL A   1      42.626  30.527  29.105  1.00  0.00    -0.248 NA
ATOM     44  C   UNL A   1      41.365  32.070  30.321  1.00  0.00     0.031 C 
ATOM     45  C   UNL A   1      39.408  27.482  29.778  1.00  0.00     0.029 A 
ATOM     46  N   UNL A   1      41.420  27.853  28.871  1.00  0.00    -0.354 N 
ATOM     47  C   UNL A   1      43.318  31.729  29.184  1.00  0.00     0.074 A 
ATOM     48  C   UNL A   1      42.479  32.656  29.911  1.00  0.00     0.031 C 
ATOM     49  C   UNL A   1      39.818  26.333  29.213  1.00  0.00     0.029 A 
ATOM     50  C   UNL A   1      41.112  26.550  28.568  1.00  0.00     0.049 A 
ATOM     51  H   UNL A   1      42.269  28.280  28.615  1.00  0.00     0.167 HD
ATOM     52  C   UNL A   1      44.546  32.032  28.702  1.00  0.00     0.037 A 
ATOM     53  C   UNL A   1      41.789  25.649  27.831  1.00  0.00     0.037 A 
ATOM     54  C   UNL A   1      45.375  31.107  27.974  1.00  0.00     0.049 A 
ATOM     55  C   UNL A   1      43.116  26.035  27.227  1.00  0.00     0.074 A 
ATOM     56  C   UNL A   1      46.641  31.308  27.456  1.00  0.00     0.029 A 
ATOM     57  N   UNL A   1      45.010  29.808  27.651  1.00  0.00    -0.354 N 
ATOM     58  N   UNL A   1      43.774  27.165  27.325  1.00  0.00    -0.248 NA
ATOM     59  C   UNL A   1      43.794  25.016  26.412  1.00  0.00     0.031 C 
ATOM     60  C   UNL A   1      47.017  30.153  26.762  1.00  0.00     0.029 A 
ATOM     61  C   UNL A   1      46.014  29.206  26.909  1.00  0.00     0.049 A 
ATOM     62  H   UNL A   1      44.164  29.377  27.910  1.00  0.00     0.167 HD
ATOM     63  C   UNL A   1      44.956  26.982  26.614  1.00  0.00     0.074 A 
ATOM     64  C   UNL A   1      44.927  25.629  26.100  1.00  0.00     0.031 C 
ATOM     65  C   UNL A   1      45.974  27.856  26.409  1.00  0.00     0.037 A 
BRANCH  52  66
ATOM     66  C   UNL A   1      45.043  33.433  28.911  1.00  0.00     0.057 A 
ATOM     67  C   UNL A   1      45.853  33.785  30.000  1.00  0.00     0.134 A 
ATOM     68  C   UNL A   1      44.713  34.446  28.001  1.00  0.00     0.134 A 
ATOM     69  F   UNL A   1      46.192  32.868  30.919  1.00  0.00    -0.206 F 
ATOM     70  C   UNL A   1      46.287  35.097  30.193  1.00  0.00     0.040 A 
ATOM     71  C   UNL A   1      45.169  35.755  28.165  1.00  0.00     0.040 A 
ATOM     72  F   UNL A   1      43.944  34.180  26.935  1.00  0.00    -0.206 F 
ATOM     73  C   UNL A   1      45.951  36.085  29.270  1.00  0.00     0.006 A 
ENDBRANCH  52  66
BRANCH  53  74
ATOM     74  C   UNL A   1      41.223  24.293  27.610  1.00  0.00     0.057 A 
ATOM     75  C   UNL A   1      41.688  23.185  28.327  1.00  0.00     0.134 A 
ATOM     76  C   UNL A   1      40.216  24.070  26.662  1.00  0.00     0.134 A 
ATOM     77  F   UNL A   1      42.668  23.329  29.230  1.00  0.00    -0.206 F 
ATOM     78  C   UNL A   1      41.184  21.903  28.101  1.00  0.00     0.040 A 
ATOM     79  C   UNL A   1      39.683  22.798  26.445  1.00  0.00     0.040 A 
ATOM     80  F   UNL A   1      39.726  25.088  25.940  1.00  0.00    -0.206 F 
ATOM     81  C   UNL A   1      40.173  21.708  27.161  1.00  0.00     0.006 A 
ENDBRANCH  53  74
BRANCH  65  82
ATOM     82  C   UNL A   1      47.164  27.362  25.633  1.00  0.00     0.057 A 
ATOM     83  C   UNL A   1      47.291  27.566  24.253  1.00  0.00     0.134 A 
ATOM     84  C   UNL A   1      48.219  26.713  26.289  1.00  0.00     0.134 A 
ATOM     85  F   UNL A   1      46.314  28.172  23.562  1.00  0.00    -0.206 F 
ATOM     86  C   UNL A   1      48.412  27.119  23.550  1.00  0.00     0.040 A 
ATOM     87  C   UNL A   1      49.358  26.291  25.603  1.00  0.00     0.040 A 
ATOM     88  F   UNL A   1      48.169  26.495  27.612  1.00  0.00    -0.206 F 
ATOM     89  C   UNL A   1      49.453  26.487  24.227  1.00  0.00     0.006 A 
ENDBRANCH  65  82
ENDBRANCH  39  40
ENDBRANCH  32  34
ENDBRANCH  31  32
ENDBRANCH  30  31
ENDBRANCH  29  30
ENDBRANCH  28  29
ENDBRANCH  27  28
ENDBRANCH  26  27
ENDBRANCH   1  26
TORSDOF 22
ENDMDL
MODEL 3
REMARK VINA RESULT:      -9.9      4.195      8.412
REMARK SMILES C[C@H]1SCCC[C@]1(Nc1ccc(Cl)cc1)C(=O)OCCOCCOCCOCCOC(=O)c1ccc(-c2c3nc(c(-c4c(F)cccc4F)c4ccc([nH]4)c(-c4c(F)cccc4F)c4nc(c(-c5c(F)cccc5F)c5ccc2[nH]5)C=C4)C=C3)cc1
REMARK SMILES IDX 24 1 23 2 22 3 21 4 20 5 19 6 18 7 16 8 17 9 7 10 1 11 2 12
REMARK SMILES IDX 3 13 4 14 6 15 5 16 8 17 9 19 10 20 15 21 11 22 14 23 12 24
REMARK SMILES IDX 13 25 25 26 26 27 27 28 28 29 29 30 30 31 31 32 32 33 33 34
REMARK SMILES IDX 34 35 86 36 35 37 85 38 36 39 37 40 38 41 79 42 39 43 84 44
REMARK SMILES IDX 78 45 80 46 40 47 83 48 77 49 76 50 41 52 67 53 50 54 66 55
REMARK SMILES IDX 51 56 54 57 65 58 81 59 52 60 53 61 64 63 82 64 55 65 42 66
REMARK SMILES IDX 43 67 48 68 44 69 45 70 47 71 49 72 46 73 68 74 69 75 74 76
REMARK SMILES IDX 70 77 71 78 73 79 75 80 72 81 56 82 57 83 62 84 58 85 59 86
REMARK SMILES IDX 61 87 63 88 60 89
REMARK H PARENT 8 18 80 51 54 62
REMARK Flexibility Score: inf
ROOT
ATOM      1  O   UNL A   1      31.803  27.968  25.292  1.00  0.00    -0.377 OA
ENDROOT
BRANCH   1   2
ATOM      2  C   UNL A   1      31.157  28.789  24.341  1.00  0.00     0.188 C 
BRANCH   2   3
ATOM      3  C   UNL A   1      31.794  28.868  22.950  1.00  0.00     0.188 C 
BRANCH   3   4
ATOM      4  O   UNL A   1      32.691  27.845  22.599  1.00  0.00    -0.376 OA
BRANCH   4   5
ATOM      5  C   UNL A   1      32.314  26.598  22.048  1.00  0.00     0.202 C 
BRANCH   5   6
ATOM      6  C   UNL A   1      32.959  25.212  22.244  1.00  0.00     0.261 C 
BRANCH   6   7
ATOM      7  O   UNL A   1      33.917  24.991  23.278  1.00  0.00    -0.461 OA
BRANCH   7   8
ATOM      8  C   UNL A   1      33.431  24.350  24.363  1.00  0.00     0.333 C 
ATOM      9  O   UNL A   1      32.818  24.946  25.251  1.00  0.00    -0.249 OA
BRANCH   8  10
ATOM     10  C   UNL A   1      33.750  22.814  24.421  1.00  0.00     0.147 C 
ATOM     11  C   UNL A   1      32.164  21.868  22.501  1.00  0.00     0.022 C 
ATOM     12  C   UNL A   1      32.598  21.842  23.969  1.00  0.00     0.080 C 
ATOM     13  S   UNL A   1      33.025  20.066  24.310  1.00  0.00    -0.156 SA
ATOM     14  C   UNL A   1      33.251  20.189  26.101  1.00  0.00     0.070 C 
ATOM     15  C   UNL A   1      34.026  22.608  25.951  1.00  0.00     0.042 C 
ATOM     16  C   UNL A   1      34.335  21.196  26.429  1.00  0.00     0.014 C 
BRANCH  10  17
ATOM     17  N   UNL A   1      35.010  22.476  23.675  1.00  0.00    -0.369 N 
ATOM     18  H   UNL A   1      34.970  22.210  22.727  1.00  0.00     0.161 HD
BRANCH  17  19
ATOM     19  C   UNL A   1      36.236  22.543  24.332  1.00  0.00     0.035 A 
ATOM     20  C   UNL A   1      37.021  21.396  24.495  1.00  0.00     0.027 A 
ATOM     21  C   UNL A   1      36.620  23.708  25.001  1.00  0.00     0.027 A 
ATOM     22  C   UNL A   1      38.106  21.378  25.374  1.00  0.00     0.022 A 
ATOM     23  C   UNL A   1      37.717  23.706  25.869  1.00  0.00     0.022 A 
ATOM     24  C   UNL A   1      38.440  22.533  26.069  1.00  0.00     0.041 A 
ATOM     25  Cl  UNL A   1      39.733  22.507  27.203  1.00  0.00    -0.084 Cl
ENDBRANCH  17  19
ENDBRANCH  10  17
ENDBRANCH   8  10
ENDBRANCH   7   8
ENDBRANCH   6   7
ENDBRANCH   5   6
ENDBRANCH   4   5
ENDBRANCH   3   4
ENDBRANCH   2   3
ENDBRANCH   1   2
BRANCH   1  26
ATOM     26  C   UNL A   1      32.366  28.571  26.455  1.00  0.00     0.188 C 
BRANCH  26  27
ATOM     27  C   UNL A   1      33.101  29.927  26.379  1.00  0.00     0.188 C 
BRANCH  27  28
ATOM     28  O   UNL A   1      32.585  30.938  27.228  1.00  0.00    -0.376 OA
BRANCH  28  29
ATOM     29  C   UNL A   1      31.723  31.923  26.682  1.00  0.00     0.202 C 
BRANCH  29  30
ATOM     30  C   UNL A   1      32.108  33.398  26.871  1.00  0.00     0.261 C 
BRANCH  30  31
ATOM     31  O   UNL A   1      32.218  33.858  28.226  1.00  0.00    -0.460 OA
BRANCH  31  32
ATOM     32  C   UNL A   1      33.237  34.687  28.530  1.00  0.00     0.338 C 
ATOM     33  O   UNL A   1      33.201  35.903  28.624  1.00  0.00    -0.246 OA
BRANCH  32  34
ATOM     34  C   UNL A   1      34.386  33.853  28.933  1.00  0.00     0.060 A 
ATOM     35  C   UNL A   1      34.155  32.688  29.677  1.00  0.00     0.016 A 
ATOM     36  C   UNL A   1      35.684  34.224  28.580  1.00  0.00     0.016 A 
ATOM     37  C   UNL A   1      35.227  31.912  30.109  1.00  0.00     0.010 A 
ATOM     38  C   UNL A   1      36.761  33.461  29.036  1.00  0.00     0.010 A 
ATOM     39  C   UNL A   1      36.537  32.325  29.836  1.00  0.00    -0.014 A 
BRANCH  39  40
ATOM     40  C   UNL A   1      37.665  31.705  30.569  1.00  0.00     0.031 A 
ATOM     41  C   UNL A   1      38.514  30.698  29.843  1.00  0.00     0.074 A 
ATOM     42  C   UNL A   1      37.949  32.044  31.837  1.00  0.00     0.049 A 
ATOM     43  N   UNL A   1      39.516  29.982  30.282  1.00  0.00    -0.248 NA
ATOM     44  C   UNL A   1      38.181  30.465  28.428  1.00  0.00     0.031 C 
ATOM     45  C   UNL A   1      37.235  33.044  32.627  1.00  0.00     0.029 A 
ATOM     46  N   UNL A   1      38.917  31.569  32.686  1.00  0.00    -0.354 N 
ATOM     47  C   UNL A   1      39.924  29.207  29.203  1.00  0.00     0.074 A 
ATOM     48  C   UNL A   1      39.042  29.516  28.099  1.00  0.00     0.031 C 
ATOM     49  C   UNL A   1      37.783  33.100  33.854  1.00  0.00     0.029 A 
ATOM     50  C   UNL A   1      38.859  32.114  33.944  1.00  0.00     0.049 A 
ATOM     51  H   UNL A   1      39.588  30.901  32.418  1.00  0.00     0.167 HD
ATOM     52  C   UNL A   1      40.946  28.322  29.136  1.00  0.00     0.037 A 
ATOM     53  C   UNL A   1      39.577  31.827  35.047  1.00  0.00     0.037 A 
ATOM     54  C   UNL A   1      41.816  28.013  30.240  1.00  0.00     0.049 A 
ATOM     55  C   UNL A   1      40.654  30.774  34.975  1.00  0.00     0.074 A 
ATOM     56  C   UNL A   1      42.892  27.144  30.273  1.00  0.00     0.029 A 
ATOM     57  N   UNL A   1      41.700  28.556  31.511  1.00  0.00    -0.354 N 
ATOM     58  N   UNL A   1      41.049  30.061  33.947  1.00  0.00    -0.248 NA
ATOM     59  C   UNL A   1      41.385  30.487  36.217  1.00  0.00     0.031 C 
ATOM     60  C   UNL A   1      43.386  27.111  31.581  1.00  0.00     0.029 A 
ATOM     61  C   UNL A   1      42.663  28.014  32.347  1.00  0.00     0.049 A 
ATOM     62  H   UNL A   1      41.032  29.228  31.780  1.00  0.00     0.167 HD
ATOM     63  C   UNL A   1      42.094  29.269  34.410  1.00  0.00     0.074 A 
ATOM     64  C   UNL A   1      42.277  29.597  35.808  1.00  0.00     0.031 C 
ATOM     65  C   UNL A   1      42.837  28.355  33.736  1.00  0.00     0.037 A 
BRANCH  52  66
ATOM     66  C   UNL A   1      41.146  27.596  27.837  1.00  0.00     0.057 A 
ATOM     67  C   UNL A   1      40.575  26.341  27.587  1.00  0.00     0.134 A 
ATOM     68  C   UNL A   1      41.915  28.168  26.814  1.00  0.00     0.134 A 
ATOM     69  F   UNL A   1      39.841  25.728  28.528  1.00  0.00    -0.206 F 
ATOM     70  C   UNL A   1      40.789  25.668  26.383  1.00  0.00     0.040 A 
ATOM     71  C   UNL A   1      42.109  27.520  25.594  1.00  0.00     0.040 A 
ATOM     72  F   UNL A   1      42.489  29.369  26.985  1.00  0.00    -0.206 F 
ATOM     73  C   UNL A   1      41.552  26.261  25.379  1.00  0.00     0.006 A 
ENDBRANCH  52  66
BRANCH  53  74
ATOM     74  C   UNL A   1      39.298  32.537  36.322  1.00  0.00     0.057 A 
ATOM     75  C   UNL A   1      39.962  33.724  36.653  1.00  0.00     0.134 A 
ATOM     76  C   UNL A   1      38.376  32.036  37.249  1.00  0.00     0.134 A 
ATOM     77  F   UNL A   1      40.875  34.242  35.819  1.00  0.00    -0.206 F 
ATOM     78  C   UNL A   1      39.729  34.379  37.864  1.00  0.00     0.040 A 
ATOM     79  C   UNL A   1      38.113  32.695  38.451  1.00  0.00     0.040 A 
ATOM     80  F   UNL A   1      37.707  30.902  36.995  1.00  0.00    -0.206 F 
ATOM     81  C   UNL A   1      38.797  33.867  38.764  1.00  0.00     0.006 A 
ENDBRANCH  53  74
BRANCH  65  82
ATOM     82  C   UNL A   1      43.949  27.676  34.488  1.00  0.00     0.057 A 
ATOM     83  C   UNL A   1      43.745  26.497  35.217  1.00  0.00     0.134 A 
ATOM     84  C   UNL A   1      45.253  28.188  34.442  1.00  0.00     0.134 A 
ATOM     85  F   UNL A   1      42.520  25.959  35.311  1.00  0.00    -0.206 F 
ATOM     86  C   UNL A   1      44.791  25.868  35.894  1.00  0.00     0.040 A 
ATOM     87  C   UNL A   1      46.313  27.550  35.087  1.00  0.00     0.040 A 
ATOM     88  F   UNL A   1      45.523  29.307  33.752  1.00  0.00    -0.206 F 
ATOM     89  C   UNL A   1      46.082  26.391  35.823  1.00  0.00     0.006 A 
ENDBRANCH  65  82
ENDBRANCH  39  40
ENDBRANCH  32  34
ENDBRANCH  31  32
ENDBRANCH  30  31
ENDBRANCH  29  30
ENDBRANCH  28  29
ENDBRANCH  27  28
ENDBRANCH  26  27
ENDBRANCH   1  26
TORSDOF 22
ENDMDL
