MODEL 1
REMARK VINA RESULT:     -11.2      0.000      0.000
REMARK SMILES O=C(OCCOCCOCCOCCOC(=O)c1ccc(-c2c3nc(c(-c4c(F)cccc4F)c4ccc([nH]4)c(-c4c(F)cccc4F)c4nc(c(-c5c(F)cccc5F)c5ccc2[nH]5)C=C4)C=C3)cc1)C1=Cc2cc(S(F)(F)(F)(F)F)ccc2O[C@@H]1C(F)(F)F
REMARK SMILES IDX 10 1 9 2 8 3 7 4 6 5 5 6 4 7 3 8 2 9 1 10 72 11 73 12 87 13
REMARK SMILES IDX 74 14 86 15 75 16 85 17 76 18 84 19 83 20 88 21 89 22 90 23
REMARK SMILES IDX 91 24 77 25 78 26 79 27 80 28 81 29 82 30 11 31 12 32 13 33
REMARK SMILES IDX 14 34 15 35 16 36 17 37 18 38 19 39 71 40 20 41 70 42 21 43
REMARK SMILES IDX 22 44 23 45 64 46 24 47 69 48 63 49 65 50 25 51 68 52 62 53
REMARK SMILES IDX 61 54 26 56 52 57 35 58 51 59 36 60 39 61 50 62 66 63 37 64
REMARK SMILES IDX 38 65 49 67 67 68 40 69 27 70 28 71 33 72 29 73 30 74 32 75
REMARK SMILES IDX 34 76 31 77 53 78 54 79 59 80 55 81 56 82 58 83 60 84 57 85
REMARK SMILES IDX 41 86 42 87 47 88 43 89 44 90 46 91 48 92 45 93
REMARK H PARENT 65 55 39 66
REMARK Flexibility Score: inf
ROOT
ATOM      1  C   UNL A   1      31.619  28.859  25.194  1.00  0.00     0.188 C 
ENDROOT
BRANCH   1   2
ATOM      2  O   UNL A   1      31.259  27.699  25.930  1.00  0.00    -0.377 OA
BRANCH   2   3
ATOM      3  C   UNL A   1      30.939  26.649  25.031  1.00  0.00     0.188 C 
BRANCH   3   4
ATOM      4  C   UNL A   1      30.113  25.597  25.752  1.00  0.00     0.188 C 
BRANCH   4   5
ATOM      5  O   UNL A   1      30.926  24.925  26.702  1.00  0.00    -0.376 OA
BRANCH   5   6
ATOM      6  C   UNL A   1      30.476  23.587  26.848  1.00  0.00     0.202 C 
BRANCH   6   7
ATOM      7  C   UNL A   1      31.031  22.739  25.715  1.00  0.00     0.261 C 
BRANCH   7   8
ATOM      8  O   UNL A   1      32.354  22.331  26.033  1.00  0.00    -0.460 OA
BRANCH   8   9
ATOM      9  C   UNL A   1      33.458  22.907  25.352  1.00  0.00     0.338 C 
ATOM     10  O   UNL A   1      33.280  23.903  24.583  1.00  0.00    -0.246 OA
BRANCH   9  11
ATOM     11  C   UNL A   1      34.852  22.333  25.541  1.00  0.00     0.087 C 
ATOM     12  C   UNL A   1      35.124  21.061  25.140  1.00  0.00     0.027 C 
ATOM     13  C   UNL A   1      35.943  23.178  26.179  1.00  0.00     0.316 C 
ATOM     14  C   UNL A   1      34.034  20.215  24.503  1.00  0.00     0.019 A 
ATOM     15  O   UNL A   1      33.308  22.026  23.146  1.00  0.00    -0.475 OA
ATOM     16  C   UNL A   1      33.870  18.951  25.047  1.00  0.00     0.036 A 
ATOM     17  C   UNL A   1      33.212  20.673  23.566  1.00  0.00     0.128 A 
ATOM     18  C   UNL A   1      32.975  18.128  24.325  1.00  0.00     0.107 A 
ATOM     19  C   UNL A   1      32.269  19.850  22.999  1.00  0.00     0.048 A 
ATOM     20  C   UNL A   1      32.093  18.570  23.447  1.00  0.00     0.028 A 
BRANCH  13  21
ATOM     21  C   UNL A   1      37.095  23.339  25.201  1.00  0.00     0.430 C 
ATOM     22  F   UNL A   1      37.821  22.225  25.185  1.00  0.00    -0.167 F 
ATOM     23  F   UNL A   1      36.614  23.571  23.983  1.00  0.00    -0.167 F 
ATOM     24  F   UNL A   1      37.858  24.360  25.578  1.00  0.00    -0.167 F 
ENDBRANCH  13  21
BRANCH  18  25
ATOM     25  S   UNL A   1      33.044  16.344  24.625  1.00  0.00     0.310 S 
ATOM     26  F   UNL A   1      34.382  16.489  25.461  1.00  0.00    -0.094 F 
ATOM     27  F   UNL A   1      33.944  16.176  23.343  1.00  0.00    -0.094 F 
ATOM     28  F   UNL A   1      33.107  14.817  24.904  1.00  0.00    -0.094 F 
ATOM     29  F   UNL A   1      32.260  16.551  25.980  1.00  0.00    -0.094 F 
ATOM     30  F   UNL A   1      33.065  17.911  24.415  1.00  0.00    -0.094 F 
ENDBRANCH  18  25
ENDBRANCH   9  11
ENDBRANCH   8   9
ENDBRANCH   7   8
ENDBRANCH   6   7
ENDBRANCH   5   6
ENDBRANCH   4   5
ENDBRANCH   3   4
ENDBRANCH   2   3
ENDBRANCH   1   2
BRANCH   1  31
ATOM     31  C   UNL A   1      32.454  29.778  26.071  1.00  0.00     0.188 C 
BRANCH  31  32
ATOM     32  O   UNL A   1      31.612  30.430  27.009  1.00  0.00    -0.376 OA
BRANCH  32  33
ATOM     33  C   UNL A   1      31.457  31.792  26.639  1.00  0.00     0.202 C 
BRANCH  33  34
ATOM     34  C   UNL A   1      32.570  32.617  27.263  1.00  0.00     0.261 C 
BRANCH  34  35
ATOM     35  O   UNL A   1      32.085  33.918  27.561  1.00  0.00    -0.460 OA
BRANCH  35  36
ATOM     36  C   UNL A   1      32.821  34.768  28.427  1.00  0.00     0.338 C 
ATOM     37  O   UNL A   1      32.363  35.912  28.737  1.00  0.00    -0.246 OA
BRANCH  36  38
ATOM     38  C   UNL A   1      34.159  34.309  28.985  1.00  0.00     0.060 A 
ATOM     39  C   UNL A   1      34.071  33.493  30.101  1.00  0.00     0.016 A 
ATOM     40  C   UNL A   1      35.324  34.538  28.390  1.00  0.00     0.016 A 
ATOM     41  C   UNL A   1      35.320  33.192  30.692  1.00  0.00     0.010 A 
ATOM     42  C   UNL A   1      36.496  34.095  28.954  1.00  0.00     0.010 A 
ATOM     43  C   UNL A   1      36.487  33.334  30.089  1.00  0.00    -0.014 A 
BRANCH  43  44
ATOM     44  C   UNL A   1      37.751  32.687  30.630  1.00  0.00     0.031 A 
ATOM     45  C   UNL A   1      38.270  31.528  30.050  1.00  0.00     0.074 A 
ATOM     46  C   UNL A   1      38.223  33.239  31.809  1.00  0.00     0.049 A 
ATOM     47  N   UNL A   1      39.291  30.787  30.484  1.00  0.00    -0.248 NA
ATOM     48  C   UNL A   1      37.749  30.921  28.816  1.00  0.00     0.031 C 
ATOM     49  C   UNL A   1      37.711  34.414  32.396  1.00  0.00     0.029 A 
ATOM     50  N   UNL A   1      39.240  32.775  32.612  1.00  0.00    -0.354 N 
ATOM     51  C   UNL A   1      39.505  29.766  29.653  1.00  0.00     0.074 A 
ATOM     52  C   UNL A   1      38.513  29.833  28.571  1.00  0.00     0.031 C 
ATOM     53  C   UNL A   1      38.402  34.647  33.543  1.00  0.00     0.029 A 
ATOM     54  C   UNL A   1      39.357  33.624  33.691  1.00  0.00     0.049 A 
ATOM     55  H   UNL A   1      39.788  31.975  32.445  1.00  0.00     0.167 HD
ATOM     56  C   UNL A   1      40.490  28.782  29.752  1.00  0.00     0.037 A 
ATOM     57  C   UNL A   1      40.240  33.527  34.755  1.00  0.00     0.037 A 
ATOM     58  C   UNL A   1      41.401  28.710  30.794  1.00  0.00     0.049 A 
ATOM     59  C   UNL A   1      41.188  32.508  34.886  1.00  0.00     0.074 A 
ATOM     60  C   UNL A   1      42.405  27.729  30.906  1.00  0.00     0.029 A 
ATOM     61  N   UNL A   1      41.502  29.544  31.885  1.00  0.00    -0.354 N 
ATOM     62  N   UNL A   1      41.427  31.510  34.035  1.00  0.00    -0.248 NA
ATOM     63  C   UNL A   1      42.106  32.377  36.025  1.00  0.00     0.031 C 
ATOM     64  C   UNL A   1      43.097  27.963  32.053  1.00  0.00     0.029 A 
ATOM     65  C   UNL A   1      42.535  29.092  32.678  1.00  0.00     0.049 A 
ATOM     66  H   UNL A   1      40.935  30.328  32.068  1.00  0.00     0.167 HD
ATOM     67  C   UNL A   1      42.422  30.746  34.491  1.00  0.00     0.074 A 
ATOM     68  C   UNL A   1      42.868  31.288  35.781  1.00  0.00     0.031 C 
ATOM     69  C   UNL A   1      42.978  29.620  33.880  1.00  0.00     0.037 A 
BRANCH  56  70
ATOM     70  C   UNL A   1      40.568  27.731  28.657  1.00  0.00     0.057 A 
ATOM     71  C   UNL A   1      41.453  27.806  27.594  1.00  0.00     0.134 A 
ATOM     72  C   UNL A   1      39.822  26.650  28.857  1.00  0.00     0.134 A 
ATOM     73  F   UNL A   1      42.390  28.745  27.497  1.00  0.00    -0.206 F 
ATOM     74  C   UNL A   1      41.269  26.794  26.622  1.00  0.00     0.040 A 
ATOM     75  C   UNL A   1      39.796  25.637  27.930  1.00  0.00     0.040 A 
ATOM     76  F   UNL A   1      39.096  26.547  29.967  1.00  0.00    -0.206 F 
ATOM     77  C   UNL A   1      40.601  25.673  26.825  1.00  0.00     0.006 A 
ENDBRANCH  56  70
BRANCH  57  78
ATOM     78  C   UNL A   1      40.173  34.588  35.842  1.00  0.00     0.057 A 
ATOM     79  C   UNL A   1      40.952  35.731  35.779  1.00  0.00     0.134 A 
ATOM     80  C   UNL A   1      39.462  34.296  36.925  1.00  0.00     0.134 A 
ATOM     81  F   UNL A   1      41.473  36.193  34.647  1.00  0.00    -0.206 F 
ATOM     82  C   UNL A   1      41.143  36.363  37.031  1.00  0.00     0.040 A 
ATOM     83  C   UNL A   1      39.598  35.040  38.072  1.00  0.00     0.040 A 
ATOM     84  F   UNL A   1      38.610  33.275  36.899  1.00  0.00    -0.206 F 
ATOM     85  C   UNL A   1      40.397  36.150  38.099  1.00  0.00     0.006 A 
ENDBRANCH  57  78
BRANCH  69  86
ATOM     86  C   UNL A   1      44.141  28.931  34.577  1.00  0.00     0.057 A 
ATOM     87  C   UNL A   1      45.393  29.429  34.258  1.00  0.00     0.134 A 
ATOM     88  C   UNL A   1      43.987  27.995  35.505  1.00  0.00     0.134 A 
ATOM     89  F   UNL A   1      45.574  30.528  33.531  1.00  0.00    -0.206 F 
ATOM     90  C   UNL A   1      46.463  28.660  34.774  1.00  0.00     0.040 A 
ATOM     91  C   UNL A   1      45.081  27.380  36.066  1.00  0.00     0.040 A 
ATOM     92  F   UNL A   1      42.764  27.647  35.894  1.00  0.00    -0.206 F 
ATOM     93  C   UNL A   1      46.349  27.780  35.752  1.00  0.00     0.006 A 
ENDBRANCH  69  86
ENDBRANCH  43  44
ENDBRANCH  36  38
ENDBRANCH  35  36
ENDBRANCH  34  35
ENDBRANCH  33  34
ENDBRANCH  32  33
ENDBRANCH  31  32
ENDBRANCH   1  31
TORSDOF 22
ENDMDL
MODEL 2
REMARK VINA RESULT:     -11.0      0.769      5.900
REMARK SMILES O=C(OCCOCCOCCOCCOC(=O)c1ccc(-c2c3nc(c(-c4c(F)cccc4F)c4ccc([nH]4)c(-c4c(F)cccc4F)c4nc(c(-c5c(F)cccc5F)c5ccc2[nH]5)C=C4)C=C3)cc1)C1=Cc2cc(S(F)(F)(F)(F)F)ccc2O[C@@H]1C(F)(F)F
REMARK SMILES IDX 10 1 9 2 8 3 7 4 6 5 5 6 4 7 3 8 2 9 1 10 72 11 73 12 87 13
REMARK SMILES IDX 74 14 86 15 75 16 85 17 76 18 84 19 83 20 88 21 89 22 90 23
REMARK SMILES IDX 91 24 77 25 78 26 79 27 80 28 81 29 82 30 11 31 12 32 13 33
REMARK SMILES IDX 14 34 15 35 16 36 17 37 18 38 19 39 71 40 20 41 70 42 21 43
REMARK SMILES IDX 22 44 23 45 64 46 24 47 69 48 63 49 65 50 25 51 68 52 62 53
REMARK SMILES IDX 61 54 26 56 52 57 35 58 51 59 36 60 39 61 50 62 66 63 37 64
REMARK SMILES IDX 38 65 49 67 67 68 40 69 27 70 28 71 33 72 29 73 30 74 32 75
REMARK SMILES IDX 34 76 31 77 53 78 54 79 59 80 55 81 56 82 58 83 60 84 57 85
REMARK SMILES IDX 41 86 42 87 47 88 43 89 44 90 46 91 48 92 45 93
REMARK H PARENT 65 55 39 66
REMARK Flexibility Score: inf
ROOT
ATOM      1  C   UNL A   1      31.763  28.873  25.064  1.00  0.00     0.188 C 
ENDROOT
BRANCH   1   2
ATOM      2  O   UNL A   1      31.419  27.901  26.040  1.00  0.00    -0.377 OA
BRANCH   2   3
ATOM      3  C   UNL A   1      31.443  26.610  25.451  1.00  0.00     0.188 C 
BRANCH   3   4
ATOM      4  C   UNL A   1      30.388  25.734  26.104  1.00  0.00     0.188 C 
BRANCH   4   5
ATOM      5  O   UNL A   1      31.021  24.739  26.894  1.00  0.00    -0.376 OA
BRANCH   5   6
ATOM      6  C   UNL A   1      30.301  23.520  26.786  1.00  0.00     0.202 C 
BRANCH   6   7
ATOM      7  C   UNL A   1      30.869  22.694  25.643  1.00  0.00     0.261 C 
BRANCH   7   8
ATOM      8  O   UNL A   1      32.192  22.287  25.964  1.00  0.00    -0.460 OA
BRANCH   8   9
ATOM      9  C   UNL A   1      33.297  22.864  25.285  1.00  0.00     0.338 C 
ATOM     10  O   UNL A   1      33.114  23.829  24.479  1.00  0.00    -0.246 OA
BRANCH   9  11
ATOM     11  C   UNL A   1      34.699  22.327  25.521  1.00  0.00     0.087 C 
ATOM     12  C   UNL A   1      35.007  21.050  25.165  1.00  0.00     0.027 C 
ATOM     13  C   UNL A   1      35.756  23.215  26.157  1.00  0.00     0.316 C 
ATOM     14  C   UNL A   1      33.950  20.162  24.530  1.00  0.00     0.019 A 
ATOM     15  O   UNL A   1      33.215  21.915  23.105  1.00  0.00    -0.475 OA
ATOM     16  C   UNL A   1      33.802  18.911  25.109  1.00  0.00     0.036 A 
ATOM     17  C   UNL A   1      33.139  20.573  23.563  1.00  0.00     0.128 A 
ATOM     18  C   UNL A   1      32.942  18.047  24.393  1.00  0.00     0.107 A 
ATOM     19  C   UNL A   1      32.228  19.712  23.000  1.00  0.00     0.048 A 
ATOM     20  C   UNL A   1      32.070  18.442  23.483  1.00  0.00     0.028 A 
BRANCH  13  21
ATOM     21  C   UNL A   1      36.926  23.373  25.200  1.00  0.00     0.430 C 
ATOM     22  F   UNL A   1      36.467  23.580  23.969  1.00  0.00    -0.167 F 
ATOM     23  F   UNL A   1      37.669  24.410  25.575  1.00  0.00    -0.167 F 
ATOM     24  F   UNL A   1      37.667  22.269  25.218  1.00  0.00    -0.167 F 
ENDBRANCH  13  21
BRANCH  18  25
ATOM     25  S   UNL A   1      33.043  16.274  24.747  1.00  0.00     0.310 S 
ATOM     26  F   UNL A   1      34.348  16.477  25.625  1.00  0.00    -0.094 F 
ATOM     27  F   UNL A   1      33.991  16.093  23.503  1.00  0.00    -0.094 F 
ATOM     28  F   UNL A   1      33.133  14.758  25.074  1.00  0.00    -0.094 F 
ATOM     29  F   UNL A   1      32.207  16.501  26.069  1.00  0.00    -0.094 F 
ATOM     30  F   UNL A   1      33.034  17.834  24.492  1.00  0.00    -0.094 F 
ENDBRANCH  18  25
ENDBRANCH   9  11
ENDBRANCH   8   9
ENDBRANCH   7   8
ENDBRANCH   6   7
ENDBRANCH   5   6
ENDBRANCH   4   5
ENDBRANCH   3   4
ENDBRANCH   2   3
ENDBRANCH   1   2
BRANCH   1  31
ATOM     31  C   UNL A   1      32.542  30.000  25.722  1.00  0.00     0.188 C 
BRANCH  31  32
ATOM     32  O   UNL A   1      31.870  30.414  26.902  1.00  0.00    -0.376 OA
BRANCH  32  33
ATOM     33  C   UNL A   1      31.580  31.801  26.819  1.00  0.00     0.202 C 
BRANCH  33  34
ATOM     34  C   UNL A   1      32.687  32.592  27.494  1.00  0.00     0.261 C 
BRANCH  34  35
ATOM     35  O   UNL A   1      32.231  33.909  27.766  1.00  0.00    -0.460 OA
BRANCH  35  36
ATOM     36  C   UNL A   1      32.976  34.754  28.631  1.00  0.00     0.338 C 
ATOM     37  O   UNL A   1      32.547  35.918  28.908  1.00  0.00    -0.246 OA
BRANCH  36  38
ATOM     38  C   UNL A   1      34.287  34.265  29.226  1.00  0.00     0.060 A 
ATOM     39  C   UNL A   1      34.162  33.618  30.445  1.00  0.00     0.016 A 
ATOM     40  C   UNL A   1      35.450  34.314  28.588  1.00  0.00     0.016 A 
ATOM     41  C   UNL A   1      35.398  33.297  31.052  1.00  0.00     0.010 A 
ATOM     42  C   UNL A   1      36.598  33.856  29.190  1.00  0.00     0.010 A 
ATOM     43  C   UNL A   1      36.557  33.259  30.419  1.00  0.00    -0.014 A 
BRANCH  43  44
ATOM     44  C   UNL A   1      37.779  32.588  31.023  1.00  0.00     0.031 A 
ATOM     45  C   UNL A   1      38.491  33.193  32.061  1.00  0.00     0.074 A 
ATOM     46  C   UNL A   1      38.200  31.449  30.359  1.00  0.00     0.049 A 
ATOM     47  N   UNL A   1      39.639  32.787  32.605  1.00  0.00    -0.248 NA
ATOM     48  C   UNL A   1      38.063  34.422  32.746  1.00  0.00     0.031 C 
ATOM     49  C   UNL A   1      37.484  30.827  29.317  1.00  0.00     0.029 A 
ATOM     50  N   UNL A   1      39.352  30.724  30.569  1.00  0.00    -0.354 N 
ATOM     51  C   UNL A   1      40.001  33.614  33.587  1.00  0.00     0.074 A 
ATOM     52  C   UNL A   1      38.996  34.681  33.689  1.00  0.00     0.031 C 
ATOM     53  C   UNL A   1      38.199  29.751  28.897  1.00  0.00     0.029 A 
ATOM     54  C   UNL A   1      39.373  29.681  29.670  1.00  0.00     0.049 A 
ATOM     55  H   UNL A   1      40.041  30.918  31.244  1.00  0.00     0.167 HD
ATOM     56  C   UNL A   1      41.129  33.520  34.405  1.00  0.00     0.037 A 
ATOM     57  C   UNL A   1      40.354  28.713  29.516  1.00  0.00     0.037 A 
ATOM     58  C   UNL A   1      42.087  32.527  34.279  1.00  0.00     0.049 A 
ATOM     59  C   UNL A   1      41.512  28.652  30.295  1.00  0.00     0.074 A 
ATOM     60  C   UNL A   1      43.226  32.413  35.100  1.00  0.00     0.029 A 
ATOM     61  N   UNL A   1      42.122  31.498  33.365  1.00  0.00    -0.354 N 
ATOM     62  N   UNL A   1      41.853  29.456  31.303  1.00  0.00    -0.248 NA
ATOM     63  C   UNL A   1      42.573  27.651  30.120  1.00  0.00     0.031 C 
ATOM     64  C   UNL A   1      43.941  31.335  34.681  1.00  0.00     0.029 A 
ATOM     65  C   UNL A   1      43.263  30.759  33.590  1.00  0.00     0.049 A 
ATOM     66  H   UNL A   1      41.447  31.320  32.670  1.00  0.00     0.167 HD
ATOM     67  C   UNL A   1      43.024  29.073  31.820  1.00  0.00     0.074 A 
ATOM     68  C   UNL A   1      43.507  27.912  31.061  1.00  0.00     0.031 C 
ATOM     69  C   UNL A   1      43.705  29.645  32.895  1.00  0.00     0.037 A 
BRANCH  56  70
ATOM     70  C   UNL A   1      41.315  34.564  35.494  1.00  0.00     0.057 A 
ATOM     71  C   UNL A   1      40.839  34.408  36.786  1.00  0.00     0.134 A 
ATOM     72  C   UNL A   1      42.094  35.589  35.166  1.00  0.00     0.134 A 
ATOM     73  F   UNL A   1      40.276  33.283  37.219  1.00  0.00    -0.206 F 
ATOM     74  C   UNL A   1      41.007  35.552  37.601  1.00  0.00     0.040 A 
ATOM     75  C   UNL A   1      42.326  36.606  36.060  1.00  0.00     0.040 A 
ATOM     76  F   UNL A   1      42.656  35.630  33.961  1.00  0.00    -0.206 F 
ATOM     77  C   UNL A   1      41.836  36.545  37.336  1.00  0.00     0.006 A 
ENDBRANCH  56  70
BRANCH  57  78
ATOM     78  C   UNL A   1      40.159  27.659  28.438  1.00  0.00     0.057 A 
ATOM     79  C   UNL A   1      39.618  26.419  28.735  1.00  0.00     0.134 A 
ATOM     80  C   UNL A   1      40.674  27.918  27.242  1.00  0.00     0.134 A 
ATOM     81  F   UNL A   1      38.873  26.191  29.813  1.00  0.00    -0.206 F 
ATOM     82  C   UNL A   1      39.931  25.416  27.788  1.00  0.00     0.040 A 
ATOM     83  C   UNL A   1      40.826  26.916  26.315  1.00  0.00     0.040 A 
ATOM     84  F   UNL A   1      41.047  29.158  26.939  1.00  0.00    -0.206 F 
ATOM     85  C   UNL A   1      40.367  25.652  26.564  1.00  0.00     0.006 A 
ENDBRANCH  57  78
BRANCH  69  86
ATOM     86  C   UNL A   1      45.014  29.005  33.332  1.00  0.00     0.057 A 
ATOM     87  C   UNL A   1      44.886  27.986  34.262  1.00  0.00     0.134 A 
ATOM     88  C   UNL A   1      46.191  29.309  32.800  1.00  0.00     0.134 A 
ATOM     89  F   UNL A   1      43.711  27.481  34.628  1.00  0.00    -0.206 F 
ATOM     90  C   UNL A   1      46.119  27.530  34.785  1.00  0.00     0.040 A 
ATOM     91  C   UNL A   1      47.343  28.724  33.269  1.00  0.00     0.040 A 
ATOM     92  F   UNL A   1      46.257  30.187  31.804  1.00  0.00    -0.206 F 
ATOM     93  C   UNL A   1      47.296  27.753  34.230  1.00  0.00     0.006 A 
ENDBRANCH  69  86
ENDBRANCH  43  44
ENDBRANCH  36  38
ENDBRANCH  35  36
ENDBRANCH  34  35
ENDBRANCH  33  34
ENDBRANCH  32  33
ENDBRANCH  31  32
ENDBRANCH   1  31
TORSDOF 22
ENDMDL
MODEL 3
REMARK VINA RESULT:     -11.0      4.450      7.212
REMARK SMILES O=C(OCCOCCOCCOCCOC(=O)c1ccc(-c2c3nc(c(-c4c(F)cccc4F)c4ccc([nH]4)c(-c4c(F)cccc4F)c4nc(c(-c5c(F)cccc5F)c5ccc2[nH]5)C=C4)C=C3)cc1)C1=Cc2cc(S(F)(F)(F)(F)F)ccc2O[C@@H]1C(F)(F)F
REMARK SMILES IDX 10 1 9 2 8 3 7 4 6 5 5 6 4 7 3 8 2 9 1 10 72 11 73 12 87 13
REMARK SMILES IDX 74 14 86 15 75 16 85 17 76 18 84 19 83 20 88 21 89 22 90 23
REMARK SMILES IDX 91 24 77 25 78 26 79 27 80 28 81 29 82 30 11 31 12 32 13 33
REMARK SMILES IDX 14 34 15 35 16 36 17 37 18 38 19 39 71 40 20 41 70 42 21 43
REMARK SMILES IDX 22 44 23 45 64 46 24 47 69 48 63 49 65 50 25 51 68 52 62 53
REMARK SMILES IDX 61 54 26 56 52 57 35 58 51 59 36 60 39 61 50 62 66 63 37 64
REMARK SMILES IDX 38 65 49 67 67 68 40 69 27 70 28 71 33 72 29 73 30 74 32 75
REMARK SMILES IDX 34 76 31 77 53 78 54 79 59 80 55 81 56 82 58 83 60 84 57 85
REMARK SMILES IDX 41 86 42 87 47 88 43 89 44 90 46 91 48 92 45 93
REMARK H PARENT 65 55 39 66
REMARK Flexibility Score: inf
ROOT
ATOM      1  C   UNL A   1      34.487  33.923  28.795  1.00  0.00     0.188 C 
ENDROOT
BRANCH   1   2
ATOM      2  O   UNL A   1      33.318  33.378  28.202  1.00  0.00    -0.377 OA
BRANCH   2   3
ATOM      3  C   UNL A   1      33.642  32.160  27.548  1.00  0.00     0.188 C 
BRANCH   3   4
ATOM      4  C   UNL A   1      34.964  31.634  28.082  1.00  0.00     0.188 C 
BRANCH   4   5
ATOM      5  O   UNL A   1      35.190  30.325  27.581  1.00  0.00    -0.376 OA
BRANCH   5   6
ATOM      6  C   UNL A   1      34.042  29.886  26.870  1.00  0.00     0.202 C 
BRANCH   6   7
ATOM      7  C   UNL A   1      33.338  28.798  27.666  1.00  0.00     0.261 C 
BRANCH   7   8
ATOM      8  O   UNL A   1      33.243  27.621  26.877  1.00  0.00    -0.460 OA
BRANCH   8   9
ATOM      9  C   UNL A   1      31.993  27.237  26.323  1.00  0.00     0.338 C 
ATOM     10  O   UNL A   1      30.990  27.058  27.081  1.00  0.00    -0.246 OA
BRANCH   9  11
ATOM     11  C   UNL A   1      31.856  27.039  24.822  1.00  0.00     0.087 C 
ATOM     12  C   UNL A   1      32.358  25.919  24.234  1.00  0.00     0.027 C 
ATOM     13  C   UNL A   1      31.158  28.093  23.977  1.00  0.00     0.316 C 
ATOM     14  C   UNL A   1      33.057  24.866  25.079  1.00  0.00     0.019 A 
ATOM     15  O   UNL A   1      31.378  24.980  26.757  1.00  0.00    -0.475 OA
ATOM     16  C   UNL A   1      34.300  24.465  24.617  1.00  0.00     0.036 A 
ATOM     17  C   UNL A   1      32.579  24.427  26.237  1.00  0.00     0.128 A 
ATOM     18  C   UNL A   1      34.845  23.366  25.319  1.00  0.00     0.107 A 
ATOM     19  C   UNL A   1      33.235  23.445  26.938  1.00  0.00     0.048 A 
ATOM     20  C   UNL A   1      34.440  22.961  26.509  1.00  0.00     0.028 A 
BRANCH  13  21
ATOM     21  C   UNL A   1      29.957  27.471  23.283  1.00  0.00     0.430 C 
ATOM     22  F   UNL A   1      29.577  26.383  23.946  1.00  0.00    -0.167 F 
ATOM     23  F   UNL A   1      28.956  28.347  23.260  1.00  0.00    -0.167 F 
ATOM     24  F   UNL A   1      30.285  27.141  22.038  1.00  0.00    -0.167 F 
ENDBRANCH  13  21
BRANCH  18  25
ATOM     25  S   UNL A   1      36.192  22.448  24.532  1.00  0.00     0.310 S 
ATOM     26  F   UNL A   1      35.800  23.008  23.101  1.00  0.00    -0.094 F 
ATOM     27  F   UNL A   1      35.202  21.253  24.259  1.00  0.00    -0.094 F 
ATOM     28  F   UNL A   1      37.355  21.679  23.845  1.00  0.00    -0.094 F 
ATOM     29  F   UNL A   1      37.130  23.708  24.689  1.00  0.00    -0.094 F 
ATOM     30  F   UNL A   1      34.993  23.284  25.132  1.00  0.00    -0.094 F 
ENDBRANCH  18  25
ENDBRANCH   9  11
ENDBRANCH   8   9
ENDBRANCH   7   8
ENDBRANCH   6   7
ENDBRANCH   5   6
ENDBRANCH   4   5
ENDBRANCH   3   4
ENDBRANCH   2   3
ENDBRANCH   1   2
BRANCH   1  31
ATOM     31  C   UNL A   1      34.093  34.938  29.854  1.00  0.00     0.188 C 
BRANCH  31  32
ATOM     32  O   UNL A   1      33.625  34.259  31.010  1.00  0.00    -0.376 OA
BRANCH  32  33
ATOM     33  C   UNL A   1      34.570  34.407  32.060  1.00  0.00     0.202 C 
BRANCH  33  34
ATOM     34  C   UNL A   1      34.412  33.264  33.048  1.00  0.00     0.261 C 
BRANCH  34  35
ATOM     35  O   UNL A   1      35.170  32.147  32.606  1.00  0.00    -0.460 OA
BRANCH  35  36
ATOM     36  C   UNL A   1      36.473  31.925  33.124  1.00  0.00     0.338 C 
ATOM     37  O   UNL A   1      36.690  32.037  34.371  1.00  0.00    -0.246 OA
BRANCH  36  38
ATOM     38  C   UNL A   1      37.610  31.550  32.187  1.00  0.00     0.060 A 
ATOM     39  C   UNL A   1      38.588  30.750  32.754  1.00  0.00     0.016 A 
ATOM     40  C   UNL A   1      37.619  31.833  30.889  1.00  0.00     0.016 A 
ATOM     41  C   UNL A   1      39.705  30.529  31.916  1.00  0.00     0.010 A 
ATOM     42  C   UNL A   1      38.683  31.466  30.101  1.00  0.00     0.010 A 
ATOM     43  C   UNL A   1      39.713  30.725  30.610  1.00  0.00    -0.014 A 
BRANCH  43  44
ATOM     44  C   UNL A   1      40.807  30.159  29.721  1.00  0.00     0.031 A 
ATOM     45  C   UNL A   1      40.793  28.820  29.328  1.00  0.00     0.074 A 
ATOM     46  C   UNL A   1      41.866  31.021  29.490  1.00  0.00     0.049 A 
ATOM     47  N   UNL A   1      41.737  28.158  28.657  1.00  0.00    -0.248 NA
ATOM     48  C   UNL A   1      39.684  27.893  29.602  1.00  0.00     0.031 C 
ATOM     49  C   UNL A   1      41.885  32.376  29.876  1.00  0.00     0.029 A 
ATOM     50  N   UNL A   1      43.061  30.744  28.866  1.00  0.00    -0.354 N 
ATOM     51  C   UNL A   1      41.355  26.896  28.448  1.00  0.00     0.074 A 
ATOM     52  C   UNL A   1      40.033  26.705  29.058  1.00  0.00     0.031 C 
ATOM     53  C   UNL A   1      43.080  32.904  29.500  1.00  0.00     0.029 A 
ATOM     54  C   UNL A   1      43.826  31.890  28.873  1.00  0.00     0.049 A 
ATOM     55  H   UNL A   1      43.325  29.877  28.482  1.00  0.00     0.167 HD
ATOM     56  C   UNL A   1      42.057  25.898  27.770  1.00  0.00     0.037 A 
ATOM     57  C   UNL A   1      45.105  32.059  28.367  1.00  0.00     0.037 A 
ATOM     58  C   UNL A   1      43.319  26.080  27.227  1.00  0.00     0.049 A 
ATOM     59  C   UNL A   1      45.833  31.043  27.741  1.00  0.00     0.074 A 
ATOM     60  C   UNL A   1      44.037  25.087  26.534  1.00  0.00     0.029 A 
ATOM     61  N   UNL A   1      44.094  27.218  27.255  1.00  0.00    -0.354 N 
ATOM     62  N   UNL A   1      45.435  29.794  27.497  1.00  0.00    -0.248 NA
ATOM     63  C   UNL A   1      47.201  31.202  27.230  1.00  0.00     0.031 C 
ATOM     64  C   UNL A   1      45.232  25.615  26.158  1.00  0.00     0.029 A 
ATOM     65  C   UNL A   1      45.281  26.947  26.610  1.00  0.00     0.049 A 
ATOM     66  H   UNL A   1      43.842  28.078  27.665  1.00  0.00     0.167 HD
ATOM     67  C   UNL A   1      46.397  29.121  26.862  1.00  0.00     0.074 A 
ATOM     68  C   UNL A   1      47.549  30.015  26.688  1.00  0.00     0.031 C 
ATOM     69  C   UNL A   1      46.358  27.798  26.418  1.00  0.00     0.037 A 
BRANCH  56  70
ATOM     70  C   UNL A   1      41.401  24.535  27.621  1.00  0.00     0.057 A 
ATOM     71  C   UNL A   1      41.700  23.455  28.435  1.00  0.00     0.134 A 
ATOM     72  C   UNL A   1      40.408  24.480  26.740  1.00  0.00     0.134 A 
ATOM     73  F   UNL A   1      42.503  23.544  29.491  1.00  0.00    -0.206 F 
ATOM     74  C   UNL A   1      41.072  22.250  28.042  1.00  0.00     0.040 A 
ATOM     75  C   UNL A   1      39.747  23.299  26.504  1.00  0.00     0.040 A 
ATOM     76  F   UNL A   1      40.050  25.579  26.082  1.00  0.00    -0.206 F 
ATOM     77  C   UNL A   1      40.032  22.176  27.231  1.00  0.00     0.006 A 
ENDBRANCH  56  70
BRANCH  57  78
ATOM     78  C   UNL A   1      45.755  33.427  28.502  1.00  0.00     0.057 A 
ATOM     79  C   UNL A   1      45.660  34.371  27.493  1.00  0.00     0.134 A 
ATOM     80  C   UNL A   1      46.546  33.617  29.551  1.00  0.00     0.134 A 
ATOM     81  F   UNL A   1      44.708  34.347  26.564  1.00  0.00    -0.206 F 
ATOM     82  C   UNL A   1      46.668  35.363  27.539  1.00  0.00     0.040 A 
ATOM     83  C   UNL A   1      47.410  34.684  29.591  1.00  0.00     0.040 A 
ATOM     84  F   UNL A   1      46.502  32.767  30.573  1.00  0.00    -0.206 F 
ATOM     85  C   UNL A   1      47.412  35.625  28.598  1.00  0.00     0.006 A 
ENDBRANCH  57  78
BRANCH  69  86
ATOM     86  C   UNL A   1      47.571  27.258  25.677  1.00  0.00     0.057 A 
ATOM     87  C   UNL A   1      47.558  27.458  24.307  1.00  0.00     0.134 A 
ATOM     88  C   UNL A   1      48.623  26.727  26.286  1.00  0.00     0.134 A 
ATOM     89  F   UNL A   1      46.647  28.207  23.691  1.00  0.00    -0.206 F 
ATOM     90  C   UNL A   1      48.601  26.793  23.621  1.00  0.00     0.040 A 
ATOM     91  C   UNL A   1      49.671  26.217  25.556  1.00  0.00     0.040 A 
ATOM     92  F   UNL A   1      48.666  26.686  27.614  1.00  0.00    -0.206 F 
ATOM     93  C   UNL A   1      49.696  26.326  24.194  1.00  0.00     0.006 A 
ENDBRANCH  69  86
ENDBRANCH  43  44
ENDBRANCH  36  38
ENDBRANCH  35  36
ENDBRANCH  34  35
ENDBRANCH  33  34
ENDBRANCH  32  33
ENDBRANCH  31  32
ENDBRANCH   1  31
TORSDOF 22
ENDMDL
