MODEL 1
REMARK VINA RESULT:     -10.7      0.000      0.000
REMARK SMILES CCC1C[NH+]([C@@H](Cc2c[nH]c3ccccc23)C(=O)OCCOCCOCCOCCOC(=O)c2ccc(-c3c4nc(c(-c5c(F)cccc5F)c5ccc([nH]5)c(-c5c(F)cccc5F)c5nc(c(-c6c(F)cccc6F)c6ccc3[nH]6)C=C5)C=C4)cc2)C1
REMARK SMILES IDX 25 1 24 2 23 3 22 4 21 5 20 6 19 7 17 8 18 9 6 10 5 11 3 12
REMARK SMILES IDX 4 13 88 14 2 16 1 17 7 18 8 19 9 20 16 21 10 22 11 23 15 24
REMARK SMILES IDX 12 26 14 27 13 28 26 29 27 30 28 31 29 32 30 33 31 34 32 35
REMARK SMILES IDX 33 36 34 37 35 38 87 39 36 40 86 41 37 42 38 43 39 44 80 45
REMARK SMILES IDX 40 46 85 47 79 48 81 49 41 50 84 51 78 52 77 53 42 55 68 56
REMARK SMILES IDX 51 57 67 58 52 59 55 60 66 61 82 62 53 63 54 64 65 66 83 67
REMARK SMILES IDX 56 68 43 69 44 70 49 71 45 72 46 73 48 74 50 75 47 76 69 77
REMARK SMILES IDX 70 78 75 79 71 80 72 81 74 82 76 83 73 84 57 85 58 86 63 87
REMARK SMILES IDX 59 88 60 89 62 90 64 91 61 92
REMARK H PARENT 5 15 10 25 81 54 55 65
REMARK Flexibility Score: inf
ROOT
ATOM      1  O   UNL A   1      43.052  18.578  25.338  1.00  0.00    -0.377 OA
ENDROOT
BRANCH   1   2
ATOM      2  C   UNL A   1      42.303  18.977  26.492  1.00  0.00     0.188 C 
BRANCH   2   3
ATOM      3  C   UNL A   1      40.954  19.591  26.171  1.00  0.00     0.188 C 
BRANCH   3   4
ATOM      4  O   UNL A   1      40.428  20.573  27.058  1.00  0.00    -0.376 OA
BRANCH   4   5
ATOM      5  C   UNL A   1      40.343  21.902  26.523  1.00  0.00     0.202 C 
BRANCH   5   6
ATOM      6  C   UNL A   1      38.987  22.646  26.537  1.00  0.00     0.261 C 
BRANCH   6   7
ATOM      7  O   UNL A   1      38.246  22.544  25.299  1.00  0.00    -0.459 OA
BRANCH   7   8
ATOM      8  C   UNL A   1      37.368  21.514  25.146  1.00  0.00     0.365 C 
ATOM      9  O   UNL A   1      37.718  20.360  24.923  1.00  0.00    -0.245 OA
BRANCH   8  10
ATOM     10  C   UNL A   1      35.887  21.943  25.312  1.00  0.00     0.299 C 
BRANCH  10  11
ATOM     11  N   UNL A   1      35.692  23.415  25.572  1.00  0.00    -0.322 N 
ATOM     12  C   UNL A   1      33.605  23.797  25.323  1.00  0.00     0.099 C 
ATOM     13  C   UNL A   1      34.898  24.196  24.584  1.00  0.00     0.272 C 
ATOM     14  C   UNL A   1      34.560  23.685  26.538  1.00  0.00     0.272 C 
ATOM     15  H   UNL A   1      36.670  23.648  25.741  1.00  0.00     0.348 HD
BRANCH  12  16
ATOM     16  C   UNL A   1      32.424  24.742  25.176  1.00  0.00     0.012 C 
ATOM     17  C   UNL A   1      31.114  23.979  25.316  1.00  0.00     0.004 C 
ENDBRANCH  12  16
ENDBRANCH  10  11
BRANCH  10  18
ATOM     18  C   UNL A   1      35.004  21.011  24.472  1.00  0.00     0.115 C 
BRANCH  18  19
ATOM     19  C   UNL A   1      34.163  19.887  25.028  1.00  0.00    -0.016 A 
ATOM     20  C   UNL A   1      33.373  20.109  26.147  1.00  0.00     0.087 A 
ATOM     21  C   UNL A   1      33.970  18.498  24.680  1.00  0.00     0.003 A 
ATOM     22  N   UNL A   1      32.722  18.961  26.473  1.00  0.00    -0.361 N 
ATOM     23  C   UNL A   1      33.080  17.956  25.614  1.00  0.00     0.046 A 
ATOM     24  C   UNL A   1      34.404  17.623  23.657  1.00  0.00     0.010 A 
ATOM     25  H   UNL A   1      32.086  18.865  27.218  1.00  0.00     0.166 HD
ATOM     26  C   UNL A   1      32.663  16.620  25.597  1.00  0.00     0.026 A 
ATOM     27  C   UNL A   1      33.991  16.290  23.607  1.00  0.00     0.001 A 
ATOM     28  C   UNL A   1      33.148  15.794  24.585  1.00  0.00     0.002 A 
ENDBRANCH  18  19
ENDBRANCH  10  18
ENDBRANCH   8  10
ENDBRANCH   7   8
ENDBRANCH   6   7
ENDBRANCH   5   6
ENDBRANCH   4   5
ENDBRANCH   3   4
ENDBRANCH   2   3
ENDBRANCH   1   2
BRANCH   1  29
ATOM     29  C   UNL A   1      44.460  18.462  25.506  1.00  0.00     0.188 C 
BRANCH  29  30
ATOM     30  C   UNL A   1      45.347  19.151  24.455  1.00  0.00     0.188 C 
BRANCH  30  31
ATOM     31  O   UNL A   1      44.697  20.158  23.702  1.00  0.00    -0.376 OA
BRANCH  31  32
ATOM     32  C   UNL A   1      44.920  21.512  24.091  1.00  0.00     0.202 C 
BRANCH  32  33
ATOM     33  C   UNL A   1      43.943  22.202  25.069  1.00  0.00     0.261 C 
BRANCH  33  34
ATOM     34  O   UNL A   1      43.493  23.525  24.718  1.00  0.00    -0.460 OA
BRANCH  34  35
ATOM     35  C   UNL A   1      44.242  24.568  25.112  1.00  0.00     0.338 C 
ATOM     36  O   UNL A   1      45.358  24.871  24.715  1.00  0.00    -0.246 OA
BRANCH  35  37
ATOM     37  C   UNL A   1      43.417  25.426  25.988  1.00  0.00     0.060 A 
ATOM     38  C   UNL A   1      43.655  26.807  25.996  1.00  0.00     0.016 A 
ATOM     39  C   UNL A   1      42.438  24.873  26.817  1.00  0.00     0.016 A 
ATOM     40  C   UNL A   1      42.954  27.634  26.873  1.00  0.00     0.010 A 
ATOM     41  C   UNL A   1      41.754  25.700  27.714  1.00  0.00     0.010 A 
ATOM     42  C   UNL A   1      42.043  27.076  27.778  1.00  0.00    -0.014 A 
BRANCH  42  43
ATOM     43  C   UNL A   1      41.568  27.889  28.925  1.00  0.00     0.031 A 
ATOM     44  C   UNL A   1      42.300  27.776  30.232  1.00  0.00     0.074 A 
ATOM     45  C   UNL A   1      40.532  28.736  28.813  1.00  0.00     0.049 A 
ATOM     46  N   UNL A   1      42.050  28.352  31.379  1.00  0.00    -0.248 NA
ATOM     47  C   UNL A   1      43.469  26.882  30.246  1.00  0.00     0.031 C 
ATOM     48  C   UNL A   1      39.768  28.969  27.593  1.00  0.00     0.029 A 
ATOM     49  N   UNL A   1      39.940  29.549  29.748  1.00  0.00    -0.354 N 
ATOM     50  C   UNL A   1      43.023  27.884  32.253  1.00  0.00     0.074 A 
ATOM     51  C   UNL A   1      43.842  26.949  31.513  1.00  0.00     0.031 C 
ATOM     52  C   UNL A   1      38.790  29.851  27.860  1.00  0.00     0.029 A 
ATOM     53  C   UNL A   1      38.839  30.215  29.273  1.00  0.00     0.049 A 
ATOM     54  H   UNL A   1      40.273  29.645  30.669  1.00  0.00     0.167 HD
ATOM     55  C   UNL A   1      43.218  28.207  33.554  1.00  0.00     0.037 A 
ATOM     56  C   UNL A   1      37.948  31.003  29.905  1.00  0.00     0.037 A 
ATOM     57  C   UNL A   1      42.391  29.128  34.289  1.00  0.00     0.049 A 
ATOM     58  C   UNL A   1      38.135  31.299  31.368  1.00  0.00     0.074 A 
ATOM     59  C   UNL A   1      42.520  29.544  35.602  1.00  0.00     0.029 A 
ATOM     60  N   UNL A   1      41.267  29.763  33.779  1.00  0.00    -0.354 N 
ATOM     61  N   UNL A   1      39.075  30.878  32.180  1.00  0.00    -0.248 NA
ATOM     62  C   UNL A   1      37.146  32.182  32.000  1.00  0.00     0.031 C 
ATOM     63  C   UNL A   1      41.435  30.373  35.907  1.00  0.00     0.029 A 
ATOM     64  C   UNL A   1      40.669  30.535  34.763  1.00  0.00     0.049 A 
ATOM     65  H   UNL A   1      40.941  29.676  32.854  1.00  0.00     0.167 HD
ATOM     66  C   UNL A   1      38.805  31.460  33.412  1.00  0.00     0.074 A 
ATOM     67  C   UNL A   1      37.620  32.275  33.235  1.00  0.00     0.031 C 
ATOM     68  C   UNL A   1      39.482  31.335  34.581  1.00  0.00     0.037 A 
BRANCH  55  69
ATOM     69  C   UNL A   1      44.340  27.508  34.267  1.00  0.00     0.057 A 
ATOM     70  C   UNL A   1      45.637  28.037  34.327  1.00  0.00     0.134 A 
ATOM     71  C   UNL A   1      44.123  26.269  34.885  1.00  0.00     0.134 A 
ATOM     72  F   UNL A   1      45.919  29.212  33.744  1.00  0.00    -0.206 F 
ATOM     73  C   UNL A   1      46.685  27.339  34.931  1.00  0.00     0.040 A 
ATOM     74  C   UNL A   1      45.154  25.578  35.523  1.00  0.00     0.040 A 
ATOM     75  F   UNL A   1      42.906  25.704  34.873  1.00  0.00    -0.206 F 
ATOM     76  C   UNL A   1      46.443  26.107  35.534  1.00  0.00     0.006 A 
ENDBRANCH  55  69
BRANCH  56  77
ATOM     77  C   UNL A   1      36.788  31.547  29.153  1.00  0.00     0.057 A 
ATOM     78  C   UNL A   1      35.660  30.767  28.883  1.00  0.00     0.134 A 
ATOM     79  C   UNL A   1      36.772  32.877  28.712  1.00  0.00     0.134 A 
ATOM     80  F   UNL A   1      35.622  29.480  29.260  1.00  0.00    -0.206 F 
ATOM     81  C   UNL A   1      34.558  31.287  28.199  1.00  0.00     0.040 A 
ATOM     82  C   UNL A   1      35.668  33.417  28.051  1.00  0.00     0.040 A 
ATOM     83  F   UNL A   1      37.821  33.681  28.943  1.00  0.00    -0.206 F 
ATOM     84  C   UNL A   1      34.556  32.620  27.790  1.00  0.00     0.006 A 
ENDBRANCH  56  77
BRANCH  68  85
ATOM     85  C   UNL A   1      38.975  32.117  35.760  1.00  0.00     0.057 A 
ATOM     86  C   UNL A   1      38.162  31.540  36.744  1.00  0.00     0.134 A 
ATOM     87  C   UNL A   1      39.344  33.458  35.935  1.00  0.00     0.134 A 
ATOM     88  F   UNL A   1      37.761  30.264  36.632  1.00  0.00    -0.206 F 
ATOM     89  C   UNL A   1      37.715  32.273  37.845  1.00  0.00     0.040 A 
ATOM     90  C   UNL A   1      38.931  34.191  37.048  1.00  0.00     0.040 A 
ATOM     91  F   UNL A   1      40.130  34.072  35.037  1.00  0.00    -0.206 F 
ATOM     92  C   UNL A   1      38.106  33.602  38.003  1.00  0.00     0.006 A 
ENDBRANCH  68  85
ENDBRANCH  42  43
ENDBRANCH  35  37
ENDBRANCH  34  35
ENDBRANCH  33  34
ENDBRANCH  32  33
ENDBRANCH  31  32
ENDBRANCH  30  31
ENDBRANCH  29  30
ENDBRANCH   1  29
TORSDOF 24
ENDMDL
MODEL 2
REMARK VINA RESULT:     -10.2      1.382      2.784
REMARK SMILES CCC1C[NH+]([C@@H](Cc2c[nH]c3ccccc23)C(=O)OCCOCCOCCOCCOC(=O)c2ccc(-c3c4nc(c(-c5c(F)cccc5F)c5ccc([nH]5)c(-c5c(F)cccc5F)c5nc(c(-c6c(F)cccc6F)c6ccc3[nH]6)C=C5)C=C4)cc2)C1
REMARK SMILES IDX 25 1 24 2 23 3 22 4 21 5 20 6 19 7 17 8 18 9 6 10 5 11 3 12
REMARK SMILES IDX 4 13 88 14 2 16 1 17 7 18 8 19 9 20 16 21 10 22 11 23 15 24
REMARK SMILES IDX 12 26 14 27 13 28 26 29 27 30 28 31 29 32 30 33 31 34 32 35
REMARK SMILES IDX 33 36 34 37 35 38 87 39 36 40 86 41 37 42 38 43 39 44 80 45
REMARK SMILES IDX 40 46 85 47 79 48 81 49 41 50 84 51 78 52 77 53 42 55 68 56
REMARK SMILES IDX 51 57 67 58 52 59 55 60 66 61 82 62 53 63 54 64 65 66 83 67
REMARK SMILES IDX 56 68 43 69 44 70 49 71 45 72 46 73 48 74 50 75 47 76 69 77
REMARK SMILES IDX 70 78 75 79 71 80 72 81 74 82 76 83 73 84 57 85 58 86 63 87
REMARK SMILES IDX 59 88 60 89 62 90 64 91 61 92
REMARK H PARENT 5 15 10 25 81 54 55 65
REMARK Flexibility Score: inf
ROOT
ATOM      1  O   UNL A   1      43.010  19.483  25.000  1.00  0.00    -0.377 OA
ENDROOT
BRANCH   1   2
ATOM      2  C   UNL A   1      42.351  18.895  26.128  1.00  0.00     0.188 C 
BRANCH   2   3
ATOM      3  C   UNL A   1      40.994  19.500  26.436  1.00  0.00     0.188 C 
BRANCH   3   4
ATOM      4  O   UNL A   1      40.946  20.826  26.953  1.00  0.00    -0.376 OA
BRANCH   4   5
ATOM      5  C   UNL A   1      40.324  21.797  26.097  1.00  0.00     0.202 C 
BRANCH   5   6
ATOM      6  C   UNL A   1      39.016  22.487  26.549  1.00  0.00     0.261 C 
BRANCH   6   7
ATOM      7  O   UNL A   1      38.039  22.648  25.495  1.00  0.00    -0.459 OA
BRANCH   7   8
ATOM      8  C   UNL A   1      37.014  21.756  25.414  1.00  0.00     0.365 C 
ATOM      9  O   UNL A   1      37.177  20.563  25.173  1.00  0.00    -0.245 OA
BRANCH   8  10
ATOM     10  C   UNL A   1      35.626  22.392  25.686  1.00  0.00     0.299 C 
BRANCH  10  11
ATOM     11  N   UNL A   1      34.730  21.569  26.577  1.00  0.00    -0.322 N 
ATOM     12  C   UNL A   1      32.795  22.469  26.477  1.00  0.00     0.099 C 
ATOM     13  C   UNL A   1      33.877  22.291  27.561  1.00  0.00     0.272 C 
ATOM     14  C   UNL A   1      33.437  21.183  25.896  1.00  0.00     0.272 C 
ATOM     15  H   UNL A   1      35.438  20.910  26.900  1.00  0.00     0.348 HD
BRANCH  12  16
ATOM     16  C   UNL A   1      31.367  22.633  26.969  1.00  0.00     0.012 C 
ATOM     17  C   UNL A   1      30.639  23.683  26.142  1.00  0.00     0.004 C 
ENDBRANCH  12  16
ENDBRANCH  10  11
BRANCH  10  18
ATOM     18  C   UNL A   1      35.763  23.919  25.643  1.00  0.00     0.115 C 
BRANCH  18  19
ATOM     19  C   UNL A   1      34.720  24.864  25.099  1.00  0.00    -0.016 A 
ATOM     20  C   UNL A   1      34.400  26.015  25.805  1.00  0.00     0.087 A 
ATOM     21  C   UNL A   1      33.862  24.867  23.936  1.00  0.00     0.003 A 
ATOM     22  N   UNL A   1      33.433  26.699  25.139  1.00  0.00    -0.361 N 
ATOM     23  C   UNL A   1      33.068  26.016  24.009  1.00  0.00     0.046 A 
ATOM     24  C   UNL A   1      33.679  24.059  22.789  1.00  0.00     0.010 A 
ATOM     25  H   UNL A   1      33.051  27.560  25.426  1.00  0.00     0.166 HD
ATOM     26  C   UNL A   1      32.104  26.350  23.050  1.00  0.00     0.026 A 
ATOM     27  C   UNL A   1      32.737  24.377  21.809  1.00  0.00     0.001 A 
ATOM     28  C   UNL A   1      31.943  25.500  21.958  1.00  0.00     0.002 A 
ENDBRANCH  18  19
ENDBRANCH  10  18
ENDBRANCH   8  10
ENDBRANCH   7   8
ENDBRANCH   6   7
ENDBRANCH   5   6
ENDBRANCH   4   5
ENDBRANCH   3   4
ENDBRANCH   2   3
ENDBRANCH   1   2
BRANCH   1  29
ATOM     29  C   UNL A   1      44.173  18.815  24.526  1.00  0.00     0.188 C 
BRANCH  29  30
ATOM     30  C   UNL A   1      45.532  19.347  25.013  1.00  0.00     0.188 C 
BRANCH  30  31
ATOM     31  O   UNL A   1      45.851  20.649  24.560  1.00  0.00    -0.376 OA
BRANCH  31  32
ATOM     32  C   UNL A   1      45.848  21.698  25.527  1.00  0.00     0.202 C 
BRANCH  32  33
ATOM     33  C   UNL A   1      44.522  22.122  26.196  1.00  0.00     0.261 C 
BRANCH  33  34
ATOM     34  O   UNL A   1      43.665  23.003  25.446  1.00  0.00    -0.460 OA
BRANCH  34  35
ATOM     35  C   UNL A   1      44.094  24.256  25.220  1.00  0.00     0.338 C 
ATOM     36  O   UNL A   1      44.879  24.627  24.359  1.00  0.00    -0.246 OA
BRANCH  35  37
ATOM     37  C   UNL A   1      43.312  25.174  26.074  1.00  0.00     0.060 A 
ATOM     38  C   UNL A   1      43.676  26.526  26.120  1.00  0.00     0.016 A 
ATOM     39  C   UNL A   1      42.247  24.704  26.846  1.00  0.00     0.016 A 
ATOM     40  C   UNL A   1      43.015  27.402  26.980  1.00  0.00     0.010 A 
ATOM     41  C   UNL A   1      41.602  25.578  27.728  1.00  0.00     0.010 A 
ATOM     42  C   UNL A   1      42.015  26.919  27.832  1.00  0.00    -0.014 A 
BRANCH  42  43
ATOM     43  C   UNL A   1      41.565  27.755  28.971  1.00  0.00     0.031 A 
ATOM     44  C   UNL A   1      42.295  27.634  30.278  1.00  0.00     0.074 A 
ATOM     45  C   UNL A   1      40.552  28.630  28.853  1.00  0.00     0.049 A 
ATOM     46  N   UNL A   1      42.063  28.229  31.420  1.00  0.00    -0.248 NA
ATOM     47  C   UNL A   1      43.439  26.709  30.299  1.00  0.00     0.031 C 
ATOM     48  C   UNL A   1      39.792  28.872  27.632  1.00  0.00     0.029 A 
ATOM     49  N   UNL A   1      39.984  29.467  29.780  1.00  0.00    -0.354 N 
ATOM     50  C   UNL A   1      43.024  27.742  32.297  1.00  0.00     0.074 A 
ATOM     51  C   UNL A   1      43.816  26.778  31.565  1.00  0.00     0.031 C 
ATOM     52  C   UNL A   1      38.840  29.783  27.891  1.00  0.00     0.029 A 
ATOM     53  C   UNL A   1      38.900  30.159  29.301  1.00  0.00     0.049 A 
ATOM     54  H   UNL A   1      40.321  29.563  30.700  1.00  0.00     0.167 HD
ATOM     55  C   UNL A   1      43.230  28.072  33.594  1.00  0.00     0.037 A 
ATOM     56  C   UNL A   1      38.033  30.977  29.927  1.00  0.00     0.037 A 
ATOM     57  C   UNL A   1      42.429  29.023  34.322  1.00  0.00     0.049 A 
ATOM     58  C   UNL A   1      38.231  31.282  31.386  1.00  0.00     0.074 A 
ATOM     59  C   UNL A   1      42.572  29.447  35.631  1.00  0.00     0.029 A 
ATOM     60  N   UNL A   1      41.323  29.683  33.807  1.00  0.00    -0.354 N 
ATOM     61  N   UNL A   1      39.159  30.843  32.201  1.00  0.00    -0.248 NA
ATOM     62  C   UNL A   1      37.267  32.197  32.011  1.00  0.00     0.031 C 
ATOM     63  C   UNL A   1      41.511  30.308  35.929  1.00  0.00     0.029 A 
ATOM     64  C   UNL A   1      40.748  30.480  34.785  1.00  0.00     0.049 A 
ATOM     65  H   UNL A   1      40.994  29.597  32.883  1.00  0.00     0.167 HD
ATOM     66  C   UNL A   1      38.908  31.443  33.428  1.00  0.00     0.074 A 
ATOM     67  C   UNL A   1      37.746  32.289  33.244  1.00  0.00     0.031 C 
ATOM     68  C   UNL A   1      39.584  31.311  34.597  1.00  0.00     0.037 A 
BRANCH  55  69
ATOM     69  C   UNL A   1      44.334  27.349  34.313  1.00  0.00     0.057 A 
ATOM     70  C   UNL A   1      44.128  26.126  34.967  1.00  0.00     0.134 A 
ATOM     71  C   UNL A   1      45.621  27.899  34.371  1.00  0.00     0.134 A 
ATOM     72  F   UNL A   1      42.916  25.549  34.965  1.00  0.00    -0.206 F 
ATOM     73  C   UNL A   1      45.147  25.504  35.692  1.00  0.00     0.040 A 
ATOM     74  C   UNL A   1      46.657  27.269  35.062  1.00  0.00     0.040 A 
ATOM     75  F   UNL A   1      45.894  29.064  33.762  1.00  0.00    -0.206 F 
ATOM     76  C   UNL A   1      46.416  26.074  35.737  1.00  0.00     0.006 A 
ENDBRANCH  55  69
BRANCH  56  77
ATOM     77  C   UNL A   1      36.887  31.546  29.171  1.00  0.00     0.057 A 
ATOM     78  C   UNL A   1      35.714  30.815  28.961  1.00  0.00     0.134 A 
ATOM     79  C   UNL A   1      36.932  32.853  28.666  1.00  0.00     0.134 A 
ATOM     80  F   UNL A   1      35.617  29.551  29.401  1.00  0.00    -0.206 F 
ATOM     81  C   UNL A   1      34.626  31.360  28.274  1.00  0.00     0.040 A 
ATOM     82  C   UNL A   1      35.844  33.419  28.000  1.00  0.00     0.040 A 
ATOM     83  F   UNL A   1      38.026  33.609  28.837  1.00  0.00    -0.206 F 
ATOM     84  C   UNL A   1      34.686  32.670  27.800  1.00  0.00     0.006 A 
ENDBRANCH  56  77
BRANCH  68  85
ATOM     85  C   UNL A   1      39.100  32.118  35.769  1.00  0.00     0.057 A 
ATOM     86  C   UNL A   1      38.237  31.586  36.736  1.00  0.00     0.134 A 
ATOM     87  C   UNL A   1      39.542  33.435  35.956  1.00  0.00     0.134 A 
ATOM     88  F   UNL A   1      37.765  30.335  36.612  1.00  0.00    -0.206 F 
ATOM     89  C   UNL A   1      37.812  32.341  37.831  1.00  0.00     0.040 A 
ATOM     90  C   UNL A   1      39.150  34.188  37.063  1.00  0.00     0.040 A 
ATOM     91  F   UNL A   1      40.378  34.005  35.075  1.00  0.00    -0.206 F 
ATOM     92  C   UNL A   1      38.276  33.644  38.001  1.00  0.00     0.006 A 
ENDBRANCH  68  85
ENDBRANCH  42  43
ENDBRANCH  35  37
ENDBRANCH  34  35
ENDBRANCH  33  34
ENDBRANCH  32  33
ENDBRANCH  31  32
ENDBRANCH  30  31
ENDBRANCH  29  30
ENDBRANCH   1  29
TORSDOF 24
ENDMDL
MODEL 3
REMARK VINA RESULT:     -10.1      1.500      6.635
REMARK SMILES CCC1C[NH+]([C@@H](Cc2c[nH]c3ccccc23)C(=O)OCCOCCOCCOCCOC(=O)c2ccc(-c3c4nc(c(-c5c(F)cccc5F)c5ccc([nH]5)c(-c5c(F)cccc5F)c5nc(c(-c6c(F)cccc6F)c6ccc3[nH]6)C=C5)C=C4)cc2)C1
REMARK SMILES IDX 25 1 24 2 23 3 22 4 21 5 20 6 19 7 17 8 18 9 6 10 5 11 3 12
REMARK SMILES IDX 4 13 88 14 2 16 1 17 7 18 8 19 9 20 16 21 10 22 11 23 15 24
REMARK SMILES IDX 12 26 14 27 13 28 26 29 27 30 28 31 29 32 30 33 31 34 32 35
REMARK SMILES IDX 33 36 34 37 35 38 87 39 36 40 86 41 37 42 38 43 39 44 80 45
REMARK SMILES IDX 40 46 85 47 79 48 81 49 41 50 84 51 78 52 77 53 42 55 68 56
REMARK SMILES IDX 51 57 67 58 52 59 55 60 66 61 82 62 53 63 54 64 65 66 83 67
REMARK SMILES IDX 56 68 43 69 44 70 49 71 45 72 46 73 48 74 50 75 47 76 69 77
REMARK SMILES IDX 70 78 75 79 71 80 72 81 74 82 76 83 73 84 57 85 58 86 63 87
REMARK SMILES IDX 59 88 60 89 62 90 64 91 61 92
REMARK H PARENT 5 15 10 25 81 54 55 65
REMARK Flexibility Score: inf
ROOT
ATOM      1  O   UNL A   1      43.070  19.871  24.996  1.00  0.00    -0.377 OA
ENDROOT
BRANCH   1   2
ATOM      2  C   UNL A   1      42.367  19.035  25.924  1.00  0.00     0.188 C 
BRANCH   2   3
ATOM      3  C   UNL A   1      41.019  19.583  26.353  1.00  0.00     0.188 C 
BRANCH   3   4
ATOM      4  O   UNL A   1      40.982  20.833  27.034  1.00  0.00    -0.376 OA
BRANCH   4   5
ATOM      5  C   UNL A   1      40.515  21.944  26.255  1.00  0.00     0.202 C 
BRANCH   5   6
ATOM      6  C   UNL A   1      39.160  22.604  26.602  1.00  0.00     0.261 C 
BRANCH   6   7
ATOM      7  O   UNL A   1      38.245  22.695  25.486  1.00  0.00    -0.459 OA
BRANCH   7   8
ATOM      8  C   UNL A   1      37.220  21.801  25.410  1.00  0.00     0.365 C 
ATOM      9  O   UNL A   1      37.382  20.610  25.167  1.00  0.00    -0.245 OA
BRANCH   8  10
ATOM     10  C   UNL A   1      35.833  22.436  25.688  1.00  0.00     0.299 C 
BRANCH  10  11
ATOM     11  N   UNL A   1      35.054  21.767  26.792  1.00  0.00    -0.322 N 
ATOM     12  C   UNL A   1      33.046  22.477  26.626  1.00  0.00     0.099 C 
ATOM     13  C   UNL A   1      34.189  22.624  27.650  1.00  0.00     0.272 C 
ATOM     14  C   UNL A   1      33.768  21.146  26.296  1.00  0.00     0.272 C 
ATOM     15  H   UNL A   1      35.831  21.250  27.204  1.00  0.00     0.348 HD
BRANCH  12  16
ATOM     16  C   UNL A   1      31.634  22.640  27.162  1.00  0.00     0.012 C 
ATOM     17  C   UNL A   1      30.928  23.789  26.457  1.00  0.00     0.004 C 
ENDBRANCH  12  16
ENDBRANCH  10  11
BRANCH  10  18
ATOM     18  C   UNL A   1      35.896  23.933  25.355  1.00  0.00     0.115 C 
BRANCH  18  19
ATOM     19  C   UNL A   1      34.826  24.698  24.617  1.00  0.00    -0.016 A 
ATOM     20  C   UNL A   1      34.408  24.263  23.367  1.00  0.00     0.087 A 
ATOM     21  C   UNL A   1      34.069  25.900  24.886  1.00  0.00     0.003 A 
ATOM     22  N   UNL A   1      33.455  25.108  22.890  1.00  0.00    -0.361 N 
ATOM     23  C   UNL A   1      33.242  26.126  23.781  1.00  0.00     0.046 A 
ATOM     24  C   UNL A   1      33.940  26.817  25.955  1.00  0.00     0.010 A 
ATOM     25  H   UNL A   1      32.988  25.003  22.030  1.00  0.00     0.166 HD
ATOM     26  C   UNL A   1      32.366  27.214  23.682  1.00  0.00     0.026 A 
ATOM     27  C   UNL A   1      33.062  27.901  25.890  1.00  0.00     0.001 A 
ATOM     28  C   UNL A   1      32.305  28.105  24.752  1.00  0.00     0.002 A 
ENDBRANCH  18  19
ENDBRANCH  10  18
ENDBRANCH   8  10
ENDBRANCH   7   8
ENDBRANCH   6   7
ENDBRANCH   5   6
ENDBRANCH   4   5
ENDBRANCH   3   4
ENDBRANCH   2   3
ENDBRANCH   1   2
BRANCH   1  29
ATOM     29  C   UNL A   1      44.341  19.406  24.560  1.00  0.00     0.188 C 
BRANCH  29  30
ATOM     30  C   UNL A   1      45.565  19.841  25.384  1.00  0.00     0.188 C 
BRANCH  30  31
ATOM     31  O   UNL A   1      46.044  21.139  25.088  1.00  0.00    -0.376 OA
BRANCH  31  32
ATOM     32  C   UNL A   1      45.744  22.176  26.021  1.00  0.00     0.202 C 
BRANCH  32  33
ATOM     33  C   UNL A   1      44.287  22.659  26.193  1.00  0.00     0.261 C 
BRANCH  33  34
ATOM     34  O   UNL A   1      43.812  23.647  25.259  1.00  0.00    -0.460 OA
BRANCH  34  35
ATOM     35  C   UNL A   1      44.349  24.877  25.319  1.00  0.00     0.338 C 
ATOM     36  O   UNL A   1      45.240  25.331  24.615  1.00  0.00    -0.246 OA
BRANCH  35  37
ATOM     37  C   UNL A   1      43.553  25.684  26.266  1.00  0.00     0.060 A 
ATOM     38  C   UNL A   1      43.896  27.029  26.459  1.00  0.00     0.016 A 
ATOM     39  C   UNL A   1      42.497  25.116  26.982  1.00  0.00     0.016 A 
ATOM     40  C   UNL A   1      43.221  27.796  27.408  1.00  0.00     0.010 A 
ATOM     41  C   UNL A   1      41.838  25.879  27.952  1.00  0.00     0.010 A 
ATOM     42  C   UNL A   1      42.229  27.207  28.201  1.00  0.00    -0.014 A 
BRANCH  42  43
ATOM     43  C   UNL A   1      41.767  27.908  29.424  1.00  0.00     0.031 A 
ATOM     44  C   UNL A   1      40.526  28.751  29.338  1.00  0.00     0.074 A 
ATOM     45  C   UNL A   1      42.406  27.783  30.599  1.00  0.00     0.049 A 
ATOM     46  N   UNL A   1      39.952  29.484  30.256  1.00  0.00    -0.248 NA
ATOM     47  C   UNL A   1      39.846  28.772  28.034  1.00  0.00     0.031 C 
ATOM     48  C   UNL A   1      43.592  26.965  30.824  1.00  0.00     0.029 A 
ATOM     49  N   UNL A   1      42.149  28.355  31.819  1.00  0.00    -0.354 N 
ATOM     50  C   UNL A   1      38.851  30.063  29.638  1.00  0.00     0.074 A 
ATOM     51  C   UNL A   1      38.859  29.624  28.259  1.00  0.00     0.031 C 
ATOM     52  C   UNL A   1      43.975  27.106  32.104  1.00  0.00     0.029 A 
ATOM     53  C   UNL A   1      43.084  28.049  32.775  1.00  0.00     0.049 A 
ATOM     54  H   UNL A   1      41.369  28.930  31.993  1.00  0.00     0.167 HD
ATOM     55  C   UNL A   1      37.914  30.883  30.173  1.00  0.00     0.037 A 
ATOM     56  C   UNL A   1      43.232  28.497  34.036  1.00  0.00     0.037 A 
ATOM     57  C   UNL A   1      37.919  31.328  31.542  1.00  0.00     0.049 A 
ATOM     58  C   UNL A   1      42.225  29.463  34.596  1.00  0.00     0.074 A 
ATOM     59  C   UNL A   1      37.001  32.137  32.188  1.00  0.00     0.029 A 
ATOM     60  N   UNL A   1      38.900  31.016  32.472  1.00  0.00    -0.354 N 
ATOM     61  N   UNL A   1      41.169  29.981  34.017  1.00  0.00    -0.248 NA
ATOM     62  C   UNL A   1      42.424  29.900  35.984  1.00  0.00     0.031 C 
ATOM     63  C   UNL A   1      37.465  32.372  33.487  1.00  0.00     0.029 A 
ATOM     64  C   UNL A   1      38.633  31.650  33.675  1.00  0.00     0.049 A 
ATOM     65  H   UNL A   1      39.673  30.430  32.301  1.00  0.00     0.167 HD
ATOM     66  C   UNL A   1      40.565  30.788  34.973  1.00  0.00     0.074 A 
ATOM     67  C   UNL A   1      41.367  30.678  36.174  1.00  0.00     0.031 C 
ATOM     68  C   UNL A   1      39.443  31.544  34.865  1.00  0.00     0.037 A 
BRANCH  55  69
ATOM     69  C   UNL A   1      36.846  31.390  29.246  1.00  0.00     0.057 A 
ATOM     70  C   UNL A   1      36.847  32.698  28.743  1.00  0.00     0.134 A 
ATOM     71  C   UNL A   1      35.783  30.558  28.868  1.00  0.00     0.134 A 
ATOM     72  F   UNL A   1      37.826  33.554  29.077  1.00  0.00    -0.206 F 
ATOM     73  C   UNL A   1      35.807  33.176  27.943  1.00  0.00     0.040 A 
ATOM     74  C   UNL A   1      34.757  31.012  28.039  1.00  0.00     0.040 A 
ATOM     75  F   UNL A   1      35.719  29.291  29.304  1.00  0.00    -0.206 F 
ATOM     76  C   UNL A   1      34.760  32.330  27.586  1.00  0.00     0.006 A 
ENDBRANCH  55  69
BRANCH  56  77
ATOM     77  C   UNL A   1      44.397  28.047  34.842  1.00  0.00     0.057 A 
ATOM     78  C   UNL A   1      44.337  26.897  35.635  1.00  0.00     0.134 A 
ATOM     79  C   UNL A   1      45.611  28.746  34.810  1.00  0.00     0.134 A 
ATOM     80  F   UNL A   1      43.197  26.197  35.725  1.00  0.00    -0.206 F 
ATOM     81  C   UNL A   1      45.441  26.459  36.371  1.00  0.00     0.040 A 
ATOM     82  C   UNL A   1      46.729  28.306  35.519  1.00  0.00     0.040 A 
ATOM     83  F   UNL A   1      45.736  29.854  34.064  1.00  0.00    -0.206 F 
ATOM     84  C   UNL A   1      46.645  27.159  36.306  1.00  0.00     0.006 A 
ENDBRANCH  56  77
BRANCH  68  85
ATOM     85  C   UNL A   1      38.999  32.298  36.087  1.00  0.00     0.057 A 
ATOM     86  C   UNL A   1      39.356  33.633  36.311  1.00  0.00     0.134 A 
ATOM     87  C   UNL A   1      38.161  31.688  37.032  1.00  0.00     0.134 A 
ATOM     88  F   UNL A   1      40.165  34.274  35.453  1.00  0.00    -0.206 F 
ATOM     89  C   UNL A   1      38.918  34.327  37.441  1.00  0.00     0.040 A 
ATOM     90  C   UNL A   1      37.692  32.381  38.148  1.00  0.00     0.040 A 
ATOM     91  F   UNL A   1      37.771  30.414  36.875  1.00  0.00    -0.206 F 
ATOM     92  C   UNL A   1      38.077  33.703  38.360  1.00  0.00     0.006 A 
ENDBRANCH  68  85
ENDBRANCH  42  43
ENDBRANCH  35  37
ENDBRANCH  34  35
ENDBRANCH  33  34
ENDBRANCH  32  33
ENDBRANCH  31  32
ENDBRANCH  30  31
ENDBRANCH  29  30
ENDBRANCH   1  29
TORSDOF 24
ENDMDL
