MODEL 1
REMARK VINA RESULT:     -10.1      0.000      0.000
REMARK SMILES O=C(OCCOCCOCCOCCOC(=O)[C@@H]1CSc2ccccc21)c1ccc(-c2c3nc(c(-c4c(F)cccc4F)c4ccc([nH]4)c(-c4c(F)cccc4F)c4nc(c(-c5c(F)cccc5F)c5ccc2[nH]5)C=C4)C=C3)cc1
REMARK SMILES IDX 8 1 7 2 6 3 5 4 4 5 3 6 2 7 1 8 27 9 28 10 80 11 29 12 79 13
REMARK SMILES IDX 30 14 31 15 32 16 73 17 33 18 78 19 72 20 74 21 34 22 77 23
REMARK SMILES IDX 71 24 70 25 35 27 61 28 44 29 60 30 45 31 48 32 59 33 75 34
REMARK SMILES IDX 46 35 47 36 58 38 76 39 49 40 36 41 37 42 42 43 38 44 39 45
REMARK SMILES IDX 41 46 43 47 40 48 62 49 63 50 68 51 64 52 65 53 67 54 69 55
REMARK SMILES IDX 66 56 50 57 51 58 56 59 52 60 53 61 55 62 57 63 54 64 9 65
REMARK SMILES IDX 10 66 11 67 12 68 13 69 14 70 15 71 16 72 17 73 18 74 19 75
REMARK SMILES IDX 26 76 20 77 21 78 25 79 22 80 24 81 23 82
REMARK H PARENT 74 26 48 37
REMARK Flexibility Score: inf
ROOT
ATOM      1  C   UNL A   1      44.118  19.228  24.837  1.00  0.00     0.188 C 
ENDROOT
BRANCH   1   2
ATOM      2  C   UNL A   1      45.542  18.907  25.285  1.00  0.00     0.188 C 
BRANCH   2   3
ATOM      3  O   UNL A   1      46.354  20.086  25.246  1.00  0.00    -0.376 OA
BRANCH   3   4
ATOM      4  C   UNL A   1      45.708  21.255  24.755  1.00  0.00     0.202 C 
BRANCH   4   5
ATOM      5  C   UNL A   1      45.886  22.497  25.621  1.00  0.00     0.261 C 
BRANCH   5   6
ATOM      6  O   UNL A   1      45.170  23.646  25.157  1.00  0.00    -0.460 OA
BRANCH   6   7
ATOM      7  C   UNL A   1      43.872  23.984  25.337  1.00  0.00     0.338 C 
ATOM      8  O   UNL A   1      43.045  23.445  24.600  1.00  0.00    -0.246 OA
BRANCH   7   9
ATOM      9  C   UNL A   1      43.361  25.024  26.301  1.00  0.00     0.060 A 
ATOM     10  C   UNL A   1      42.284  24.630  27.122  1.00  0.00     0.016 A 
ATOM     11  C   UNL A   1      43.846  26.325  26.462  1.00  0.00     0.016 A 
ATOM     12  C   UNL A   1      41.729  25.491  28.073  1.00  0.00     0.010 A 
ATOM     13  C   UNL A   1      43.272  27.208  27.380  1.00  0.00     0.010 A 
ATOM     14  C   UNL A   1      42.234  26.785  28.213  1.00  0.00    -0.014 A 
BRANCH  14  15
ATOM     15  C   UNL A   1      41.871  27.637  29.361  1.00  0.00     0.031 A 
ATOM     16  C   UNL A   1      42.520  27.473  30.698  1.00  0.00     0.074 A 
ATOM     17  C   UNL A   1      40.830  28.472  29.179  1.00  0.00     0.049 A 
ATOM     18  N   UNL A   1      42.273  28.119  31.808  1.00  0.00    -0.248 NA
ATOM     19  C   UNL A   1      43.567  26.447  30.813  1.00  0.00     0.031 C 
ATOM     20  C   UNL A   1      40.097  28.633  27.918  1.00  0.00     0.029 A 
ATOM     21  N   UNL A   1      40.177  29.299  30.050  1.00  0.00    -0.354 N 
ATOM     22  C   UNL A   1      43.147  27.597  32.754  1.00  0.00     0.074 A 
ATOM     23  C   UNL A   1      43.904  26.552  32.094  1.00  0.00     0.031 C 
ATOM     24  C   UNL A   1      39.071  29.475  28.110  1.00  0.00     0.029 A 
ATOM     25  C   UNL A   1      39.076  29.909  29.500  1.00  0.00     0.049 A 
ATOM     26  H   UNL A   1      40.467  29.444  30.980  1.00  0.00     0.167 HD
ATOM     27  C   UNL A   1      43.295  27.972  34.047  1.00  0.00     0.037 A 
ATOM     28  C   UNL A   1      38.165  30.722  30.063  1.00  0.00     0.037 A 
ATOM     29  C   UNL A   1      42.495  28.993  34.680  1.00  0.00     0.049 A 
ATOM     30  C   UNL A   1      38.348  31.106  31.501  1.00  0.00     0.074 A 
ATOM     31  C   UNL A   1      42.603  29.506  35.961  1.00  0.00     0.029 A 
ATOM     32  N   UNL A   1      41.419  29.636  34.082  1.00  0.00    -0.354 N 
ATOM     33  N   UNL A   1      39.265  30.707  32.349  1.00  0.00    -0.248 NA
ATOM     34  C   UNL A   1      37.391  32.070  32.055  1.00  0.00     0.031 C 
ATOM     35  C   UNL A   1      41.562  30.420  36.155  1.00  0.00     0.029 A 
ATOM     36  C   UNL A   1      40.838  30.519  34.976  1.00  0.00     0.049 A 
ATOM     37  H   UNL A   1      41.115  29.486  33.157  1.00  0.00     0.167 HD
ATOM     38  C   UNL A   1      39.026  31.405  33.523  1.00  0.00     0.074 A 
ATOM     39  C   UNL A   1      37.876  32.253  33.274  1.00  0.00     0.031 C 
ATOM     40  C   UNL A   1      39.701  31.359  34.697  1.00  0.00     0.037 A 
BRANCH  27  41
ATOM     41  C   UNL A   1      44.354  27.294  34.869  1.00  0.00     0.057 A 
ATOM     42  C   UNL A   1      44.051  26.172  35.652  1.00  0.00     0.134 A 
ATOM     43  C   UNL A   1      45.655  27.806  34.959  1.00  0.00     0.134 A 
ATOM     44  F   UNL A   1      42.822  25.635  35.627  1.00  0.00    -0.206 F 
ATOM     45  C   UNL A   1      44.997  25.594  36.502  1.00  0.00     0.040 A 
ATOM     46  C   UNL A   1      46.616  27.224  35.788  1.00  0.00     0.040 A 
ATOM     47  F   UNL A   1      46.016  28.878  34.236  1.00  0.00    -0.206 F 
ATOM     48  C   UNL A   1      46.286  26.119  36.570  1.00  0.00     0.006 A 
ENDBRANCH  27  41
BRANCH  28  49
ATOM     49  C   UNL A   1      37.041  31.252  29.256  1.00  0.00     0.057 A 
ATOM     50  C   UNL A   1      35.912  30.475  28.972  1.00  0.00     0.134 A 
ATOM     51  C   UNL A   1      37.073  32.553  28.743  1.00  0.00     0.134 A 
ATOM     52  F   UNL A   1      35.830  29.212  29.417  1.00  0.00    -0.206 F 
ATOM     53  C   UNL A   1      34.853  30.974  28.213  1.00  0.00     0.040 A 
ATOM     54  C   UNL A   1      36.011  33.075  28.004  1.00  0.00     0.040 A 
ATOM     55  F   UNL A   1      38.126  33.348  28.986  1.00  0.00    -0.206 F 
ATOM     56  C   UNL A   1      34.897  32.283  27.736  1.00  0.00     0.006 A 
ENDBRANCH  28  49
BRANCH  40  57
ATOM     57  C   UNL A   1      39.240  32.291  35.776  1.00  0.00     0.057 A 
ATOM     58  C   UNL A   1      38.297  31.867  36.719  1.00  0.00     0.134 A 
ATOM     59  C   UNL A   1      39.704  33.609  35.866  1.00  0.00     0.134 A 
ATOM     60  F   UNL A   1      37.810  30.616  36.682  1.00  0.00    -0.206 F 
ATOM     61  C   UNL A   1      37.827  32.722  37.714  1.00  0.00     0.040 A 
ATOM     62  C   UNL A   1      39.262  34.465  36.874  1.00  0.00     0.040 A 
ATOM     63  F   UNL A   1      40.623  34.068  35.003  1.00  0.00    -0.206 F 
ATOM     64  C   UNL A   1      38.315  34.025  37.798  1.00  0.00     0.006 A 
ENDBRANCH  40  57
ENDBRANCH  14  15
ENDBRANCH   7   9
ENDBRANCH   6   7
ENDBRANCH   5   6
ENDBRANCH   4   5
ENDBRANCH   3   4
ENDBRANCH   2   3
ENDBRANCH   1   2
BRANCH   1  65
ATOM     65  O   UNL A   1      43.146  18.284  25.274  1.00  0.00    -0.377 OA
BRANCH  65  66
ATOM     66  C   UNL A   1      42.126  18.776  26.132  1.00  0.00     0.188 C 
BRANCH  66  67
ATOM     67  C   UNL A   1      42.244  20.230  26.643  1.00  0.00     0.188 C 
BRANCH  67  68
ATOM     68  O   UNL A   1      41.289  20.566  27.639  1.00  0.00    -0.376 OA
BRANCH  68  69
ATOM     69  C   UNL A   1      40.443  21.663  27.316  1.00  0.00     0.202 C 
BRANCH  69  70
ATOM     70  C   UNL A   1      39.875  21.617  25.894  1.00  0.00     0.261 C 
BRANCH  70  71
ATOM     71  O   UNL A   1      38.454  21.837  25.767  1.00  0.00    -0.463 OA
BRANCH  71  72
ATOM     72  C   UNL A   1      37.712  21.000  24.984  1.00  0.00     0.314 C 
ATOM     73  O   UNL A   1      37.848  19.796  24.948  1.00  0.00    -0.252 OA
BRANCH  72  74
ATOM     74  C   UNL A   1      36.678  21.818  24.201  1.00  0.00     0.140 C 
ATOM     75  C   UNL A   1      36.932  23.335  24.249  1.00  0.00     0.095 C 
ATOM     76  C   UNL A   1      35.304  21.597  24.763  1.00  0.00    -0.019 A 
ATOM     77  S   UNL A   1      35.848  24.076  25.502  1.00  0.00    -0.125 SA
ATOM     78  C   UNL A   1      34.798  22.661  25.515  1.00  0.00     0.011 A 
ATOM     79  C   UNL A   1      34.606  20.399  24.667  1.00  0.00     0.006 A 
ATOM     80  C   UNL A   1      33.606  22.541  26.203  1.00  0.00     0.015 A 
ATOM     81  C   UNL A   1      33.406  20.270  25.360  1.00  0.00     0.000 A 
ATOM     82  C   UNL A   1      32.912  21.332  26.130  1.00  0.00     0.001 A 
ENDBRANCH  72  74
ENDBRANCH  71  72
ENDBRANCH  70  71
ENDBRANCH  69  70
ENDBRANCH  68  69
ENDBRANCH  67  68
ENDBRANCH  66  67
ENDBRANCH  65  66
ENDBRANCH   1  65
TORSDOF 20
ENDMDL
MODEL 2
REMARK VINA RESULT:      -9.6      0.891      6.310
REMARK SMILES O=C(OCCOCCOCCOCCOC(=O)[C@@H]1CSc2ccccc21)c1ccc(-c2c3nc(c(-c4c(F)cccc4F)c4ccc([nH]4)c(-c4c(F)cccc4F)c4nc(c(-c5c(F)cccc5F)c5ccc2[nH]5)C=C4)C=C3)cc1
REMARK SMILES IDX 8 1 7 2 6 3 5 4 4 5 3 6 2 7 1 8 27 9 28 10 80 11 29 12 79 13
REMARK SMILES IDX 30 14 31 15 32 16 73 17 33 18 78 19 72 20 74 21 34 22 77 23
REMARK SMILES IDX 71 24 70 25 35 27 61 28 44 29 60 30 45 31 48 32 59 33 75 34
REMARK SMILES IDX 46 35 47 36 58 38 76 39 49 40 36 41 37 42 42 43 38 44 39 45
REMARK SMILES IDX 41 46 43 47 40 48 62 49 63 50 68 51 64 52 65 53 67 54 69 55
REMARK SMILES IDX 66 56 50 57 51 58 56 59 52 60 53 61 55 62 57 63 54 64 9 65
REMARK SMILES IDX 10 66 11 67 12 68 13 69 14 70 15 71 16 72 17 73 18 74 19 75
REMARK SMILES IDX 26 76 20 77 21 78 25 79 22 80 24 81 23 82
REMARK H PARENT 74 26 48 37
REMARK Flexibility Score: inf
ROOT
ATOM      1  C   UNL A   1      44.303  19.070  24.756  1.00  0.00     0.188 C 
ENDROOT
BRANCH   1   2
ATOM      2  C   UNL A   1      45.734  18.859  25.246  1.00  0.00     0.188 C 
BRANCH   2   3
ATOM      3  O   UNL A   1      46.404  20.116  25.386  1.00  0.00    -0.376 OA
BRANCH   3   4
ATOM      4  C   UNL A   1      45.631  21.261  25.041  1.00  0.00     0.202 C 
BRANCH   4   5
ATOM      5  C   UNL A   1      45.656  22.384  26.070  1.00  0.00     0.261 C 
BRANCH   5   6
ATOM      6  O   UNL A   1      45.138  23.631  25.594  1.00  0.00    -0.460 OA
BRANCH   6   7
ATOM      7  C   UNL A   1      43.858  24.067  25.534  1.00  0.00     0.338 C 
ATOM      8  O   UNL A   1      43.172  23.664  24.592  1.00  0.00    -0.246 OA
BRANCH   7   9
ATOM      9  C   UNL A   1      43.226  25.065  26.469  1.00  0.00     0.060 A 
ATOM     10  C   UNL A   1      42.065  24.633  27.143  1.00  0.00     0.016 A 
ATOM     11  C   UNL A   1      43.673  26.364  26.733  1.00  0.00     0.016 A 
ATOM     12  C   UNL A   1      41.392  25.454  28.054  1.00  0.00     0.010 A 
ATOM     13  C   UNL A   1      42.985  27.207  27.609  1.00  0.00     0.010 A 
ATOM     14  C   UNL A   1      41.862  26.745  28.298  1.00  0.00    -0.014 A 
BRANCH  14  15
ATOM     15  C   UNL A   1      41.358  27.550  29.426  1.00  0.00     0.031 A 
ATOM     16  C   UNL A   1      40.213  28.499  29.266  1.00  0.00     0.074 A 
ATOM     17  C   UNL A   1      42.070  27.490  30.568  1.00  0.00     0.049 A 
ATOM     18  N   UNL A   1      39.690  29.302  30.156  1.00  0.00    -0.248 NA
ATOM     19  C   UNL A   1      39.582  28.569  27.940  1.00  0.00     0.031 C 
ATOM     20  C   UNL A   1      43.248  26.640  30.776  1.00  0.00     0.029 A 
ATOM     21  N   UNL A   1      41.949  28.180  31.742  1.00  0.00    -0.354 N 
ATOM     22  C   UNL A   1      38.653  29.962  29.509  1.00  0.00     0.074 A 
ATOM     23  C   UNL A   1      38.646  29.491  28.138  1.00  0.00     0.031 C 
ATOM     24  C   UNL A   1      43.763  26.889  31.989  1.00  0.00     0.029 A 
ATOM     25  C   UNL A   1      42.955  27.912  32.639  1.00  0.00     0.049 A 
ATOM     26  H   UNL A   1      41.213  28.807  31.928  1.00  0.00     0.167 HD
ATOM     27  C   UNL A   1      37.791  30.870  30.028  1.00  0.00     0.037 A 
ATOM     28  C   UNL A   1      43.200  28.443  33.849  1.00  0.00     0.037 A 
ATOM     29  C   UNL A   1      37.853  31.343  31.390  1.00  0.00     0.049 A 
ATOM     30  C   UNL A   1      42.236  29.456  34.389  1.00  0.00     0.074 A 
ATOM     31  C   UNL A   1      36.991  32.205  32.046  1.00  0.00     0.029 A 
ATOM     32  N   UNL A   1      38.852  31.012  32.295  1.00  0.00    -0.354 N 
ATOM     33  N   UNL A   1      41.176  29.972  33.814  1.00  0.00    -0.248 NA
ATOM     34  C   UNL A   1      42.482  29.943  35.751  1.00  0.00     0.031 C 
ATOM     35  C   UNL A   1      37.497  32.435  33.329  1.00  0.00     0.029 A 
ATOM     36  C   UNL A   1      38.644  31.673  33.494  1.00  0.00     0.049 A 
ATOM     37  H   UNL A   1      39.599  30.396  32.112  1.00  0.00     0.167 HD
ATOM     38  C   UNL A   1      40.601  30.808  34.759  1.00  0.00     0.074 A 
ATOM     39  C   UNL A   1      41.433  30.728  35.944  1.00  0.00     0.031 C 
ATOM     40  C   UNL A   1      39.482  31.565  34.661  1.00  0.00     0.037 A 
BRANCH  27  41
ATOM     41  C   UNL A   1      36.706  31.409  29.140  1.00  0.00     0.057 A 
ATOM     42  C   UNL A   1      36.713  32.748  28.725  1.00  0.00     0.134 A 
ATOM     43  C   UNL A   1      35.602  30.630  28.772  1.00  0.00     0.134 A 
ATOM     44  F   UNL A   1      37.732  33.558  29.052  1.00  0.00    -0.206 F 
ATOM     45  C   UNL A   1      35.658  33.293  27.989  1.00  0.00     0.040 A 
ATOM     46  C   UNL A   1      34.551  31.157  28.017  1.00  0.00     0.040 A 
ATOM     47  F   UNL A   1      35.528  29.340  29.134  1.00  0.00    -0.206 F 
ATOM     48  C   UNL A   1      34.573  32.496  27.630  1.00  0.00     0.006 A 
ENDBRANCH  27  41
BRANCH  28  49
ATOM     49  C   UNL A   1      44.374  27.994  34.634  1.00  0.00     0.057 A 
ATOM     50  C   UNL A   1      44.307  26.882  35.483  1.00  0.00     0.134 A 
ATOM     51  C   UNL A   1      45.594  28.673  34.559  1.00  0.00     0.134 A 
ATOM     52  F   UNL A   1      43.159  26.200  35.616  1.00  0.00    -0.206 F 
ATOM     53  C   UNL A   1      45.412  26.459  36.221  1.00  0.00     0.040 A 
ATOM     54  C   UNL A   1      46.715  28.247  35.272  1.00  0.00     0.040 A 
ATOM     55  F   UNL A   1      45.722  29.744  33.759  1.00  0.00    -0.206 F 
ATOM     56  C   UNL A   1      46.625  27.137  36.108  1.00  0.00     0.006 A 
ENDBRANCH  28  49
BRANCH  40  57
ATOM     57  C   UNL A   1      39.070  32.320  35.888  1.00  0.00     0.057 A 
ATOM     58  C   UNL A   1      38.219  31.727  36.829  1.00  0.00     0.134 A 
ATOM     59  C   UNL A   1      39.489  33.635  36.126  1.00  0.00     0.134 A 
ATOM     60  F   UNL A   1      37.780  30.471  36.655  1.00  0.00    -0.206 F 
ATOM     61  C   UNL A   1      37.796  32.417  37.964  1.00  0.00     0.040 A 
ATOM     62  C   UNL A   1      39.094  34.325  37.271  1.00  0.00     0.040 A 
ATOM     63  F   UNL A   1      40.320  34.249  35.270  1.00  0.00    -0.206 F 
ATOM     64  C   UNL A   1      38.239  33.719  38.190  1.00  0.00     0.006 A 
ENDBRANCH  40  57
ENDBRANCH  14  15
ENDBRANCH   7   9
ENDBRANCH   6   7
ENDBRANCH   5   6
ENDBRANCH   4   5
ENDBRANCH   3   4
ENDBRANCH   2   3
ENDBRANCH   1   2
BRANCH   1  65
ATOM     65  O   UNL A   1      43.348  18.208  25.365  1.00  0.00    -0.377 OA
BRANCH  65  66
ATOM     66  C   UNL A   1      42.669  18.720  26.503  1.00  0.00     0.188 C 
BRANCH  66  67
ATOM     67  C   UNL A   1      42.315  20.224  26.525  1.00  0.00     0.188 C 
BRANCH  67  68
ATOM     68  O   UNL A   1      40.935  20.486  26.727  1.00  0.00    -0.376 OA
BRANCH  68  69
ATOM     69  C   UNL A   1      40.378  21.475  25.868  1.00  0.00     0.202 C 
BRANCH  69  70
ATOM     70  C   UNL A   1      38.895  21.763  26.124  1.00  0.00     0.261 C 
BRANCH  70  71
ATOM     71  O   UNL A   1      38.533  23.151  26.286  1.00  0.00    -0.463 OA
BRANCH  71  72
ATOM     72  C   UNL A   1      37.271  23.558  25.965  1.00  0.00     0.314 C 
ATOM     73  O   UNL A   1      36.852  24.684  26.124  1.00  0.00    -0.252 OA
BRANCH  72  74
ATOM     74  C   UNL A   1      36.499  22.384  25.348  1.00  0.00     0.140 C 
ATOM     75  C   UNL A   1      36.370  22.472  23.817  1.00  0.00     0.095 C 
ATOM     76  C   UNL A   1      35.101  22.336  25.892  1.00  0.00    -0.019 A 
ATOM     77  S   UNL A   1      34.732  23.133  23.400  1.00  0.00    -0.125 SA
ATOM     78  C   UNL A   1      34.110  22.767  25.007  1.00  0.00     0.011 A 
ATOM     79  C   UNL A   1      34.787  22.008  27.206  1.00  0.00     0.006 A 
ATOM     80  C   UNL A   1      32.799  22.905  25.421  1.00  0.00     0.015 A 
ATOM     81  C   UNL A   1      33.469  22.146  27.631  1.00  0.00     0.000 A 
ATOM     82  C   UNL A   1      32.482  22.599  26.746  1.00  0.00     0.001 A 
ENDBRANCH  72  74
ENDBRANCH  71  72
ENDBRANCH  70  71
ENDBRANCH  69  70
ENDBRANCH  68  69
ENDBRANCH  67  68
ENDBRANCH  66  67
ENDBRANCH  65  66
ENDBRANCH   1  65
TORSDOF 20
ENDMDL
MODEL 3
REMARK VINA RESULT:      -9.3      1.172      2.234
REMARK SMILES O=C(OCCOCCOCCOCCOC(=O)[C@@H]1CSc2ccccc21)c1ccc(-c2c3nc(c(-c4c(F)cccc4F)c4ccc([nH]4)c(-c4c(F)cccc4F)c4nc(c(-c5c(F)cccc5F)c5ccc2[nH]5)C=C4)C=C3)cc1
REMARK SMILES IDX 8 1 7 2 6 3 5 4 4 5 3 6 2 7 1 8 27 9 28 10 80 11 29 12 79 13
REMARK SMILES IDX 30 14 31 15 32 16 73 17 33 18 78 19 72 20 74 21 34 22 77 23
REMARK SMILES IDX 71 24 70 25 35 27 61 28 44 29 60 30 45 31 48 32 59 33 75 34
REMARK SMILES IDX 46 35 47 36 58 38 76 39 49 40 36 41 37 42 42 43 38 44 39 45
REMARK SMILES IDX 41 46 43 47 40 48 62 49 63 50 68 51 64 52 65 53 67 54 69 55
REMARK SMILES IDX 66 56 50 57 51 58 56 59 52 60 53 61 55 62 57 63 54 64 9 65
REMARK SMILES IDX 10 66 11 67 12 68 13 69 14 70 15 71 16 72 17 73 18 74 19 75
REMARK SMILES IDX 26 76 20 77 21 78 25 79 22 80 24 81 23 82
REMARK H PARENT 74 26 48 37
REMARK Flexibility Score: inf
ROOT
ATOM      1  C   UNL A   1      43.482  19.165  25.044  1.00  0.00     0.188 C 
ENDROOT
BRANCH   1   2
ATOM      2  C   UNL A   1      44.901  18.718  25.391  1.00  0.00     0.188 C 
BRANCH   2   3
ATOM      3  O   UNL A   1      45.806  19.823  25.302  1.00  0.00    -0.376 OA
BRANCH   3   4
ATOM      4  C   UNL A   1      45.206  21.084  25.024  1.00  0.00     0.202 C 
BRANCH   4   5
ATOM      5  C   UNL A   1      45.139  22.036  26.212  1.00  0.00     0.261 C 
BRANCH   5   6
ATOM      6  O   UNL A   1      45.444  23.398  25.893  1.00  0.00    -0.460 OA
BRANCH   6   7
ATOM      7  C   UNL A   1      44.614  24.413  25.562  1.00  0.00     0.338 C 
ATOM      8  O   UNL A   1      44.394  24.591  24.362  1.00  0.00    -0.246 OA
BRANCH   7   9
ATOM      9  C   UNL A   1      44.002  25.397  26.526  1.00  0.00     0.060 A 
ATOM     10  C   UNL A   1      42.981  24.893  27.359  1.00  0.00     0.016 A 
ATOM     11  C   UNL A   1      44.344  26.744  26.677  1.00  0.00     0.016 A 
ATOM     12  C   UNL A   1      42.344  25.695  28.312  1.00  0.00     0.010 A 
ATOM     13  C   UNL A   1      43.686  27.564  27.596  1.00  0.00     0.010 A 
ATOM     14  C   UNL A   1      42.707  27.036  28.440  1.00  0.00    -0.014 A 
BRANCH  14  15
ATOM     15  C   UNL A   1      42.265  27.850  29.588  1.00  0.00     0.031 A 
ATOM     16  C   UNL A   1      42.875  27.695  30.945  1.00  0.00     0.074 A 
ATOM     17  C   UNL A   1      41.191  28.637  29.383  1.00  0.00     0.049 A 
ATOM     18  N   UNL A   1      42.560  28.310  32.055  1.00  0.00    -0.248 NA
ATOM     19  C   UNL A   1      43.966  26.719  31.080  1.00  0.00     0.031 C 
ATOM     20  C   UNL A   1      40.494  28.784  28.100  1.00  0.00     0.029 A 
ATOM     21  N   UNL A   1      40.469  29.417  30.243  1.00  0.00    -0.354 N 
ATOM     22  C   UNL A   1      43.425  27.815  33.022  1.00  0.00     0.074 A 
ATOM     23  C   UNL A   1      44.255  26.819  32.374  1.00  0.00     0.031 C 
ATOM     24  C   UNL A   1      39.422  29.572  28.269  1.00  0.00     0.029 A 
ATOM     25  C   UNL A   1      39.359  29.982  29.665  1.00  0.00     0.049 A 
ATOM     26  H   UNL A   1      40.720  29.560  31.185  1.00  0.00     0.167 HD
ATOM     27  C   UNL A   1      43.511  28.175  34.326  1.00  0.00     0.037 A 
ATOM     28  C   UNL A   1      38.391  30.741  30.209  1.00  0.00     0.037 A 
ATOM     29  C   UNL A   1      42.641  29.145  34.946  1.00  0.00     0.049 A 
ATOM     30  C   UNL A   1      38.506  31.109  31.657  1.00  0.00     0.074 A 
ATOM     31  C   UNL A   1      42.680  29.641  36.238  1.00  0.00     0.029 A 
ATOM     32  N   UNL A   1      41.556  29.745  34.320  1.00  0.00    -0.354 N 
ATOM     33  N   UNL A   1      39.413  30.741  32.531  1.00  0.00    -0.248 NA
ATOM     34  C   UNL A   1      37.485  32.016  32.192  1.00  0.00     0.031 C 
ATOM     35  C   UNL A   1      41.590  30.500  36.408  1.00  0.00     0.029 A 
ATOM     36  C   UNL A   1      40.902  30.584  35.207  1.00  0.00     0.049 A 
ATOM     37  H   UNL A   1      41.291  29.596  33.383  1.00  0.00     0.167 HD
ATOM     38  C   UNL A   1      39.100  31.406  33.705  1.00  0.00     0.074 A 
ATOM     39  C   UNL A   1      37.919  32.202  33.430  1.00  0.00     0.031 C 
ATOM     40  C   UNL A   1      39.736  31.373  34.901  1.00  0.00     0.037 A 
BRANCH  27  41
ATOM     41  C   UNL A   1      44.574  27.534  35.173  1.00  0.00     0.057 A 
ATOM     42  C   UNL A   1      45.816  28.156  35.363  1.00  0.00     0.134 A 
ATOM     43  C   UNL A   1      44.404  26.258  35.724  1.00  0.00     0.134 A 
ATOM     44  F   UNL A   1      46.054  29.373  34.853  1.00  0.00    -0.206 F 
ATOM     45  C   UNL A   1      46.851  27.526  36.058  1.00  0.00     0.040 A 
ATOM     46  C   UNL A   1      45.424  25.627  36.441  1.00  0.00     0.040 A 
ATOM     47  F   UNL A   1      43.241  25.604  35.581  1.00  0.00    -0.206 F 
ATOM     48  C   UNL A   1      46.656  26.259  36.602  1.00  0.00     0.006 A 
ENDBRANCH  27  41
BRANCH  28  49
ATOM     49  C   UNL A   1      37.270  31.230  29.371  1.00  0.00     0.057 A 
ATOM     50  C   UNL A   1      37.255  32.530  28.852  1.00  0.00     0.134 A 
ATOM     51  C   UNL A   1      36.180  30.405  29.074  1.00  0.00     0.134 A 
ATOM     52  F   UNL A   1      38.261  33.377  29.118  1.00  0.00    -0.206 F 
ATOM     53  C   UNL A   1      36.200  32.989  28.063  1.00  0.00     0.040 A 
ATOM     54  C   UNL A   1      35.130  30.842  28.266  1.00  0.00     0.040 A 
ATOM     55  F   UNL A   1      36.140  29.147  29.540  1.00  0.00    -0.206 F 
ATOM     56  C   UNL A   1      35.138  32.139  27.759  1.00  0.00     0.006 A 
ENDBRANCH  28  49
BRANCH  40  57
ATOM     57  C   UNL A   1      39.194  32.264  35.978  1.00  0.00     0.057 A 
ATOM     58  C   UNL A   1      39.640  33.586  36.090  1.00  0.00     0.134 A 
ATOM     59  C   UNL A   1      38.258  31.810  36.914  1.00  0.00     0.134 A 
ATOM     60  F   UNL A   1      40.541  34.079  35.225  1.00  0.00    -0.206 F 
ATOM     61  C   UNL A   1      39.177  34.428  37.100  1.00  0.00     0.040 A 
ATOM     62  C   UNL A   1      37.766  32.651  37.913  1.00  0.00     0.040 A 
ATOM     63  F   UNL A   1      37.778  30.559  36.846  1.00  0.00    -0.206 F 
ATOM     64  C   UNL A   1      38.231  33.962  38.012  1.00  0.00     0.006 A 
ENDBRANCH  40  57
ENDBRANCH  14  15
ENDBRANCH   7   9
ENDBRANCH   6   7
ENDBRANCH   5   6
ENDBRANCH   4   5
ENDBRANCH   3   4
ENDBRANCH   2   3
ENDBRANCH   1   2
BRANCH   1  65
ATOM     65  O   UNL A   1      42.505  18.796  26.011  1.00  0.00    -0.377 OA
BRANCH  65  66
ATOM     66  C   UNL A   1      42.033  19.832  26.861  1.00  0.00     0.188 C 
BRANCH  66  67
ATOM     67  C   UNL A   1      41.238  20.993  26.221  1.00  0.00     0.188 C 
BRANCH  67  68
ATOM     68  O   UNL A   1      39.873  21.036  26.611  1.00  0.00    -0.376 OA
BRANCH  68  69
ATOM     69  C   UNL A   1      39.015  21.738  25.719  1.00  0.00     0.202 C 
BRANCH  69  70
ATOM     70  C   UNL A   1      38.463  23.050  26.286  1.00  0.00     0.261 C 
BRANCH  70  71
ATOM     71  O   UNL A   1      37.740  23.891  25.361  1.00  0.00    -0.463 OA
BRANCH  71  72
ATOM     72  C   UNL A   1      36.558  23.453  24.838  1.00  0.00     0.314 C 
ATOM     73  O   UNL A   1      36.415  23.061  23.701  1.00  0.00    -0.252 OA
BRANCH  72  74
ATOM     74  C   UNL A   1      35.472  23.507  25.920  1.00  0.00     0.140 C 
ATOM     75  C   UNL A   1      34.918  22.123  26.302  1.00  0.00     0.095 C 
ATOM     76  C   UNL A   1      34.301  24.318  25.446  1.00  0.00    -0.019 A 
ATOM     77  S   UNL A   1      33.349  21.853  25.430  1.00  0.00    -0.125 SA
ATOM     78  C   UNL A   1      33.173  23.574  25.093  1.00  0.00     0.011 A 
ATOM     79  C   UNL A   1      34.338  25.693  25.244  1.00  0.00     0.006 A 
ATOM     80  C   UNL A   1      32.076  24.179  24.512  1.00  0.00     0.015 A 
ATOM     81  C   UNL A   1      33.237  26.309  24.657  1.00  0.00     0.000 A 
ATOM     82  C   UNL A   1      32.116  25.556  24.286  1.00  0.00     0.001 A 
ENDBRANCH  72  74
ENDBRANCH  71  72
ENDBRANCH  70  71
ENDBRANCH  69  70
ENDBRANCH  68  69
ENDBRANCH  67  68
ENDBRANCH  66  67
ENDBRANCH  65  66
ENDBRANCH   1  65
TORSDOF 20
ENDMDL
