MODEL 1
REMARK VINA RESULT:     -10.4      0.000      0.000
REMARK SMILES COc1ccc([C@H](C)[N@H+]2CC[C@H](C(=O)OCCOCCOCCOCCOC(=O)c3ccc(-c4c5nc(c(-c6c(F)cccc6F)c6ccc([nH]6)c(-c6c(F)cccc6F)c6nc(c(-c7c(F)cccc7F)c7ccc4[nH]7)C=C6)C=C5)cc3)[C@@H]2C)cc1
REMARK SMILES IDX 20 1 19 2 18 3 17 4 16 5 15 6 13 7 14 8 12 9 9 10 10 11
REMARK SMILES IDX 84 12 11 14 85 15 7 16 8 17 6 18 3 19 4 20 87 21 5 22 86 23
REMARK SMILES IDX 2 24 1 25 21 26 22 27 23 28 24 29 25 30 26 31 27 32 28 33
REMARK SMILES IDX 29 34 30 35 31 36 83 37 32 38 82 39 33 40 34 41 35 42 76 43
REMARK SMILES IDX 36 44 81 45 75 46 77 47 37 48 80 49 74 50 73 51 38 53 64 54
REMARK SMILES IDX 47 55 63 56 48 57 51 58 62 59 78 60 49 61 50 62 61 64 79 65
REMARK SMILES IDX 52 66 39 67 40 68 45 69 41 70 42 71 44 72 46 73 43 74 65 75
REMARK SMILES IDX 66 76 71 77 67 78 68 79 70 80 72 81 69 82 53 83 54 84 59 85
REMARK SMILES IDX 55 86 56 87 58 88 60 89 57 90
REMARK H PARENT 9 13 77 52 51 63
REMARK Flexibility Score: inf
ROOT
ATOM      1  C   UNL A   1      42.254  19.222  26.373  1.00  0.00     0.188 C 
ENDROOT
BRANCH   1   2
ATOM      2  C   UNL A   1      40.794  19.631  26.098  1.00  0.00     0.188 C 
BRANCH   2   3
ATOM      3  O   UNL A   1      40.385  20.782  26.822  1.00  0.00    -0.376 OA
BRANCH   3   4
ATOM      4  C   UNL A   1      39.731  21.780  26.054  1.00  0.00     0.202 C 
BRANCH   4   5
ATOM      5  C   UNL A   1      38.304  21.436  25.605  1.00  0.00     0.261 C 
BRANCH   5   6
ATOM      6  O   UNL A   1      37.612  22.470  24.867  1.00  0.00    -0.463 OA
BRANCH   6   7
ATOM      7  C   UNL A   1      37.094  23.517  25.542  1.00  0.00     0.315 C 
ATOM      8  O   UNL A   1      37.739  24.180  26.348  1.00  0.00    -0.252 OA
BRANCH   7   9
ATOM      9  C   UNL A   1      35.663  23.887  25.149  1.00  0.00     0.162 C 
ATOM     10  N   UNL A   1      33.528  22.725  24.891  1.00  0.00    -0.326 N 
ATOM     11  C   UNL A   1      34.207  22.688  23.598  1.00  0.00     0.264 C 
ATOM     12  C   UNL A   1      34.407  23.388  25.887  1.00  0.00     0.196 C 
ATOM     13  H   UNL A   1      33.374  21.771  25.217  1.00  0.00     0.348 HD
ATOM     14  C   UNL A   1      35.376  23.647  23.668  1.00  0.00     0.083 C 
ATOM     15  C   UNL A   1      34.566  22.537  27.145  1.00  0.00     0.076 C 
BRANCH  10  16
ATOM     16  C   UNL A   1      32.143  23.260  24.811  1.00  0.00     0.212 C 
ATOM     17  C   UNL A   1      31.162  22.497  25.729  1.00  0.00     0.081 C 
BRANCH  16  18
ATOM     18  C   UNL A   1      32.113  24.789  25.028  1.00  0.00     0.009 A 
ATOM     19  C   UNL A   1      31.897  27.595  25.440  1.00  0.00     0.118 A 
ATOM     20  C   UNL A   1      31.604  26.700  26.468  1.00  0.00     0.047 A 
ATOM     21  C   UNL A   1      32.346  27.095  24.222  1.00  0.00     0.047 A 
ATOM     22  C   UNL A   1      31.704  25.315  26.266  1.00  0.00     0.013 A 
ATOM     23  C   UNL A   1      32.459  25.712  24.024  1.00  0.00     0.013 A 
BRANCH  19  24
ATOM     24  O   UNL A   1      31.745  28.920  25.743  1.00  0.00    -0.497 OA
ATOM     25  C   UNL A   1      31.803  29.258  27.126  1.00  0.00     0.278 C 
ENDBRANCH  19  24
ENDBRANCH  16  18
ENDBRANCH  10  16
ENDBRANCH   7   9
ENDBRANCH   6   7
ENDBRANCH   5   6
ENDBRANCH   4   5
ENDBRANCH   3   4
ENDBRANCH   2   3
ENDBRANCH   1   2
BRANCH   1  26
ATOM     26  O   UNL A   1      42.971  18.492  25.389  1.00  0.00    -0.377 OA
BRANCH  26  27
ATOM     27  C   UNL A   1      44.385  18.473  25.472  1.00  0.00     0.188 C 
BRANCH  27  28
ATOM     28  C   UNL A   1      45.210  19.154  24.359  1.00  0.00     0.188 C 
BRANCH  28  29
ATOM     29  O   UNL A   1      44.662  20.363  23.859  1.00  0.00    -0.376 OA
BRANCH  29  30
ATOM     30  C   UNL A   1      44.751  21.544  24.634  1.00  0.00     0.202 C 
BRANCH  30  31
ATOM     31  C   UNL A   1      43.458  22.284  25.003  1.00  0.00     0.261 C 
BRANCH  31  32
ATOM     32  O   UNL A   1      43.378  23.658  24.608  1.00  0.00    -0.460 OA
BRANCH  32  33
ATOM     33  C   UNL A   1      44.298  24.509  25.106  1.00  0.00     0.338 C 
ATOM     34  O   UNL A   1      45.441  24.682  24.720  1.00  0.00    -0.246 OA
BRANCH  33  35
ATOM     35  C   UNL A   1      43.593  25.355  26.091  1.00  0.00     0.060 A 
ATOM     36  C   UNL A   1      43.787  26.743  26.059  1.00  0.00     0.016 A 
ATOM     37  C   UNL A   1      42.681  24.782  26.982  1.00  0.00     0.016 A 
ATOM     38  C   UNL A   1      43.062  27.564  26.919  1.00  0.00     0.010 A 
ATOM     39  C   UNL A   1      41.989  25.601  27.874  1.00  0.00     0.010 A 
ATOM     40  C   UNL A   1      42.194  26.992  27.858  1.00  0.00    -0.014 A 
BRANCH  40  41
ATOM     41  C   UNL A   1      41.700  27.819  28.980  1.00  0.00     0.031 A 
ATOM     42  C   UNL A   1      42.434  27.723  30.286  1.00  0.00     0.074 A 
ATOM     43  C   UNL A   1      40.649  28.644  28.841  1.00  0.00     0.049 A 
ATOM     44  N   UNL A   1      42.184  28.308  31.427  1.00  0.00    -0.248 NA
ATOM     45  C   UNL A   1      43.617  26.844  30.304  1.00  0.00     0.031 C 
ATOM     46  C   UNL A   1      39.891  28.854  27.611  1.00  0.00     0.029 A 
ATOM     47  N   UNL A   1      40.035  29.456  29.762  1.00  0.00    -0.354 N 
ATOM     48  C   UNL A   1      43.174  27.868  32.295  1.00  0.00     0.074 A 
ATOM     49  C   UNL A   1      44.011  26.945  31.562  1.00  0.00     0.031 C 
ATOM     50  C   UNL A   1      38.899  29.729  27.857  1.00  0.00     0.029 A 
ATOM     51  C   UNL A   1      38.936  30.113  29.268  1.00  0.00     0.049 A 
ATOM     52  H   UNL A   1      40.353  29.557  30.687  1.00  0.00     0.167 HD
ATOM     53  C   UNL A   1      43.371  28.208  33.589  1.00  0.00     0.037 A 
ATOM     54  C   UNL A   1      38.052  30.913  29.898  1.00  0.00     0.037 A 
ATOM     55  C   UNL A   1      42.525  29.111  34.318  1.00  0.00     0.049 A 
ATOM     56  C   UNL A   1      38.241  31.206  31.365  1.00  0.00     0.074 A 
ATOM     57  C   UNL A   1      42.637  29.525  35.633  1.00  0.00     0.029 A 
ATOM     58  N   UNL A   1      41.399  29.730  33.796  1.00  0.00    -0.354 N 
ATOM     59  N   UNL A   1      39.193  30.808  32.175  1.00  0.00    -0.248 NA
ATOM     60  C   UNL A   1      37.232  32.063  32.005  1.00  0.00     0.031 C 
ATOM     61  C   UNL A   1      41.546  30.350  35.923  1.00  0.00     0.029 A 
ATOM     62  C   UNL A   1      40.790  30.502  34.770  1.00  0.00     0.049 A 
ATOM     63  H   UNL A   1      41.080  29.633  32.869  1.00  0.00     0.167 HD
ATOM     64  C   UNL A   1      38.917  31.392  33.407  1.00  0.00     0.074 A 
ATOM     65  C   UNL A   1      37.715  32.180  33.234  1.00  0.00     0.031 C 
ATOM     66  C   UNL A   1      39.600  31.291  34.574  1.00  0.00     0.037 A 
BRANCH  53  67
ATOM     67  C   UNL A   1      44.525  27.565  34.301  1.00  0.00     0.057 A 
ATOM     68  C   UNL A   1      44.406  26.321  34.935  1.00  0.00     0.134 A 
ATOM     69  C   UNL A   1      45.775  28.196  34.344  1.00  0.00     0.134 A 
ATOM     70  F   UNL A   1      43.229  25.675  34.951  1.00  0.00    -0.206 F 
ATOM     71  C   UNL A   1      45.482  25.738  35.604  1.00  0.00     0.040 A 
ATOM     72  C   UNL A   1      46.866  27.609  34.985  1.00  0.00     0.040 A 
ATOM     73  F   UNL A   1      45.955  29.389  33.760  1.00  0.00    -0.206 F 
ATOM     74  C   UNL A   1      46.720  26.379  35.623  1.00  0.00     0.006 A 
ENDBRANCH  53  67
BRANCH  54  75
ATOM     75  C   UNL A   1      36.897  31.482  29.156  1.00  0.00     0.057 A 
ATOM     76  C   UNL A   1      36.908  32.804  28.696  1.00  0.00     0.134 A 
ATOM     77  C   UNL A   1      35.740  30.729  28.921  1.00  0.00     0.134 A 
ATOM     78  F   UNL A   1      37.977  33.585  28.912  1.00  0.00    -0.206 F 
ATOM     79  C   UNL A   1      35.805  33.363  28.048  1.00  0.00     0.040 A 
ATOM     80  C   UNL A   1      34.639  31.267  28.251  1.00  0.00     0.040 A 
ATOM     81  F   UNL A   1      35.662  29.457  29.338  1.00  0.00    -0.206 F 
ATOM     82  C   UNL A   1      34.667  32.591  27.820  1.00  0.00     0.006 A 
ENDBRANCH  54  75
BRANCH  66  83
ATOM     83  C   UNL A   1      39.097  32.088  35.744  1.00  0.00     0.057 A 
ATOM     84  C   UNL A   1      39.421  33.439  35.917  1.00  0.00     0.134 A 
ATOM     85  C   UNL A   1      38.231  31.505  36.678  1.00  0.00     0.134 A 
ATOM     86  F   UNL A   1      40.253  34.056  35.064  1.00  0.00    -0.206 F 
ATOM     87  C   UNL A   1      38.921  34.175  36.993  1.00  0.00     0.040 A 
ATOM     88  C   UNL A   1      37.700  32.239  37.740  1.00  0.00     0.040 A 
ATOM     89  F   UNL A   1      37.868  30.218  36.563  1.00  0.00    -0.206 F 
ATOM     90  C   UNL A   1      38.050  33.577  37.903  1.00  0.00     0.006 A 
ENDBRANCH  66  83
ENDBRANCH  40  41
ENDBRANCH  33  35
ENDBRANCH  32  33
ENDBRANCH  31  32
ENDBRANCH  30  31
ENDBRANCH  29  30
ENDBRANCH  28  29
ENDBRANCH  27  28
ENDBRANCH  26  27
ENDBRANCH   1  26
TORSDOF 23
ENDMDL
MODEL 2
REMARK VINA RESULT:     -10.3      1.379      2.142
REMARK SMILES COc1ccc([C@H](C)[N@H+]2CC[C@H](C(=O)OCCOCCOCCOCCOC(=O)c3ccc(-c4c5nc(c(-c6c(F)cccc6F)c6ccc([nH]6)c(-c6c(F)cccc6F)c6nc(c(-c7c(F)cccc7F)c7ccc4[nH]7)C=C6)C=C5)cc3)[C@@H]2C)cc1
REMARK SMILES IDX 20 1 19 2 18 3 17 4 16 5 15 6 13 7 14 8 12 9 9 10 10 11
REMARK SMILES IDX 84 12 11 14 85 15 7 16 8 17 6 18 3 19 4 20 87 21 5 22 86 23
REMARK SMILES IDX 2 24 1 25 21 26 22 27 23 28 24 29 25 30 26 31 27 32 28 33
REMARK SMILES IDX 29 34 30 35 31 36 83 37 32 38 82 39 33 40 34 41 35 42 76 43
REMARK SMILES IDX 36 44 81 45 75 46 77 47 37 48 80 49 74 50 73 51 38 53 64 54
REMARK SMILES IDX 47 55 63 56 48 57 51 58 62 59 78 60 49 61 50 62 61 64 79 65
REMARK SMILES IDX 52 66 39 67 40 68 45 69 41 70 42 71 44 72 46 73 43 74 65 75
REMARK SMILES IDX 66 76 71 77 67 78 68 79 70 80 72 81 69 82 53 83 54 84 59 85
REMARK SMILES IDX 55 86 56 87 58 88 60 89 57 90
REMARK H PARENT 9 13 77 52 51 63
REMARK Flexibility Score: inf
ROOT
ATOM      1  C   UNL A   1      40.734  19.939  26.164  1.00  0.00     0.188 C 
ENDROOT
BRANCH   1   2
ATOM      2  C   UNL A   1      39.282  20.108  25.679  1.00  0.00     0.188 C 
BRANCH   2   3
ATOM      3  O   UNL A   1      38.733  21.382  25.979  1.00  0.00    -0.376 OA
BRANCH   3   4
ATOM      4  C   UNL A   1      37.759  21.854  25.060  1.00  0.00     0.202 C 
BRANCH   4   5
ATOM      5  C   UNL A   1      36.328  21.951  25.609  1.00  0.00     0.261 C 
BRANCH   5   6
ATOM      6  O   UNL A   1      35.359  21.072  24.994  1.00  0.00    -0.463 OA
BRANCH   6   7
ATOM      7  C   UNL A   1      34.188  21.587  24.569  1.00  0.00     0.315 C 
ATOM      8  O   UNL A   1      33.281  20.900  24.108  1.00  0.00    -0.252 OA
BRANCH   7   9
ATOM      9  C   UNL A   1      34.027  23.091  24.801  1.00  0.00     0.162 C 
ATOM     10  N   UNL A   1      32.182  24.689  24.921  1.00  0.00    -0.326 N 
ATOM     11  C   UNL A   1      32.624  24.633  23.530  1.00  0.00     0.264 C 
ATOM     12  C   UNL A   1      32.963  23.715  25.724  1.00  0.00     0.196 C 
ATOM     13  H   UNL A   1      31.204  24.403  24.974  1.00  0.00     0.348 HD
ATOM     14  C   UNL A   1      33.939  23.883  23.498  1.00  0.00     0.083 C 
ATOM     15  C   UNL A   1      32.050  22.802  26.538  1.00  0.00     0.076 C 
BRANCH  10  16
ATOM     16  C   UNL A   1      32.138  26.071  25.468  1.00  0.00     0.212 C 
ATOM     17  C   UNL A   1      33.541  26.713  25.563  1.00  0.00     0.081 C 
BRANCH  16  18
ATOM     18  C   UNL A   1      31.119  26.948  24.710  1.00  0.00     0.009 A 
ATOM     19  C   UNL A   1      29.260  28.471  23.186  1.00  0.00     0.118 A 
ATOM     20  C   UNL A   1      28.963  27.164  23.572  1.00  0.00     0.047 A 
ATOM     21  C   UNL A   1      30.461  29.036  23.601  1.00  0.00     0.047 A 
ATOM     22  C   UNL A   1      29.881  26.409  24.319  1.00  0.00     0.013 A 
ATOM     23  C   UNL A   1      31.372  28.287  24.359  1.00  0.00     0.013 A 
BRANCH  19  24
ATOM     24  O   UNL A   1      28.301  29.104  22.444  1.00  0.00    -0.497 OA
ATOM     25  C   UNL A   1      27.670  30.225  23.057  1.00  0.00     0.278 C 
ENDBRANCH  19  24
ENDBRANCH  16  18
ENDBRANCH  10  16
ENDBRANCH   7   9
ENDBRANCH   6   7
ENDBRANCH   5   6
ENDBRANCH   4   5
ENDBRANCH   3   4
ENDBRANCH   2   3
ENDBRANCH   1   2
BRANCH   1  26
ATOM     26  O   UNL A   1      41.477  18.800  25.757  1.00  0.00    -0.377 OA
BRANCH  26  27
ATOM     27  C   UNL A   1      42.770  18.615  26.306  1.00  0.00     0.188 C 
BRANCH  27  28
ATOM     28  C   UNL A   1      43.993  18.617  25.363  1.00  0.00     0.188 C 
BRANCH  28  29
ATOM     29  O   UNL A   1      44.107  19.759  24.531  1.00  0.00    -0.376 OA
BRANCH  29  30
ATOM     30  C   UNL A   1      44.722  20.931  25.031  1.00  0.00     0.202 C 
BRANCH  30  31
ATOM     31  C   UNL A   1      43.918  21.844  25.966  1.00  0.00     0.261 C 
BRANCH  31  32
ATOM     32  O   UNL A   1      43.238  22.943  25.348  1.00  0.00    -0.460 OA
BRANCH  32  33
ATOM     33  C   UNL A   1      43.903  24.111  25.239  1.00  0.00     0.338 C 
ATOM     34  O   UNL A   1      44.746  24.415  24.413  1.00  0.00    -0.246 OA
BRANCH  33  35
ATOM     35  C   UNL A   1      43.265  25.045  26.189  1.00  0.00     0.060 A 
ATOM     36  C   UNL A   1      43.778  26.343  26.316  1.00  0.00     0.016 A 
ATOM     37  C   UNL A   1      42.114  24.661  26.884  1.00  0.00     0.016 A 
ATOM     38  C   UNL A   1      43.135  27.266  27.138  1.00  0.00     0.010 A 
ATOM     39  C   UNL A   1      41.498  25.571  27.742  1.00  0.00     0.010 A 
ATOM     40  C   UNL A   1      42.020  26.869  27.888  1.00  0.00    -0.014 A 
BRANCH  40  41
ATOM     41  C   UNL A   1      41.558  27.725  29.001  1.00  0.00     0.031 A 
ATOM     42  C   UNL A   1      42.310  27.637  30.298  1.00  0.00     0.074 A 
ATOM     43  C   UNL A   1      40.522  28.568  28.863  1.00  0.00     0.049 A 
ATOM     44  N   UNL A   1      42.087  28.247  31.432  1.00  0.00    -0.248 NA
ATOM     45  C   UNL A   1      43.475  26.735  30.315  1.00  0.00     0.031 C 
ATOM     46  C   UNL A   1      39.750  28.771  27.640  1.00  0.00     0.029 A 
ATOM     47  N   UNL A   1      39.938  29.407  29.778  1.00  0.00    -0.354 N 
ATOM     48  C   UNL A   1      43.082  27.802  32.294  1.00  0.00     0.074 A 
ATOM     49  C   UNL A   1      43.889  26.851  31.565  1.00  0.00     0.031 C 
ATOM     50  C   UNL A   1      38.779  29.670  27.885  1.00  0.00     0.029 A 
ATOM     51  C   UNL A   1      38.845  30.078  29.288  1.00  0.00     0.049 A 
ATOM     52  H   UNL A   1      40.271  29.519  30.697  1.00  0.00     0.167 HD
ATOM     53  C   UNL A   1      43.304  28.161  33.579  1.00  0.00     0.037 A 
ATOM     54  C   UNL A   1      37.986  30.905  29.916  1.00  0.00     0.037 A 
ATOM     55  C   UNL A   1      42.486  29.094  34.304  1.00  0.00     0.049 A 
ATOM     56  C   UNL A   1      38.201  31.221  31.375  1.00  0.00     0.074 A 
ATOM     57  C   UNL A   1      42.626  29.529  35.609  1.00  0.00     0.029 A 
ATOM     58  N   UNL A   1      41.365  29.725  33.786  1.00  0.00    -0.354 N 
ATOM     59  N   UNL A   1      39.157  30.818  32.178  1.00  0.00    -0.248 NA
ATOM     60  C   UNL A   1      37.219  32.109  32.014  1.00  0.00     0.031 C 
ATOM     61  C   UNL A   1      41.555  30.380  35.899  1.00  0.00     0.029 A 
ATOM     62  C   UNL A   1      40.786  30.527  34.755  1.00  0.00     0.049 A 
ATOM     63  H   UNL A   1      41.031  29.619  32.866  1.00  0.00     0.167 HD
ATOM     64  C   UNL A   1      38.911  31.429  33.403  1.00  0.00     0.074 A 
ATOM     65  C   UNL A   1      37.722  32.238  33.233  1.00  0.00     0.031 C 
ATOM     66  C   UNL A   1      39.609  31.335  34.562  1.00  0.00     0.037 A 
BRANCH  53  67
ATOM     67  C   UNL A   1      44.456  27.509  34.285  1.00  0.00     0.057 A 
ATOM     68  C   UNL A   1      45.772  27.971  34.144  1.00  0.00     0.134 A 
ATOM     69  C   UNL A   1      44.243  26.409  35.126  1.00  0.00     0.134 A 
ATOM     70  F   UNL A   1      46.046  29.007  33.335  1.00  0.00    -0.206 F 
ATOM     71  C   UNL A   1      46.836  27.349  34.796  1.00  0.00     0.040 A 
ATOM     72  C   UNL A   1      45.297  25.798  35.806  1.00  0.00     0.040 A 
ATOM     73  F   UNL A   1      43.009  25.915  35.301  1.00  0.00    -0.206 F 
ATOM     74  C   UNL A   1      46.599  26.263  35.637  1.00  0.00     0.006 A 
ENDBRANCH  53  67
BRANCH  54  75
ATOM     75  C   UNL A   1      36.831  31.485  29.180  1.00  0.00     0.057 A 
ATOM     76  C   UNL A   1      35.707  30.712  28.867  1.00  0.00     0.134 A 
ATOM     77  C   UNL A   1      36.840  32.814  28.742  1.00  0.00     0.134 A 
ATOM     78  F   UNL A   1      35.648  29.424  29.236  1.00  0.00    -0.206 F 
ATOM     79  C   UNL A   1      34.643  31.233  28.128  1.00  0.00     0.040 A 
ATOM     80  C   UNL A   1      35.772  33.357  28.025  1.00  0.00     0.040 A 
ATOM     81  F   UNL A   1      37.888  33.608  29.006  1.00  0.00    -0.206 F 
ATOM     82  C   UNL A   1      34.672  32.563  27.709  1.00  0.00     0.006 A 
ENDBRANCH  54  75
BRANCH  66  83
ATOM     83  C   UNL A   1      39.138  32.162  35.724  1.00  0.00     0.057 A 
ATOM     84  C   UNL A   1      39.503  33.505  35.877  1.00  0.00     0.134 A 
ATOM     85  C   UNL A   1      38.264  31.618  36.674  1.00  0.00     0.134 A 
ATOM     86  F   UNL A   1      40.345  34.086  35.009  1.00  0.00    -0.206 F 
ATOM     87  C   UNL A   1      39.033  34.271  36.946  1.00  0.00     0.040 A 
ATOM     88  C   UNL A   1      37.763  32.381  37.729  1.00  0.00     0.040 A 
ATOM     89  F   UNL A   1      37.863  30.341  36.579  1.00  0.00    -0.206 F 
ATOM     90  C   UNL A   1      38.153  33.711  37.871  1.00  0.00     0.006 A 
ENDBRANCH  66  83
ENDBRANCH  40  41
ENDBRANCH  33  35
ENDBRANCH  32  33
ENDBRANCH  31  32
ENDBRANCH  30  31
ENDBRANCH  29  30
ENDBRANCH  28  29
ENDBRANCH  27  28
ENDBRANCH  26  27
ENDBRANCH   1  26
TORSDOF 23
ENDMDL
MODEL 3
REMARK VINA RESULT:      -9.8      1.722      3.303
REMARK SMILES COc1ccc([C@H](C)[N@H+]2CC[C@H](C(=O)OCCOCCOCCOCCOC(=O)c3ccc(-c4c5nc(c(-c6c(F)cccc6F)c6ccc([nH]6)c(-c6c(F)cccc6F)c6nc(c(-c7c(F)cccc7F)c7ccc4[nH]7)C=C6)C=C5)cc3)[C@@H]2C)cc1
REMARK SMILES IDX 20 1 19 2 18 3 17 4 16 5 15 6 13 7 14 8 12 9 9 10 10 11
REMARK SMILES IDX 84 12 11 14 85 15 7 16 8 17 6 18 3 19 4 20 87 21 5 22 86 23
REMARK SMILES IDX 2 24 1 25 21 26 22 27 23 28 24 29 25 30 26 31 27 32 28 33
REMARK SMILES IDX 29 34 30 35 31 36 83 37 32 38 82 39 33 40 34 41 35 42 76 43
REMARK SMILES IDX 36 44 81 45 75 46 77 47 37 48 80 49 74 50 73 51 38 53 64 54
REMARK SMILES IDX 47 55 63 56 48 57 51 58 62 59 78 60 49 61 50 62 61 64 79 65
REMARK SMILES IDX 52 66 39 67 40 68 45 69 41 70 42 71 44 72 46 73 43 74 65 75
REMARK SMILES IDX 66 76 71 77 67 78 68 79 70 80 72 81 69 82 53 83 54 84 59 85
REMARK SMILES IDX 55 86 56 87 58 88 60 89 57 90
REMARK H PARENT 9 13 77 52 51 63
REMARK Flexibility Score: inf
ROOT
ATOM      1  C   UNL A   1      42.556  19.120  26.030  1.00  0.00     0.188 C 
ENDROOT
BRANCH   1   2
ATOM      2  C   UNL A   1      41.163  19.689  26.356  1.00  0.00     0.188 C 
BRANCH   2   3
ATOM      3  O   UNL A   1      41.186  20.696  27.357  1.00  0.00    -0.376 OA
BRANCH   3   4
ATOM      4  C   UNL A   1      40.422  21.857  27.067  1.00  0.00     0.202 C 
BRANCH   4   5
ATOM      5  C   UNL A   1      39.474  21.739  25.865  1.00  0.00     0.261 C 
BRANCH   5   6
ATOM      6  O   UNL A   1      38.072  21.589  26.185  1.00  0.00    -0.463 OA
BRANCH   6   7
ATOM      7  C   UNL A   1      37.222  22.590  25.875  1.00  0.00     0.315 C 
ATOM      8  O   UNL A   1      37.597  23.726  25.600  1.00  0.00    -0.252 OA
BRANCH   7   9
ATOM      9  C   UNL A   1      35.752  22.179  25.789  1.00  0.00     0.162 C 
ATOM     10  N   UNL A   1      33.702  23.084  24.814  1.00  0.00    -0.326 N 
ATOM     11  C   UNL A   1      33.803  23.598  26.177  1.00  0.00     0.264 C 
ATOM     12  C   UNL A   1      34.903  22.267  24.507  1.00  0.00     0.196 C 
ATOM     13  H   UNL A   1      33.699  23.866  24.158  1.00  0.00     0.348 HD
ATOM     14  C   UNL A   1      34.895  22.820  26.879  1.00  0.00     0.083 C 
ATOM     15  C   UNL A   1      35.560  22.707  23.202  1.00  0.00     0.076 C 
BRANCH  10  16
ATOM     16  C   UNL A   1      32.398  22.427  24.529  1.00  0.00     0.212 C 
ATOM     17  C   UNL A   1      31.685  23.038  23.301  1.00  0.00     0.081 C 
BRANCH  16  18
ATOM     18  C   UNL A   1      32.542  20.893  24.447  1.00  0.00     0.009 A 
ATOM     19  C   UNL A   1      32.653  18.056  24.257  1.00  0.00     0.118 A 
ATOM     20  C   UNL A   1      32.449  18.839  23.121  1.00  0.00     0.047 A 
ATOM     21  C   UNL A   1      32.852  18.688  25.479  1.00  0.00     0.047 A 
ATOM     22  C   UNL A   1      32.388  20.238  23.212  1.00  0.00     0.013 A 
ATOM     23  C   UNL A   1      32.806  20.086  25.570  1.00  0.00     0.013 A 
BRANCH  19  24
ATOM     24  O   UNL A   1      32.674  16.704  24.052  1.00  0.00    -0.497 OA
ATOM     25  C   UNL A   1      32.812  15.894  25.216  1.00  0.00     0.278 C 
ENDBRANCH  19  24
ENDBRANCH  16  18
ENDBRANCH  10  16
ENDBRANCH   7   9
ENDBRANCH   6   7
ENDBRANCH   5   6
ENDBRANCH   4   5
ENDBRANCH   3   4
ENDBRANCH   2   3
ENDBRANCH   1   2
BRANCH   1  26
ATOM     26  O   UNL A   1      43.445  19.874  25.219  1.00  0.00    -0.377 OA
BRANCH  26  27
ATOM     27  C   UNL A   1      44.630  19.244  24.763  1.00  0.00     0.188 C 
BRANCH  27  28
ATOM     28  C   UNL A   1      45.995  19.772  25.253  1.00  0.00     0.188 C 
BRANCH  28  29
ATOM     29  O   UNL A   1      46.441  20.962  24.622  1.00  0.00    -0.376 OA
BRANCH  29  30
ATOM     30  C   UNL A   1      45.515  21.995  24.342  1.00  0.00     0.202 C 
BRANCH  30  31
ATOM     31  C   UNL A   1      45.974  23.453  24.474  1.00  0.00     0.261 C 
BRANCH  31  32
ATOM     32  O   UNL A   1      45.338  24.228  25.496  1.00  0.00    -0.460 OA
BRANCH  32  33
ATOM     33  C   UNL A   1      44.012  24.448  25.384  1.00  0.00     0.338 C 
ATOM     34  O   UNL A   1      43.238  23.943  24.589  1.00  0.00    -0.246 OA
BRANCH  33  35
ATOM     35  C   UNL A   1      43.625  25.267  26.550  1.00  0.00     0.060 A 
ATOM     36  C   UNL A   1      42.724  24.739  27.485  1.00  0.00     0.016 A 
ATOM     37  C   UNL A   1      44.218  26.516  26.758  1.00  0.00     0.016 A 
ATOM     38  C   UNL A   1      42.417  25.459  28.637  1.00  0.00     0.010 A 
ATOM     39  C   UNL A   1      43.875  27.256  27.888  1.00  0.00     0.010 A 
ATOM     40  C   UNL A   1      42.957  26.739  28.819  1.00  0.00    -0.014 A 
BRANCH  40  41
ATOM     41  C   UNL A   1      42.373  27.628  29.846  1.00  0.00     0.031 A 
ATOM     42  C   UNL A   1      43.022  27.641  31.199  1.00  0.00     0.074 A 
ATOM     43  C   UNL A   1      41.315  28.413  29.583  1.00  0.00     0.049 A 
ATOM     44  N   UNL A   1      42.685  28.296  32.278  1.00  0.00    -0.248 NA
ATOM     45  C   UNL A   1      44.220  26.797  31.354  1.00  0.00     0.031 C 
ATOM     46  C   UNL A   1      40.635  28.518  28.295  1.00  0.00     0.029 A 
ATOM     47  N   UNL A   1      40.625  29.270  30.404  1.00  0.00    -0.354 N 
ATOM     48  C   UNL A   1      43.626  27.943  33.236  1.00  0.00     0.074 A 
ATOM     49  C   UNL A   1      44.529  26.995  32.625  1.00  0.00     0.031 C 
ATOM     50  C   UNL A   1      39.609  29.381  28.416  1.00  0.00     0.029 A 
ATOM     51  C   UNL A   1      39.546  29.862  29.796  1.00  0.00     0.049 A 
ATOM     52  H   UNL A   1      40.880  29.443  31.338  1.00  0.00     0.167 HD
ATOM     53  C   UNL A   1      43.731  28.377  34.514  1.00  0.00     0.037 A 
ATOM     54  C   UNL A   1      38.606  30.679  30.310  1.00  0.00     0.037 A 
ATOM     55  C   UNL A   1      42.819  29.306  35.122  1.00  0.00     0.049 A 
ATOM     56  C   UNL A   1      38.692  31.078  31.762  1.00  0.00     0.074 A 
ATOM     57  C   UNL A   1      42.836  29.812  36.409  1.00  0.00     0.029 A 
ATOM     58  N   UNL A   1      41.716  29.857  34.487  1.00  0.00    -0.354 N 
ATOM     59  N   UNL A   1      39.597  30.762  32.657  1.00  0.00    -0.248 NA
ATOM     60  C   UNL A   1      37.625  31.950  32.275  1.00  0.00     0.031 C 
ATOM     61  C   UNL A   1      41.710  30.626  36.569  1.00  0.00     0.029 A 
ATOM     62  C   UNL A   1      41.029  30.678  35.363  1.00  0.00     0.049 A 
ATOM     63  H   UNL A   1      41.461  29.688  33.551  1.00  0.00     0.167 HD
ATOM     64  C   UNL A   1      39.229  31.422  33.825  1.00  0.00     0.074 A 
ATOM     65  C   UNL A   1      38.024  32.164  33.520  1.00  0.00     0.031 C 
ATOM     66  C   UNL A   1      39.836  31.419  35.037  1.00  0.00     0.037 A 
BRANCH  53  67
ATOM     67  C   UNL A   1      44.850  27.816  35.341  1.00  0.00     0.057 A 
ATOM     68  C   UNL A   1      46.131  28.385  35.340  1.00  0.00     0.134 A 
ATOM     69  C   UNL A   1      44.640  26.697  36.156  1.00  0.00     0.134 A 
ATOM     70  F   UNL A   1      46.404  29.445  34.563  1.00  0.00    -0.206 F 
ATOM     71  C   UNL A   1      47.167  27.848  36.104  1.00  0.00     0.040 A 
ATOM     72  C   UNL A   1      45.660  26.169  36.946  1.00  0.00     0.040 A 
ATOM     73  F   UNL A   1      43.438  26.103  36.199  1.00  0.00    -0.206 F 
ATOM     74  C   UNL A   1      46.931  26.740  36.917  1.00  0.00     0.006 A 
ENDBRANCH  53  67
BRANCH  54  75
ATOM     75  C   UNL A   1      37.489  31.166  29.458  1.00  0.00     0.057 A 
ATOM     76  C   UNL A   1      36.392  30.349  29.161  1.00  0.00     0.134 A 
ATOM     77  C   UNL A   1      37.510  32.445  28.891  1.00  0.00     0.134 A 
ATOM     78  F   UNL A   1      36.325  29.103  29.652  1.00  0.00    -0.206 F 
ATOM     79  C   UNL A   1      35.367  30.779  28.315  1.00  0.00     0.040 A 
ATOM     80  C   UNL A   1      36.479  32.899  28.066  1.00  0.00     0.040 A 
ATOM     81  F   UNL A   1      38.534  33.278  29.133  1.00  0.00    -0.206 F 
ATOM     82  C   UNL A   1      35.407  32.060  27.769  1.00  0.00     0.006 A 
ENDBRANCH  54  75
BRANCH  66  83
ATOM     83  C   UNL A   1      39.241  32.281  36.113  1.00  0.00     0.057 A 
ATOM     84  C   UNL A   1      39.619  33.618  36.290  1.00  0.00     0.134 A 
ATOM     85  C   UNL A   1      38.234  31.778  36.948  1.00  0.00     0.134 A 
ATOM     86  F   UNL A   1      40.584  34.159  35.532  1.00  0.00    -0.206 F 
ATOM     87  C   UNL A   1      39.034  34.416  37.276  1.00  0.00     0.040 A 
ATOM     88  C   UNL A   1      37.620  32.575  37.915  1.00  0.00     0.040 A 
ATOM     89  F   UNL A   1      37.814  30.510  36.823  1.00  0.00    -0.206 F 
ATOM     90  C   UNL A   1      38.025  33.897  38.085  1.00  0.00     0.006 A 
ENDBRANCH  66  83
ENDBRANCH  40  41
ENDBRANCH  33  35
ENDBRANCH  32  33
ENDBRANCH  31  32
ENDBRANCH  30  31
ENDBRANCH  29  30
ENDBRANCH  28  29
ENDBRANCH  27  28
ENDBRANCH  26  27
ENDBRANCH   1  26
TORSDOF 23
ENDMDL
