MODEL 1
REMARK VINA RESULT:      -8.8      0.000      0.000
REMARK SMILES Cc1ccc(CN2/C(=[NH+]/C(=O)CCC(=O)OCCOCCOCCOCCOC(=O)c3ccc(-c4c5nc(c(-c6c(F)cccc6F)c6ccc([nH]6)c(-c6c(F)cccc6F)c6nc(c(-c7c(F)cccc7F)c7ccc4[nH]7)C=C6)C=C5)cc3)S[C@H]3CS(=O)(=O)C[C@@H]32)cc1
REMARK SMILES IDX 21 1 20 2 19 3 18 4 17 5 16 6 14 7 15 8 13 9 12 10 10 11
REMARK SMILES IDX 7 12 8 13 92 14 9 15 85 16 86 17 91 18 87 20 88 21 11 22
REMARK SMILES IDX 89 23 90 24 6 25 5 26 1 27 2 28 3 29 94 30 4 31 93 32 22 33
REMARK SMILES IDX 23 34 24 35 25 36 26 37 27 38 28 39 29 40 30 41 31 42 32 43
REMARK SMILES IDX 84 44 33 45 83 46 34 47 35 48 36 49 77 50 37 51 82 52 76 53
REMARK SMILES IDX 78 54 38 55 81 56 75 57 74 58 39 60 65 61 48 62 64 63 49 64
REMARK SMILES IDX 52 65 63 66 79 67 50 68 51 69 62 71 80 72 53 73 40 74 41 75
REMARK SMILES IDX 46 76 42 77 43 78 45 79 47 80 44 81 66 82 67 83 72 84 68 85
REMARK SMILES IDX 69 86 71 87 73 88 70 89 54 90 55 91 60 92 56 93 57 94 59 95
REMARK SMILES IDX 61 96 58 97
REMARK H PARENT 9 19 78 59 52 70
REMARK Flexibility Score: inf
ROOT
ATOM      1  C   UNL A   1      36.786  23.579  24.899  1.00  0.00     0.188 C 
ENDROOT
BRANCH   1   2
ATOM      2  C   UNL A   1      35.890  23.352  23.697  1.00  0.00     0.188 C 
BRANCH   2   3
ATOM      3  O   UNL A   1      34.625  22.736  23.900  1.00  0.00    -0.376 OA
BRANCH   3   4
ATOM      4  C   UNL A   1      33.556  23.703  23.894  1.00  0.00     0.202 C 
BRANCH   4   5
ATOM      5  C   UNL A   1      32.968  24.107  25.267  1.00  0.00     0.261 C 
BRANCH   5   6
ATOM      6  O   UNL A   1      31.631  24.684  25.059  1.00  0.00    -0.463 OA
BRANCH   6   7
ATOM      7  C   UNL A   1      30.932  25.364  25.991  1.00  0.00     0.306 C 
ATOM      8  O   UNL A   1      29.921  24.896  26.507  1.00  0.00    -0.252 OA
BRANCH   7   9
ATOM      9  C   UNL A   1      31.450  26.808  26.305  1.00  0.00     0.135 C 
BRANCH   9  10
ATOM     10  C   UNL A   1      32.804  27.495  26.789  1.00  0.00     0.139 C 
BRANCH  10  11
ATOM     11  C   UNL A   1      33.739  28.857  26.997  1.00  0.00     0.308 C 
ATOM     12  N   UNL A   1      36.576  30.376  30.568  1.00  0.00    -0.247 N 
ATOM     13  C   UNL A   1      36.179  29.698  29.017  1.00  0.00     0.314 C 
ATOM     14  C   UNL A   1      38.057  30.477  30.720  1.00  0.00     0.206 C 
ATOM     15  N   UNL A   1      34.592  29.353  28.290  1.00  0.00    -0.205 N 
ATOM     16  S   UNL A   1      38.090  29.412  28.379  1.00  0.00    -0.030 SA
ATOM     17  C   UNL A   1      38.615  29.229  30.059  1.00  0.00     0.120 C 
ATOM     18  C   UNL A   1      38.623  30.409  32.125  1.00  0.00     0.187 C 
ATOM     19  H   UNL A   1      33.928  29.555  28.988  1.00  0.00     0.316 HD
ATOM     20  C   UNL A   1      40.100  29.149  30.269  1.00  0.00     0.156 C 
ATOM     21  S   UNL A   1      40.312  29.887  31.874  1.00  0.00     0.155 S 
ATOM     22  O   UNL A   1      33.832  29.462  25.908  1.00  0.00    -0.247 OA
ATOM     23  O   UNL A   1      40.615  28.850  32.836  1.00  0.00    -0.229 OA
ATOM     24  O   UNL A   1      41.129  31.072  31.720  1.00  0.00    -0.229 OA
BRANCH  12  25
ATOM     25  C   UNL A   1      35.776  31.302  31.764  1.00  0.00     0.273 C 
BRANCH  25  26
ATOM     26  C   UNL A   1      35.107  32.772  31.646  1.00  0.00    -0.007 A 
ATOM     27  C   UNL A   1      33.092  36.683  31.005  1.00  0.00     0.044 C 
ATOM     28  C   UNL A   1      33.772  35.379  31.308  1.00  0.00    -0.051 A 
ATOM     29  C   UNL A   1      33.967  34.525  30.259  1.00  0.00     0.004 A 
ATOM     30  C   UNL A   1      34.336  34.981  32.526  1.00  0.00     0.004 A 
ATOM     31  C   UNL A   1      34.742  33.374  30.431  1.00  0.00     0.008 A 
ATOM     32  C   UNL A   1      34.957  33.686  32.703  1.00  0.00     0.008 A 
ENDBRANCH  25  26
ENDBRANCH  12  25
ENDBRANCH  10  11
ENDBRANCH   9  10
ENDBRANCH   7   9
ENDBRANCH   6   7
ENDBRANCH   5   6
ENDBRANCH   4   5
ENDBRANCH   3   4
ENDBRANCH   2   3
ENDBRANCH   1   2
BRANCH   1  33
ATOM     33  O   UNL A   1      36.948  22.499  25.823  1.00  0.00    -0.377 OA
BRANCH  33  34
ATOM     34  C   UNL A   1      37.991  21.585  25.599  1.00  0.00     0.188 C 
BRANCH  34  35
ATOM     35  C   UNL A   1      39.374  21.973  25.986  1.00  0.00     0.188 C 
BRANCH  35  36
ATOM     36  O   UNL A   1      39.528  22.877  27.052  1.00  0.00    -0.376 OA
BRANCH  36  37
ATOM     37  C   UNL A   1      40.857  22.991  27.555  1.00  0.00     0.202 C 
BRANCH  37  38
ATOM     38  C   UNL A   1      41.528  21.645  27.889  1.00  0.00     0.261 C 
BRANCH  38  39
ATOM     39  O   UNL A   1      42.911  21.696  27.458  1.00  0.00    -0.460 OA
BRANCH  39  40
ATOM     40  C   UNL A   1      43.140  22.159  26.198  1.00  0.00     0.338 C 
ATOM     41  O   UNL A   1      42.885  21.556  25.167  1.00  0.00    -0.246 OA
BRANCH  40  42
ATOM     42  C   UNL A   1      44.071  23.343  26.246  1.00  0.00     0.060 A 
ATOM     43  C   UNL A   1      45.145  23.320  27.140  1.00  0.00     0.016 A 
ATOM     44  C   UNL A   1      43.662  24.578  25.753  1.00  0.00     0.016 A 
ATOM     45  C   UNL A   1      45.600  24.523  27.725  1.00  0.00     0.010 A 
ATOM     46  C   UNL A   1      44.044  25.747  26.431  1.00  0.00     0.010 A 
ATOM     47  C   UNL A   1      44.923  25.728  27.530  1.00  0.00    -0.014 A 
BRANCH  47  48
ATOM     48  C   UNL A   1      45.028  26.970  28.379  1.00  0.00     0.031 A 
ATOM     49  C   UNL A   1      45.883  28.096  27.824  1.00  0.00     0.074 A 
ATOM     50  C   UNL A   1      44.350  27.311  29.538  1.00  0.00     0.049 A 
ATOM     51  N   UNL A   1      46.295  29.125  28.501  1.00  0.00    -0.248 NA
ATOM     52  C   UNL A   1      46.312  28.186  26.434  1.00  0.00     0.031 C 
ATOM     53  C   UNL A   1      44.349  28.651  30.089  1.00  0.00     0.029 A 
ATOM     54  N   UNL A   1      43.540  26.717  30.510  1.00  0.00    -0.354 N 
ATOM     55  C   UNL A   1      46.414  30.162  27.607  1.00  0.00     0.074 A 
ATOM     56  C   UNL A   1      46.674  29.474  26.365  1.00  0.00     0.031 C 
ATOM     57  C   UNL A   1      43.854  28.720  31.318  1.00  0.00     0.029 A 
ATOM     58  C   UNL A   1      43.604  27.403  31.782  1.00  0.00     0.049 A 
ATOM     59  H   UNL A   1      42.986  25.919  30.347  1.00  0.00     0.167 HD
ATOM     60  C   UNL A   1      46.070  31.441  27.988  1.00  0.00     0.037 A 
ATOM     61  C   UNL A   1      43.683  27.040  33.133  1.00  0.00     0.037 A 
ATOM     62  C   UNL A   1      45.760  31.582  29.448  1.00  0.00     0.049 A 
ATOM     63  C   UNL A   1      44.853  27.913  33.706  1.00  0.00     0.074 A 
ATOM     64  C   UNL A   1      44.738  32.142  30.210  1.00  0.00     0.029 A 
ATOM     65  N   UNL A   1      46.546  30.920  30.388  1.00  0.00    -0.354 N 
ATOM     66  N   UNL A   1      45.004  29.192  33.458  1.00  0.00    -0.248 NA
ATOM     67  C   UNL A   1      46.060  27.357  34.338  1.00  0.00     0.031 C 
ATOM     68  C   UNL A   1      44.979  31.871  31.599  1.00  0.00     0.029 A 
ATOM     69  C   UNL A   1      46.134  31.122  31.700  1.00  0.00     0.049 A 
ATOM     70  H   UNL A   1      47.320  30.362  30.147  1.00  0.00     0.167 HD
ATOM     71  C   UNL A   1      46.354  29.490  33.481  1.00  0.00     0.074 A 
ATOM     72  C   UNL A   1      46.945  28.362  34.186  1.00  0.00     0.031 C 
ATOM     73  C   UNL A   1      46.932  30.526  32.775  1.00  0.00     0.037 A 
BRANCH  60  74
ATOM     74  C   UNL A   1      45.844  32.610  27.012  1.00  0.00     0.057 A 
ATOM     75  C   UNL A   1      44.696  32.649  26.189  1.00  0.00     0.134 A 
ATOM     76  C   UNL A   1      46.715  33.699  26.786  1.00  0.00     0.134 A 
ATOM     77  F   UNL A   1      43.730  31.726  26.278  1.00  0.00    -0.206 F 
ATOM     78  C   UNL A   1      44.458  33.642  25.223  1.00  0.00     0.040 A 
ATOM     79  C   UNL A   1      46.460  34.731  25.868  1.00  0.00     0.040 A 
ATOM     80  F   UNL A   1      47.893  33.826  27.398  1.00  0.00    -0.206 F 
ATOM     81  C   UNL A   1      45.336  34.700  25.068  1.00  0.00     0.006 A 
ENDBRANCH  60  74
BRANCH  61  82
ATOM     82  C   UNL A   1      43.530  25.524  33.464  1.00  0.00     0.057 A 
ATOM     83  C   UNL A   1      44.748  24.172  33.273  1.00  0.00     0.134 A 
ATOM     84  C   UNL A   1      42.916  25.854  35.111  1.00  0.00     0.134 A 
ATOM     85  F   UNL A   1      45.379  24.003  32.104  1.00  0.00    -0.206 F 
ATOM     86  C   UNL A   1      45.394  23.234  34.744  1.00  0.00     0.040 A 
ATOM     87  C   UNL A   1      43.635  25.039  36.640  1.00  0.00     0.040 A 
ATOM     88  F   UNL A   1      41.644  26.197  34.907  1.00  0.00    -0.206 F 
ATOM     89  C   UNL A   1      44.856  23.697  36.434  1.00  0.00     0.006 A 
ENDBRANCH  61  82
BRANCH  73  90
ATOM     90  C   UNL A   1      48.352  31.051  32.979  1.00  0.00     0.057 A 
ATOM     91  C   UNL A   1      48.630  32.193  33.744  1.00  0.00     0.134 A 
ATOM     92  C   UNL A   1      49.469  30.565  32.247  1.00  0.00     0.134 A 
ATOM     93  F   UNL A   1      47.657  32.856  34.382  1.00  0.00    -0.206 F 
ATOM     94  C   UNL A   1      49.916  32.752  33.834  1.00  0.00     0.040 A 
ATOM     95  C   UNL A   1      50.745  31.130  32.305  1.00  0.00     0.040 A 
ATOM     96  F   UNL A   1      49.396  29.525  31.409  1.00  0.00    -0.206 F 
ATOM     97  C   UNL A   1      50.979  32.222  33.115  1.00  0.00     0.006 A 
ENDBRANCH  73  90
ENDBRANCH  47  48
ENDBRANCH  40  42
ENDBRANCH  39  40
ENDBRANCH  38  39
ENDBRANCH  37  38
ENDBRANCH  36  37
ENDBRANCH  35  36
ENDBRANCH  34  35
ENDBRANCH  33  34
ENDBRANCH   1  33
TORSDOF 24
ENDMDL
MODEL 2
REMARK VINA RESULT:      -8.6      3.666      9.409
REMARK SMILES Cc1ccc(CN2/C(=[NH+]/C(=O)CCC(=O)OCCOCCOCCOCCOC(=O)c3ccc(-c4c5nc(c(-c6c(F)cccc6F)c6ccc([nH]6)c(-c6c(F)cccc6F)c6nc(c(-c7c(F)cccc7F)c7ccc4[nH]7)C=C6)C=C5)cc3)S[C@H]3CS(=O)(=O)C[C@@H]32)cc1
REMARK SMILES IDX 21 1 20 2 19 3 18 4 17 5 16 6 14 7 15 8 13 9 12 10 10 11
REMARK SMILES IDX 7 12 8 13 92 14 9 15 85 16 86 17 91 18 87 20 88 21 11 22
REMARK SMILES IDX 89 23 90 24 6 25 5 26 1 27 2 28 3 29 94 30 4 31 93 32 22 33
REMARK SMILES IDX 23 34 24 35 25 36 26 37 27 38 28 39 29 40 30 41 31 42 32 43
REMARK SMILES IDX 84 44 33 45 83 46 34 47 35 48 36 49 77 50 37 51 82 52 76 53
REMARK SMILES IDX 78 54 38 55 81 56 75 57 74 58 39 60 65 61 48 62 64 63 49 64
REMARK SMILES IDX 52 65 63 66 79 67 50 68 51 69 62 71 80 72 53 73 40 74 41 75
REMARK SMILES IDX 46 76 42 77 43 78 45 79 47 80 44 81 66 82 67 83 72 84 68 85
REMARK SMILES IDX 69 86 71 87 73 88 70 89 54 90 55 91 60 92 56 93 57 94 59 95
REMARK SMILES IDX 61 96 58 97
REMARK H PARENT 9 19 78 59 52 70
REMARK Flexibility Score: inf
ROOT
ATOM      1  C   UNL A   1      38.513  30.204  33.053  1.00  0.00     0.188 C 
ENDROOT
BRANCH   1   2
ATOM      2  C   UNL A   1      37.787  29.045  32.399  1.00  0.00     0.188 C 
BRANCH   2   3
ATOM      3  O   UNL A   1      36.518  29.286  31.805  1.00  0.00    -0.376 OA
BRANCH   3   4
ATOM      4  C   UNL A   1      36.621  30.173  30.674  1.00  0.00     0.202 C 
BRANCH   4   5
ATOM      5  C   UNL A   1      36.115  31.623  30.871  1.00  0.00     0.261 C 
BRANCH   5   6
ATOM      6  O   UNL A   1      35.066  31.898  29.878  1.00  0.00    -0.463 OA
BRANCH   6   7
ATOM      7  C   UNL A   1      35.203  31.732  28.547  1.00  0.00     0.306 C 
ATOM      8  O   UNL A   1      36.164  32.191  27.936  1.00  0.00    -0.252 OA
BRANCH   7   9
ATOM      9  C   UNL A   1      34.024  30.991  27.831  1.00  0.00     0.135 C 
BRANCH   9  10
ATOM     10  C   UNL A   1      33.775  29.587  27.118  1.00  0.00     0.139 C 
BRANCH  10  11
ATOM     11  C   UNL A   1      33.720  28.658  25.737  1.00  0.00     0.308 C 
ATOM     12  N   UNL A   1      34.693  24.033  24.854  1.00  0.00    -0.247 N 
ATOM     13  C   UNL A   1      33.705  25.439  25.117  1.00  0.00     0.314 C 
ATOM     14  C   UNL A   1      33.833  22.850  24.558  1.00  0.00     0.206 C 
ATOM     15  N   UNL A   1      34.172  27.114  25.496  1.00  0.00    -0.205 N 
ATOM     16  S   UNL A   1      31.905  24.518  24.892  1.00  0.00    -0.030 SA
ATOM     17  C   UNL A   1      32.619  23.002  25.457  1.00  0.00     0.120 C 
ATOM     18  C   UNL A   1      34.373  21.483  24.929  1.00  0.00     0.187 C 
ATOM     19  H   UNL A   1      35.150  27.099  25.614  1.00  0.00     0.316 HD
ATOM     20  C   UNL A   1      31.738  21.789  25.348  1.00  0.00     0.156 C 
ATOM     21  S   UNL A   1      32.905  20.476  25.074  1.00  0.00     0.155 S 
ATOM     22  O   UNL A   1      33.122  29.288  24.840  1.00  0.00    -0.247 OA
ATOM     23  O   UNL A   1      33.016  19.682  26.278  1.00  0.00    -0.229 OA
ATOM     24  O   UNL A   1      32.631  19.894  23.777  1.00  0.00    -0.229 OA
BRANCH  12  25
ATOM     25  C   UNL A   1      36.325  23.717  24.451  1.00  0.00     0.273 C 
BRANCH  25  26
ATOM     26  C   UNL A   1      37.577  23.383  25.424  1.00  0.00    -0.007 A 
ATOM     27  C   UNL A   1      41.101  22.177  27.851  1.00  0.00     0.044 C 
ATOM     28  C   UNL A   1      39.922  22.667  27.060  1.00  0.00    -0.051 A 
ATOM     29  C   UNL A   1      39.320  21.766  26.226  1.00  0.00     0.004 A 
ATOM     30  C   UNL A   1      39.293  23.913  27.162  1.00  0.00     0.004 A 
ATOM     31  C   UNL A   1      38.119  22.099  25.591  1.00  0.00     0.008 A 
ATOM     32  C   UNL A   1      38.166  24.279  26.331  1.00  0.00     0.008 A 
ENDBRANCH  25  26
ENDBRANCH  12  25
ENDBRANCH  10  11
ENDBRANCH   9  10
ENDBRANCH   7   9
ENDBRANCH   6   7
ENDBRANCH   5   6
ENDBRANCH   4   5
ENDBRANCH   3   4
ENDBRANCH   2   3
ENDBRANCH   1   2
BRANCH   1  33
ATOM     33  O   UNL A   1      38.895  30.062  34.424  1.00  0.00    -0.377 OA
BRANCH  33  34
ATOM     34  C   UNL A   1      38.099  30.681  35.402  1.00  0.00     0.188 C 
BRANCH  34  35
ATOM     35  C   UNL A   1      38.570  31.959  36.000  1.00  0.00     0.188 C 
BRANCH  35  36
ATOM     36  O   UNL A   1      39.957  32.183  36.063  1.00  0.00    -0.376 OA
BRANCH  36  37
ATOM     37  C   UNL A   1      40.479  32.352  37.378  1.00  0.00     0.202 C 
BRANCH  37  38
ATOM     38  C   UNL A   1      40.599  33.820  37.831  1.00  0.00     0.261 C 
BRANCH  38  39
ATOM     39  O   UNL A   1      39.669  34.621  37.059  1.00  0.00    -0.460 OA
BRANCH  39  40
ATOM     40  C   UNL A   1      40.096  35.860  36.688  1.00  0.00     0.338 C 
ATOM     41  O   UNL A   1      39.880  36.894  37.302  1.00  0.00    -0.246 OA
BRANCH  40  42
ATOM     42  C   UNL A   1      40.548  35.840  35.251  1.00  0.00     0.060 A 
ATOM     43  C   UNL A   1      39.844  35.057  34.333  1.00  0.00     0.016 A 
ATOM     44  C   UNL A   1      41.844  36.224  34.918  1.00  0.00     0.016 A 
ATOM     45  C   UNL A   1      40.525  34.456  33.250  1.00  0.00     0.010 A 
ATOM     46  C   UNL A   1      42.528  35.525  33.911  1.00  0.00     0.010 A 
ATOM     47  C   UNL A   1      41.915  34.519  33.141  1.00  0.00    -0.014 A 
BRANCH  47  48
ATOM     48  C   UNL A   1      42.797  33.620  32.312  1.00  0.00     0.031 A 
ATOM     49  C   UNL A   1      42.939  33.982  30.844  1.00  0.00     0.074 A 
ATOM     50  C   UNL A   1      43.623  32.579  32.707  1.00  0.00     0.049 A 
ATOM     51  N   UNL A   1      43.439  33.207  29.928  1.00  0.00    -0.248 NA
ATOM     52  C   UNL A   1      42.572  35.276  30.282  1.00  0.00     0.031 C 
ATOM     53  C   UNL A   1      44.620  31.987  31.839  1.00  0.00     0.029 A 
ATOM     54  N   UNL A   1      43.863  31.779  33.829  1.00  0.00    -0.354 N 
ATOM     55  C   UNL A   1      44.004  34.029  28.983  1.00  0.00     0.074 A 
ATOM     56  C   UNL A   1      43.220  35.235  29.111  1.00  0.00     0.031 C 
ATOM     57  C   UNL A   1      45.131  30.858  32.310  1.00  0.00     0.029 A 
ATOM     58  C   UNL A   1      44.421  30.490  33.482  1.00  0.00     0.049 A 
ATOM     59  H   UNL A   1      43.674  32.062  34.752  1.00  0.00     0.167 HD
ATOM     60  C   UNL A   1      45.184  33.665  28.371  1.00  0.00     0.037 A 
ATOM     61  C   UNL A   1      44.235  29.160  33.880  1.00  0.00     0.037 A 
ATOM     62  C   UNL A   1      45.638  32.274  28.697  1.00  0.00     0.049 A 
ATOM     63  C   UNL A   1      44.083  28.366  32.536  1.00  0.00     0.074 A 
ATOM     64  C   UNL A   1      46.822  31.674  29.118  1.00  0.00     0.029 A 
ATOM     65  N   UNL A   1      44.707  31.240  28.757  1.00  0.00    -0.354 N 
ATOM     66  N   UNL A   1      44.857  28.539  31.490  1.00  0.00    -0.248 NA
ATOM     67  C   UNL A   1      42.902  27.561  32.185  1.00  0.00     0.031 C 
ATOM     68  C   UNL A   1      46.592  30.276  29.344  1.00  0.00     0.029 A 
ATOM     69  C   UNL A   1      45.261  30.010  29.089  1.00  0.00     0.049 A 
ATOM     70  H   UNL A   1      43.747  31.368  28.582  1.00  0.00     0.167 HD
ATOM     71  C   UNL A   1      44.121  28.278  30.349  1.00  0.00     0.074 A 
ATOM     72  C   UNL A   1      42.976  27.526  30.840  1.00  0.00     0.031 C 
ATOM     73  C   UNL A   1      44.380  28.838  29.114  1.00  0.00     0.037 A 
BRANCH  60  74
ATOM     74  C   UNL A   1      46.077  34.621  27.559  1.00  0.00     0.057 A 
ATOM     75  C   UNL A   1      45.954  34.701  26.153  1.00  0.00     0.134 A 
ATOM     76  C   UNL A   1      47.100  35.452  28.067  1.00  0.00     0.134 A 
ATOM     77  F   UNL A   1      45.016  34.018  25.485  1.00  0.00    -0.206 F 
ATOM     78  C   UNL A   1      46.782  35.493  25.339  1.00  0.00     0.040 A 
ATOM     79  C   UNL A   1      47.894  36.294  27.270  1.00  0.00     0.040 A 
ATOM     80  F   UNL A   1      47.441  35.480  29.355  1.00  0.00    -0.206 F 
ATOM     81  C   UNL A   1      47.750  36.308  25.897  1.00  0.00     0.006 A 
ENDBRANCH  60  74
BRANCH  61  82
ATOM     82  C   UNL A   1      43.303  28.916  35.106  1.00  0.00     0.057 A 
ATOM     83  C   UNL A   1      41.835  27.833  35.243  1.00  0.00     0.134 A 
ATOM     84  C   UNL A   1      44.680  28.580  36.197  1.00  0.00     0.134 A 
ATOM     85  F   UNL A   1      40.857  27.917  34.331  1.00  0.00    -0.206 F 
ATOM     86  C   UNL A   1      41.805  26.382  36.407  1.00  0.00     0.040 A 
ATOM     87  C   UNL A   1      44.760  27.053  37.284  1.00  0.00     0.040 A 
ATOM     88  F   UNL A   1      45.157  29.792  36.481  1.00  0.00    -0.206 F 
ATOM     89  C   UNL A   1      43.289  25.976  37.404  1.00  0.00     0.006 A 
ENDBRANCH  61  82
BRANCH  73  90
ATOM     90  C   UNL A   1      43.773  28.379  27.789  1.00  0.00     0.057 A 
ATOM     91  C   UNL A   1      44.515  27.692  26.819  1.00  0.00     0.134 A 
ATOM     92  C   UNL A   1      42.488  28.792  27.344  1.00  0.00     0.134 A 
ATOM     93  F   UNL A   1      45.795  27.356  27.030  1.00  0.00    -0.206 F 
ATOM     94  C   UNL A   1      43.998  27.377  25.550  1.00  0.00     0.040 A 
ATOM     95  C   UNL A   1      41.975  28.511  26.075  1.00  0.00     0.040 A 
ATOM     96  F   UNL A   1      41.651  29.515  28.096  1.00  0.00    -0.206 F 
ATOM     97  C   UNL A   1      42.726  27.785  25.174  1.00  0.00     0.006 A 
ENDBRANCH  73  90
ENDBRANCH  47  48
ENDBRANCH  40  42
ENDBRANCH  39  40
ENDBRANCH  38  39
ENDBRANCH  37  38
ENDBRANCH  36  37
ENDBRANCH  35  36
ENDBRANCH  34  35
ENDBRANCH  33  34
ENDBRANCH   1  33
TORSDOF 24
ENDMDL
MODEL 3
REMARK VINA RESULT:      -8.6      4.450      7.993
REMARK SMILES Cc1ccc(CN2/C(=[NH+]/C(=O)CCC(=O)OCCOCCOCCOCCOC(=O)c3ccc(-c4c5nc(c(-c6c(F)cccc6F)c6ccc([nH]6)c(-c6c(F)cccc6F)c6nc(c(-c7c(F)cccc7F)c7ccc4[nH]7)C=C6)C=C5)cc3)S[C@H]3CS(=O)(=O)C[C@@H]32)cc1
REMARK SMILES IDX 21 1 20 2 19 3 18 4 17 5 16 6 14 7 15 8 13 9 12 10 10 11
REMARK SMILES IDX 7 12 8 13 92 14 9 15 85 16 86 17 91 18 87 20 88 21 11 22
REMARK SMILES IDX 89 23 90 24 6 25 5 26 1 27 2 28 3 29 94 30 4 31 93 32 22 33
REMARK SMILES IDX 23 34 24 35 25 36 26 37 27 38 28 39 29 40 30 41 31 42 32 43
REMARK SMILES IDX 84 44 33 45 83 46 34 47 35 48 36 49 77 50 37 51 82 52 76 53
REMARK SMILES IDX 78 54 38 55 81 56 75 57 74 58 39 60 65 61 48 62 64 63 49 64
REMARK SMILES IDX 52 65 63 66 79 67 50 68 51 69 62 71 80 72 53 73 40 74 41 75
REMARK SMILES IDX 46 76 42 77 43 78 45 79 47 80 44 81 66 82 67 83 72 84 68 85
REMARK SMILES IDX 69 86 71 87 73 88 70 89 54 90 55 91 60 92 56 93 57 94 59 95
REMARK SMILES IDX 61 96 58 97
REMARK H PARENT 9 19 78 59 52 70
REMARK Flexibility Score: inf
ROOT
ATOM      1  C   UNL A   1      44.615  25.247  25.038  1.00  0.00     0.188 C 
ENDROOT
BRANCH   1   2
ATOM      2  C   UNL A   1      44.396  23.762  25.249  1.00  0.00     0.188 C 
BRANCH   2   3
ATOM      3  O   UNL A   1      43.870  23.323  26.494  1.00  0.00    -0.376 OA
BRANCH   3   4
ATOM      4  C   UNL A   1      43.731  24.413  27.427  1.00  0.00     0.202 C 
BRANCH   4   5
ATOM      5  C   UNL A   1      42.333  24.622  28.059  1.00  0.00     0.261 C 
BRANCH   5   6
ATOM      6  O   UNL A   1      41.326  24.637  26.986  1.00  0.00    -0.463 OA
BRANCH   6   7
ATOM      7  C   UNL A   1      40.905  25.744  26.342  1.00  0.00     0.306 C 
ATOM      8  O   UNL A   1      41.259  25.996  25.194  1.00  0.00    -0.252 OA
BRANCH   7   9
ATOM      9  C   UNL A   1      40.009  26.716  27.181  1.00  0.00     0.135 C 
BRANCH   9  10
ATOM     10  C   UNL A   1      39.856  27.157  28.706  1.00  0.00     0.139 C 
BRANCH  10  11
ATOM     11  C   UNL A   1      39.922  28.333  29.883  1.00  0.00     0.308 C 
ATOM     12  N   UNL A   1      37.897  32.673  30.301  1.00  0.00    -0.247 N 
ATOM     13  C   UNL A   1      38.127  30.978  30.609  1.00  0.00     0.314 C 
ATOM     14  C   UNL A   1      36.793  33.204  31.153  1.00  0.00     0.206 C 
ATOM     15  N   UNL A   1      39.290  29.832  29.901  1.00  0.00    -0.205 N 
ATOM     16  S   UNL A   1      36.632  30.773  31.973  1.00  0.00    -0.030 SA
ATOM     17  C   UNL A   1      35.754  32.099  31.198  1.00  0.00     0.120 C 
ATOM     18  C   UNL A   1      36.014  34.394  30.627  1.00  0.00     0.187 C 
ATOM     19  H   UNL A   1      39.768  30.333  29.201  1.00  0.00     0.316 HD
ATOM     20  C   UNL A   1      34.524  32.572  31.920  1.00  0.00     0.156 C 
ATOM     21  S   UNL A   1      34.460  34.299  31.502  1.00  0.00     0.155 S 
ATOM     22  O   UNL A   1      40.455  27.860  30.908  1.00  0.00    -0.247 OA
ATOM     23  O   UNL A   1      33.390  34.518  30.553  1.00  0.00    -0.229 OA
ATOM     24  O   UNL A   1      34.587  35.063  32.725  1.00  0.00    -0.229 OA
BRANCH  12  25
ATOM     25  C   UNL A   1      38.810  33.950  29.621  1.00  0.00     0.273 C 
BRANCH  25  26
ATOM     26  C   UNL A   1      40.343  34.386  29.914  1.00  0.00    -0.007 A 
ATOM     27  C   UNL A   1      44.568  35.286  30.964  1.00  0.00     0.044 C 
ATOM     28  C   UNL A   1      43.155  35.018  30.531  1.00  0.00    -0.051 A 
ATOM     29  C   UNL A   1      42.370  34.303  31.391  1.00  0.00     0.004 A 
ATOM     30  C   UNL A   1      42.511  35.515  29.392  1.00  0.00     0.004 A 
ATOM     31  C   UNL A   1      41.002  34.163  31.134  1.00  0.00     0.008 A 
ATOM     32  C   UNL A   1      41.142  35.174  29.068  1.00  0.00     0.008 A 
ENDBRANCH  25  26
ENDBRANCH  12  25
ENDBRANCH  10  11
ENDBRANCH   9  10
ENDBRANCH   7   9
ENDBRANCH   6   7
ENDBRANCH   5   6
ENDBRANCH   4   5
ENDBRANCH   3   4
ENDBRANCH   2   3
ENDBRANCH   1   2
BRANCH   1  33
ATOM     33  O   UNL A   1      45.949  25.694  24.779  1.00  0.00    -0.377 OA
BRANCH  33  34
ATOM     34  C   UNL A   1      46.187  27.077  24.726  1.00  0.00     0.188 C 
BRANCH  34  35
ATOM     35  C   UNL A   1      47.402  27.565  24.019  1.00  0.00     0.188 C 
BRANCH  35  36
ATOM     36  O   UNL A   1      48.452  28.084  24.798  1.00  0.00    -0.376 OA
BRANCH  36  37
ATOM     37  C   UNL A   1      49.222  27.109  25.495  1.00  0.00     0.202 C 
BRANCH  37  38
ATOM     38  C   UNL A   1      50.021  27.666  26.689  1.00  0.00     0.261 C 
BRANCH  38  39
ATOM     39  O   UNL A   1      49.998  26.688  27.759  1.00  0.00    -0.460 OA
BRANCH  39  40
ATOM     40  C   UNL A   1      49.808  27.169  29.019  1.00  0.00     0.338 C 
ATOM     41  O   UNL A   1      50.451  28.070  29.535  1.00  0.00    -0.246 OA
BRANCH  40  42
ATOM     42  C   UNL A   1      48.957  26.211  29.812  1.00  0.00     0.060 A 
ATOM     43  C   UNL A   1      47.585  26.154  29.554  1.00  0.00     0.016 A 
ATOM     44  C   UNL A   1      49.409  25.715  31.032  1.00  0.00     0.016 A 
ATOM     45  C   UNL A   1      46.681  25.865  30.601  1.00  0.00     0.010 A 
ATOM     46  C   UNL A   1      48.496  25.550  32.085  1.00  0.00     0.010 A 
ATOM     47  C   UNL A   1      47.113  25.758  31.924  1.00  0.00    -0.014 A 
BRANCH  47  48
ATOM     48  C   UNL A   1      46.260  25.862  33.163  1.00  0.00     0.031 A 
ATOM     49  C   UNL A   1      45.841  27.262  33.577  1.00  0.00     0.074 A 
ATOM     50  C   UNL A   1      45.669  24.862  33.919  1.00  0.00     0.049 A 
ATOM     51  N   UNL A   1      45.328  27.579  34.729  1.00  0.00    -0.248 NA
ATOM     52  C   UNL A   1      45.920  28.429  32.707  1.00  0.00     0.031 C 
ATOM     53  C   UNL A   1      44.650  25.122  34.916  1.00  0.00     0.029 A 
ATOM     54  N   UNL A   1      45.726  23.474  34.077  1.00  0.00    -0.354 N 
ATOM     55  C   UNL A   1      44.508  28.660  34.509  1.00  0.00     0.074 A 
ATOM     56  C   UNL A   1      45.113  29.281  33.355  1.00  0.00     0.031 C 
ATOM     57  C   UNL A   1      44.392  24.080  35.695  1.00  0.00     0.029 A 
ATOM     58  C   UNL A   1      45.321  23.049  35.399  1.00  0.00     0.049 A 
ATOM     59  H   UNL A   1      46.010  22.855  33.367  1.00  0.00     0.167 HD
ATOM     60  C   UNL A   1      43.317  28.769  35.193  1.00  0.00     0.037 A 
ATOM     61  C   UNL A   1      45.762  22.119  36.350  1.00  0.00     0.037 A 
ATOM     62  C   UNL A   1      43.131  27.740  36.267  1.00  0.00     0.049 A 
ATOM     63  C   UNL A   1      45.823  22.929  37.691  1.00  0.00     0.074 A 
ATOM     64  C   UNL A   1      42.129  26.852  36.648  1.00  0.00     0.029 A 
ATOM     65  N   UNL A   1      44.205  27.394  37.084  1.00  0.00    -0.354 N 
ATOM     66  N   UNL A   1      44.881  23.747  38.098  1.00  0.00    -0.248 NA
ATOM     67  C   UNL A   1      47.043  23.095  38.497  1.00  0.00     0.031 C 
ATOM     68  C   UNL A   1      42.598  26.047  37.740  1.00  0.00     0.029 A 
ATOM     69  C   UNL A   1      43.898  26.416  38.022  1.00  0.00     0.049 A 
ATOM     70  H   UNL A   1      45.096  27.804  37.005  1.00  0.00     0.167 HD
ATOM     71  C   UNL A   1      45.464  24.755  38.845  1.00  0.00     0.074 A 
ATOM     72  C   UNL A   1      46.770  24.216  39.193  1.00  0.00     0.031 C 
ATOM     73  C   UNL A   1      44.938  26.024  38.979  1.00  0.00     0.037 A 
BRANCH  60  74
ATOM     74  C   UNL A   1      42.177  29.731  34.810  1.00  0.00     0.057 A 
ATOM     75  C   UNL A   1      41.044  29.262  34.106  1.00  0.00     0.134 A 
ATOM     76  C   UNL A   1      42.135  31.123  35.048  1.00  0.00     0.134 A 
ATOM     77  F   UNL A   1      40.878  27.965  33.818  1.00  0.00    -0.206 F 
ATOM     78  C   UNL A   1      40.002  30.092  33.659  1.00  0.00     0.040 A 
ATOM     79  C   UNL A   1      41.070  31.953  34.660  1.00  0.00     0.040 A 
ATOM     80  F   UNL A   1      43.131  31.791  35.630  1.00  0.00    -0.206 F 
ATOM     81  C   UNL A   1      40.002  31.445  33.948  1.00  0.00     0.006 A 
ENDBRANCH  60  74
BRANCH  61  82
ATOM     82  C   UNL A   1      46.896  21.145  35.908  1.00  0.00     0.057 A 
ATOM     83  C   UNL A   1      48.670  21.492  35.623  1.00  0.00     0.134 A 
ATOM     84  C   UNL A   1      46.482  19.948  37.171  1.00  0.00     0.134 A 
ATOM     85  F   UNL A   1      49.032  22.508  34.829  1.00  0.00    -0.206 F 
ATOM     86  C   UNL A   1      49.992  20.701  36.666  1.00  0.00     0.040 A 
ATOM     87  C   UNL A   1      47.760  19.231  38.341  1.00  0.00     0.040 A 
ATOM     88  F   UNL A   1      45.411  19.329  36.674  1.00  0.00    -0.206 F 
ATOM     89  C   UNL A   1      49.527  19.593  38.050  1.00  0.00     0.006 A 
ENDBRANCH  61  82
BRANCH  73  90
ATOM     90  C   UNL A   1      45.396  27.069  39.994  1.00  0.00     0.057 A 
ATOM     91  C   UNL A   1      46.495  27.909  39.767  1.00  0.00     0.134 A 
ATOM     92  C   UNL A   1      44.892  27.130  41.322  1.00  0.00     0.134 A 
ATOM     93  F   UNL A   1      47.174  27.870  38.612  1.00  0.00    -0.206 F 
ATOM     94  C   UNL A   1      46.996  28.786  40.745  1.00  0.00     0.040 A 
ATOM     95  C   UNL A   1      45.401  27.975  42.311  1.00  0.00     0.040 A 
ATOM     96  F   UNL A   1      43.889  26.360  41.759  1.00  0.00    -0.206 F 
ATOM     97  C   UNL A   1      46.451  28.822  42.021  1.00  0.00     0.006 A 
ENDBRANCH  73  90
ENDBRANCH  47  48
ENDBRANCH  40  42
ENDBRANCH  39  40
ENDBRANCH  38  39
ENDBRANCH  37  38
ENDBRANCH  36  37
ENDBRANCH  35  36
ENDBRANCH  34  35
ENDBRANCH  33  34
ENDBRANCH   1  33
TORSDOF 24
ENDMDL
