MODEL 1
REMARK VINA RESULT:     -10.7      0.000      0.000
REMARK SMILES CS(=O)(=O)c1ccc(C2=NN(c3ccc(C(=O)OCCOCCOCCOCCOC(=O)c4ccc(-c5c6nc(c(-c7c(F)cccc7F)c7ccc([nH]7)c(-c7c(F)cccc7F)c7nc(c(-c8c(F)cccc8F)c8ccc5[nH]8)C=C7)C=C6)cc4)cc3)[C@H](c3ccc(Cl)cc3)C2)cc1
REMARK SMILES IDX 23 1 22 2 21 3 20 4 19 5 18 6 16 7 17 8 15 9 12 10 13 11
REMARK SMILES IDX 88 12 14 13 87 14 11 15 9 16 10 17 97 18 89 19 8 20 5 21
REMARK SMILES IDX 6 22 99 23 7 24 98 25 2 26 1 27 3 28 4 29 90 30 91 31 96 32
REMARK SMILES IDX 92 33 95 34 93 35 94 36 24 37 25 38 26 39 27 40 28 41 29 42
REMARK SMILES IDX 30 43 31 44 32 45 33 46 34 47 86 48 35 49 85 50 36 51 37 52
REMARK SMILES IDX 38 53 79 54 39 55 84 56 78 57 80 58 40 59 83 60 77 61 76 62
REMARK SMILES IDX 41 64 67 65 50 66 66 67 51 68 54 69 65 70 81 71 52 72 53 73
REMARK SMILES IDX 64 75 82 76 55 77 42 78 43 79 48 80 44 81 45 82 47 83 49 84
REMARK SMILES IDX 46 85 68 86 69 87 74 88 70 89 71 90 73 91 75 92 72 93 56 94
REMARK SMILES IDX 57 95 62 96 58 97 59 98 61 99 63 100 60 101
REMARK H PARENT 80 63 54 74
REMARK Flexibility Score: inf
ROOT
ATOM      1  C   UNL A   1      40.142  29.481  28.992  1.00  0.00     0.188 C 
ENDROOT
BRANCH   1   2
ATOM      2  C   UNL A   1      38.855  30.287  29.263  1.00  0.00     0.188 C 
BRANCH   2   3
ATOM      3  O   UNL A   1      37.760  29.475  29.648  1.00  0.00    -0.376 OA
BRANCH   3   4
ATOM      4  C   UNL A   1      36.470  30.030  29.821  1.00  0.00     0.202 C 
BRANCH   4   5
ATOM      5  C   UNL A   1      36.053  31.381  29.216  1.00  0.00     0.261 C 
BRANCH   5   6
ATOM      6  O   UNL A   1      35.535  31.366  27.887  1.00  0.00    -0.460 OA
BRANCH   6   7
ATOM      7  C   UNL A   1      34.196  31.417  27.733  1.00  0.00     0.338 C 
ATOM      8  O   UNL A   1      33.488  32.403  27.834  1.00  0.00    -0.246 OA
BRANCH   7   9
ATOM      9  C   UNL A   1      33.739  30.090  27.245  1.00  0.00     0.060 A 
ATOM     10  C   UNL A   1      32.933  27.611  26.204  1.00  0.00     0.060 A 
ATOM     11  C   UNL A   1      34.294  27.915  26.330  1.00  0.00     0.029 A 
ATOM     12  C   UNL A   1      31.992  28.501  26.739  1.00  0.00     0.029 A 
ATOM     13  C   UNL A   1      34.698  29.153  26.842  1.00  0.00     0.018 A 
ATOM     14  C   UNL A   1      32.383  29.743  27.235  1.00  0.00     0.018 A 
BRANCH  10  15
ATOM     15  N   UNL A   1      32.487  26.548  25.408  1.00  0.00    -0.257 N 
ATOM     16  C   UNL A   1      32.815  24.576  24.665  1.00  0.00     0.071 C 
ATOM     17  N   UNL A   1      32.784  25.269  25.761  1.00  0.00    -0.176 NA
ATOM     18  C   UNL A   1      32.669  25.354  23.388  1.00  0.00     0.091 C 
ATOM     19  C   UNL A   1      32.432  26.764  23.945  1.00  0.00     0.144 C 
BRANCH  16  20
ATOM     20  C   UNL A   1      32.948  23.107  24.653  1.00  0.00    -0.002 A 
ATOM     21  C   UNL A   1      33.087  20.322  24.616  1.00  0.00     0.067 A 
ATOM     22  C   UNL A   1      31.868  20.946  24.887  1.00  0.00     0.021 A 
ATOM     23  C   UNL A   1      34.236  21.084  24.362  1.00  0.00     0.021 A 
ATOM     24  C   UNL A   1      31.803  22.341  24.911  1.00  0.00     0.011 A 
ATOM     25  C   UNL A   1      34.165  22.482  24.376  1.00  0.00     0.011 A 
BRANCH  21  26
ATOM     26  S   UNL A   1      33.217  18.547  24.593  1.00  0.00     0.175 S 
ATOM     27  C   UNL A   1      32.524  18.013  23.052  1.00  0.00     0.163 C 
ATOM     28  O   UNL A   1      32.371  18.061  25.665  1.00  0.00    -0.224 OA
ATOM     29  O   UNL A   1      34.633  18.232  24.551  1.00  0.00    -0.224 OA
ENDBRANCH  21  26
ENDBRANCH  16  20
BRANCH  19  30
ATOM     30  C   UNL A   1      31.152  27.498  23.549  1.00  0.00    -0.023 A 
ATOM     31  C   UNL A   1      29.870  26.934  23.611  1.00  0.00     0.007 A 
ATOM     32  C   UNL A   1      31.249  28.853  23.161  1.00  0.00     0.007 A 
ATOM     33  C   UNL A   1      28.732  27.702  23.326  1.00  0.00     0.021 A 
ATOM     34  C   UNL A   1      30.115  29.635  22.933  1.00  0.00     0.021 A 
ATOM     35  C   UNL A   1      28.858  29.053  23.015  1.00  0.00     0.041 A 
ATOM     36  Cl  UNL A   1      27.453  30.009  22.746  1.00  0.00    -0.084 Cl
ENDBRANCH  19  30
ENDBRANCH  10  15
ENDBRANCH   7   9
ENDBRANCH   6   7
ENDBRANCH   5   6
ENDBRANCH   4   5
ENDBRANCH   3   4
ENDBRANCH   2   3
ENDBRANCH   1   2
BRANCH   1  37
ATOM     37  O   UNL A   1      39.952  28.152  28.533  1.00  0.00    -0.377 OA
BRANCH  37  38
ATOM     38  C   UNL A   1      40.411  27.789  27.231  1.00  0.00     0.188 C 
BRANCH  38  39
ATOM     39  C   UNL A   1      40.596  26.320  26.772  1.00  0.00     0.188 C 
BRANCH  39  40
ATOM     40  O   UNL A   1      39.637  25.403  27.270  1.00  0.00    -0.376 OA
BRANCH  40  41
ATOM     41  C   UNL A   1      40.075  24.131  27.709  1.00  0.00     0.202 C 
BRANCH  41  42
ATOM     42  C   UNL A   1      40.701  23.212  26.652  1.00  0.00     0.261 C 
BRANCH  42  43
ATOM     43  O   UNL A   1      42.002  22.697  26.967  1.00  0.00    -0.460 OA
BRANCH  43  44
ATOM     44  C   UNL A   1      42.961  22.861  26.034  1.00  0.00     0.338 C 
ATOM     45  O   UNL A   1      43.236  22.104  25.114  1.00  0.00    -0.246 OA
BRANCH  44  46
ATOM     46  C   UNL A   1      43.528  24.212  26.194  1.00  0.00     0.060 A 
ATOM     47  C   UNL A   1      43.630  25.041  25.070  1.00  0.00     0.016 A 
ATOM     48  C   UNL A   1      43.975  24.650  27.443  1.00  0.00     0.016 A 
ATOM     49  C   UNL A   1      44.238  26.290  25.180  1.00  0.00     0.010 A 
ATOM     50  C   UNL A   1      44.600  25.894  27.549  1.00  0.00     0.010 A 
ATOM     51  C   UNL A   1      44.778  26.696  26.407  1.00  0.00    -0.014 A 
BRANCH  51  52
ATOM     52  C   UNL A   1      45.726  27.836  26.436  1.00  0.00     0.031 A 
ATOM     53  C   UNL A   1      47.194  27.542  26.266  1.00  0.00     0.074 A 
ATOM     54  C   UNL A   1      45.299  29.103  26.560  1.00  0.00     0.049 A 
ATOM     55  N   UNL A   1      48.213  28.360  26.265  1.00  0.00    -0.248 NA
ATOM     56  C   UNL A   1      47.558  26.128  26.069  1.00  0.00     0.031 C 
ATOM     57  C   UNL A   1      43.905  29.519  26.688  1.00  0.00     0.029 A 
ATOM     58  N   UNL A   1      46.009  30.277  26.598  1.00  0.00    -0.354 N 
ATOM     59  C   UNL A   1      49.336  27.563  26.077  1.00  0.00     0.074 A 
ATOM     60  C   UNL A   1      48.878  26.193  26.006  1.00  0.00     0.031 C 
ATOM     61  C   UNL A   1      43.860  30.859  26.798  1.00  0.00     0.029 A 
ATOM     62  C   UNL A   1      45.222  31.389  26.780  1.00  0.00     0.049 A 
ATOM     63  H   UNL A   1      46.988  30.319  26.504  1.00  0.00     0.167 HD
ATOM     64  C   UNL A   1      50.631  27.938  25.961  1.00  0.00     0.037 A 
ATOM     65  C   UNL A   1      45.570  32.682  26.931  1.00  0.00     0.037 A 
ATOM     66  C   UNL A   1      51.084  29.301  26.035  1.00  0.00     0.049 A 
ATOM     67  C   UNL A   1      47.026  33.068  26.871  1.00  0.00     0.074 A 
ATOM     68  C   UNL A   1      52.375  29.788  25.919  1.00  0.00     0.029 A 
ATOM     69  N   UNL A   1      50.261  30.395  26.253  1.00  0.00    -0.354 N 
ATOM     70  N   UNL A   1      48.079  32.310  26.670  1.00  0.00    -0.248 NA
ATOM     71  C   UNL A   1      47.340  34.492  27.050  1.00  0.00     0.031 C 
ATOM     72  C   UNL A   1      52.339  31.171  26.126  1.00  0.00     0.029 A 
ATOM     73  C   UNL A   1      51.018  31.554  26.300  1.00  0.00     0.049 A 
ATOM     74  H   UNL A   1      49.283  30.355  26.357  1.00  0.00     0.167 HD
ATOM     75  C   UNL A   1      49.172  33.169  26.659  1.00  0.00     0.074 A 
ATOM     76  C   UNL A   1      48.652  34.506  26.863  1.00  0.00     0.031 C 
ATOM     77  C   UNL A   1      50.487  32.880  26.492  1.00  0.00     0.037 A 
BRANCH  64  78
ATOM     78  C   UNL A   1      51.652  26.851  25.777  1.00  0.00     0.057 A 
ATOM     79  C   UNL A   1      52.080  26.438  24.508  1.00  0.00     0.134 A 
ATOM     80  C   UNL A   1      52.229  26.223  26.888  1.00  0.00     0.134 A 
ATOM     81  F   UNL A   1      51.555  26.986  23.401  1.00  0.00    -0.206 F 
ATOM     82  C   UNL A   1      53.025  25.422  24.350  1.00  0.00     0.040 A 
ATOM     83  C   UNL A   1      53.198  25.228  26.743  1.00  0.00     0.040 A 
ATOM     84  F   UNL A   1      51.867  26.569  28.131  1.00  0.00    -0.206 F 
ATOM     85  C   UNL A   1      53.592  24.820  25.471  1.00  0.00     0.006 A 
ENDBRANCH  64  78
BRANCH  65  86
ATOM     86  C   UNL A   1      44.525  33.714  27.163  1.00  0.00     0.057 A 
ATOM     87  C   UNL A   1      44.083  34.026  28.454  1.00  0.00     0.134 A 
ATOM     88  C   UNL A   1      43.919  34.388  26.095  1.00  0.00     0.134 A 
ATOM     89  F   UNL A   1      44.606  33.397  29.517  1.00  0.00    -0.206 F 
ATOM     90  C   UNL A   1      43.062  34.952  28.675  1.00  0.00     0.040 A 
ATOM     91  C   UNL A   1      42.919  35.339  26.303  1.00  0.00     0.040 A 
ATOM     92  F   UNL A   1      44.297  34.136  24.834  1.00  0.00    -0.206 F 
ATOM     93  C   UNL A   1      42.480  35.615  27.596  1.00  0.00     0.006 A 
ENDBRANCH  65  86
BRANCH  77  94
ATOM     94  C   UNL A   1      51.450  34.034  26.462  1.00  0.00     0.057 A 
ATOM     95  C   UNL A   1      51.794  34.693  25.275  1.00  0.00     0.134 A 
ATOM     96  C   UNL A   1      52.020  34.510  27.652  1.00  0.00     0.134 A 
ATOM     97  F   UNL A   1      51.292  34.285  24.100  1.00  0.00    -0.206 F 
ATOM     98  C   UNL A   1      52.696  35.760  25.267  1.00  0.00     0.040 A 
ATOM     99  C   UNL A   1      52.896  35.596  27.661  1.00  0.00     0.040 A 
ATOM    100  F   UNL A   1      51.724  33.936  28.827  1.00  0.00    -0.206 F 
ATOM    101  C   UNL A   1      53.244  36.219  26.463  1.00  0.00     0.006 A 
ENDBRANCH  77  94
ENDBRANCH  51  52
ENDBRANCH  44  46
ENDBRANCH  43  44
ENDBRANCH  42  43
ENDBRANCH  41  42
ENDBRANCH  40  41
ENDBRANCH  39  40
ENDBRANCH  38  39
ENDBRANCH  37  38
ENDBRANCH   1  37
TORSDOF 24
ENDMDL
MODEL 2
REMARK VINA RESULT:      -9.3      4.159      8.006
REMARK SMILES CS(=O)(=O)c1ccc(C2=NN(c3ccc(C(=O)OCCOCCOCCOCCOC(=O)c4ccc(-c5c6nc(c(-c7c(F)cccc7F)c7ccc([nH]7)c(-c7c(F)cccc7F)c7nc(c(-c8c(F)cccc8F)c8ccc5[nH]8)C=C7)C=C6)cc4)cc3)[C@H](c3ccc(Cl)cc3)C2)cc1
REMARK SMILES IDX 23 1 22 2 21 3 20 4 19 5 18 6 16 7 17 8 15 9 12 10 13 11
REMARK SMILES IDX 88 12 14 13 87 14 11 15 9 16 10 17 97 18 89 19 8 20 5 21
REMARK SMILES IDX 6 22 99 23 7 24 98 25 2 26 1 27 3 28 4 29 90 30 91 31 96 32
REMARK SMILES IDX 92 33 95 34 93 35 94 36 24 37 25 38 26 39 27 40 28 41 29 42
REMARK SMILES IDX 30 43 31 44 32 45 33 46 34 47 86 48 35 49 85 50 36 51 37 52
REMARK SMILES IDX 38 53 79 54 39 55 84 56 78 57 80 58 40 59 83 60 77 61 76 62
REMARK SMILES IDX 41 64 67 65 50 66 66 67 51 68 54 69 65 70 81 71 52 72 53 73
REMARK SMILES IDX 64 75 82 76 55 77 42 78 43 79 48 80 44 81 45 82 47 83 49 84
REMARK SMILES IDX 46 85 68 86 69 87 74 88 70 89 71 90 73 91 75 92 72 93 56 94
REMARK SMILES IDX 57 95 62 96 58 97 59 98 61 99 63 100 60 101
REMARK H PARENT 80 63 54 74
REMARK Flexibility Score: inf
ROOT
ATOM      1  C   UNL A   1      39.929  29.403  29.298  1.00  0.00     0.188 C 
ENDROOT
BRANCH   1   2
ATOM      2  C   UNL A   1      38.588  30.129  29.526  1.00  0.00     0.188 C 
BRANCH   2   3
ATOM      3  O   UNL A   1      37.517  29.245  29.805  1.00  0.00    -0.376 OA
BRANCH   3   4
ATOM      4  C   UNL A   1      36.174  29.648  29.613  1.00  0.00     0.202 C 
BRANCH   4   5
ATOM      5  C   UNL A   1      35.782  30.892  28.800  1.00  0.00     0.261 C 
BRANCH   5   6
ATOM      6  O   UNL A   1      35.169  30.674  27.530  1.00  0.00    -0.460 OA
BRANCH   6   7
ATOM      7  C   UNL A   1      33.822  30.647  27.479  1.00  0.00     0.338 C 
ATOM      8  O   UNL A   1      33.067  31.588  27.650  1.00  0.00    -0.246 OA
BRANCH   7   9
ATOM      9  C   UNL A   1      33.407  29.301  27.004  1.00  0.00     0.060 A 
ATOM     10  C   UNL A   1      32.656  26.798  25.981  1.00  0.00     0.060 A 
ATOM     11  C   UNL A   1      33.986  27.227  25.892  1.00  0.00     0.029 A 
ATOM     12  C   UNL A   1      31.747  27.571  26.714  1.00  0.00     0.029 A 
ATOM     13  C   UNL A   1      34.361  28.478  26.394  1.00  0.00     0.018 A 
ATOM     14  C   UNL A   1      32.106  28.826  27.203  1.00  0.00     0.018 A 
BRANCH  10  15
ATOM     15  N   UNL A   1      32.175  25.728  25.215  1.00  0.00    -0.257 N 
ATOM     16  C   UNL A   1      32.513  23.788  24.395  1.00  0.00     0.071 C 
ATOM     17  N   UNL A   1      32.572  24.460  25.503  1.00  0.00    -0.176 NA
ATOM     18  C   UNL A   1      32.186  24.581  23.160  1.00  0.00     0.091 C 
ATOM     19  C   UNL A   1      31.945  25.967  23.773  1.00  0.00     0.144 C 
BRANCH  16  20
ATOM     20  C   UNL A   1      32.715  22.329  24.333  1.00  0.00    -0.002 A 
ATOM     21  C   UNL A   1      33.081  19.564  24.328  1.00  0.00     0.067 A 
ATOM     22  C   UNL A   1      33.240  20.277  25.518  1.00  0.00     0.021 A 
ATOM     23  C   UNL A   1      32.740  20.227  23.141  1.00  0.00     0.021 A 
ATOM     24  C   UNL A   1      33.062  21.662  25.516  1.00  0.00     0.011 A 
ATOM     25  C   UNL A   1      32.551  21.614  23.145  1.00  0.00     0.011 A 
BRANCH  21  26
ATOM     26  S   UNL A   1      33.317  17.800  24.284  1.00  0.00     0.175 S 
ATOM     27  C   UNL A   1      32.706  17.174  25.825  1.00  0.00     0.163 C 
ATOM     28  O   UNL A   1      34.748  17.580  24.238  1.00  0.00    -0.224 OA
ATOM     29  O   UNL A   1      32.443  17.288  23.244  1.00  0.00    -0.224 OA
ENDBRANCH  21  26
ENDBRANCH  16  20
BRANCH  19  30
ATOM     30  C   UNL A   1      30.594  26.642  23.540  1.00  0.00    -0.023 A 
ATOM     31  C   UNL A   1      29.373  26.142  24.013  1.00  0.00     0.007 A 
ATOM     32  C   UNL A   1      30.573  27.882  22.866  1.00  0.00     0.007 A 
ATOM     33  C   UNL A   1      28.186  26.869  23.845  1.00  0.00     0.021 A 
ATOM     34  C   UNL A   1      29.403  28.635  22.748  1.00  0.00     0.021 A 
ATOM     35  C   UNL A   1      28.210  28.122  23.239  1.00  0.00     0.041 A 
ATOM     36  Cl  UNL A   1      26.764  29.044  23.109  1.00  0.00    -0.084 Cl
ENDBRANCH  19  30
ENDBRANCH  10  15
ENDBRANCH   7   9
ENDBRANCH   6   7
ENDBRANCH   5   6
ENDBRANCH   4   5
ENDBRANCH   3   4
ENDBRANCH   2   3
ENDBRANCH   1   2
BRANCH   1  37
ATOM     37  O   UNL A   1      39.861  27.987  29.233  1.00  0.00    -0.377 OA
BRANCH  37  38
ATOM     38  C   UNL A   1      39.795  27.347  27.958  1.00  0.00     0.188 C 
BRANCH  38  39
ATOM     39  C   UNL A   1      40.744  26.198  27.532  1.00  0.00     0.188 C 
BRANCH  39  40
ATOM     40  O   UNL A   1      41.441  25.562  28.589  1.00  0.00    -0.376 OA
BRANCH  40  41
ATOM     41  C   UNL A   1      42.784  25.167  28.380  1.00  0.00     0.202 C 
BRANCH  41  42
ATOM     42  C   UNL A   1      43.371  25.426  26.987  1.00  0.00     0.261 C 
BRANCH  42  43
ATOM     43  O   UNL A   1      44.392  26.433  26.920  1.00  0.00    -0.460 OA
BRANCH  43  44
ATOM     44  C   UNL A   1      44.084  27.565  26.257  1.00  0.00     0.338 C 
ATOM     45  O   UNL A   1      43.808  27.677  25.070  1.00  0.00    -0.246 OA
BRANCH  44  46
ATOM     46  C   UNL A   1      43.955  28.652  27.244  1.00  0.00     0.060 A 
ATOM     47  C   UNL A   1      42.925  29.588  27.090  1.00  0.00     0.016 A 
ATOM     48  C   UNL A   1      44.859  28.758  28.304  1.00  0.00     0.016 A 
ATOM     49  C   UNL A   1      42.834  30.672  27.962  1.00  0.00     0.010 A 
ATOM     50  C   UNL A   1      44.777  29.853  29.167  1.00  0.00     0.010 A 
ATOM     51  C   UNL A   1      43.794  30.840  28.966  1.00  0.00    -0.014 A 
BRANCH  51  52
ATOM     52  C   UNL A   1      43.909  32.154  29.643  1.00  0.00     0.031 A 
ATOM     53  C   UNL A   1      43.055  32.402  30.858  1.00  0.00     0.074 A 
ATOM     54  C   UNL A   1      44.781  33.087  29.226  1.00  0.00     0.049 A 
ATOM     55  N   UNL A   1      42.967  33.467  31.612  1.00  0.00    -0.248 NA
ATOM     56  C   UNL A   1      42.180  31.295  31.278  1.00  0.00     0.031 C 
ATOM     57  C   UNL A   1      45.691  32.950  28.091  1.00  0.00     0.029 A 
ATOM     58  N   UNL A   1      45.038  34.342  29.717  1.00  0.00    -0.354 N 
ATOM     59  C   UNL A   1      42.025  33.161  32.587  1.00  0.00     0.074 A 
ATOM     60  C   UNL A   1      41.541  31.828  32.308  1.00  0.00     0.031 C 
ATOM     61  C   UNL A   1      46.405  34.083  27.968  1.00  0.00     0.029 A 
ATOM     62  C   UNL A   1      45.979  35.033  28.994  1.00  0.00     0.049 A 
ATOM     63  H   UNL A   1      44.591  34.713  30.512  1.00  0.00     0.167 HD
ATOM     64  C   UNL A   1      41.609  33.918  33.629  1.00  0.00     0.037 A 
ATOM     65  C   UNL A   1      46.430  36.295  29.138  1.00  0.00     0.037 A 
ATOM     66  C   UNL A   1      42.090  35.245  33.904  1.00  0.00     0.049 A 
ATOM     67  C   UNL A   1      45.898  37.146  30.264  1.00  0.00     0.074 A 
ATOM     68  C   UNL A   1      41.740  36.092  34.941  1.00  0.00     0.029 A 
ATOM     69  N   UNL A   1      43.019  35.923  33.129  1.00  0.00    -0.354 N 
ATOM     70  N   UNL A   1      45.024  36.841  31.195  1.00  0.00    -0.248 NA
ATOM     71  C   UNL A   1      46.423  38.514  30.364  1.00  0.00     0.031 C 
ATOM     72  C   UNL A   1      42.413  37.305  34.760  1.00  0.00     0.029 A 
ATOM     73  C   UNL A   1      43.237  37.188  33.651  1.00  0.00     0.049 A 
ATOM     74  H   UNL A   1      43.461  35.559  32.328  1.00  0.00     0.167 HD
ATOM     75  C   UNL A   1      44.926  37.962  32.010  1.00  0.00     0.074 A 
ATOM     76  C   UNL A   1      45.838  38.950  31.470  1.00  0.00     0.031 C 
ATOM     77  C   UNL A   1      44.155  38.157  33.109  1.00  0.00     0.037 A 
BRANCH  64  78
ATOM     78  C   UNL A   1      40.556  33.336  34.529  1.00  0.00     0.057 A 
ATOM     79  C   UNL A   1      40.877  32.689  35.731  1.00  0.00     0.134 A 
ATOM     80  C   UNL A   1      39.200  33.442  34.198  1.00  0.00     0.134 A 
ATOM     81  F   UNL A   1      42.158  32.537  36.101  1.00  0.00    -0.206 F 
ATOM     82  C   UNL A   1      39.889  32.147  36.556  1.00  0.00     0.040 A 
ATOM     83  C   UNL A   1      38.201  32.932  35.029  1.00  0.00     0.040 A 
ATOM     84  F   UNL A   1      38.821  34.050  33.064  1.00  0.00    -0.206 F 
ATOM     85  C   UNL A   1      38.546  32.275  36.208  1.00  0.00     0.006 A 
ENDBRANCH  64  78
BRANCH  65  86
ATOM     86  C   UNL A   1      47.435  36.843  28.189  1.00  0.00     0.057 A 
ATOM     87  C   UNL A   1      47.049  37.432  26.980  1.00  0.00     0.134 A 
ATOM     88  C   UNL A   1      48.807  36.758  28.455  1.00  0.00     0.134 A 
ATOM     89  F   UNL A   1      45.751  37.522  26.655  1.00  0.00    -0.206 F 
ATOM     90  C   UNL A   1      47.990  37.897  26.059  1.00  0.00     0.040 A 
ATOM     91  C   UNL A   1      49.758  37.245  27.557  1.00  0.00     0.040 A 
ATOM     92  F   UNL A   1      49.243  36.205  29.596  1.00  0.00    -0.206 F 
ATOM     93  C   UNL A   1      49.350  37.807  26.350  1.00  0.00     0.006 A 
ENDBRANCH  65  86
BRANCH  77  94
ATOM     94  C   UNL A   1      44.306  39.465  33.837  1.00  0.00     0.057 A 
ATOM     95  C   UNL A   1      43.494  40.573  33.562  1.00  0.00     0.134 A 
ATOM     96  C   UNL A   1      45.263  39.604  34.852  1.00  0.00     0.134 A 
ATOM     97  F   UNL A   1      42.563  40.512  32.597  1.00  0.00    -0.206 F 
ATOM     98  C   UNL A   1      43.653  41.781  34.244  1.00  0.00     0.040 A 
ATOM     99  C   UNL A   1      45.408  40.795  35.563  1.00  0.00     0.040 A 
ATOM    100  F   UNL A   1      46.065  38.579  35.178  1.00  0.00    -0.206 F 
ATOM    101  C   UNL A   1      44.607  41.892  35.253  1.00  0.00     0.006 A 
ENDBRANCH  77  94
ENDBRANCH  51  52
ENDBRANCH  44  46
ENDBRANCH  43  44
ENDBRANCH  42  43
ENDBRANCH  41  42
ENDBRANCH  40  41
ENDBRANCH  39  40
ENDBRANCH  38  39
ENDBRANCH  37  38
ENDBRANCH   1  37
TORSDOF 24
ENDMDL
MODEL 3
REMARK VINA RESULT:      -9.1      6.404     10.251
REMARK SMILES CS(=O)(=O)c1ccc(C2=NN(c3ccc(C(=O)OCCOCCOCCOCCOC(=O)c4ccc(-c5c6nc(c(-c7c(F)cccc7F)c7ccc([nH]7)c(-c7c(F)cccc7F)c7nc(c(-c8c(F)cccc8F)c8ccc5[nH]8)C=C7)C=C6)cc4)cc3)[C@H](c3ccc(Cl)cc3)C2)cc1
REMARK SMILES IDX 23 1 22 2 21 3 20 4 19 5 18 6 16 7 17 8 15 9 12 10 13 11
REMARK SMILES IDX 88 12 14 13 87 14 11 15 9 16 10 17 97 18 89 19 8 20 5 21
REMARK SMILES IDX 6 22 99 23 7 24 98 25 2 26 1 27 3 28 4 29 90 30 91 31 96 32
REMARK SMILES IDX 92 33 95 34 93 35 94 36 24 37 25 38 26 39 27 40 28 41 29 42
REMARK SMILES IDX 30 43 31 44 32 45 33 46 34 47 86 48 35 49 85 50 36 51 37 52
REMARK SMILES IDX 38 53 79 54 39 55 84 56 78 57 80 58 40 59 83 60 77 61 76 62
REMARK SMILES IDX 41 64 67 65 50 66 66 67 51 68 54 69 65 70 81 71 52 72 53 73
REMARK SMILES IDX 64 75 82 76 55 77 42 78 43 79 48 80 44 81 45 82 47 83 49 84
REMARK SMILES IDX 46 85 68 86 69 87 74 88 70 89 71 90 73 91 75 92 72 93 56 94
REMARK SMILES IDX 57 95 62 96 58 97 59 98 61 99 63 100 60 101
REMARK H PARENT 80 63 54 74
REMARK Flexibility Score: inf
ROOT
ATOM      1  C   UNL A   1      44.098  31.659  39.581  1.00  0.00     0.188 C 
ENDROOT
BRANCH   1   2
ATOM      2  C   UNL A   1      45.002  31.676  38.332  1.00  0.00     0.188 C 
BRANCH   2   3
ATOM      3  O   UNL A   1      44.274  31.635  37.117  1.00  0.00    -0.376 OA
BRANCH   3   4
ATOM      4  C   UNL A   1      44.868  31.142  35.931  1.00  0.00     0.202 C 
BRANCH   4   5
ATOM      5  C   UNL A   1      45.173  29.652  35.705  1.00  0.00     0.261 C 
BRANCH   5   6
ATOM      6  O   UNL A   1      44.163  28.870  35.070  1.00  0.00    -0.460 OA
BRANCH   6   7
ATOM      7  C   UNL A   1      43.066  28.556  35.789  1.00  0.00     0.338 C 
ATOM      8  O   UNL A   1      43.032  28.239  36.965  1.00  0.00    -0.246 OA
BRANCH   7   9
ATOM      9  C   UNL A   1      41.872  28.830  34.948  1.00  0.00     0.060 A 
ATOM     10  C   UNL A   1      39.700  29.403  33.266  1.00  0.00     0.060 A 
ATOM     11  C   UNL A   1      40.690  28.501  32.857  1.00  0.00     0.029 A 
ATOM     12  C   UNL A   1      39.737  29.896  34.577  1.00  0.00     0.029 A 
ATOM     13  C   UNL A   1      41.779  28.220  33.691  1.00  0.00     0.018 A 
ATOM     14  C   UNL A   1      40.824  29.635  35.409  1.00  0.00     0.018 A 
BRANCH  10  15
ATOM     15  N   UNL A   1      38.790  29.958  32.357  1.00  0.00    -0.257 N 
ATOM     16  C   UNL A   1      37.008  31.085  32.034  1.00  0.00     0.071 C 
ATOM     17  N   UNL A   1      38.136  31.107  32.673  1.00  0.00    -0.176 NA
ATOM     18  C   UNL A   1      36.698  29.817  31.288  1.00  0.00     0.091 C 
ATOM     19  C   UNL A   1      37.990  29.026  31.533  1.00  0.00     0.144 C 
BRANCH  16  20
ATOM     20  C   UNL A   1      36.088  32.237  31.995  1.00  0.00    -0.002 A 
ATOM     21  C   UNL A   1      34.297  34.369  31.833  1.00  0.00     0.067 A 
ATOM     22  C   UNL A   1      34.483  33.541  30.725  1.00  0.00     0.021 A 
ATOM     23  C   UNL A   1      35.002  34.136  33.022  1.00  0.00     0.021 A 
ATOM     24  C   UNL A   1      35.385  32.478  30.806  1.00  0.00     0.011 A 
ATOM     25  C   UNL A   1      35.897  33.063  33.105  1.00  0.00     0.011 A 
BRANCH  21  26
ATOM     26  S   UNL A   1      33.170  35.745  31.764  1.00  0.00     0.175 S 
ATOM     27  C   UNL A   1      32.917  36.100  30.047  1.00  0.00     0.163 C 
ATOM     28  O   UNL A   1      33.860  36.869  32.365  1.00  0.00    -0.224 OA
ATOM     29  O   UNL A   1      31.902  35.273  32.289  1.00  0.00    -0.224 OA
ENDBRANCH  21  26
ENDBRANCH  16  20
BRANCH  19  30
ATOM     30  C   UNL A   1      38.788  28.544  30.322  1.00  0.00    -0.023 A 
ATOM     31  C   UNL A   1      38.976  27.195  29.989  1.00  0.00     0.007 A 
ATOM     32  C   UNL A   1      39.315  29.512  29.439  1.00  0.00     0.007 A 
ATOM     33  C   UNL A   1      39.636  26.832  28.808  1.00  0.00     0.021 A 
ATOM     34  C   UNL A   1      39.922  29.154  28.234  1.00  0.00     0.021 A 
ATOM     35  C   UNL A   1      40.081  27.810  27.923  1.00  0.00     0.041 A 
ATOM     36  Cl  UNL A   1      40.818  27.357  26.437  1.00  0.00    -0.084 Cl
ENDBRANCH  19  30
ENDBRANCH  10  15
ENDBRANCH   7   9
ENDBRANCH   6   7
ENDBRANCH   5   6
ENDBRANCH   4   5
ENDBRANCH   3   4
ENDBRANCH   2   3
ENDBRANCH   1   2
BRANCH   1  37
ATOM     37  O   UNL A   1      42.705  31.546  39.334  1.00  0.00    -0.377 OA
BRANCH  37  38
ATOM     38  C   UNL A   1      41.814  32.508  39.898  1.00  0.00     0.188 C 
BRANCH  38  39
ATOM     39  C   UNL A   1      40.877  33.403  39.046  1.00  0.00     0.188 C 
BRANCH  39  40
ATOM     40  O   UNL A   1      40.390  32.811  37.854  1.00  0.00    -0.376 OA
BRANCH  40  41
ATOM     41  C   UNL A   1      40.898  33.262  36.612  1.00  0.00     0.202 C 
BRANCH  41  42
ATOM     42  C   UNL A   1      39.868  33.687  35.558  1.00  0.00     0.261 C 
BRANCH  42  43
ATOM     43  O   UNL A   1      39.963  33.020  34.291  1.00  0.00    -0.460 OA
BRANCH  43  44
ATOM     44  C   UNL A   1      40.530  33.712  33.282  1.00  0.00     0.338 C 
ATOM     45  O   UNL A   1      40.472  34.918  33.088  1.00  0.00    -0.246 OA
BRANCH  44  46
ATOM     46  C   UNL A   1      41.398  32.790  32.527  1.00  0.00     0.060 A 
ATOM     47  C   UNL A   1      42.430  32.127  33.202  1.00  0.00     0.016 A 
ATOM     48  C   UNL A   1      41.207  32.599  31.157  1.00  0.00     0.016 A 
ATOM     49  C   UNL A   1      43.315  31.316  32.494  1.00  0.00     0.010 A 
ATOM     50  C   UNL A   1      42.104  31.800  30.445  1.00  0.00     0.010 A 
ATOM     51  C   UNL A   1      43.191  31.197  31.105  1.00  0.00    -0.014 A 
BRANCH  51  52
ATOM     52  C   UNL A   1      44.324  30.645  30.323  1.00  0.00     0.031 A 
ATOM     53  C   UNL A   1      44.244  29.209  29.877  1.00  0.00     0.074 A 
ATOM     54  C   UNL A   1      45.375  31.406  29.975  1.00  0.00     0.049 A 
ATOM     55  N   UNL A   1      45.105  28.499  29.196  1.00  0.00    -0.248 NA
ATOM     56  C   UNL A   1      43.022  28.477  30.250  1.00  0.00     0.031 C 
ATOM     57  C   UNL A   1      45.548  32.817  30.308  1.00  0.00     0.029 A 
ATOM     58  N   UNL A   1      46.500  31.087  29.257  1.00  0.00    -0.354 N 
ATOM     59  C   UNL A   1      44.535  27.238  29.068  1.00  0.00     0.074 A 
ATOM     60  C   UNL A   1      43.273  27.268  29.773  1.00  0.00     0.031 C 
ATOM     61  C   UNL A   1      46.718  33.243  29.801  1.00  0.00     0.029 A 
ATOM     62  C   UNL A   1      47.388  32.127  29.135  1.00  0.00     0.049 A 
ATOM     63  H   UNL A   1      46.656  30.196  28.866  1.00  0.00     0.167 HD
ATOM     64  C   UNL A   1      45.013  26.155  28.412  1.00  0.00     0.037 A 
ATOM     65  C   UNL A   1      48.609  32.164  28.565  1.00  0.00     0.037 A 
ATOM     66  C   UNL A   1      46.270  26.127  27.714  1.00  0.00     0.049 A 
ATOM     67  C   UNL A   1      49.153  30.924  27.903  1.00  0.00     0.074 A 
ATOM     68  C   UNL A   1      46.841  25.082  27.007  1.00  0.00     0.029 A 
ATOM     69  N   UNL A   1      47.157  27.191  27.641  1.00  0.00    -0.354 N 
ATOM     70  N   UNL A   1      48.598  29.743  27.767  1.00  0.00    -0.248 NA
ATOM     71  C   UNL A   1      50.492  31.026  27.307  1.00  0.00     0.031 C 
ATOM     72  C   UNL A   1      48.100  25.496  26.558  1.00  0.00     0.029 A 
ATOM     73  C   UNL A   1      48.282  26.820  26.923  1.00  0.00     0.049 A 
ATOM     74  H   UNL A   1      47.008  28.079  28.040  1.00  0.00     0.167 HD
ATOM     75  C   UNL A   1      49.500  28.977  27.037  1.00  0.00     0.074 A 
ATOM     76  C   UNL A   1      50.634  29.831  26.751  1.00  0.00     0.031 C 
ATOM     77  C   UNL A   1      49.398  27.685  26.636  1.00  0.00     0.037 A 
BRANCH  64  78
ATOM     78  C   UNL A   1      44.185  24.902  28.450  1.00  0.00     0.057 A 
ATOM     79  C   UNL A   1      44.198  24.033  29.550  1.00  0.00     0.134 A 
ATOM     80  C   UNL A   1      43.347  24.571  27.378  1.00  0.00     0.134 A 
ATOM     81  F   UNL A   1      44.991  24.281  30.604  1.00  0.00    -0.206 F 
ATOM     82  C   UNL A   1      43.428  22.868  29.571  1.00  0.00     0.040 A 
ATOM     83  C   UNL A   1      42.549  23.426  27.400  1.00  0.00     0.040 A 
ATOM     84  F   UNL A   1      43.284  25.358  26.294  1.00  0.00    -0.206 F 
ATOM     85  C   UNL A   1      42.595  22.567  28.495  1.00  0.00     0.006 A 
ENDBRANCH  64  78
BRANCH  65  86
ATOM     86  C   UNL A   1      49.412  33.415  28.600  1.00  0.00     0.057 A 
ATOM     87  C   UNL A   1      49.261  34.405  27.623  1.00  0.00     0.134 A 
ATOM     88  C   UNL A   1      50.374  33.634  29.594  1.00  0.00     0.134 A 
ATOM     89  F   UNL A   1      48.373  34.245  26.630  1.00  0.00    -0.206 F 
ATOM     90  C   UNL A   1      50.051  35.556  27.618  1.00  0.00     0.040 A 
ATOM     91  C   UNL A   1      51.151  34.793  29.619  1.00  0.00     0.040 A 
ATOM     92  F   UNL A   1      50.569  32.724  30.559  1.00  0.00    -0.206 F 
ATOM     93  C   UNL A   1      50.997  35.754  28.621  1.00  0.00     0.006 A 
ENDBRANCH  65  86
BRANCH  77  94
ATOM     94  C   UNL A   1      50.516  27.132  25.795  1.00  0.00     0.057 A 
ATOM     95  C   UNL A   1      50.526  27.241  24.398  1.00  0.00     0.134 A 
ATOM     96  C   UNL A   1      51.615  26.507  26.401  1.00  0.00     0.134 A 
ATOM     97  F   UNL A   1      49.503  27.820  23.753  1.00  0.00    -0.206 F 
ATOM     98  C   UNL A   1      51.571  26.716  23.633  1.00  0.00     0.040 A 
ATOM     99  C   UNL A   1      52.680  26.009  25.649  1.00  0.00     0.040 A 
ATOM    100  F   UNL A   1      51.678  26.381  27.734  1.00  0.00    -0.206 F 
ATOM    101  C   UNL A   1      52.655  26.104  24.259  1.00  0.00     0.006 A 
ENDBRANCH  77  94
ENDBRANCH  51  52
ENDBRANCH  44  46
ENDBRANCH  43  44
ENDBRANCH  42  43
ENDBRANCH  41  42
ENDBRANCH  40  41
ENDBRANCH  39  40
ENDBRANCH  38  39
ENDBRANCH  37  38
ENDBRANCH   1  37
TORSDOF 24
ENDMDL
