MODEL 1
REMARK VINA RESULT:      -8.3      0.000      0.000
REMARK SMILES CSCc1ccc(C(=O)N[C@H]2C=C[C@@H](C(=O)OCCOCCOCCOCCOC(=O)c3ccc(-c4c5nc(c(-c6c(F)cccc6F)c6ccc([nH]6)c(-c6c(F)cccc6F)c6nc(c(-c7c(F)cccc7F)c7ccc4[nH]7)C=C6)C=C5)cc3)C2)o1
REMARK SMILES IDX 22 1 21 2 20 3 19 4 18 5 17 6 15 7 16 8 14 9 11 10 12 11
REMARK SMILES IDX 86 12 13 13 10 14 8 15 9 16 7 18 4 19 5 20 87 21 6 22 3 23
REMARK SMILES IDX 2 24 1 25 23 26 24 27 25 28 26 29 27 30 28 31 29 32 30 33
REMARK SMILES IDX 31 34 32 35 33 36 85 37 34 38 84 39 35 40 36 41 37 42 78 43
REMARK SMILES IDX 38 44 83 45 77 46 79 47 39 48 82 49 76 50 75 51 40 53 66 54
REMARK SMILES IDX 49 55 65 56 50 57 53 58 64 59 80 60 51 61 52 62 63 64 81 65
REMARK SMILES IDX 54 66 41 67 42 68 47 69 43 70 44 71 46 72 48 73 45 74 67 75
REMARK SMILES IDX 68 76 73 77 69 78 70 79 72 80 74 81 71 82 55 83 56 84 61 85
REMARK SMILES IDX 57 86 58 87 60 88 62 89 59 90
REMARK H PARENT 10 17 79 52 53 63
REMARK Flexibility Score: inf
ROOT
ATOM      1  C   UNL A   1      40.720  29.964  35.333  1.00  0.00     0.188 C 
ENDROOT
BRANCH   1   2
ATOM      2  C   UNL A   1      41.533  28.744  35.795  1.00  0.00     0.188 C 
BRANCH   2   3
ATOM      3  O   UNL A   1      40.924  27.747  36.604  1.00  0.00    -0.376 OA
BRANCH   3   4
ATOM      4  C   UNL A   1      41.571  26.492  36.804  1.00  0.00     0.202 C 
BRANCH   4   5
ATOM      5  C   UNL A   1      41.620  25.433  35.685  1.00  0.00     0.261 C 
BRANCH   5   6
ATOM      6  O   UNL A   1      42.902  24.798  35.556  1.00  0.00    -0.463 OA
BRANCH   6   7
ATOM      7  C   UNL A   1      43.733  25.225  34.569  1.00  0.00     0.312 C 
ATOM      8  O   UNL A   1      43.810  26.384  34.182  1.00  0.00    -0.252 OA
BRANCH   7   9
ATOM      9  C   UNL A   1      44.693  24.099  34.140  1.00  0.00     0.124 C 
ATOM     10  C   UNL A   1      45.685  22.311  35.519  1.00  0.00     0.106 C 
ATOM     11  C   UNL A   1      44.530  21.816  34.743  1.00  0.00    -0.006 C 
ATOM     12  C   UNL A   1      45.812  23.783  35.144  1.00  0.00     0.048 C 
ATOM     13  C   UNL A   1      44.013  22.774  33.962  1.00  0.00    -0.014 C 
BRANCH  10  14
ATOM     14  N   UNL A   1      45.670  22.102  36.947  1.00  0.00    -0.343 N 
ATOM     15  C   UNL A   1      46.372  21.406  37.891  1.00  0.00     0.287 C 
ATOM     16  O   UNL A   1      45.800  21.342  38.986  1.00  0.00    -0.266 OA
ATOM     17  H   UNL A   1      44.937  22.611  37.364  1.00  0.00     0.164 HD
BRANCH  15  18
ATOM     18  C   UNL A   1      47.692  20.854  37.689  1.00  0.00     0.191 A 
ATOM     19  C   UNL A   1      49.827  21.095  37.125  1.00  0.00     0.114 A 
ATOM     20  C   UNL A   1      49.657  19.763  37.414  1.00  0.00     0.047 A 
ATOM     21  O   UNL A   1      48.644  21.752  37.258  1.00  0.00    -0.455 OA
ATOM     22  C   UNL A   1      48.316  19.633  37.847  1.00  0.00     0.056 A 
BRANCH  19  23
ATOM     23  C   UNL A   1      51.005  21.920  36.783  1.00  0.00     0.144 C 
BRANCH  23  24
ATOM     24  S   UNL A   1      52.139  21.012  35.676  1.00  0.00    -0.157 SA
ATOM     25  C   UNL A   1      52.348  22.266  34.381  1.00  0.00     0.085 C 
ENDBRANCH  23  24
ENDBRANCH  19  23
ENDBRANCH  15  18
ENDBRANCH  10  14
ENDBRANCH   7   9
ENDBRANCH   6   7
ENDBRANCH   5   6
ENDBRANCH   4   5
ENDBRANCH   3   4
ENDBRANCH   2   3
ENDBRANCH   1   2
BRANCH   1  26
ATOM     26  O   UNL A   1      40.090  30.698  36.361  1.00  0.00    -0.377 OA
BRANCH  26  27
ATOM     27  C   UNL A   1      38.794  31.222  36.101  1.00  0.00     0.188 C 
BRANCH  27  28
ATOM     28  C   UNL A   1      38.554  32.741  36.216  1.00  0.00     0.188 C 
BRANCH  28  29
ATOM     29  O   UNL A   1      38.402  33.418  34.975  1.00  0.00    -0.376 OA
BRANCH  29  30
ATOM     30  C   UNL A   1      37.240  34.207  34.755  1.00  0.00     0.202 C 
BRANCH  30  31
ATOM     31  C   UNL A   1      36.347  33.863  33.549  1.00  0.00     0.261 C 
BRANCH  31  32
ATOM     32  O   UNL A   1      35.856  32.515  33.477  1.00  0.00    -0.460 OA
BRANCH  32  33
ATOM     33  C   UNL A   1      35.366  32.083  32.295  1.00  0.00     0.338 C 
ATOM     34  O   UNL A   1      34.321  32.406  31.769  1.00  0.00    -0.246 OA
BRANCH  33  35
ATOM     35  C   UNL A   1      36.424  31.288  31.635  1.00  0.00     0.060 A 
ATOM     36  C   UNL A   1      37.371  30.635  32.434  1.00  0.00     0.016 A 
ATOM     37  C   UNL A   1      36.487  31.192  30.243  1.00  0.00     0.016 A 
ATOM     38  C   UNL A   1      38.412  29.921  31.843  1.00  0.00     0.010 A 
ATOM     39  C   UNL A   1      37.545  30.495  29.650  1.00  0.00     0.010 A 
ATOM     40  C   UNL A   1      38.533  29.890  30.447  1.00  0.00    -0.014 A 
BRANCH  40  41
ATOM     41  C   UNL A   1      39.798  29.418  29.834  1.00  0.00     0.031 A 
ATOM     42  C   UNL A   1      40.926  30.403  29.688  1.00  0.00     0.074 A 
ATOM     43  C   UNL A   1      39.961  28.143  29.442  1.00  0.00     0.049 A 
ATOM     44  N   UNL A   1      42.105  30.246  29.143  1.00  0.00    -0.248 NA
ATOM     45  C   UNL A   1      40.690  31.751  30.232  1.00  0.00     0.031 C 
ATOM     46  C   UNL A   1      38.964  27.083  29.572  1.00  0.00     0.029 A 
ATOM     47  N   UNL A   1      41.031  27.529  28.841  1.00  0.00    -0.354 N 
ATOM     48  C   UNL A   1      42.745  31.472  29.271  1.00  0.00     0.074 A 
ATOM     49  C   UNL A   1      41.815  32.373  29.916  1.00  0.00     0.031 C 
ATOM     50  C   UNL A   1      39.465  25.950  29.051  1.00  0.00     0.029 A 
ATOM     51  C   UNL A   1      40.802  26.214  28.521  1.00  0.00     0.049 A 
ATOM     52  H   UNL A   1      41.883  27.989  28.658  1.00  0.00     0.167 HD
ATOM     53  C   UNL A   1      43.998  31.816  28.893  1.00  0.00     0.037 A 
ATOM     54  C   UNL A   1      41.575  25.335  27.851  1.00  0.00     0.037 A 
ATOM     55  C   UNL A   1      44.921  30.921  28.247  1.00  0.00     0.049 A 
ATOM     56  C   UNL A   1      42.935  25.766  27.364  1.00  0.00     0.074 A 
ATOM     57  C   UNL A   1      46.218  31.171  27.834  1.00  0.00     0.029 A 
ATOM     58  N   UNL A   1      44.639  29.607  27.908  1.00  0.00    -0.354 N 
ATOM     59  N   UNL A   1      43.542  26.920  27.508  1.00  0.00    -0.248 NA
ATOM     60  C   UNL A   1      43.720  24.769  26.621  1.00  0.00     0.031 C 
ATOM     61  C   UNL A   1      46.700  30.027  27.193  1.00  0.00     0.029 A 
ATOM     62  C   UNL A   1      45.728  29.042  27.266  1.00  0.00     0.049 A 
ATOM     63  H   UNL A   1      43.791  29.144  28.096  1.00  0.00     0.167 HD
ATOM     64  C   UNL A   1      44.786  26.777  26.906  1.00  0.00     0.074 A 
ATOM     65  C   UNL A   1      44.854  25.420  26.405  1.00  0.00     0.031 C 
ATOM     66  C   UNL A   1      45.786  27.686  26.781  1.00  0.00     0.037 A 
BRANCH  53  67
ATOM     67  C   UNL A   1      44.432  33.233  29.141  1.00  0.00     0.057 A 
ATOM     68  C   UNL A   1      45.054  33.621  30.334  1.00  0.00     0.134 A 
ATOM     69  C   UNL A   1      44.244  34.215  28.161  1.00  0.00     0.134 A 
ATOM     70  F   UNL A   1      45.248  32.733  31.322  1.00  0.00    -0.206 F 
ATOM     71  C   UNL A   1      45.455  34.940  30.553  1.00  0.00     0.040 A 
ATOM     72  C   UNL A   1      44.667  35.530  28.356  1.00  0.00     0.040 A 
ATOM     73  F   UNL A   1      43.657  33.911  26.995  1.00  0.00    -0.206 F 
ATOM     74  C   UNL A   1      45.268  35.898  29.558  1.00  0.00     0.006 A 
ENDBRANCH  53  67
BRANCH  54  75
ATOM     75  C   UNL A   1      41.078  23.961  27.578  1.00  0.00     0.057 A 
ATOM     76  C   UNL A   1      41.574  22.855  28.276  1.00  0.00     0.134 A 
ATOM     77  C   UNL A   1      40.117  23.719  26.588  1.00  0.00     0.134 A 
ATOM     78  F   UNL A   1      42.515  23.017  29.218  1.00  0.00    -0.206 F 
ATOM     79  C   UNL A   1      41.150  21.556  27.987  1.00  0.00     0.040 A 
ATOM     80  C   UNL A   1      39.662  22.429  26.308  1.00  0.00     0.040 A 
ATOM     81  F   UNL A   1      39.604  24.736  25.880  1.00  0.00    -0.206 F 
ATOM     82  C   UNL A   1      40.185  21.342  27.004  1.00  0.00     0.006 A 
ENDBRANCH  54  75
BRANCH  66  83
ATOM     83  C   UNL A   1      47.057  27.233  26.118  1.00  0.00     0.057 A 
ATOM     84  C   UNL A   1      48.115  26.668  26.840  1.00  0.00     0.134 A 
ATOM     85  C   UNL A   1      47.201  27.321  24.726  1.00  0.00     0.134 A 
ATOM     86  F   UNL A   1      48.046  26.563  28.176  1.00  0.00    -0.206 F 
ATOM     87  C   UNL A   1      49.281  26.232  26.207  1.00  0.00     0.040 A 
ATOM     88  C   UNL A   1      48.349  26.860  24.079  1.00  0.00     0.040 A 
ATOM     89  F   UNL A   1      46.221  27.839  23.970  1.00  0.00    -0.206 F 
ATOM     90  C   UNL A   1      49.396  26.321  24.820  1.00  0.00     0.006 A 
ENDBRANCH  66  83
ENDBRANCH  40  41
ENDBRANCH  33  35
ENDBRANCH  32  33
ENDBRANCH  31  32
ENDBRANCH  30  31
ENDBRANCH  29  30
ENDBRANCH  28  29
ENDBRANCH  27  28
ENDBRANCH  26  27
ENDBRANCH   1  26
TORSDOF 24
ENDMDL
MODEL 2
REMARK VINA RESULT:      -8.2      7.107     11.825
REMARK SMILES CSCc1ccc(C(=O)N[C@H]2C=C[C@@H](C(=O)OCCOCCOCCOCCOC(=O)c3ccc(-c4c5nc(c(-c6c(F)cccc6F)c6ccc([nH]6)c(-c6c(F)cccc6F)c6nc(c(-c7c(F)cccc7F)c7ccc4[nH]7)C=C6)C=C5)cc3)C2)o1
REMARK SMILES IDX 22 1 21 2 20 3 19 4 18 5 17 6 15 7 16 8 14 9 11 10 12 11
REMARK SMILES IDX 86 12 13 13 10 14 8 15 9 16 7 18 4 19 5 20 87 21 6 22 3 23
REMARK SMILES IDX 2 24 1 25 23 26 24 27 25 28 26 29 27 30 28 31 29 32 30 33
REMARK SMILES IDX 31 34 32 35 33 36 85 37 34 38 84 39 35 40 36 41 37 42 78 43
REMARK SMILES IDX 38 44 83 45 77 46 79 47 39 48 82 49 76 50 75 51 40 53 66 54
REMARK SMILES IDX 49 55 65 56 50 57 53 58 64 59 80 60 51 61 52 62 63 64 81 65
REMARK SMILES IDX 54 66 41 67 42 68 47 69 43 70 44 71 46 72 48 73 45 74 67 75
REMARK SMILES IDX 68 76 73 77 69 78 70 79 72 80 74 81 71 82 55 83 56 84 61 85
REMARK SMILES IDX 57 86 58 87 60 88 62 89 59 90
REMARK H PARENT 10 17 79 52 53 63
REMARK Flexibility Score: inf
ROOT
ATOM      1  C   UNL A   1      32.172  29.942  25.901  1.00  0.00     0.188 C 
ENDROOT
BRANCH   1   2
ATOM      2  C   UNL A   1      33.231  29.141  25.128  1.00  0.00     0.188 C 
BRANCH   2   3
ATOM      3  O   UNL A   1      33.206  29.112  23.708  1.00  0.00    -0.376 OA
BRANCH   3   4
ATOM      4  C   UNL A   1      33.680  27.965  23.005  1.00  0.00     0.202 C 
BRANCH   4   5
ATOM      5  C   UNL A   1      33.651  26.566  23.649  1.00  0.00     0.261 C 
BRANCH   5   6
ATOM      6  O   UNL A   1      33.949  25.507  22.725  1.00  0.00    -0.463 OA
BRANCH   6   7
ATOM      7  C   UNL A   1      32.955  24.638  22.401  1.00  0.00     0.312 C 
ATOM      8  O   UNL A   1      31.835  24.973  22.037  1.00  0.00    -0.252 OA
BRANCH   7   9
ATOM      9  C   UNL A   1      33.483  23.192  22.369  1.00  0.00     0.124 C 
ATOM     10  C   UNL A   1      34.160  21.756  24.257  1.00  0.00     0.106 C 
ATOM     11  C   UNL A   1      32.800  21.422  23.785  1.00  0.00    -0.006 C 
ATOM     12  C   UNL A   1      34.623  22.895  23.356  1.00  0.00     0.048 C 
ATOM     13  C   UNL A   1      32.444  22.172  22.734  1.00  0.00    -0.014 C 
BRANCH  10  14
ATOM     14  N   UNL A   1      34.325  22.057  25.659  1.00  0.00    -0.343 N 
ATOM     15  C   UNL A   1      33.715  22.803  26.629  1.00  0.00     0.287 C 
ATOM     16  O   UNL A   1      34.400  22.945  27.649  1.00  0.00    -0.266 OA
ATOM     17  H   UNL A   1      35.108  21.586  26.025  1.00  0.00     0.164 HD
BRANCH  15  18
ATOM     18  C   UNL A   1      32.370  23.323  26.538  1.00  0.00     0.191 A 
ATOM     19  C   UNL A   1      30.963  24.994  26.135  1.00  0.00     0.114 A 
ATOM     20  C   UNL A   1      30.186  23.919  26.487  1.00  0.00     0.047 A 
ATOM     21  O   UNL A   1      32.278  24.654  26.192  1.00  0.00    -0.455 OA
ATOM     22  C   UNL A   1      31.083  22.839  26.665  1.00  0.00     0.056 A 
BRANCH  19  23
ATOM     23  C   UNL A   1      30.656  26.361  25.663  1.00  0.00     0.144 C 
BRANCH  23  24
ATOM     24  S   UNL A   1      29.533  26.317  24.222  1.00  0.00    -0.157 SA
ATOM     25  C   UNL A   1      29.933  27.929  23.492  1.00  0.00     0.085 C 
ENDBRANCH  23  24
ENDBRANCH  19  23
ENDBRANCH  15  18
ENDBRANCH  10  14
ENDBRANCH   7   9
ENDBRANCH   6   7
ENDBRANCH   5   6
ENDBRANCH   4   5
ENDBRANCH   3   4
ENDBRANCH   2   3
ENDBRANCH   1   2
BRANCH   1  26
ATOM     26  O   UNL A   1      32.618  30.538  27.101  1.00  0.00    -0.377 OA
BRANCH  26  27
ATOM     27  C   UNL A   1      34.018  30.732  27.262  1.00  0.00     0.188 C 
BRANCH  27  28
ATOM     28  C   UNL A   1      34.527  31.978  28.015  1.00  0.00     0.188 C 
BRANCH  28  29
ATOM     29  O   UNL A   1      35.273  31.702  29.193  1.00  0.00    -0.376 OA
BRANCH  29  30
ATOM     30  C   UNL A   1      36.660  32.014  29.224  1.00  0.00     0.202 C 
BRANCH  30  31
ATOM     31  C   UNL A   1      37.514  31.412  30.353  1.00  0.00     0.261 C 
BRANCH  31  32
ATOM     32  O   UNL A   1      38.005  32.326  31.345  1.00  0.00    -0.460 OA
BRANCH  32  33
ATOM     33  C   UNL A   1      37.899  33.649  31.093  1.00  0.00     0.338 C 
ATOM     34  O   UNL A   1      36.947  34.367  31.317  1.00  0.00    -0.246 OA
BRANCH  33  35
ATOM     35  C   UNL A   1      39.233  34.134  30.675  1.00  0.00     0.060 A 
ATOM     36  C   UNL A   1      39.413  34.543  29.347  1.00  0.00     0.016 A 
ATOM     37  C   UNL A   1      40.296  34.179  31.579  1.00  0.00     0.016 A 
ATOM     38  C   UNL A   1      40.670  34.956  28.907  1.00  0.00     0.010 A 
ATOM     39  C   UNL A   1      41.562  34.571  31.131  1.00  0.00     0.010 A 
ATOM     40  C   UNL A   1      41.761  34.923  29.784  1.00  0.00    -0.014 A 
BRANCH  40  41
ATOM     41  C   UNL A   1      43.137  35.043  29.242  1.00  0.00     0.031 A 
ATOM     42  C   UNL A   1      43.663  36.420  28.942  1.00  0.00     0.074 A 
ATOM     43  C   UNL A   1      43.916  33.966  29.048  1.00  0.00     0.049 A 
ATOM     44  N   UNL A   1      44.808  36.780  28.421  1.00  0.00    -0.248 NA
ATOM     45  C   UNL A   1      42.774  37.546  29.276  1.00  0.00     0.031 C 
ATOM     46  C   UNL A   1      43.542  32.585  29.343  1.00  0.00     0.029 A 
ATOM     47  N   UNL A   1      45.188  33.871  28.541  1.00  0.00    -0.354 N 
ATOM     48  C   UNL A   1      44.772  38.167  28.358  1.00  0.00     0.074 A 
ATOM     49  C   UNL A   1      43.483  38.585  28.863  1.00  0.00     0.031 C 
ATOM     50  C   UNL A   1      44.559  31.776  28.997  1.00  0.00     0.029 A 
ATOM     51  C   UNL A   1      45.640  32.579  28.426  1.00  0.00     0.049 A 
ATOM     52  H   UNL A   1      45.727  34.655  28.285  1.00  0.00     0.167 HD
ATOM     53  C   UNL A   1      45.731  39.020  27.925  1.00  0.00     0.037 A 
ATOM     54  C   UNL A   1      46.782  32.102  27.893  1.00  0.00     0.037 A 
ATOM     55  C   UNL A   1      47.011  38.604  27.417  1.00  0.00     0.049 A 
ATOM     56  C   UNL A   1      47.800  33.066  27.338  1.00  0.00     0.074 A 
ATOM     57  C   UNL A   1      48.055  39.391  26.963  1.00  0.00     0.029 A 
ATOM     58  N   UNL A   1      47.416  37.285  27.283  1.00  0.00    -0.354 N 
ATOM     59  N   UNL A   1      47.769  34.377  27.302  1.00  0.00    -0.248 NA
ATOM     60  C   UNL A   1      49.015  32.482  26.751  1.00  0.00     0.031 C 
ATOM     61  C   UNL A   1      49.069  38.548  26.501  1.00  0.00     0.029 A 
ATOM     62  C   UNL A   1      48.684  37.236  26.728  1.00  0.00     0.049 A 
ATOM     63  H   UNL A   1      46.883  36.501  27.544  1.00  0.00     0.167 HD
ATOM     64  C   UNL A   1      48.969  34.773  26.722  1.00  0.00     0.074 A 
ATOM     65  C   UNL A   1      49.711  33.565  26.432  1.00  0.00     0.031 C 
ATOM     66  C   UNL A   1      49.417  36.025  26.454  1.00  0.00     0.037 A 
BRANCH  53  67
ATOM     67  C   UNL A   1      45.415  40.488  27.952  1.00  0.00     0.057 A 
ATOM     68  C   UNL A   1      45.712  41.291  29.061  1.00  0.00     0.134 A 
ATOM     69  C   UNL A   1      44.828  41.109  26.843  1.00  0.00     0.134 A 
ATOM     70  F   UNL A   1      46.260  40.755  30.163  1.00  0.00    -0.206 F 
ATOM     71  C   UNL A   1      45.417  42.655  29.074  1.00  0.00     0.040 A 
ATOM     72  C   UNL A   1      44.555  42.478  26.834  1.00  0.00     0.040 A 
ATOM     73  F   UNL A   1      44.519  40.400  25.748  1.00  0.00    -0.206 F 
ATOM     74  C   UNL A   1      44.842  43.253  27.954  1.00  0.00     0.006 A 
ENDBRANCH  53  67
BRANCH  54  75
ATOM     75  C   UNL A   1      47.023  30.636  27.834  1.00  0.00     0.057 A 
ATOM     76  C   UNL A   1      47.667  29.962  28.878  1.00  0.00     0.134 A 
ATOM     77  C   UNL A   1      46.645  29.881  26.717  1.00  0.00     0.134 A 
ATOM     78  F   UNL A   1      48.078  30.633  29.964  1.00  0.00    -0.206 F 
ATOM     79  C   UNL A   1      47.943  28.595  28.805  1.00  0.00     0.040 A 
ATOM     80  C   UNL A   1      46.888  28.509  26.643  1.00  0.00     0.040 A 
ATOM     81  F   UNL A   1      46.027  30.468  25.681  1.00  0.00    -0.206 F 
ATOM     82  C   UNL A   1      47.548  27.863  27.687  1.00  0.00     0.006 A 
ENDBRANCH  54  75
BRANCH  66  83
ATOM     83  C   UNL A   1      50.792  36.158  25.861  1.00  0.00     0.057 A 
ATOM     84  C   UNL A   1      51.953  36.027  26.632  1.00  0.00     0.134 A 
ATOM     85  C   UNL A   1      50.952  36.373  24.485  1.00  0.00     0.134 A 
ATOM     86  F   UNL A   1      51.871  35.830  27.956  1.00  0.00    -0.206 F 
ATOM     87  C   UNL A   1      53.224  36.131  26.062  1.00  0.00     0.040 A 
ATOM     88  C   UNL A   1      52.217  36.448  23.898  1.00  0.00     0.040 A 
ATOM     89  F   UNL A   1      49.882  36.495  23.684  1.00  0.00    -0.206 F 
ATOM     90  C   UNL A   1      53.357  36.335  24.688  1.00  0.00     0.006 A 
ENDBRANCH  66  83
ENDBRANCH  40  41
ENDBRANCH  33  35
ENDBRANCH  32  33
ENDBRANCH  31  32
ENDBRANCH  30  31
ENDBRANCH  29  30
ENDBRANCH  28  29
ENDBRANCH  27  28
ENDBRANCH  26  27
ENDBRANCH   1  26
TORSDOF 24
ENDMDL
MODEL 3
REMARK VINA RESULT:      -8.2      5.526     11.744
REMARK SMILES CSCc1ccc(C(=O)N[C@H]2C=C[C@@H](C(=O)OCCOCCOCCOCCOC(=O)c3ccc(-c4c5nc(c(-c6c(F)cccc6F)c6ccc([nH]6)c(-c6c(F)cccc6F)c6nc(c(-c7c(F)cccc7F)c7ccc4[nH]7)C=C6)C=C5)cc3)C2)o1
REMARK SMILES IDX 22 1 21 2 20 3 19 4 18 5 17 6 15 7 16 8 14 9 11 10 12 11
REMARK SMILES IDX 86 12 13 13 10 14 8 15 9 16 7 18 4 19 5 20 87 21 6 22 3 23
REMARK SMILES IDX 2 24 1 25 23 26 24 27 25 28 26 29 27 30 28 31 29 32 30 33
REMARK SMILES IDX 31 34 32 35 33 36 85 37 34 38 84 39 35 40 36 41 37 42 78 43
REMARK SMILES IDX 38 44 83 45 77 46 79 47 39 48 82 49 76 50 75 51 40 53 66 54
REMARK SMILES IDX 49 55 65 56 50 57 53 58 64 59 80 60 51 61 52 62 63 64 81 65
REMARK SMILES IDX 54 66 41 67 42 68 47 69 43 70 44 71 46 72 48 73 45 74 67 75
REMARK SMILES IDX 68 76 73 77 69 78 70 79 72 80 74 81 71 82 55 83 56 84 61 85
REMARK SMILES IDX 57 86 58 87 60 88 62 89 59 90
REMARK H PARENT 10 17 79 52 53 63
REMARK Flexibility Score: inf
ROOT
ATOM      1  C   UNL A   1      36.821  32.838  28.688  1.00  0.00     0.188 C 
ENDROOT
BRANCH   1   2
ATOM      2  C   UNL A   1      35.860  31.999  27.831  1.00  0.00     0.188 C 
BRANCH   2   3
ATOM      3  O   UNL A   1      36.076  30.603  27.679  1.00  0.00    -0.376 OA
BRANCH   3   4
ATOM      4  C   UNL A   1      34.972  29.700  27.694  1.00  0.00     0.202 C 
BRANCH   4   5
ATOM      5  C   UNL A   1      33.727  29.946  26.820  1.00  0.00     0.261 C 
BRANCH   5   6
ATOM      6  O   UNL A   1      33.697  29.140  25.631  1.00  0.00    -0.463 OA
BRANCH   6   7
ATOM      7  C   UNL A   1      32.923  28.023  25.633  1.00  0.00     0.312 C 
ATOM      8  O   UNL A   1      33.170  27.011  26.277  1.00  0.00    -0.252 OA
BRANCH   7   9
ATOM      9  C   UNL A   1      31.605  28.270  24.875  1.00  0.00     0.124 C 
ATOM     10  C   UNL A   1      30.922  27.429  22.659  1.00  0.00     0.106 C 
ATOM     11  C   UNL A   1      30.314  26.637  23.748  1.00  0.00    -0.006 C 
ATOM     12  C   UNL A   1      31.759  28.491  23.362  1.00  0.00     0.048 C 
ATOM     13  C   UNL A   1      30.650  27.115  24.953  1.00  0.00    -0.014 C 
BRANCH  10  14
ATOM     14  N   UNL A   1      31.667  26.714  21.650  1.00  0.00    -0.343 N 
ATOM     15  C   UNL A   1      32.692  25.814  21.575  1.00  0.00     0.287 C 
ATOM     16  O   UNL A   1      33.160  25.689  20.437  1.00  0.00    -0.266 OA
ATOM     17  H   UNL A   1      31.340  26.944  20.751  1.00  0.00     0.164 HD
BRANCH  15  18
ATOM     18  C   UNL A   1      33.158  25.008  22.681  1.00  0.00     0.191 A 
ATOM     19  C   UNL A   1      32.929  23.266  24.040  1.00  0.00     0.114 A 
ATOM     20  C   UNL A   1      34.064  23.921  24.449  1.00  0.00     0.047 A 
ATOM     21  O   UNL A   1      32.361  23.929  22.998  1.00  0.00    -0.455 OA
ATOM     22  C   UNL A   1      34.246  24.982  23.530  1.00  0.00     0.056 A 
BRANCH  19  23
ATOM     23  C   UNL A   1      32.277  22.004  24.451  1.00  0.00     0.144 C 
BRANCH  23  24
ATOM     24  S   UNL A   1      33.222  21.186  25.785  1.00  0.00    -0.157 SA
ATOM     25  C   UNL A   1      34.304  20.139  24.773  1.00  0.00     0.085 C 
ENDBRANCH  23  24
ENDBRANCH  19  23
ENDBRANCH  15  18
ENDBRANCH  10  14
ENDBRANCH   7   9
ENDBRANCH   6   7
ENDBRANCH   5   6
ENDBRANCH   4   5
ENDBRANCH   3   4
ENDBRANCH   2   3
ENDBRANCH   1   2
BRANCH   1  26
ATOM     26  O   UNL A   1      36.251  33.973  29.305  1.00  0.00    -0.377 OA
BRANCH  26  27
ATOM     27  C   UNL A   1      35.986  33.903  30.700  1.00  0.00     0.188 C 
BRANCH  27  28
ATOM     28  C   UNL A   1      34.857  32.986  31.211  1.00  0.00     0.188 C 
BRANCH  28  29
ATOM     29  O   UNL A   1      35.263  32.011  32.162  1.00  0.00    -0.376 OA
BRANCH  29  30
ATOM     30  C   UNL A   1      36.139  30.968  31.755  1.00  0.00     0.202 C 
BRANCH  30  31
ATOM     31  C   UNL A   1      37.539  30.906  32.393  1.00  0.00     0.261 C 
BRANCH  31  32
ATOM     32  O   UNL A   1      38.332  32.101  32.319  1.00  0.00    -0.460 OA
BRANCH  32  33
ATOM     33  C   UNL A   1      39.518  32.113  32.965  1.00  0.00     0.338 C 
ATOM     34  O   UNL A   1      39.737  32.495  34.096  1.00  0.00    -0.246 OA
BRANCH  33  35
ATOM     35  C   UNL A   1      40.494  31.383  32.125  1.00  0.00     0.060 A 
ATOM     36  C   UNL A   1      41.319  30.426  32.730  1.00  0.00     0.016 A 
ATOM     37  C   UNL A   1      40.600  31.644  30.757  1.00  0.00     0.016 A 
ATOM     38  C   UNL A   1      42.284  29.759  31.978  1.00  0.00     0.010 A 
ATOM     39  C   UNL A   1      41.583  30.991  30.008  1.00  0.00     0.010 A 
ATOM     40  C   UNL A   1      42.455  30.075  30.624  1.00  0.00    -0.014 A 
BRANCH  40  41
ATOM     41  C   UNL A   1      43.674  29.616  29.915  1.00  0.00     0.031 A 
ATOM     42  C   UNL A   1      43.632  28.280  29.224  1.00  0.00     0.074 A 
ATOM     43  C   UNL A   1      44.783  30.372  29.856  1.00  0.00     0.049 A 
ATOM     44  N   UNL A   1      44.578  27.643  28.583  1.00  0.00    -0.248 NA
ATOM     45  C   UNL A   1      42.344  27.567  29.261  1.00  0.00     0.031 C 
ATOM     46  C   UNL A   1      44.935  31.701  30.443  1.00  0.00     0.029 A 
ATOM     47  N   UNL A   1      46.002  30.115  29.278  1.00  0.00    -0.354 N 
ATOM     48  C   UNL A   1      44.003  26.455  28.150  1.00  0.00     0.074 A 
ATOM     49  C   UNL A   1      42.638  26.442  28.626  1.00  0.00     0.031 C 
ATOM     50  C   UNL A   1      46.185  32.139  30.207  1.00  0.00     0.029 A 
ATOM     51  C   UNL A   1      46.928  31.108  29.484  1.00  0.00     0.049 A 
ATOM     52  H   UNL A   1      46.193  29.298  28.762  1.00  0.00     0.167 HD
ATOM     53  C   UNL A   1      44.561  25.464  27.415  1.00  0.00     0.037 A 
ATOM     54  C   UNL A   1      48.233  31.162  29.151  1.00  0.00     0.037 A 
ATOM     55  C   UNL A   1      45.921  25.474  26.946  1.00  0.00     0.049 A 
ATOM     56  C   UNL A   1      48.855  30.008  28.405  1.00  0.00     0.074 A 
ATOM     57  C   UNL A   1      46.577  24.523  26.184  1.00  0.00     0.029 A 
ATOM     58  N   UNL A   1      46.838  26.480  27.206  1.00  0.00    -0.354 N 
ATOM     59  N   UNL A   1      48.301  28.898  27.980  1.00  0.00    -0.248 NA
ATOM     60  C   UNL A   1      50.288  30.117  28.091  1.00  0.00     0.031 C 
ATOM     61  C   UNL A   1      47.906  24.926  26.033  1.00  0.00     0.029 A 
ATOM     62  C   UNL A   1      48.062  26.160  26.643  1.00  0.00     0.049 A 
ATOM     63  H   UNL A   1      46.647  27.301  27.714  1.00  0.00     0.167 HD
ATOM     64  C   UNL A   1      49.304  28.196  27.323  1.00  0.00     0.074 A 
ATOM     65  C   UNL A   1      50.499  29.009  27.394  1.00  0.00     0.031 C 
ATOM     66  C   UNL A   1      49.242  26.985  26.712  1.00  0.00     0.037 A 
BRANCH  53  67
ATOM     67  C   UNL A   1      43.705  24.270  27.100  1.00  0.00     0.057 A 
ATOM     68  C   UNL A   1      43.503  23.237  28.024  1.00  0.00     0.134 A 
ATOM     69  C   UNL A   1      43.055  24.168  25.864  1.00  0.00     0.134 A 
ATOM     70  F   UNL A   1      44.111  23.265  29.221  1.00  0.00    -0.206 F 
ATOM     71  C   UNL A   1      42.704  22.133  27.722  1.00  0.00     0.040 A 
ATOM     72  C   UNL A   1      42.230  23.084  25.562  1.00  0.00     0.040 A 
ATOM     73  F   UNL A   1      43.203  25.122  24.935  1.00  0.00    -0.206 F 
ATOM     74  C   UNL A   1      42.059  22.059  26.489  1.00  0.00     0.006 A 
ENDBRANCH  53  67
BRANCH  54  75
ATOM     75  C   UNL A   1      49.054  32.339  29.536  1.00  0.00     0.057 A 
ATOM     76  C   UNL A   1      49.235  33.418  28.663  1.00  0.00     0.134 A 
ATOM     77  C   UNL A   1      49.705  32.398  30.775  1.00  0.00     0.134 A 
ATOM     78  F   UNL A   1      48.662  33.410  27.451  1.00  0.00    -0.206 F 
ATOM     79  C   UNL A   1      50.049  34.503  28.999  1.00  0.00     0.040 A 
ATOM     80  C   UNL A   1      50.497  33.489  31.136  1.00  0.00     0.040 A 
ATOM     81  F   UNL A   1      49.575  31.395  31.656  1.00  0.00    -0.206 F 
ATOM     82  C   UNL A   1      50.677  34.543  30.242  1.00  0.00     0.006 A 
ENDBRANCH  54  75
BRANCH  66  83
ATOM     83  C   UNL A   1      50.485  26.487  26.030  1.00  0.00     0.057 A 
ATOM     84  C   UNL A   1      50.860  26.920  24.752  1.00  0.00     0.134 A 
ATOM     85  C   UNL A   1      51.345  25.595  26.687  1.00  0.00     0.134 A 
ATOM     86  F   UNL A   1      50.078  27.766  24.064  1.00  0.00    -0.206 F 
ATOM     87  C   UNL A   1      52.030  26.465  24.141  1.00  0.00     0.040 A 
ATOM     88  C   UNL A   1      52.533  25.157  26.099  1.00  0.00     0.040 A 
ATOM     89  F   UNL A   1      51.055  25.150  27.919  1.00  0.00    -0.206 F 
ATOM     90  C   UNL A   1      52.874  25.586  24.819  1.00  0.00     0.006 A 
ENDBRANCH  66  83
ENDBRANCH  40  41
ENDBRANCH  33  35
ENDBRANCH  32  33
ENDBRANCH  31  32
ENDBRANCH  30  31
ENDBRANCH  29  30
ENDBRANCH  28  29
ENDBRANCH  27  28
ENDBRANCH  26  27
ENDBRANCH   1  26
TORSDOF 24
ENDMDL
