MODEL 1
REMARK VINA RESULT:      -9.5      0.000      0.000
REMARK SMILES O=C(CC1(Nc2nc(C3CC3)ns2)CCC1)OCCOCCOCCOCCOC(=O)c1ccc(-c2c3nc(c(-c4c(F)cccc4F)c4ccc([nH]4)c(-c4c(F)cccc4F)c4nc(c(-c5c(F)cccc5F)c5ccc2[nH]5)C=C4)C=C3)cc1
REMARK SMILES IDX 22 1 21 2 20 3 19 4 18 5 17 6 2 7 1 8 3 9 4 10 14 11 16 12
REMARK SMILES IDX 15 13 5 14 6 16 7 17 13 18 8 19 12 20 9 21 10 22 11 23 23 24
REMARK SMILES IDX 24 25 25 26 26 27 27 28 28 29 29 30 30 31 31 32 32 33 33 34
REMARK SMILES IDX 85 35 34 36 84 37 35 38 36 39 37 40 78 41 38 42 83 43 77 44
REMARK SMILES IDX 79 45 39 46 82 47 76 48 75 49 40 51 66 52 49 53 65 54 50 55
REMARK SMILES IDX 53 56 64 57 80 58 51 59 52 60 63 62 81 63 54 64 41 65 42 66
REMARK SMILES IDX 47 67 43 68 44 69 46 70 48 71 45 72 67 73 68 74 73 75 69 76
REMARK SMILES IDX 70 77 72 78 74 79 71 80 55 81 56 82 61 83 57 84 58 85 60 86
REMARK SMILES IDX 62 87 59 88
REMARK H PARENT 5 15 79 50 53 61
REMARK Flexibility Score: inf
ROOT
ATOM      1  C   UNL A   1      33.426  27.087  24.698  1.00  0.00     0.188 C 
ENDROOT
BRANCH   1   2
ATOM      2  C   UNL A   1      32.723  26.412  25.868  1.00  0.00     0.188 C 
BRANCH   2   3
ATOM      3  O   UNL A   1      31.312  26.208  25.753  1.00  0.00    -0.376 OA
BRANCH   3   4
ATOM      4  C   UNL A   1      30.808  24.894  25.588  1.00  0.00     0.202 C 
BRANCH   4   5
ATOM      5  C   UNL A   1      31.198  23.961  26.715  1.00  0.00     0.261 C 
BRANCH   5   6
ATOM      6  O   UNL A   1      32.407  23.241  26.440  1.00  0.00    -0.463 OA
BRANCH   6   7
ATOM      7  C   UNL A   1      33.183  22.583  27.320  1.00  0.00     0.308 C 
ATOM      8  O   UNL A   1      32.659  22.190  28.366  1.00  0.00    -0.252 OA
BRANCH   7   9
ATOM      9  C   UNL A   1      34.663  22.357  27.105  1.00  0.00     0.151 C 
BRANCH   9  10
ATOM     10  C   UNL A   1      35.254  22.333  25.700  1.00  0.00     0.050 C 
ATOM     11  C   UNL A   1      35.794  23.701  25.184  1.00  0.00     0.029 C 
ATOM     12  C   UNL A   1      36.729  21.805  25.607  1.00  0.00     0.029 C 
ATOM     13  C   UNL A   1      37.120  23.035  24.793  1.00  0.00     0.005 C 
BRANCH  10  14
ATOM     14  N   UNL A   1      34.430  21.710  24.685  1.00  0.00    -0.354 N 
ATOM     15  H   UNL A   1      34.126  22.331  23.984  1.00  0.00     0.163 HD
BRANCH  14  16
ATOM     16  C   UNL A   1      33.993  20.431  24.511  1.00  0.00     0.203 A 
ATOM     17  N   UNL A   1      34.584  19.266  24.701  1.00  0.00    -0.203 NA
ATOM     18  S   UNL A   1      32.378  20.210  23.901  1.00  0.00     0.004 S 
ATOM     19  C   UNL A   1      33.734  18.249  24.224  1.00  0.00     0.147 A 
ATOM     20  N   UNL A   1      32.530  18.574  23.749  1.00  0.00    -0.174 NA
BRANCH  19  21
ATOM     21  C   UNL A   1      34.095  16.756  24.186  1.00  0.00     0.059 C 
ATOM     22  C   UNL A   1      35.017  16.141  25.210  1.00  0.00     0.012 C 
ATOM     23  C   UNL A   1      33.560  15.821  25.247  1.00  0.00     0.012 C 
ENDBRANCH  19  21
ENDBRANCH  14  16
ENDBRANCH  10  14
ENDBRANCH   9  10
ENDBRANCH   7   9
ENDBRANCH   6   7
ENDBRANCH   5   6
ENDBRANCH   4   5
ENDBRANCH   3   4
ENDBRANCH   2   3
ENDBRANCH   1   2
BRANCH   1  24
ATOM     24  O   UNL A   1      33.932  28.388  24.922  1.00  0.00    -0.377 OA
BRANCH  24  25
ATOM     25  C   UNL A   1      33.279  29.220  25.861  1.00  0.00     0.188 C 
BRANCH  25  26
ATOM     26  C   UNL A   1      31.943  29.862  25.430  1.00  0.00     0.188 C 
BRANCH  26  27
ATOM     27  O   UNL A   1      31.506  31.095  25.990  1.00  0.00    -0.376 OA
BRANCH  27  28
ATOM     28  C   UNL A   1      32.147  31.650  27.127  1.00  0.00     0.202 C 
BRANCH  28  29
ATOM     29  C   UNL A   1      32.400  33.155  27.093  1.00  0.00     0.261 C 
BRANCH  29  30
ATOM     30  O   UNL A   1      32.180  33.753  28.376  1.00  0.00    -0.460 OA
BRANCH  30  31
ATOM     31  C   UNL A   1      33.006  34.779  28.709  1.00  0.00     0.338 C 
ATOM     32  O   UNL A   1      32.727  35.950  28.819  1.00  0.00    -0.246 OA
BRANCH  31  33
ATOM     33  C   UNL A   1      34.297  34.191  29.148  1.00  0.00     0.060 A 
ATOM     34  C   UNL A   1      34.262  33.173  30.113  1.00  0.00     0.016 A 
ATOM     35  C   UNL A   1      35.504  34.545  28.536  1.00  0.00     0.016 A 
ATOM     36  C   UNL A   1      35.437  32.515  30.479  1.00  0.00     0.010 A 
ATOM     37  C   UNL A   1      36.679  33.900  28.915  1.00  0.00     0.010 A 
ATOM     38  C   UNL A   1      36.654  32.901  29.904  1.00  0.00    -0.014 A 
BRANCH  38  39
ATOM     39  C   UNL A   1      37.940  32.448  30.479  1.00  0.00     0.031 A 
ATOM     40  C   UNL A   1      38.571  31.229  29.869  1.00  0.00     0.074 A 
ATOM     41  C   UNL A   1      38.489  33.046  31.551  1.00  0.00     0.049 A 
ATOM     42  N   UNL A   1      39.587  30.522  30.288  1.00  0.00    -0.248 NA
ATOM     43  C   UNL A   1      37.958  30.731  28.625  1.00  0.00     0.031 C 
ATOM     44  C   UNL A   1      37.978  34.247  32.209  1.00  0.00     0.029 A 
ATOM     45  N   UNL A   1      39.585  32.691  32.298  1.00  0.00    -0.354 N 
ATOM     46  C   UNL A   1      39.718  29.485  29.374  1.00  0.00     0.074 A 
ATOM     47  C   UNL A   1      38.680  29.648  28.382  1.00  0.00     0.031 C 
ATOM     48  C   UNL A   1      38.739  34.508  33.288  1.00  0.00     0.029 A 
ATOM     49  C   UNL A   1      39.762  33.469  33.416  1.00  0.00     0.049 A 
ATOM     50  H   UNL A   1      40.186  31.949  32.055  1.00  0.00     0.167 HD
ATOM     51  C   UNL A   1      40.622  28.481  29.370  1.00  0.00     0.037 A 
ATOM     52  C   UNL A   1      40.620  33.322  34.446  1.00  0.00     0.037 A 
ATOM     53  C   UNL A   1      41.652  28.324  30.356  1.00  0.00     0.049 A 
ATOM     54  C   UNL A   1      41.576  32.154  34.449  1.00  0.00     0.074 A 
ATOM     55  C   UNL A   1      42.653  27.371  30.410  1.00  0.00     0.029 A 
ATOM     56  N   UNL A   1      41.800  29.133  31.471  1.00  0.00    -0.354 N 
ATOM     57  N   UNL A   1      41.734  31.211  33.551  1.00  0.00    -0.248 NA
ATOM     58  C   UNL A   1      42.464  32.022  35.615  1.00  0.00     0.031 C 
ATOM     59  C   UNL A   1      43.376  27.572  31.589  1.00  0.00     0.029 A 
ATOM     60  C   UNL A   1      42.854  28.677  32.242  1.00  0.00     0.049 A 
ATOM     61  H   UNL A   1      41.240  29.914  31.682  1.00  0.00     0.167 HD
ATOM     62  C   UNL A   1      42.748  30.389  34.033  1.00  0.00     0.074 A 
ATOM     63  C   UNL A   1      43.180  30.954  35.293  1.00  0.00     0.031 C 
ATOM     64  C   UNL A   1      43.271  29.265  33.488  1.00  0.00     0.037 A 
BRANCH  51  65
ATOM     65  C   UNL A   1      40.515  27.457  28.283  1.00  0.00     0.057 A 
ATOM     66  C   UNL A   1      41.184  27.602  27.062  1.00  0.00     0.134 A 
ATOM     67  C   UNL A   1      39.769  26.289  28.483  1.00  0.00     0.134 A 
ATOM     68  F   UNL A   1      41.897  28.709  26.804  1.00  0.00    -0.206 F 
ATOM     69  C   UNL A   1      41.108  26.621  26.072  1.00  0.00     0.040 A 
ATOM     70  C   UNL A   1      39.703  25.293  27.509  1.00  0.00     0.040 A 
ATOM     71  F   UNL A   1      39.102  26.095  29.629  1.00  0.00    -0.206 F 
ATOM     72  C   UNL A   1      40.373  25.458  26.298  1.00  0.00     0.006 A 
ENDBRANCH  51  65
BRANCH  52  73
ATOM     73  C   UNL A   1      40.589  34.261  35.599  1.00  0.00     0.057 A 
ATOM     74  C   UNL A   1      39.754  34.033  36.699  1.00  0.00     0.134 A 
ATOM     75  C   UNL A   1      41.341  35.441  35.597  1.00  0.00     0.134 A 
ATOM     76  F   UNL A   1      38.984  32.935  36.748  1.00  0.00    -0.206 F 
ATOM     77  C   UNL A   1      39.647  34.957  37.742  1.00  0.00     0.040 A 
ATOM     78  C   UNL A   1      41.265  36.361  36.645  1.00  0.00     0.040 A 
ATOM     79  F   UNL A   1      42.158  35.723  34.571  1.00  0.00    -0.206 F 
ATOM     80  C   UNL A   1      40.408  36.124  37.717  1.00  0.00     0.006 A 
ENDBRANCH  52  73
BRANCH  64  81
ATOM     81  C   UNL A   1      44.381  28.584  34.233  1.00  0.00     0.057 A 
ATOM     82  C   UNL A   1      44.144  27.471  35.049  1.00  0.00     0.134 A 
ATOM     83  C   UNL A   1      45.708  29.002  34.073  1.00  0.00     0.134 A 
ATOM     84  F   UNL A   1      42.894  27.030  35.251  1.00  0.00    -0.206 F 
ATOM     85  C   UNL A   1      45.189  26.805  35.690  1.00  0.00     0.040 A 
ATOM     86  C   UNL A   1      46.764  28.328  34.687  1.00  0.00     0.040 A 
ATOM     87  F   UNL A   1      46.002  30.055  33.294  1.00  0.00    -0.206 F 
ATOM     88  C   UNL A   1      46.504  27.227  35.502  1.00  0.00     0.006 A 
ENDBRANCH  64  81
ENDBRANCH  38  39
ENDBRANCH  31  33
ENDBRANCH  30  31
ENDBRANCH  29  30
ENDBRANCH  28  29
ENDBRANCH  27  28
ENDBRANCH  26  27
ENDBRANCH  25  26
ENDBRANCH  24  25
ENDBRANCH   1  24
TORSDOF 24
ENDMDL
MODEL 2
REMARK VINA RESULT:      -9.2      1.160      6.035
REMARK SMILES O=C(CC1(Nc2nc(C3CC3)ns2)CCC1)OCCOCCOCCOCCOC(=O)c1ccc(-c2c3nc(c(-c4c(F)cccc4F)c4ccc([nH]4)c(-c4c(F)cccc4F)c4nc(c(-c5c(F)cccc5F)c5ccc2[nH]5)C=C4)C=C3)cc1
REMARK SMILES IDX 22 1 21 2 20 3 19 4 18 5 17 6 2 7 1 8 3 9 4 10 14 11 16 12
REMARK SMILES IDX 15 13 5 14 6 16 7 17 13 18 8 19 12 20 9 21 10 22 11 23 23 24
REMARK SMILES IDX 24 25 25 26 26 27 27 28 28 29 29 30 30 31 31 32 32 33 33 34
REMARK SMILES IDX 85 35 34 36 84 37 35 38 36 39 37 40 78 41 38 42 83 43 77 44
REMARK SMILES IDX 79 45 39 46 82 47 76 48 75 49 40 51 66 52 49 53 65 54 50 55
REMARK SMILES IDX 53 56 64 57 80 58 51 59 52 60 63 62 81 63 54 64 41 65 42 66
REMARK SMILES IDX 47 67 43 68 44 69 46 70 48 71 45 72 67 73 68 74 73 75 69 76
REMARK SMILES IDX 70 77 72 78 74 79 71 80 55 81 56 82 61 83 57 84 58 85 60 86
REMARK SMILES IDX 62 87 59 88
REMARK H PARENT 5 15 79 50 53 61
REMARK Flexibility Score: inf
ROOT
ATOM      1  C   UNL A   1      33.338  27.369  24.765  1.00  0.00     0.188 C 
ENDROOT
BRANCH   1   2
ATOM      2  C   UNL A   1      32.655  26.671  25.933  1.00  0.00     0.188 C 
BRANCH   2   3
ATOM      3  O   UNL A   1      31.252  26.418  25.814  1.00  0.00    -0.376 OA
BRANCH   3   4
ATOM      4  C   UNL A   1      30.802  25.103  25.536  1.00  0.00     0.202 C 
BRANCH   4   5
ATOM      5  C   UNL A   1      31.145  24.112  26.627  1.00  0.00     0.261 C 
BRANCH   5   6
ATOM      6  O   UNL A   1      32.398  23.454  26.399  1.00  0.00    -0.463 OA
BRANCH   6   7
ATOM      7  C   UNL A   1      33.153  22.801  27.300  1.00  0.00     0.308 C 
ATOM      8  O   UNL A   1      32.596  22.373  28.314  1.00  0.00    -0.252 OA
BRANCH   7   9
ATOM      9  C   UNL A   1      34.647  22.620  27.147  1.00  0.00     0.151 C 
BRANCH   9  10
ATOM     10  C   UNL A   1      35.316  22.759  25.784  1.00  0.00     0.050 C 
ATOM     11  C   UNL A   1      35.778  24.203  25.417  1.00  0.00     0.029 C 
ATOM     12  C   UNL A   1      36.830  22.348  25.739  1.00  0.00     0.029 C 
ATOM     13  C   UNL A   1      37.171  23.668  25.055  1.00  0.00     0.005 C 
BRANCH  10  14
ATOM     14  N   UNL A   1      34.599  22.170  24.672  1.00  0.00    -0.354 N 
ATOM     15  H   UNL A   1      34.576  22.739  23.869  1.00  0.00     0.163 HD
BRANCH  14  16
ATOM     16  C   UNL A   1      33.951  20.981  24.521  1.00  0.00     0.203 A 
ATOM     17  N   UNL A   1      34.325  19.739  24.766  1.00  0.00    -0.203 NA
ATOM     18  S   UNL A   1      32.341  21.021  23.862  1.00  0.00     0.004 S 
ATOM     19  C   UNL A   1      33.325  18.867  24.291  1.00  0.00     0.147 A 
ATOM     20  N   UNL A   1      32.210  19.379  23.765  1.00  0.00    -0.174 NA
BRANCH  19  21
ATOM     21  C   UNL A   1      33.421  17.335  24.309  1.00  0.00     0.059 C 
ATOM     22  C   UNL A   1      34.210  16.581  23.267  1.00  0.00     0.012 C 
ATOM     23  C   UNL A   1      34.728  16.663  24.665  1.00  0.00     0.012 C 
ENDBRANCH  19  21
ENDBRANCH  14  16
ENDBRANCH  10  14
ENDBRANCH   9  10
ENDBRANCH   7   9
ENDBRANCH   6   7
ENDBRANCH   5   6
ENDBRANCH   4   5
ENDBRANCH   3   4
ENDBRANCH   2   3
ENDBRANCH   1   2
BRANCH   1  24
ATOM     24  O   UNL A   1      33.770  28.698  24.981  1.00  0.00    -0.377 OA
BRANCH  24  25
ATOM     25  C   UNL A   1      33.104  29.481  25.952  1.00  0.00     0.188 C 
BRANCH  25  26
ATOM     26  C   UNL A   1      31.758  30.119  25.546  1.00  0.00     0.188 C 
BRANCH  26  27
ATOM     27  O   UNL A   1      31.347  31.371  26.083  1.00  0.00    -0.376 OA
BRANCH  27  28
ATOM     28  C   UNL A   1      32.037  31.962  27.172  1.00  0.00     0.202 C 
BRANCH  28  29
ATOM     29  C   UNL A   1      32.449  33.422  27.001  1.00  0.00     0.261 C 
BRANCH  29  30
ATOM     30  O   UNL A   1      32.431  34.123  28.251  1.00  0.00    -0.460 OA
BRANCH  30  31
ATOM     31  C   UNL A   1      33.544  34.841  28.550  1.00  0.00     0.338 C 
ATOM     32  O   UNL A   1      33.655  36.043  28.616  1.00  0.00    -0.246 OA
BRANCH  31  33
ATOM     33  C   UNL A   1      34.582  33.887  29.016  1.00  0.00     0.060 A 
ATOM     34  C   UNL A   1      34.197  32.885  29.919  1.00  0.00     0.016 A 
ATOM     35  C   UNL A   1      35.875  33.901  28.483  1.00  0.00     0.016 A 
ATOM     36  C   UNL A   1      35.110  31.901  30.302  1.00  0.00     0.010 A 
ATOM     37  C   UNL A   1      36.791  32.928  28.879  1.00  0.00     0.010 A 
ATOM     38  C   UNL A   1      36.419  31.941  29.808  1.00  0.00    -0.014 A 
BRANCH  38  39
ATOM     39  C   UNL A   1      37.483  31.112  30.417  1.00  0.00     0.031 A 
ATOM     40  C   UNL A   1      37.856  31.415  31.840  1.00  0.00     0.074 A 
ATOM     41  C   UNL A   1      38.148  30.180  29.713  1.00  0.00     0.049 A 
ATOM     42  N   UNL A   1      38.862  30.972  32.547  1.00  0.00    -0.248 NA
ATOM     43  C   UNL A   1      36.983  32.362  32.556  1.00  0.00     0.031 C 
ATOM     44  C   UNL A   1      37.857  29.785  28.336  1.00  0.00     0.029 A 
ATOM     45  N   UNL A   1      39.240  29.421  30.059  1.00  0.00    -0.354 N 
ATOM     46  C   UNL A   1      38.754  31.604  33.779  1.00  0.00     0.074 A 
ATOM     47  C   UNL A   1      37.594  32.463  33.726  1.00  0.00     0.031 C 
ATOM     48  C   UNL A   1      38.774  28.883  27.939  1.00  0.00     0.029 A 
ATOM     49  C   UNL A   1      39.737  28.671  29.021  1.00  0.00     0.049 A 
ATOM     50  H   UNL A   1      39.628  29.416  30.964  1.00  0.00     0.167 HD
ATOM     51  C   UNL A   1      39.561  31.483  34.857  1.00  0.00     0.037 A 
ATOM     52  C   UNL A   1      40.867  27.940  28.945  1.00  0.00     0.037 A 
ATOM     53  C   UNL A   1      40.712  30.628  34.905  1.00  0.00     0.049 A 
ATOM     54  C   UNL A   1      41.785  27.874  30.142  1.00  0.00     0.074 A 
ATOM     55  C   UNL A   1      41.563  30.391  35.969  1.00  0.00     0.029 A 
ATOM     56  N   UNL A   1      41.181  29.882  33.835  1.00  0.00    -0.354 N 
ATOM     57  N   UNL A   1      41.646  28.426  31.323  1.00  0.00    -0.248 NA
ATOM     58  C   UNL A   1      43.023  27.093  29.991  1.00  0.00     0.031 C 
ATOM     59  C   UNL A   1      42.580  29.541  35.527  1.00  0.00     0.029 A 
ATOM     60  C   UNL A   1      42.334  29.214  34.203  1.00  0.00     0.049 A 
ATOM     61  H   UNL A   1      40.757  29.835  32.949  1.00  0.00     0.167 HD
ATOM     62  C   UNL A   1      42.764  28.046  32.058  1.00  0.00     0.074 A 
ATOM     63  C   UNL A   1      43.562  27.201  31.196  1.00  0.00     0.031 C 
ATOM     64  C   UNL A   1      43.106  28.369  33.329  1.00  0.00     0.037 A 
BRANCH  51  65
ATOM     65  C   UNL A   1      39.244  32.319  36.057  1.00  0.00     0.057 A 
ATOM     66  C   UNL A   1      39.802  33.589  36.241  1.00  0.00     0.134 A 
ATOM     67  C   UNL A   1      38.332  31.862  37.016  1.00  0.00     0.134 A 
ATOM     68  F   UNL A   1      40.698  34.073  35.368  1.00  0.00    -0.206 F 
ATOM     69  C   UNL A   1      39.468  34.375  37.346  1.00  0.00     0.040 A 
ATOM     70  C   UNL A   1      37.975  32.647  38.112  1.00  0.00     0.040 A 
ATOM     71  F   UNL A   1      37.769  30.651  36.897  1.00  0.00    -0.206 F 
ATOM     72  C   UNL A   1      38.544  33.908  38.279  1.00  0.00     0.006 A 
ENDBRANCH  51  65
BRANCH  52  73
ATOM     73  C   UNL A   1      41.245  27.256  27.680  1.00  0.00     0.057 A 
ATOM     74  C   UNL A   1      40.952  25.903  27.470  1.00  0.00     0.134 A 
ATOM     75  C   UNL A   1      41.967  27.919  26.680  1.00  0.00     0.134 A 
ATOM     76  F   UNL A   1      40.289  25.203  28.402  1.00  0.00    -0.206 F 
ATOM     77  C   UNL A   1      41.387  25.228  26.326  1.00  0.00     0.040 A 
ATOM     78  C   UNL A   1      42.385  27.265  25.520  1.00  0.00     0.040 A 
ATOM     79  F   UNL A   1      42.285  29.215  26.821  1.00  0.00    -0.206 F 
ATOM     80  C   UNL A   1      42.104  25.912  25.346  1.00  0.00     0.006 A 
ENDBRANCH  52  73
BRANCH  64  81
ATOM     81  C   UNL A   1      44.379  27.793  33.874  1.00  0.00     0.057 A 
ATOM     82  C   UNL A   1      45.578  28.515  33.858  1.00  0.00     0.134 A 
ATOM     83  C   UNL A   1      44.386  26.533  34.485  1.00  0.00     0.134 A 
ATOM     84  F   UNL A   1      45.637  29.722  33.276  1.00  0.00    -0.206 F 
ATOM     85  C   UNL A   1      46.744  27.998  34.422  1.00  0.00     0.040 A 
ATOM     86  C   UNL A   1      45.540  26.017  35.076  1.00  0.00     0.040 A 
ATOM     87  F   UNL A   1      43.266  25.796  34.544  1.00  0.00    -0.206 F 
ATOM     88  C   UNL A   1      46.725  26.750  35.042  1.00  0.00     0.006 A 
ENDBRANCH  64  81
ENDBRANCH  38  39
ENDBRANCH  31  33
ENDBRANCH  30  31
ENDBRANCH  29  30
ENDBRANCH  28  29
ENDBRANCH  27  28
ENDBRANCH  26  27
ENDBRANCH  25  26
ENDBRANCH  24  25
ENDBRANCH   1  24
TORSDOF 24
ENDMDL
MODEL 3
REMARK VINA RESULT:      -8.4      1.354      2.060
REMARK SMILES O=C(CC1(Nc2nc(C3CC3)ns2)CCC1)OCCOCCOCCOCCOC(=O)c1ccc(-c2c3nc(c(-c4c(F)cccc4F)c4ccc([nH]4)c(-c4c(F)cccc4F)c4nc(c(-c5c(F)cccc5F)c5ccc2[nH]5)C=C4)C=C3)cc1
REMARK SMILES IDX 22 1 21 2 20 3 19 4 18 5 17 6 2 7 1 8 3 9 4 10 14 11 16 12
REMARK SMILES IDX 15 13 5 14 6 16 7 17 13 18 8 19 12 20 9 21 10 22 11 23 23 24
REMARK SMILES IDX 24 25 25 26 26 27 27 28 28 29 29 30 30 31 31 32 32 33 33 34
REMARK SMILES IDX 85 35 34 36 84 37 35 38 36 39 37 40 78 41 38 42 83 43 77 44
REMARK SMILES IDX 79 45 39 46 82 47 76 48 75 49 40 51 66 52 49 53 65 54 50 55
REMARK SMILES IDX 53 56 64 57 80 58 51 59 52 60 63 62 81 63 54 64 41 65 42 66
REMARK SMILES IDX 47 67 43 68 44 69 46 70 48 71 45 72 67 73 68 74 73 75 69 76
REMARK SMILES IDX 70 77 72 78 74 79 71 80 55 81 56 82 61 83 57 84 58 85 60 86
REMARK SMILES IDX 62 87 59 88
REMARK H PARENT 5 15 79 50 53 61
REMARK Flexibility Score: inf
ROOT
ATOM      1  C   UNL A   1      32.809  27.003  23.263  1.00  0.00     0.188 C 
ENDROOT
BRANCH   1   2
ATOM      2  C   UNL A   1      33.527  26.555  24.527  1.00  0.00     0.188 C 
BRANCH   2   3
ATOM      3  O   UNL A   1      32.721  26.021  25.583  1.00  0.00    -0.376 OA
BRANCH   3   4
ATOM      4  C   UNL A   1      31.532  26.694  25.960  1.00  0.00     0.202 C 
BRANCH   4   5
ATOM      5  C   UNL A   1      30.363  25.758  26.184  1.00  0.00     0.261 C 
BRANCH   5   6
ATOM      6  O   UNL A   1      30.615  24.436  25.691  1.00  0.00    -0.463 OA
BRANCH   6   7
ATOM      7  C   UNL A   1      31.083  23.382  26.383  1.00  0.00     0.308 C 
ATOM      8  O   UNL A   1      31.488  23.583  27.531  1.00  0.00    -0.252 OA
BRANCH   7   9
ATOM      9  C   UNL A   1      31.184  21.991  25.797  1.00  0.00     0.151 C 
BRANCH   9  10
ATOM     10  C   UNL A   1      32.429  21.552  25.035  1.00  0.00     0.050 C 
ATOM     11  C   UNL A   1      33.398  22.704  24.628  1.00  0.00     0.029 C 
ATOM     12  C   UNL A   1      33.594  20.993  25.925  1.00  0.00     0.029 C 
ATOM     13  C   UNL A   1      34.578  21.928  25.231  1.00  0.00     0.005 C 
BRANCH  10  14
ATOM     14  N   UNL A   1      32.194  20.679  23.903  1.00  0.00    -0.354 N 
ATOM     15  H   UNL A   1      31.686  21.103  23.174  1.00  0.00     0.163 HD
BRANCH  14  16
ATOM     16  C   UNL A   1      32.540  19.385  23.652  1.00  0.00     0.203 A 
ATOM     17  N   UNL A   1      33.083  18.456  24.416  1.00  0.00    -0.203 NA
ATOM     18  S   UNL A   1      32.273  18.781  22.042  1.00  0.00     0.004 S 
ATOM     19  C   UNL A   1      33.369  17.330  23.618  1.00  0.00     0.147 A 
ATOM     20  N   UNL A   1      33.021  17.339  22.329  1.00  0.00    -0.174 NA
BRANCH  19  21
ATOM     21  C   UNL A   1      34.087  16.067  24.116  1.00  0.00     0.059 C 
ATOM     22  C   UNL A   1      34.996  16.099  25.319  1.00  0.00     0.012 C 
ATOM     23  C   UNL A   1      33.669  15.424  25.419  1.00  0.00     0.012 C 
ENDBRANCH  19  21
ENDBRANCH  14  16
ENDBRANCH  10  14
ENDBRANCH   9  10
ENDBRANCH   7   9
ENDBRANCH   6   7
ENDBRANCH   5   6
ENDBRANCH   4   5
ENDBRANCH   3   4
ENDBRANCH   2   3
ENDBRANCH   1   2
BRANCH   1  24
ATOM     24  O   UNL A   1      32.985  28.352  22.873  1.00  0.00    -0.377 OA
BRANCH  24  25
ATOM     25  C   UNL A   1      32.779  29.369  23.832  1.00  0.00     0.188 C 
BRANCH  25  26
ATOM     26  C   UNL A   1      31.323  29.659  24.256  1.00  0.00     0.188 C 
BRANCH  26  27
ATOM     27  O   UNL A   1      31.034  30.535  25.340  1.00  0.00    -0.376 OA
BRANCH  27  28
ATOM     28  C   UNL A   1      31.913  30.643  26.448  1.00  0.00     0.202 C 
BRANCH  28  29
ATOM     29  C   UNL A   1      32.695  31.948  26.566  1.00  0.00     0.261 C 
BRANCH  29  30
ATOM     30  O   UNL A   1      32.225  32.745  27.660  1.00  0.00    -0.460 OA
BRANCH  30  31
ATOM     31  C   UNL A   1      33.003  33.803  28.009  1.00  0.00     0.338 C 
ATOM     32  O   UNL A   1      32.695  34.971  28.039  1.00  0.00    -0.246 OA
BRANCH  31  33
ATOM     33  C   UNL A   1      34.265  33.265  28.577  1.00  0.00     0.060 A 
ATOM     34  C   UNL A   1      34.209  32.040  29.259  1.00  0.00     0.016 A 
ATOM     35  C   UNL A   1      35.494  33.887  28.338  1.00  0.00     0.016 A 
ATOM     36  C   UNL A   1      35.384  31.440  29.717  1.00  0.00     0.010 A 
ATOM     37  C   UNL A   1      36.665  33.296  28.811  1.00  0.00     0.010 A 
ATOM     38  C   UNL A   1      36.611  32.085  29.522  1.00  0.00    -0.014 A 
BRANCH  38  39
ATOM     39  C   UNL A   1      37.822  31.642  30.249  1.00  0.00     0.031 A 
ATOM     40  C   UNL A   1      38.685  30.612  29.578  1.00  0.00     0.074 A 
ATOM     41  C   UNL A   1      38.105  32.077  31.490  1.00  0.00     0.049 A 
ATOM     42  N   UNL A   1      39.687  29.927  30.060  1.00  0.00    -0.248 NA
ATOM     43  C   UNL A   1      38.357  30.302  28.175  1.00  0.00     0.031 C 
ATOM     44  C   UNL A   1      37.353  33.090  32.228  1.00  0.00     0.029 A 
ATOM     45  N   UNL A   1      39.088  31.682  32.363  1.00  0.00    -0.354 N 
ATOM     46  C   UNL A   1      40.093  29.090  29.029  1.00  0.00     0.074 A 
ATOM     47  C   UNL A   1      39.230  29.346  27.898  1.00  0.00     0.031 C 
ATOM     48  C   UNL A   1      37.881  33.210  33.460  1.00  0.00     0.029 A 
ATOM     49  C   UNL A   1      38.979  32.254  33.607  1.00  0.00     0.049 A 
ATOM     50  H   UNL A   1      39.804  31.050  32.119  1.00  0.00     0.167 HD
ATOM     51  C   UNL A   1      41.093  28.182  29.030  1.00  0.00     0.037 A 
ATOM     52  C   UNL A   1      39.657  31.992  34.743  1.00  0.00     0.037 A 
ATOM     53  C   UNL A   1      41.948  27.932  30.155  1.00  0.00     0.049 A 
ATOM     54  C   UNL A   1      40.726  30.926  34.735  1.00  0.00     0.074 A 
ATOM     55  C   UNL A   1      43.028  27.072  30.241  1.00  0.00     0.029 A 
ATOM     56  N   UNL A   1      41.807  28.533  31.396  1.00  0.00    -0.354 N 
ATOM     57  N   UNL A   1      41.145  30.181  33.740  1.00  0.00    -0.248 NA
ATOM     58  C   UNL A   1      41.408  30.656  36.010  1.00  0.00     0.031 C 
ATOM     59  C   UNL A   1      43.509  27.113  31.553  1.00  0.00     0.029 A 
ATOM     60  C   UNL A   1      42.757  28.032  32.267  1.00  0.00     0.049 A 
ATOM     61  H   UNL A   1      41.133  29.213  31.623  1.00  0.00     0.167 HD
ATOM     62  C   UNL A   1      42.147  29.371  34.263  1.00  0.00     0.074 A 
ATOM     63  C   UNL A   1      42.287  29.728  35.659  1.00  0.00     0.031 C 
ATOM     64  C   UNL A   1      42.883  28.413  33.651  1.00  0.00     0.037 A 
BRANCH  51  65
ATOM     65  C   UNL A   1      41.295  27.370  27.789  1.00  0.00     0.057 A 
ATOM     66  C   UNL A   1      41.965  27.881  26.672  1.00  0.00     0.134 A 
ATOM     67  C   UNL A   1      40.851  26.043  27.733  1.00  0.00     0.134 A 
ATOM     68  F   UNL A   1      42.395  29.152  26.658  1.00  0.00    -0.206 F 
ATOM     69  C   UNL A   1      42.181  27.100  25.535  1.00  0.00     0.040 A 
ATOM     70  C   UNL A   1      41.079  25.248  26.611  1.00  0.00     0.040 A 
ATOM     71  F   UNL A   1      40.197  25.499  28.770  1.00  0.00    -0.206 F 
ATOM     72  C   UNL A   1      41.746  25.776  25.507  1.00  0.00     0.006 A 
ENDBRANCH  51  65
BRANCH  52  73
ATOM     73  C   UNL A   1      39.319  32.697  36.008  1.00  0.00     0.057 A 
ATOM     74  C   UNL A   1      39.865  33.950  36.310  1.00  0.00     0.134 A 
ATOM     75  C   UNL A   1      38.497  32.104  36.974  1.00  0.00     0.134 A 
ATOM     76  F   UNL A   1      40.684  34.558  35.439  1.00  0.00    -0.206 F 
ATOM     77  C   UNL A   1      39.629  34.575  37.537  1.00  0.00     0.040 A 
ATOM     78  C   UNL A   1      38.231  32.729  38.194  1.00  0.00     0.040 A 
ATOM     79  F   UNL A   1      37.946  30.902  36.750  1.00  0.00    -0.206 F 
ATOM     80  C   UNL A   1      38.806  33.964  38.482  1.00  0.00     0.006 A 
ENDBRANCH  52  73
BRANCH  64  81
ATOM     81  C   UNL A   1      43.918  27.701  34.470  1.00  0.00     0.057 A 
ATOM     82  C   UNL A   1      45.204  28.224  34.645  1.00  0.00     0.134 A 
ATOM     83  C   UNL A   1      43.600  26.518  35.149  1.00  0.00     0.134 A 
ATOM     84  F   UNL A   1      45.573  29.348  34.012  1.00  0.00    -0.206 F 
ATOM     85  C   UNL A   1      46.143  27.589  35.459  1.00  0.00     0.040 A 
ATOM     86  C   UNL A   1      44.521  25.887  35.986  1.00  0.00     0.040 A 
ATOM     87  F   UNL A   1      42.379  25.972  35.032  1.00  0.00    -0.206 F 
ATOM     88  C   UNL A   1      45.799  26.422  36.139  1.00  0.00     0.006 A 
ENDBRANCH  64  81
ENDBRANCH  38  39
ENDBRANCH  31  33
ENDBRANCH  30  31
ENDBRANCH  29  30
ENDBRANCH  28  29
ENDBRANCH  27  28
ENDBRANCH  26  27
ENDBRANCH  25  26
ENDBRANCH  24  25
ENDBRANCH   1  24
TORSDOF 24
ENDMDL
