MODEL 1
REMARK VINA RESULT:      -9.1      0.000      0.000
REMARK SMILES Cc1cc(Br)cnc1Sc1nc(CC(=O)OCCOCCOCCOCCOC(=O)c2ccc(-c3c4nc(c(-c5c(F)cccc5F)c5ccc([nH]5)c(-c5c(F)cccc5F)c5nc(c(-c6c(F)cccc6F)c6ccc3[nH]6)C=C5)C=C4)cc2)cs1
REMARK SMILES IDX 21 1 20 2 19 3 18 4 17 5 16 6 14 7 15 8 13 9 12 10 10 11
REMARK SMILES IDX 11 12 86 13 85 14 9 15 8 16 1 17 2 18 3 19 4 20 7 21 5 22
REMARK SMILES IDX 6 23 22 24 23 25 24 26 25 27 26 28 27 29 28 30 29 31 30 32
REMARK SMILES IDX 31 33 32 34 84 35 33 36 83 37 34 38 35 39 36 40 77 41 37 42
REMARK SMILES IDX 82 43 76 44 78 45 38 46 81 47 75 48 74 49 39 51 65 52 48 53
REMARK SMILES IDX 64 54 49 55 52 56 63 57 79 58 50 59 51 60 62 62 80 63 53 64
REMARK SMILES IDX 40 65 41 66 46 67 42 68 43 69 45 70 47 71 44 72 66 73 67 74
REMARK SMILES IDX 72 75 68 76 69 77 71 78 73 79 70 80 54 81 55 82 60 83 56 84
REMARK SMILES IDX 57 85 59 86 61 87 58 88
REMARK H PARENT 78 50 52 61
REMARK Flexibility Score: inf
ROOT
ATOM      1  C   UNL A   1      37.159  23.294  25.055  1.00  0.00     0.188 C 
ENDROOT
BRANCH   1   2
ATOM      2  C   UNL A   1      35.754  23.870  24.859  1.00  0.00     0.188 C 
BRANCH   2   3
ATOM      3  O   UNL A   1      34.972  24.248  25.980  1.00  0.00    -0.376 OA
BRANCH   3   4
ATOM      4  C   UNL A   1      34.612  23.282  26.958  1.00  0.00     0.202 C 
BRANCH   4   5
ATOM      5  C   UNL A   1      33.433  22.320  26.700  1.00  0.00     0.261 C 
BRANCH   5   6
ATOM      6  O   UNL A   1      33.682  21.157  25.872  1.00  0.00    -0.463 OA
BRANCH   6   7
ATOM      7  C   UNL A   1      32.815  20.932  24.857  1.00  0.00     0.311 C 
ATOM      8  O   UNL A   1      31.779  20.279  24.990  1.00  0.00    -0.252 OA
BRANCH   7   9
ATOM      9  C   UNL A   1      33.158  21.517  23.503  1.00  0.00     0.179 C 
BRANCH   9  10
ATOM     10  C   UNL A   1      32.625  22.844  23.038  1.00  0.00     0.064 A 
ATOM     11  C   UNL A   1      31.352  24.640  23.336  1.00  0.00     0.156 A 
ATOM     12  N   UNL A   1      31.515  23.381  23.684  1.00  0.00    -0.234 NA
ATOM     13  S   UNL A   1      32.319  25.172  22.021  1.00  0.00    -0.116 S 
ATOM     14  C   UNL A   1      33.282  23.772  22.237  1.00  0.00     0.092 A 
BRANCH  11  15
ATOM     15  S   UNL A   1      30.286  25.719  24.165  1.00  0.00    -0.039 SA
BRANCH  15  16
ATOM     16  C   UNL A   1      31.347  26.955  24.900  1.00  0.00     0.106 A 
ATOM     17  C   UNL A   1      30.512  29.198  23.881  1.00  0.00     0.047 C 
ATOM     18  C   UNL A   1      31.404  28.351  24.735  1.00  0.00    -0.017 A 
ATOM     19  C   UNL A   1      32.406  29.068  25.426  1.00  0.00     0.023 A 
ATOM     20  C   UNL A   1      33.262  28.423  26.299  1.00  0.00     0.036 A 
ATOM     21  N   UNL A   1      32.187  26.340  25.784  1.00  0.00    -0.248 NA
ATOM     22  Br  UNL A   1      34.581  29.382  27.236  1.00  0.00    -0.049 Br
ATOM     23  C   UNL A   1      33.105  27.068  26.460  1.00  0.00     0.128 A 
ENDBRANCH  15  16
ENDBRANCH  11  15
ENDBRANCH   9  10
ENDBRANCH   7   9
ENDBRANCH   6   7
ENDBRANCH   5   6
ENDBRANCH   4   5
ENDBRANCH   3   4
ENDBRANCH   2   3
ENDBRANCH   1   2
BRANCH   1  24
ATOM     24  O   UNL A   1      37.399  22.006  24.537  1.00  0.00    -0.377 OA
BRANCH  24  25
ATOM     25  C   UNL A   1      38.120  21.098  25.345  1.00  0.00     0.188 C 
BRANCH  25  26
ATOM     26  C   UNL A   1      39.215  21.689  26.243  1.00  0.00     0.188 C 
BRANCH  26  27
ATOM     27  O   UNL A   1      40.284  20.783  26.492  1.00  0.00    -0.376 OA
BRANCH  27  28
ATOM     28  C   UNL A   1      41.274  21.138  27.446  1.00  0.00     0.202 C 
BRANCH  28  29
ATOM     29  C   UNL A   1      42.649  21.602  26.935  1.00  0.00     0.261 C 
BRANCH  29  30
ATOM     30  O   UNL A   1      43.030  22.958  27.202  1.00  0.00    -0.460 OA
BRANCH  30  31
ATOM     31  C   UNL A   1      42.644  23.925  26.346  1.00  0.00     0.338 C 
ATOM     32  O   UNL A   1      42.525  23.837  25.136  1.00  0.00    -0.246 OA
BRANCH  31  33
ATOM     33  C   UNL A   1      42.204  25.079  27.158  1.00  0.00     0.060 A 
ATOM     34  C   UNL A   1      42.883  26.301  27.046  1.00  0.00     0.016 A 
ATOM     35  C   UNL A   1      41.104  24.957  28.009  1.00  0.00     0.016 A 
ATOM     36  C   UNL A   1      42.479  27.399  27.809  1.00  0.00     0.010 A 
ATOM     37  C   UNL A   1      40.718  26.047  28.790  1.00  0.00     0.010 A 
ATOM     38  C   UNL A   1      41.423  27.262  28.718  1.00  0.00    -0.014 A 
BRANCH  38  39
ATOM     39  C   UNL A   1      41.180  28.291  29.756  1.00  0.00     0.031 A 
ATOM     40  C   UNL A   1      41.995  28.219  31.017  1.00  0.00     0.074 A 
ATOM     41  C   UNL A   1      40.233  29.232  29.614  1.00  0.00     0.049 A 
ATOM     42  N   UNL A   1      41.866  28.885  32.134  1.00  0.00    -0.248 NA
ATOM     43  C   UNL A   1      43.101  27.248  31.016  1.00  0.00     0.031 C 
ATOM     44  C   UNL A   1      39.411  29.435  28.423  1.00  0.00     0.029 A 
ATOM     45  N   UNL A   1      39.785  30.181  30.501  1.00  0.00    -0.354 N 
ATOM     46  C   UNL A   1      42.858  28.398  32.976  1.00  0.00     0.074 A 
ATOM     47  C   UNL A   1      43.566  27.367  32.250  1.00  0.00     0.031 C 
ATOM     48  C   UNL A   1      38.535  30.426  28.665  1.00  0.00     0.029 A 
ATOM     49  C   UNL A   1      38.707  30.896  30.040  1.00  0.00     0.049 A 
ATOM     50  H   UNL A   1      40.198  30.332  31.381  1.00  0.00     0.167 HD
ATOM     51  C   UNL A   1      43.151  28.776  34.242  1.00  0.00     0.037 A 
ATOM     52  C   UNL A   1      37.927  31.795  30.673  1.00  0.00     0.037 A 
ATOM     53  C   UNL A   1      42.434  29.795  34.961  1.00  0.00     0.049 A 
ATOM     54  C   UNL A   1      38.217  32.144  32.111  1.00  0.00     0.074 A 
ATOM     55  C   UNL A   1      42.657  30.265  36.243  1.00  0.00     0.029 A 
ATOM     56  N   UNL A   1      41.342  30.492  34.462  1.00  0.00    -0.354 N 
ATOM     57  N   UNL A   1      39.165  31.694  32.899  1.00  0.00    -0.248 NA
ATOM     58  C   UNL A   1      37.329  33.127  32.749  1.00  0.00     0.031 C 
ATOM     59  C   UNL A   1      41.663  31.201  36.542  1.00  0.00     0.029 A 
ATOM     60  C   UNL A   1      40.866  31.368  35.421  1.00  0.00     0.049 A 
ATOM     61  H   UNL A   1      40.964  30.379  33.560  1.00  0.00     0.167 HD
ATOM     62  C   UNL A   1      39.013  32.366  34.106  1.00  0.00     0.074 A 
ATOM     63  C   UNL A   1      37.882  33.255  33.948  1.00  0.00     0.031 C 
ATOM     64  C   UNL A   1      39.749  32.263  35.240  1.00  0.00     0.037 A 
BRANCH  51  65
ATOM     65  C   UNL A   1      44.265  28.049  34.939  1.00  0.00     0.057 A 
ATOM     66  C   UNL A   1      44.053  26.850  35.633  1.00  0.00     0.134 A 
ATOM     67  C   UNL A   1      45.571  28.553  34.906  1.00  0.00     0.134 A 
ATOM     68  F   UNL A   1      42.823  26.321  35.719  1.00  0.00    -0.206 F 
ATOM     69  C   UNL A   1      45.094  26.196  36.296  1.00  0.00     0.040 A 
ATOM     70  C   UNL A   1      46.626  27.892  35.537  1.00  0.00     0.040 A 
ATOM     71  F   UNL A   1      45.846  29.696  34.259  1.00  0.00    -0.206 F 
ATOM     72  C   UNL A   1      46.387  26.714  36.242  1.00  0.00     0.006 A 
ENDBRANCH  51  65
BRANCH  52  73
ATOM     73  C   UNL A   1      36.778  32.415  29.961  1.00  0.00     0.057 A 
ATOM     74  C   UNL A   1      36.926  33.615  29.257  1.00  0.00     0.134 A 
ATOM     75  C   UNL A   1      35.505  31.831  29.981  1.00  0.00     0.134 A 
ATOM     76  F   UNL A   1      38.113  34.236  29.223  1.00  0.00    -0.206 F 
ATOM     77  C   UNL A   1      35.847  34.221  28.610  1.00  0.00     0.040 A 
ATOM     78  C   UNL A   1      34.424  32.412  29.315  1.00  0.00     0.040 A 
ATOM     79  F   UNL A   1      35.296  30.683  30.640  1.00  0.00    -0.206 F 
ATOM     80  C   UNL A   1      34.592  33.615  28.633  1.00  0.00     0.006 A 
ENDBRANCH  52  73
BRANCH  64  81
ATOM     81  C   UNL A   1      39.407  33.177  36.383  1.00  0.00     0.057 A 
ATOM     82  C   UNL A   1      38.499  32.816  37.385  1.00  0.00     0.134 A 
ATOM     83  C   UNL A   1      40.054  34.414  36.513  1.00  0.00     0.134 A 
ATOM     84  F   UNL A   1      37.837  31.651  37.318  1.00  0.00    -0.206 F 
ATOM     85  C   UNL A   1      38.234  33.660  38.467  1.00  0.00     0.040 A 
ATOM     86  C   UNL A   1      39.820  35.252  37.604  1.00  0.00     0.040 A 
ATOM     87  F   UNL A   1      40.945  34.817  35.594  1.00  0.00    -0.206 F 
ATOM     88  C   UNL A   1      38.904  34.876  38.583  1.00  0.00     0.006 A 
ENDBRANCH  64  81
ENDBRANCH  38  39
ENDBRANCH  31  33
ENDBRANCH  30  31
ENDBRANCH  29  30
ENDBRANCH  28  29
ENDBRANCH  27  28
ENDBRANCH  26  27
ENDBRANCH  25  26
ENDBRANCH  24  25
ENDBRANCH   1  24
TORSDOF 23
ENDMDL
MODEL 2
REMARK VINA RESULT:      -8.6      4.793      7.876
REMARK SMILES Cc1cc(Br)cnc1Sc1nc(CC(=O)OCCOCCOCCOCCOC(=O)c2ccc(-c3c4nc(c(-c5c(F)cccc5F)c5ccc([nH]5)c(-c5c(F)cccc5F)c5nc(c(-c6c(F)cccc6F)c6ccc3[nH]6)C=C5)C=C4)cc2)cs1
REMARK SMILES IDX 21 1 20 2 19 3 18 4 17 5 16 6 14 7 15 8 13 9 12 10 10 11
REMARK SMILES IDX 11 12 86 13 85 14 9 15 8 16 1 17 2 18 3 19 4 20 7 21 5 22
REMARK SMILES IDX 6 23 22 24 23 25 24 26 25 27 26 28 27 29 28 30 29 31 30 32
REMARK SMILES IDX 31 33 32 34 84 35 33 36 83 37 34 38 35 39 36 40 77 41 37 42
REMARK SMILES IDX 82 43 76 44 78 45 38 46 81 47 75 48 74 49 39 51 65 52 48 53
REMARK SMILES IDX 64 54 49 55 52 56 63 57 79 58 50 59 51 60 62 62 80 63 53 64
REMARK SMILES IDX 40 65 41 66 46 67 42 68 43 69 45 70 47 71 44 72 66 73 67 74
REMARK SMILES IDX 72 75 68 76 69 77 71 78 73 79 70 80 54 81 55 82 60 83 56 84
REMARK SMILES IDX 57 85 59 86 61 87 58 88
REMARK H PARENT 78 50 52 61
REMARK Flexibility Score: inf
ROOT
ATOM      1  C   UNL A   1      33.836  22.782  25.145  1.00  0.00     0.188 C 
ENDROOT
BRANCH   1   2
ATOM      2  C   UNL A   1      33.048  23.595  26.176  1.00  0.00     0.188 C 
BRANCH   2   3
ATOM      3  O   UNL A   1      33.026  25.012  26.106  1.00  0.00    -0.376 OA
BRANCH   3   4
ATOM      4  C   UNL A   1      31.791  25.701  25.970  1.00  0.00     0.202 C 
BRANCH   4   5
ATOM      5  C   UNL A   1      31.583  27.064  26.664  1.00  0.00     0.261 C 
BRANCH   5   6
ATOM      6  O   UNL A   1      31.396  28.227  25.819  1.00  0.00    -0.463 OA
BRANCH   6   7
ATOM      7  C   UNL A   1      32.347  29.189  25.886  1.00  0.00     0.311 C 
ATOM      8  O   UNL A   1      32.964  29.596  24.900  1.00  0.00    -0.252 OA
BRANCH   7   9
ATOM      9  C   UNL A   1      32.655  29.773  27.249  1.00  0.00     0.179 C 
BRANCH   9  10
ATOM     10  C   UNL A   1      33.503  31.003  27.427  1.00  0.00     0.064 A 
ATOM     11  C   UNL A   1      33.738  33.136  28.002  1.00  0.00     0.156 A 
ATOM     12  N   UNL A   1      32.870  32.231  27.601  1.00  0.00    -0.234 NA
ATOM     13  S   UNL A   1      35.386  32.663  27.921  1.00  0.00    -0.116 S 
ATOM     14  C   UNL A   1      34.855  31.044  27.753  1.00  0.00     0.092 A 
BRANCH  11  15
ATOM     15  S   UNL A   1      33.273  34.680  28.623  1.00  0.00    -0.039 SA
BRANCH  15  16
ATOM     16  C   UNL A   1      33.804  34.679  30.329  1.00  0.00     0.106 A 
ATOM     17  C   UNL A   1      33.192  37.058  31.187  1.00  0.00     0.047 C 
ATOM     18  C   UNL A   1      33.761  35.679  31.319  1.00  0.00    -0.017 A 
ATOM     19  C   UNL A   1      34.316  35.393  32.586  1.00  0.00     0.023 A 
ATOM     20  C   UNL A   1      34.823  34.138  32.869  1.00  0.00     0.036 A 
ATOM     21  N   UNL A   1      34.289  33.439  30.636  1.00  0.00    -0.248 NA
ATOM     22  Br  UNL A   1      35.541  33.752  34.564  1.00  0.00    -0.049 Br
ATOM     23  C   UNL A   1      34.772  33.192  31.875  1.00  0.00     0.128 A 
ENDBRANCH  15  16
ENDBRANCH  11  15
ENDBRANCH   9  10
ENDBRANCH   7   9
ENDBRANCH   6   7
ENDBRANCH   5   6
ENDBRANCH   4   5
ENDBRANCH   3   4
ENDBRANCH   2   3
ENDBRANCH   1   2
BRANCH   1  24
ATOM     24  O   UNL A   1      35.191  23.119  24.967  1.00  0.00    -0.377 OA
BRANCH  24  25
ATOM     25  C   UNL A   1      36.147  22.415  25.735  1.00  0.00     0.188 C 
BRANCH  25  26
ATOM     26  C   UNL A   1      37.613  22.838  25.573  1.00  0.00     0.188 C 
BRANCH  26  27
ATOM     27  O   UNL A   1      38.509  22.071  26.369  1.00  0.00    -0.376 OA
BRANCH  27  28
ATOM     28  C   UNL A   1      39.535  21.330  25.725  1.00  0.00     0.202 C 
BRANCH  28  29
ATOM     29  C   UNL A   1      39.833  19.906  26.224  1.00  0.00     0.261 C 
BRANCH  29  30
ATOM     30  O   UNL A   1      40.852  19.165  25.538  1.00  0.00    -0.460 OA
BRANCH  30  31
ATOM     31  C   UNL A   1      42.051  19.002  26.130  1.00  0.00     0.338 C 
ATOM     32  O   UNL A   1      42.664  17.960  26.285  1.00  0.00    -0.246 OA
BRANCH  31  33
ATOM     33  C   UNL A   1      42.593  20.351  26.400  1.00  0.00     0.060 A 
ATOM     34  C   UNL A   1      42.525  20.875  27.698  1.00  0.00     0.016 A 
ATOM     35  C   UNL A   1      43.191  21.083  25.372  1.00  0.00     0.016 A 
ATOM     36  C   UNL A   1      43.031  22.149  27.967  1.00  0.00     0.010 A 
ATOM     37  C   UNL A   1      43.672  22.366  25.636  1.00  0.00     0.010 A 
ATOM     38  C   UNL A   1      43.566  22.918  26.926  1.00  0.00    -0.014 A 
BRANCH  38  39
ATOM     39  C   UNL A   1      43.813  24.367  27.105  1.00  0.00     0.031 A 
ATOM     40  C   UNL A   1      45.228  24.857  26.975  1.00  0.00     0.074 A 
ATOM     41  C   UNL A   1      42.826  25.221  27.423  1.00  0.00     0.049 A 
ATOM     42  N   UNL A   1      45.733  26.032  27.244  1.00  0.00    -0.248 NA
ATOM     43  C   UNL A   1      46.208  23.876  26.482  1.00  0.00     0.031 C 
ATOM     44  C   UNL A   1      41.410  24.878  27.532  1.00  0.00     0.029 A 
ATOM     45  N   UNL A   1      42.878  26.556  27.742  1.00  0.00    -0.354 N 
ATOM     46  C   UNL A   1      47.092  25.924  26.978  1.00  0.00     0.074 A 
ATOM     47  C   UNL A   1      47.336  24.565  26.546  1.00  0.00     0.031 C 
ATOM     48  C   UNL A   1      40.729  25.969  27.924  1.00  0.00     0.029 A 
ATOM     49  C   UNL A   1      41.667  27.072  28.135  1.00  0.00     0.049 A 
ATOM     50  H   UNL A   1      43.703  27.090  27.694  1.00  0.00     0.167 HD
ATOM     51  C   UNL A   1      48.051  26.873  27.086  1.00  0.00     0.037 A 
ATOM     52  C   UNL A   1      41.364  28.283  28.645  1.00  0.00     0.037 A 
ATOM     53  C   UNL A   1      47.802  28.220  27.527  1.00  0.00     0.049 A 
ATOM     54  C   UNL A   1      42.459  29.301  28.835  1.00  0.00     0.074 A 
ATOM     55  C   UNL A   1      48.699  29.264  27.659  1.00  0.00     0.029 A 
ATOM     56  N   UNL A   1      46.562  28.701  27.924  1.00  0.00    -0.354 N 
ATOM     57  N   UNL A   1      43.740  29.202  28.567  1.00  0.00    -0.248 NA
ATOM     58  C   UNL A   1      42.068  30.601  29.399  1.00  0.00     0.031 C 
ATOM     59  C   UNL A   1      48.015  30.359  28.194  1.00  0.00     0.029 A 
ATOM     60  C   UNL A   1      46.678  30.021  28.326  1.00  0.00     0.049 A 
ATOM     61  H   UNL A   1      45.726  28.182  27.919  1.00  0.00     0.167 HD
ATOM     62  C   UNL A   1      44.297  30.434  28.889  1.00  0.00     0.074 A 
ATOM     63  C   UNL A   1      43.215  31.266  29.373  1.00  0.00     0.031 C 
ATOM     64  C   UNL A   1      45.586  30.843  28.786  1.00  0.00     0.037 A 
BRANCH  51  65
ATOM     65  C   UNL A   1      49.461  26.469  26.763  1.00  0.00     0.057 A 
ATOM     66  C   UNL A   1      49.971  26.519  25.458  1.00  0.00     0.134 A 
ATOM     67  C   UNL A   1      50.325  26.034  27.776  1.00  0.00     0.134 A 
ATOM     68  F   UNL A   1      49.192  26.909  24.438  1.00  0.00    -0.206 F 
ATOM     69  C   UNL A   1      51.277  26.119  25.169  1.00  0.00     0.040 A 
ATOM     70  C   UNL A   1      51.642  25.663  27.505  1.00  0.00     0.040 A 
ATOM     71  F   UNL A   1      49.903  25.964  29.048  1.00  0.00    -0.206 F 
ATOM     72  C   UNL A   1      52.119  25.696  26.196  1.00  0.00     0.006 A 
ENDBRANCH  51  65
BRANCH  52  73
ATOM     73  C   UNL A   1      39.964  28.596  29.035  1.00  0.00     0.057 A 
ATOM     74  C   UNL A   1      39.515  28.394  30.346  1.00  0.00     0.134 A 
ATOM     75  C   UNL A   1      39.039  29.090  28.107  1.00  0.00     0.134 A 
ATOM     76  F   UNL A   1      40.345  27.899  31.274  1.00  0.00    -0.206 F 
ATOM     77  C   UNL A   1      38.195  28.658  30.716  1.00  0.00     0.040 A 
ATOM     78  C   UNL A   1      37.723  29.385  28.470  1.00  0.00     0.040 A 
ATOM     79  F   UNL A   1      39.404  29.303  26.834  1.00  0.00    -0.206 F 
ATOM     80  C   UNL A   1      37.296  29.161  29.777  1.00  0.00     0.006 A 
ENDBRANCH  52  73
BRANCH  64  81
ATOM     81  C   UNL A   1      45.898  32.271  29.136  1.00  0.00     0.057 A 
ATOM     82  C   UNL A   1      46.286  32.659  30.423  1.00  0.00     0.134 A 
ATOM     83  C   UNL A   1      45.875  33.260  28.143  1.00  0.00     0.134 A 
ATOM     84  F   UNL A   1      46.321  31.765  31.424  1.00  0.00    -0.206 F 
ATOM     85  C   UNL A   1      46.622  33.983  30.715  1.00  0.00     0.040 A 
ATOM     86  C   UNL A   1      46.237  34.579  28.415  1.00  0.00     0.040 A 
ATOM     87  F   UNL A   1      45.524  32.954  26.884  1.00  0.00    -0.206 F 
ATOM     88  C   UNL A   1      46.608  34.945  29.706  1.00  0.00     0.006 A 
ENDBRANCH  64  81
ENDBRANCH  38  39
ENDBRANCH  31  33
ENDBRANCH  30  31
ENDBRANCH  29  30
ENDBRANCH  28  29
ENDBRANCH  27  28
ENDBRANCH  26  27
ENDBRANCH  25  26
ENDBRANCH  24  25
ENDBRANCH   1  24
TORSDOF 23
ENDMDL
MODEL 3
REMARK VINA RESULT:      -7.9      7.027      9.797
REMARK SMILES Cc1cc(Br)cnc1Sc1nc(CC(=O)OCCOCCOCCOCCOC(=O)c2ccc(-c3c4nc(c(-c5c(F)cccc5F)c5ccc([nH]5)c(-c5c(F)cccc5F)c5nc(c(-c6c(F)cccc6F)c6ccc3[nH]6)C=C5)C=C4)cc2)cs1
REMARK SMILES IDX 21 1 20 2 19 3 18 4 17 5 16 6 14 7 15 8 13 9 12 10 10 11
REMARK SMILES IDX 11 12 86 13 85 14 9 15 8 16 1 17 2 18 3 19 4 20 7 21 5 22
REMARK SMILES IDX 6 23 22 24 23 25 24 26 25 27 26 28 27 29 28 30 29 31 30 32
REMARK SMILES IDX 31 33 32 34 84 35 33 36 83 37 34 38 35 39 36 40 77 41 37 42
REMARK SMILES IDX 82 43 76 44 78 45 38 46 81 47 75 48 74 49 39 51 65 52 48 53
REMARK SMILES IDX 64 54 49 55 52 56 63 57 79 58 50 59 51 60 62 62 80 63 53 64
REMARK SMILES IDX 40 65 41 66 46 67 42 68 43 69 45 70 47 71 44 72 66 73 67 74
REMARK SMILES IDX 72 75 68 76 69 77 71 78 73 79 70 80 54 81 55 82 60 83 56 84
REMARK SMILES IDX 57 85 59 86 61 87 58 88
REMARK H PARENT 78 50 52 61
REMARK Flexibility Score: inf
ROOT
ATOM      1  C   UNL A   1      39.315  29.094  30.503  1.00  0.00     0.188 C 
ENDROOT
BRANCH   1   2
ATOM      2  C   UNL A   1      39.198  30.363  29.654  1.00  0.00     0.188 C 
BRANCH   2   3
ATOM      3  O   UNL A   1      37.941  30.996  29.483  1.00  0.00    -0.376 OA
BRANCH   3   4
ATOM      4  C   UNL A   1      36.800  30.233  29.117  1.00  0.00     0.202 C 
BRANCH   4   5
ATOM      5  C   UNL A   1      36.142  30.436  27.735  1.00  0.00     0.261 C 
BRANCH   5   6
ATOM      6  O   UNL A   1      35.427  29.314  27.159  1.00  0.00    -0.463 OA
BRANCH   6   7
ATOM      7  C   UNL A   1      34.076  29.394  27.143  1.00  0.00     0.311 C 
ATOM      8  O   UNL A   1      33.463  30.456  27.275  1.00  0.00    -0.252 OA
BRANCH   7   9
ATOM      9  C   UNL A   1      33.301  28.106  26.961  1.00  0.00     0.179 C 
BRANCH   9  10
ATOM     10  C   UNL A   1      33.233  27.384  25.642  1.00  0.00     0.064 A 
ATOM     11  C   UNL A   1      32.207  26.014  24.227  1.00  0.00     0.156 A 
ATOM     12  N   UNL A   1      32.317  26.346  25.497  1.00  0.00    -0.234 NA
ATOM     13  S   UNL A   1      33.377  26.706  23.180  1.00  0.00    -0.116 S 
ATOM     14  C   UNL A   1      33.754  27.817  24.428  1.00  0.00     0.092 A 
BRANCH  11  15
ATOM     15  S   UNL A   1      30.946  24.997  23.623  1.00  0.00    -0.039 SA
BRANCH  15  16
ATOM     16  C   UNL A   1      31.422  23.337  24.085  1.00  0.00     0.106 A 
ATOM     17  C   UNL A   1      30.945  23.227  26.640  1.00  0.00     0.047 C 
ATOM     18  C   UNL A   1      31.415  22.678  25.328  1.00  0.00    -0.017 A 
ATOM     19  C   UNL A   1      31.908  21.356  25.389  1.00  0.00     0.023 A 
ATOM     20  C   UNL A   1      32.319  20.701  24.243  1.00  0.00     0.036 A 
ATOM     21  N   UNL A   1      31.810  22.665  22.961  1.00  0.00    -0.248 NA
ATOM     22  Br  UNL A   1      32.955  18.933  24.323  1.00  0.00    -0.049 Br
ATOM     23  C   UNL A   1      32.235  21.385  23.055  1.00  0.00     0.128 A 
ENDBRANCH  15  16
ENDBRANCH  11  15
ENDBRANCH   9  10
ENDBRANCH   7   9
ENDBRANCH   6   7
ENDBRANCH   5   6
ENDBRANCH   4   5
ENDBRANCH   3   4
ENDBRANCH   2   3
ENDBRANCH   1   2
BRANCH   1  24
ATOM     24  O   UNL A   1      40.039  28.020  29.950  1.00  0.00    -0.377 OA
BRANCH  24  25
ATOM     25  C   UNL A   1      39.313  27.043  29.229  1.00  0.00     0.188 C 
BRANCH  25  26
ATOM     26  C   UNL A   1      39.968  26.493  27.955  1.00  0.00     0.188 C 
BRANCH  26  27
ATOM     27  O   UNL A   1      40.595  25.230  28.148  1.00  0.00    -0.376 OA
BRANCH  27  28
ATOM     28  C   UNL A   1      39.994  24.075  27.584  1.00  0.00     0.202 C 
BRANCH  28  29
ATOM     29  C   UNL A   1      40.865  22.822  27.380  1.00  0.00     0.261 C 
BRANCH  29  30
ATOM     30  O   UNL A   1      42.230  22.890  27.812  1.00  0.00    -0.460 OA
BRANCH  30  31
ATOM     31  C   UNL A   1      43.211  22.789  26.894  1.00  0.00     0.338 C 
ATOM     32  O   UNL A   1      43.467  21.829  26.188  1.00  0.00    -0.246 OA
BRANCH  31  33
ATOM     33  C   UNL A   1      43.821  24.128  26.755  1.00  0.00     0.060 A 
ATOM     34  C   UNL A   1      43.849  24.747  25.497  1.00  0.00     0.016 A 
ATOM     35  C   UNL A   1      44.340  24.780  27.876  1.00  0.00     0.016 A 
ATOM     36  C   UNL A   1      44.424  26.013  25.352  1.00  0.00     0.010 A 
ATOM     37  C   UNL A   1      44.937  26.032  27.724  1.00  0.00     0.010 A 
ATOM     38  C   UNL A   1      45.011  26.639  26.458  1.00  0.00    -0.014 A 
BRANCH  38  39
ATOM     39  C   UNL A   1      45.897  27.813  26.279  1.00  0.00     0.031 A 
ATOM     40  C   UNL A   1      47.364  27.559  26.075  1.00  0.00     0.074 A 
ATOM     41  C   UNL A   1      45.430  29.071  26.345  1.00  0.00     0.049 A 
ATOM     42  N   UNL A   1      48.364  28.400  26.061  1.00  0.00    -0.248 NA
ATOM     43  C   UNL A   1      47.753  26.153  25.872  1.00  0.00     0.031 C 
ATOM     44  C   UNL A   1      44.026  29.448  26.492  1.00  0.00     0.029 A 
ATOM     45  N   UNL A   1      46.103  30.268  26.325  1.00  0.00    -0.354 N 
ATOM     46  C   UNL A   1      49.501  27.625  25.872  1.00  0.00     0.074 A 
ATOM     47  C   UNL A   1      49.071  26.246  25.798  1.00  0.00     0.031 C 
ATOM     48  C   UNL A   1      43.944  30.787  26.580  1.00  0.00     0.029 A 
ATOM     49  C   UNL A   1      45.291  31.355  26.540  1.00  0.00     0.049 A 
ATOM     50  H   UNL A   1      47.072  30.339  26.171  1.00  0.00     0.167 HD
ATOM     51  C   UNL A   1      50.789  28.028  25.771  1.00  0.00     0.037 A 
ATOM     52  C   UNL A   1      45.609  32.653  26.724  1.00  0.00     0.037 A 
ATOM     53  C   UNL A   1      51.210  29.401  25.857  1.00  0.00     0.049 A 
ATOM     54  C   UNL A   1      47.057  33.072  26.690  1.00  0.00     0.074 A 
ATOM     55  C   UNL A   1      52.488  29.919  25.754  1.00  0.00     0.029 A 
ATOM     56  N   UNL A   1      50.358  30.473  26.084  1.00  0.00    -0.354 N 
ATOM     57  N   UNL A   1      48.128  32.340  26.495  1.00  0.00    -0.248 NA
ATOM     58  C   UNL A   1      47.341  34.499  26.902  1.00  0.00     0.031 C 
ATOM     59  C   UNL A   1      52.418  31.297  25.979  1.00  0.00     0.029 A 
ATOM     60  C   UNL A   1      51.088  31.647  26.149  1.00  0.00     0.049 A 
ATOM     61  H   UNL A   1      49.381  30.407  26.182  1.00  0.00     0.167 HD
ATOM     62  C   UNL A   1      49.204  33.219  26.519  1.00  0.00     0.074 A 
ATOM     63  C   UNL A   1      48.658  34.540  26.748  1.00  0.00     0.031 C 
ATOM     64  C   UNL A   1      50.525  32.958  26.357  1.00  0.00     0.037 A 
BRANCH  51  65
ATOM     65  C   UNL A   1      51.834  26.962  25.602  1.00  0.00     0.057 A 
ATOM     66  C   UNL A   1      52.275  26.544  24.339  1.00  0.00     0.134 A 
ATOM     67  C   UNL A   1      52.415  26.354  26.722  1.00  0.00     0.134 A 
ATOM     68  F   UNL A   1      51.748  27.073  23.224  1.00  0.00    -0.206 F 
ATOM     69  C   UNL A   1      53.232  25.536  24.197  1.00  0.00     0.040 A 
ATOM     70  C   UNL A   1      53.395  25.369  26.593  1.00  0.00     0.040 A 
ATOM     71  F   UNL A   1      52.041  26.707  27.961  1.00  0.00    -0.206 F 
ATOM     72  C   UNL A   1      53.799  24.951  25.326  1.00  0.00     0.006 A 
ENDBRANCH  51  65
BRANCH  52  73
ATOM     73  C   UNL A   1      44.538  33.652  26.981  1.00  0.00     0.057 A 
ATOM     74  C   UNL A   1      43.926  34.343  25.930  1.00  0.00     0.134 A 
ATOM     75  C   UNL A   1      44.113  33.949  28.282  1.00  0.00     0.134 A 
ATOM     76  F   UNL A   1      44.307  34.122  24.664  1.00  0.00    -0.206 F 
ATOM     77  C   UNL A   1      42.940  35.305  26.162  1.00  0.00     0.040 A 
ATOM     78  C   UNL A   1      43.108  34.888  28.527  1.00  0.00     0.040 A 
ATOM     79  F   UNL A   1      44.662  33.324  29.334  1.00  0.00    -0.206 F 
ATOM     80  C   UNL A   1      42.524  35.574  27.465  1.00  0.00     0.006 A 
ENDBRANCH  52  73
BRANCH  64  81
ATOM     81  C   UNL A   1      51.474  34.124  26.352  1.00  0.00     0.057 A 
ATOM     82  C   UNL A   1      51.830  34.795  25.176  1.00  0.00     0.134 A 
ATOM     83  C   UNL A   1      51.984  34.622  27.559  1.00  0.00     0.134 A 
ATOM     84  F   UNL A   1      51.385  34.366  23.985  1.00  0.00    -0.206 F 
ATOM     85  C   UNL A   1      52.672  35.909  25.199  1.00  0.00     0.040 A 
ATOM     86  C   UNL A   1      52.802  35.752  27.598  1.00  0.00     0.040 A 
ATOM     87  F   UNL A   1      51.673  34.034  28.724  1.00  0.00    -0.206 F 
ATOM     88  C   UNL A   1      53.152  36.396  26.414  1.00  0.00     0.006 A 
ENDBRANCH  64  81
ENDBRANCH  38  39
ENDBRANCH  31  33
ENDBRANCH  30  31
ENDBRANCH  29  30
ENDBRANCH  28  29
ENDBRANCH  27  28
ENDBRANCH  26  27
ENDBRANCH  25  26
ENDBRANCH  24  25
ENDBRANCH   1  24
TORSDOF 23
ENDMDL
