MODEL 1
REMARK VINA RESULT:     -11.0      0.000      0.000
REMARK SMILES O=C(OCCOCCOCCOCCOC(=O)c1cc(-c2ccc(C(F)(F)F)cc2)cc([N+](=O)[O-])c1)c1ccc(-c2c3nc(c(-c4c(F)cccc4F)c4ccc([nH]4)c(-c4c(F)cccc4F)c4nc(c(-c5c(F)cccc5F)c5ccc2[nH]5)C=C4)C=C3)cc1
REMARK SMILES IDX 9 1 8 2 7 3 6 4 5 5 4 6 3 7 2 8 1 9 37 10 38 11 90 12 39 13
REMARK SMILES IDX 89 14 40 15 41 16 42 17 83 18 43 19 88 20 82 21 84 22 44 23
REMARK SMILES IDX 87 24 81 25 80 26 45 28 71 29 54 30 70 31 55 32 58 33 69 34
REMARK SMILES IDX 85 35 56 36 57 37 68 39 86 40 59 41 46 42 47 43 52 44 48 45
REMARK SMILES IDX 49 46 51 47 53 48 50 49 72 50 73 51 78 52 74 53 75 54 77 55
REMARK SMILES IDX 79 56 76 57 60 58 61 59 66 60 62 61 63 62 65 63 67 64 64 65
REMARK SMILES IDX 10 66 11 67 12 68 13 69 14 70 15 71 16 72 17 73 18 74 19 75
REMARK SMILES IDX 36 76 20 77 32 78 31 79 21 80 22 81 30 82 23 83 29 84 24 85
REMARK SMILES IDX 25 86 26 87 27 88 28 89 33 90 34 91 35 92
REMARK H PARENT 84 27 58 38
REMARK Flexibility Score: inf
ROOT
ATOM      1  O   UNL A   1      37.984  21.655  24.994  1.00  0.00    -0.377 OA
ENDROOT
BRANCH   1   2
ATOM      2  C   UNL A   1      37.976  20.231  25.017  1.00  0.00     0.188 C 
BRANCH   2   3
ATOM      3  C   UNL A   1      39.239  19.572  25.567  1.00  0.00     0.188 C 
BRANCH   3   4
ATOM      4  O   UNL A   1      40.196  20.539  26.002  1.00  0.00    -0.376 OA
BRANCH   4   5
ATOM      5  C   UNL A   1      41.539  20.074  26.135  1.00  0.00     0.202 C 
BRANCH   5   6
ATOM      6  C   UNL A   1      42.599  21.174  26.191  1.00  0.00     0.261 C 
BRANCH   6   7
ATOM      7  O   UNL A   1      42.282  22.302  25.366  1.00  0.00    -0.460 OA
BRANCH   7   8
ATOM      8  C   UNL A   1      42.816  23.547  25.408  1.00  0.00     0.338 C 
ATOM      9  O   UNL A   1      43.744  23.804  24.641  1.00  0.00    -0.246 OA
BRANCH   8  10
ATOM     10  C   UNL A   1      42.360  24.637  26.329  1.00  0.00     0.060 A 
ATOM     11  C   UNL A   1      42.912  25.915  26.418  1.00  0.00     0.016 A 
ATOM     12  C   UNL A   1      41.230  24.362  27.120  1.00  0.00     0.016 A 
ATOM     13  C   UNL A   1      42.410  26.875  27.279  1.00  0.00     0.010 A 
ATOM     14  C   UNL A   1      40.708  25.321  27.991  1.00  0.00     0.010 A 
ATOM     15  C   UNL A   1      41.323  26.572  28.089  1.00  0.00    -0.014 A 
BRANCH  15  16
ATOM     16  C   UNL A   1      41.020  27.513  29.175  1.00  0.00     0.031 A 
ATOM     17  C   UNL A   1      41.915  27.486  30.372  1.00  0.00     0.074 A 
ATOM     18  C   UNL A   1      40.085  28.463  29.001  1.00  0.00     0.049 A 
ATOM     19  N   UNL A   1      41.837  28.161  31.485  1.00  0.00    -0.248 NA
ATOM     20  C   UNL A   1      43.076  26.579  30.297  1.00  0.00     0.031 C 
ATOM     21  C   UNL A   1      39.290  28.652  27.786  1.00  0.00     0.029 A 
ATOM     22  N   UNL A   1      39.667  29.461  29.836  1.00  0.00    -0.354 N 
ATOM     23  C   UNL A   1      42.909  27.730  32.255  1.00  0.00     0.074 A 
ATOM     24  C   UNL A   1      43.626  26.740  31.488  1.00  0.00     0.031 C 
ATOM     25  C   UNL A   1      38.476  29.706  27.957  1.00  0.00     0.029 A 
ATOM     26  C   UNL A   1      38.644  30.213  29.315  1.00  0.00     0.049 A 
ATOM     27  H   UNL A   1      40.061  29.625  30.724  1.00  0.00     0.167 HD
ATOM     28  C   UNL A   1      43.246  28.126  33.503  1.00  0.00     0.037 A 
ATOM     29  C   UNL A   1      37.899  31.166  29.904  1.00  0.00     0.037 A 
ATOM     30  C   UNL A   1      42.500  29.117  34.227  1.00  0.00     0.049 A 
ATOM     31  C   UNL A   1      38.219  31.513  31.333  1.00  0.00     0.074 A 
ATOM     32  C   UNL A   1      42.682  29.570  35.518  1.00  0.00     0.029 A 
ATOM     33  N   UNL A   1      41.413  29.809  33.701  1.00  0.00    -0.354 N 
ATOM     34  N   UNL A   1      39.180  31.048  32.100  1.00  0.00    -0.248 NA
ATOM     35  C   UNL A   1      37.350  32.497  31.987  1.00  0.00     0.031 C 
ATOM     36  C   UNL A   1      41.670  30.498  35.791  1.00  0.00     0.029 A 
ATOM     37  C   UNL A   1      40.896  30.669  34.651  1.00  0.00     0.049 A 
ATOM     38  H   UNL A   1      41.064  29.702  32.788  1.00  0.00     0.167 HD
ATOM     39  C   UNL A   1      39.043  31.692  33.320  1.00  0.00     0.074 A 
ATOM     40  C   UNL A   1      37.916  32.595  33.182  1.00  0.00     0.031 C 
ATOM     41  C   UNL A   1      39.772  31.553  34.456  1.00  0.00     0.037 A 
BRANCH  28  42
ATOM     42  C   UNL A   1      44.388  27.408  34.158  1.00  0.00     0.057 A 
ATOM     43  C   UNL A   1      45.710  27.868  34.085  1.00  0.00     0.134 A 
ATOM     44  C   UNL A   1      44.166  26.190  34.812  1.00  0.00     0.134 A 
ATOM     45  F   UNL A   1      46.000  29.009  33.441  1.00  0.00    -0.206 F 
ATOM     46  C   UNL A   1      46.773  27.124  34.607  1.00  0.00     0.040 A 
ATOM     47  C   UNL A   1      45.216  25.451  35.361  1.00  0.00     0.040 A 
ATOM     48  F   UNL A   1      42.928  25.685  34.907  1.00  0.00    -0.206 F 
ATOM     49  C   UNL A   1      46.525  25.912  35.249  1.00  0.00     0.006 A 
ENDBRANCH  28  42
BRANCH  29  50
ATOM     50  C   UNL A   1      36.758  31.783  29.180  1.00  0.00     0.057 A 
ATOM     51  C   UNL A   1      35.570  31.082  28.941  1.00  0.00     0.134 A 
ATOM     52  C   UNL A   1      36.830  33.100  28.700  1.00  0.00     0.134 A 
ATOM     53  F   UNL A   1      35.440  29.814  29.355  1.00  0.00    -0.206 F 
ATOM     54  C   UNL A   1      34.506  31.660  28.243  1.00  0.00     0.040 A 
ATOM     55  C   UNL A   1      35.764  33.699  28.028  1.00  0.00     0.040 A 
ATOM     56  F   UNL A   1      37.937  33.831  28.893  1.00  0.00    -0.206 F 
ATOM     57  C   UNL A   1      34.599  32.975  27.791  1.00  0.00     0.006 A 
ENDBRANCH  29  50
BRANCH  41  58
ATOM     58  C   UNL A   1      39.390  32.425  35.613  1.00  0.00     0.057 A 
ATOM     59  C   UNL A   1      39.923  33.708  35.778  1.00  0.00     0.134 A 
ATOM     60  C   UNL A   1      38.428  31.992  36.535  1.00  0.00     0.134 A 
ATOM     61  F   UNL A   1      40.858  34.172  34.935  1.00  0.00    -0.206 F 
ATOM     62  C   UNL A   1      39.526  34.525  36.836  1.00  0.00     0.040 A 
ATOM     63  C   UNL A   1      38.000  32.812  37.577  1.00  0.00     0.040 A 
ATOM     64  F   UNL A   1      37.873  30.776  36.420  1.00  0.00    -0.206 F 
ATOM     65  C   UNL A   1      38.554  34.082  37.732  1.00  0.00     0.006 A 
ENDBRANCH  41  58
ENDBRANCH  15  16
ENDBRANCH   8  10
ENDBRANCH   7   8
ENDBRANCH   6   7
ENDBRANCH   5   6
ENDBRANCH   4   5
ENDBRANCH   3   4
ENDBRANCH   2   3
ENDBRANCH   1   2
BRANCH   1  66
ATOM     66  C   UNL A   1      36.995  22.291  24.196  1.00  0.00     0.188 C 
BRANCH  66  67
ATOM     67  C   UNL A   1      36.532  23.722  24.559  1.00  0.00     0.188 C 
BRANCH  67  68
ATOM     68  O   UNL A   1      35.146  23.856  24.831  1.00  0.00    -0.376 OA
BRANCH  68  69
ATOM     69  C   UNL A   1      34.725  25.153  25.244  1.00  0.00     0.202 C 
BRANCH  69  70
ATOM     70  C   UNL A   1      34.143  26.045  24.136  1.00  0.00     0.261 C 
BRANCH  70  71
ATOM     71  O   UNL A   1      33.669  25.359  22.959  1.00  0.00    -0.460 OA
BRANCH  71  72
ATOM     72  C   UNL A   1      32.338  25.221  22.775  1.00  0.00     0.338 C 
ATOM     73  O   UNL A   1      31.660  25.706  21.888  1.00  0.00    -0.246 OA
BRANCH  72  74
ATOM     74  C   UNL A   1      31.877  24.160  23.705  1.00  0.00     0.067 A 
ATOM     75  C   UNL A   1      32.356  22.848  23.531  1.00  0.00     0.025 A 
ATOM     76  C   UNL A   1      31.078  24.478  24.805  1.00  0.00     0.101 A 
ATOM     77  C   UNL A   1      32.089  21.848  24.483  1.00  0.00    -0.011 A 
ATOM     78  C   UNL A   1      30.759  23.470  25.721  1.00  0.00     0.270 A 
ATOM     79  C   UNL A   1      31.279  22.172  25.582  1.00  0.00     0.094 A 
BRANCH  77  80
ATOM     80  C   UNL A   1      32.563  20.474  24.290  1.00  0.00    -0.018 A 
ATOM     81  C   UNL A   1      32.124  19.656  23.237  1.00  0.00     0.009 A 
ATOM     82  C   UNL A   1      33.502  19.951  25.190  1.00  0.00     0.009 A 
ATOM     83  C   UNL A   1      32.607  18.345  23.102  1.00  0.00     0.014 A 
ATOM     84  C   UNL A   1      33.983  18.647  25.058  1.00  0.00     0.014 A 
ATOM     85  C   UNL A   1      33.538  17.825  24.017  1.00  0.00     0.056 A 
BRANCH  85  86
ATOM     86  C   UNL A   1      34.042  16.408  23.888  1.00  0.00     0.416 C 
ATOM     87  F   UNL A   1      34.405  16.098  22.612  1.00  0.00    -0.166 F 
ATOM     88  F   UNL A   1      35.140  16.168  24.658  1.00  0.00    -0.166 F 
ATOM     89  F   UNL A   1      33.122  15.469  24.250  1.00  0.00    -0.166 F 
ENDBRANCH  85  86
ENDBRANCH  77  80
BRANCH  78  90
ATOM     90  N   UNL A   1      29.835  23.760  26.822  1.00  0.00     0.062 N 
ATOM     91  O   UNL A   1      29.588  22.846  27.622  1.00  0.00    -0.258 OA
ATOM     92  O   UNL A   1      29.336  24.893  26.872  1.00  0.00    -0.258 OA
ENDBRANCH  78  90
ENDBRANCH  72  74
ENDBRANCH  71  72
ENDBRANCH  70  71
ENDBRANCH  69  70
ENDBRANCH  68  69
ENDBRANCH  67  68
ENDBRANCH  66  67
ENDBRANCH   1  66
TORSDOF 23
ENDMDL
MODEL 2
REMARK VINA RESULT:     -10.9      4.571      8.819
REMARK SMILES O=C(OCCOCCOCCOCCOC(=O)c1cc(-c2ccc(C(F)(F)F)cc2)cc([N+](=O)[O-])c1)c1ccc(-c2c3nc(c(-c4c(F)cccc4F)c4ccc([nH]4)c(-c4c(F)cccc4F)c4nc(c(-c5c(F)cccc5F)c5ccc2[nH]5)C=C4)C=C3)cc1
REMARK SMILES IDX 9 1 8 2 7 3 6 4 5 5 4 6 3 7 2 8 1 9 37 10 38 11 90 12 39 13
REMARK SMILES IDX 89 14 40 15 41 16 42 17 83 18 43 19 88 20 82 21 84 22 44 23
REMARK SMILES IDX 87 24 81 25 80 26 45 28 71 29 54 30 70 31 55 32 58 33 69 34
REMARK SMILES IDX 85 35 56 36 57 37 68 39 86 40 59 41 46 42 47 43 52 44 48 45
REMARK SMILES IDX 49 46 51 47 53 48 50 49 72 50 73 51 78 52 74 53 75 54 77 55
REMARK SMILES IDX 79 56 76 57 60 58 61 59 66 60 62 61 63 62 65 63 67 64 64 65
REMARK SMILES IDX 10 66 11 67 12 68 13 69 14 70 15 71 16 72 17 73 18 74 19 75
REMARK SMILES IDX 36 76 20 77 32 78 31 79 21 80 22 81 30 82 23 83 29 84 24 85
REMARK SMILES IDX 25 86 26 87 27 88 28 89 33 90 34 91 35 92
REMARK H PARENT 84 27 58 38
REMARK Flexibility Score: inf
ROOT
ATOM      1  O   UNL A   1      33.585  24.237  22.676  1.00  0.00    -0.377 OA
ENDROOT
BRANCH   1   2
ATOM      2  C   UNL A   1      34.224  25.012  23.686  1.00  0.00     0.188 C 
BRANCH   2   3
ATOM      3  C   UNL A   1      34.999  24.219  24.737  1.00  0.00     0.188 C 
BRANCH   3   4
ATOM      4  O   UNL A   1      35.996  23.386  24.144  1.00  0.00    -0.376 OA
BRANCH   4   5
ATOM      5  C   UNL A   1      35.849  21.983  24.361  1.00  0.00     0.202 C 
BRANCH   5   6
ATOM      6  C   UNL A   1      36.596  21.438  25.579  1.00  0.00     0.261 C 
BRANCH   6   7
ATOM      7  O   UNL A   1      37.891  20.916  25.256  1.00  0.00    -0.460 OA
BRANCH   7   8
ATOM      8  C   UNL A   1      39.051  21.074  25.938  1.00  0.00     0.338 C 
ATOM      9  O   UNL A   1      39.709  20.067  26.200  1.00  0.00    -0.246 OA
BRANCH   8  10
ATOM     10  C   UNL A   1      39.592  22.392  26.402  1.00  0.00     0.060 A 
ATOM     11  C   UNL A   1      39.120  23.649  26.021  1.00  0.00     0.016 A 
ATOM     12  C   UNL A   1      40.619  22.348  27.362  1.00  0.00     0.016 A 
ATOM     13  C   UNL A   1      39.661  24.820  26.521  1.00  0.00     0.010 A 
ATOM     14  C   UNL A   1      41.172  23.521  27.881  1.00  0.00     0.010 A 
ATOM     15  C   UNL A   1      40.707  24.761  27.432  1.00  0.00    -0.014 A 
BRANCH  15  16
ATOM     16  C   UNL A   1      41.425  26.013  27.703  1.00  0.00     0.031 A 
ATOM     17  C   UNL A   1      40.735  27.023  28.564  1.00  0.00     0.074 A 
ATOM     18  C   UNL A   1      42.709  26.147  27.331  1.00  0.00     0.049 A 
ATOM     19  N   UNL A   1      41.115  28.222  28.906  1.00  0.00    -0.248 NA
ATOM     20  C   UNL A   1      39.437  26.615  29.135  1.00  0.00     0.031 C 
ATOM     21  C   UNL A   1      43.497  25.127  26.634  1.00  0.00     0.029 A 
ATOM     22  N   UNL A   1      43.583  27.183  27.511  1.00  0.00    -0.354 N 
ATOM     23  C   UNL A   1      40.087  28.725  29.693  1.00  0.00     0.074 A 
ATOM     24  C   UNL A   1      39.069  27.706  29.783  1.00  0.00     0.031 C 
ATOM     25  C   UNL A   1      44.743  25.593  26.445  1.00  0.00     0.029 A 
ATOM     26  C   UNL A   1      44.811  26.963  26.940  1.00  0.00     0.049 A 
ATOM     27  H   UNL A   1      43.353  28.005  28.002  1.00  0.00     0.167 HD
ATOM     28  C   UNL A   1      40.008  29.943  30.274  1.00  0.00     0.037 A 
ATOM     29  C   UNL A   1      45.848  27.809  26.794  1.00  0.00     0.037 A 
ATOM     30  C   UNL A   1      41.048  30.925  30.156  1.00  0.00     0.049 A 
ATOM     31  C   UNL A   1      45.695  29.198  27.350  1.00  0.00     0.074 A 
ATOM     32  C   UNL A   1      41.079  32.221  30.631  1.00  0.00     0.029 A 
ATOM     33  N   UNL A   1      42.255  30.703  29.500  1.00  0.00    -0.354 N 
ATOM     34  N   UNL A   1      44.690  29.711  28.024  1.00  0.00    -0.248 NA
ATOM     35  C   UNL A   1      46.801  30.132  27.115  1.00  0.00     0.031 C 
ATOM     36  C   UNL A   1      42.284  32.800  30.216  1.00  0.00     0.029 A 
ATOM     37  C   UNL A   1      43.030  31.847  29.535  1.00  0.00     0.049 A 
ATOM     38  H   UNL A   1      42.519  29.857  29.073  1.00  0.00     0.167 HD
ATOM     39  C   UNL A   1      45.046  31.021  28.308  1.00  0.00     0.074 A 
ATOM     40  C   UNL A   1      46.370  31.215  27.748  1.00  0.00     0.031 C 
ATOM     41  C   UNL A   1      44.349  31.982  28.965  1.00  0.00     0.037 A 
BRANCH  28  42
ATOM     42  C   UNL A   1      38.725  30.278  30.975  1.00  0.00     0.057 A 
ATOM     43  C   UNL A   1      37.610  30.795  30.303  1.00  0.00     0.134 A 
ATOM     44  C   UNL A   1      38.634  30.147  32.367  1.00  0.00     0.134 A 
ATOM     45  F   UNL A   1      37.641  30.982  28.975  1.00  0.00    -0.206 F 
ATOM     46  C   UNL A   1      36.465  31.205  30.994  1.00  0.00     0.040 A 
ATOM     47  C   UNL A   1      37.486  30.527  33.065  1.00  0.00     0.040 A 
ATOM     48  F   UNL A   1      39.668  29.671  33.075  1.00  0.00    -0.206 F 
ATOM     49  C   UNL A   1      36.402  31.069  32.379  1.00  0.00     0.006 A 
ENDBRANCH  28  42
BRANCH  29  50
ATOM     50  C   UNL A   1      47.058  27.391  26.039  1.00  0.00     0.057 A 
ATOM     51  C   UNL A   1      48.175  26.844  26.681  1.00  0.00     0.134 A 
ATOM     52  C   UNL A   1      47.129  27.533  24.645  1.00  0.00     0.134 A 
ATOM     53  F   UNL A   1      48.183  26.696  28.014  1.00  0.00    -0.206 F 
ATOM     54  C   UNL A   1      49.319  26.469  25.970  1.00  0.00     0.040 A 
ATOM     55  C   UNL A   1      48.252  27.135  23.920  1.00  0.00     0.040 A 
ATOM     56  F   UNL A   1      46.096  28.049  23.964  1.00  0.00    -0.206 F 
ATOM     57  C   UNL A   1      49.356  26.608  24.584  1.00  0.00     0.006 A 
ENDBRANCH  29  50
BRANCH  41  58
ATOM     58  C   UNL A   1      45.028  33.306  29.139  1.00  0.00     0.057 A 
ATOM     59  C   UNL A   1      45.909  33.550  30.199  1.00  0.00     0.134 A 
ATOM     60  C   UNL A   1      44.841  34.325  28.196  1.00  0.00     0.134 A 
ATOM     61  F   UNL A   1      46.117  32.617  31.141  1.00  0.00    -0.206 F 
ATOM     62  C   UNL A   1      46.567  34.773  30.326  1.00  0.00     0.040 A 
ATOM     63  C   UNL A   1      45.518  35.539  28.295  1.00  0.00     0.040 A 
ATOM     64  F   UNL A   1      44.017  34.144  27.152  1.00  0.00    -0.206 F 
ATOM     65  C   UNL A   1      46.381  35.767  29.365  1.00  0.00     0.006 A 
ENDBRANCH  41  58
ENDBRANCH  15  16
ENDBRANCH   8  10
ENDBRANCH   7   8
ENDBRANCH   6   7
ENDBRANCH   5   6
ENDBRANCH   4   5
ENDBRANCH   3   4
ENDBRANCH   2   3
ENDBRANCH   1   2
BRANCH   1  66
ATOM     66  C   UNL A   1      32.219  23.905  22.890  1.00  0.00     0.188 C 
BRANCH  66  67
ATOM     67  C   UNL A   1      31.850  22.476  23.354  1.00  0.00     0.188 C 
BRANCH  67  68
ATOM     68  O   UNL A   1      32.359  22.106  24.626  1.00  0.00    -0.376 OA
BRANCH  68  69
ATOM     69  C   UNL A   1      31.441  22.221  25.710  1.00  0.00     0.202 C 
BRANCH  69  70
ATOM     70  C   UNL A   1      31.881  23.148  26.854  1.00  0.00     0.261 C 
BRANCH  70  71
ATOM     71  O   UNL A   1      31.840  24.562  26.572  1.00  0.00    -0.460 OA
BRANCH  71  72
ATOM     72  C   UNL A   1      30.642  25.155  26.375  1.00  0.00     0.338 C 
ATOM     73  O   UNL A   1      29.571  24.834  26.856  1.00  0.00    -0.246 OA
BRANCH  72  74
ATOM     74  C   UNL A   1      30.900  26.431  25.661  1.00  0.00     0.067 A 
ATOM     75  C   UNL A   1      31.545  27.476  26.348  1.00  0.00     0.025 A 
ATOM     76  C   UNL A   1      30.616  26.552  24.299  1.00  0.00     0.101 A 
ATOM     77  C   UNL A   1      31.966  28.634  25.672  1.00  0.00    -0.011 A 
ATOM     78  C   UNL A   1      30.979  27.730  23.638  1.00  0.00     0.270 A 
ATOM     79  C   UNL A   1      31.672  28.754  24.305  1.00  0.00     0.094 A 
BRANCH  77  80
ATOM     80  C   UNL A   1      32.613  29.737  26.390  1.00  0.00    -0.018 A 
ATOM     81  C   UNL A   1      33.915  29.649  26.909  1.00  0.00     0.009 A 
ATOM     82  C   UNL A   1      31.910  30.936  26.564  1.00  0.00     0.009 A 
ATOM     83  C   UNL A   1      34.486  30.733  27.594  1.00  0.00     0.014 A 
ATOM     84  C   UNL A   1      32.474  32.015  27.245  1.00  0.00     0.014 A 
ATOM     85  C   UNL A   1      33.767  31.927  27.774  1.00  0.00     0.056 A 
BRANCH  85  86
ATOM     86  C   UNL A   1      34.369  33.087  28.530  1.00  0.00     0.416 C 
ATOM     87  F   UNL A   1      35.728  33.112  28.449  1.00  0.00    -0.166 F 
ATOM     88  F   UNL A   1      33.944  34.294  28.066  1.00  0.00    -0.166 F 
ATOM     89  F   UNL A   1      34.077  33.076  29.862  1.00  0.00    -0.166 F 
ENDBRANCH  85  86
ENDBRANCH  77  80
BRANCH  78  90
ATOM     90  N   UNL A   1      30.594  27.919  22.234  1.00  0.00     0.062 N 
ATOM     91  O   UNL A   1      29.981  28.954  21.941  1.00  0.00    -0.258 OA
ATOM     92  O   UNL A   1      30.883  27.019  21.433  1.00  0.00    -0.258 OA
ENDBRANCH  78  90
ENDBRANCH  72  74
ENDBRANCH  71  72
ENDBRANCH  70  71
ENDBRANCH  69  70
ENDBRANCH  68  69
ENDBRANCH  67  68
ENDBRANCH  66  67
ENDBRANCH   1  66
TORSDOF 23
ENDMDL
MODEL 3
REMARK VINA RESULT:     -10.6      3.521      7.891
REMARK SMILES O=C(OCCOCCOCCOCCOC(=O)c1cc(-c2ccc(C(F)(F)F)cc2)cc([N+](=O)[O-])c1)c1ccc(-c2c3nc(c(-c4c(F)cccc4F)c4ccc([nH]4)c(-c4c(F)cccc4F)c4nc(c(-c5c(F)cccc5F)c5ccc2[nH]5)C=C4)C=C3)cc1
REMARK SMILES IDX 9 1 8 2 7 3 6 4 5 5 4 6 3 7 2 8 1 9 37 10 38 11 90 12 39 13
REMARK SMILES IDX 89 14 40 15 41 16 42 17 83 18 43 19 88 20 82 21 84 22 44 23
REMARK SMILES IDX 87 24 81 25 80 26 45 28 71 29 54 30 70 31 55 32 58 33 69 34
REMARK SMILES IDX 85 35 56 36 57 37 68 39 86 40 59 41 46 42 47 43 52 44 48 45
REMARK SMILES IDX 49 46 51 47 53 48 50 49 72 50 73 51 78 52 74 53 75 54 77 55
REMARK SMILES IDX 79 56 76 57 60 58 61 59 66 60 62 61 63 62 65 63 67 64 64 65
REMARK SMILES IDX 10 66 11 67 12 68 13 69 14 70 15 71 16 72 17 73 18 74 19 75
REMARK SMILES IDX 36 76 20 77 32 78 31 79 21 80 22 81 30 82 23 83 29 84 24 85
REMARK SMILES IDX 25 86 26 87 27 88 28 89 33 90 34 91 35 92
REMARK H PARENT 84 27 58 38
REMARK Flexibility Score: inf
ROOT
ATOM      1  O   UNL A   1      38.134  22.066  25.089  1.00  0.00    -0.377 OA
ENDROOT
BRANCH   1   2
ATOM      2  C   UNL A   1      39.042  21.494  26.025  1.00  0.00     0.188 C 
BRANCH   2   3
ATOM      3  C   UNL A   1      40.033  22.465  26.664  1.00  0.00     0.188 C 
BRANCH   3   4
ATOM      4  O   UNL A   1      41.359  22.270  26.171  1.00  0.00    -0.376 OA
BRANCH   4   5
ATOM      5  C   UNL A   1      42.336  23.213  26.613  1.00  0.00     0.202 C 
BRANCH   5   6
ATOM      6  C   UNL A   1      42.955  24.067  25.505  1.00  0.00     0.261 C 
BRANCH   6   7
ATOM      7  O   UNL A   1      42.532  25.435  25.550  1.00  0.00    -0.460 OA
BRANCH   7   8
ATOM      8  C   UNL A   1      41.297  25.920  25.830  1.00  0.00     0.338 C 
ATOM      9  O   UNL A   1      40.359  25.556  25.121  1.00  0.00    -0.246 OA
BRANCH   8  10
ATOM     10  C   UNL A   1      40.991  26.874  26.943  1.00  0.00     0.060 A 
ATOM     11  C   UNL A   1      41.438  28.193  27.034  1.00  0.00     0.016 A 
ATOM     12  C   UNL A   1      40.118  26.414  27.944  1.00  0.00     0.016 A 
ATOM     13  C   UNL A   1      41.084  29.019  28.087  1.00  0.00     0.010 A 
ATOM     14  C   UNL A   1      39.746  27.236  29.012  1.00  0.00     0.010 A 
ATOM     15  C   UNL A   1      40.259  28.534  29.093  1.00  0.00    -0.014 A 
BRANCH  15  16
ATOM     16  C   UNL A   1      40.153  29.344  30.314  1.00  0.00     0.031 A 
ATOM     17  C   UNL A   1      39.073  30.377  30.358  1.00  0.00     0.074 A 
ATOM     18  C   UNL A   1      40.889  29.032  31.394  1.00  0.00     0.049 A 
ATOM     19  N   UNL A   1      38.800  31.257  31.280  1.00  0.00    -0.248 NA
ATOM     20  C   UNL A   1      38.158  30.412  29.201  1.00  0.00     0.031 C 
ATOM     21  C   UNL A   1      41.844  27.924  31.474  1.00  0.00     0.029 A 
ATOM     22  N   UNL A   1      40.929  29.601  32.637  1.00  0.00    -0.354 N 
ATOM     23  C   UNL A   1      37.714  31.974  30.796  1.00  0.00     0.074 A 
ATOM     24  C   UNL A   1      37.372  31.430  29.504  1.00  0.00     0.031 C 
ATOM     25  C   UNL A   1      42.378  27.896  32.706  1.00  0.00     0.029 A 
ATOM     26  C   UNL A   1      41.857  29.026  33.469  1.00  0.00     0.049 A 
ATOM     27  H   UNL A   1      40.350  30.350  32.908  1.00  0.00     0.167 HD
ATOM     28  C   UNL A   1      37.074  33.008  31.387  1.00  0.00     0.037 A 
ATOM     29  C   UNL A   1      42.266  29.415  34.690  1.00  0.00     0.037 A 
ATOM     30  C   UNL A   1      37.451  33.516  32.676  1.00  0.00     0.049 A 
ATOM     31  C   UNL A   1      41.618  30.637  35.282  1.00  0.00     0.074 A 
ATOM     32  C   UNL A   1      36.941  34.595  33.369  1.00  0.00     0.029 A 
ATOM     33  N   UNL A   1      38.452  32.961  33.467  1.00  0.00    -0.354 N 
ATOM     34  N   UNL A   1      40.646  31.374  34.794  1.00  0.00    -0.248 NA
ATOM     35  C   UNL A   1      42.129  31.096  36.579  1.00  0.00     0.031 C 
ATOM     36  C   UNL A   1      37.671  34.725  34.556  1.00  0.00     0.029 A 
ATOM     37  C   UNL A   1      38.594  33.691  34.632  1.00  0.00     0.049 A 
ATOM     38  H   UNL A   1      38.982  32.166  33.232  1.00  0.00     0.167 HD
ATOM     39  C   UNL A   1      40.415  32.374  35.728  1.00  0.00     0.074 A 
ATOM     40  C   UNL A   1      41.339  32.134  36.821  1.00  0.00     0.031 C 
ATOM     41  C   UNL A   1      39.529  33.401  35.692  1.00  0.00     0.037 A 
BRANCH  28  42
ATOM     42  C   UNL A   1      36.001  33.687  30.589  1.00  0.00     0.057 A 
ATOM     43  C   UNL A   1      34.646  33.626  30.943  1.00  0.00     0.134 A 
ATOM     44  C   UNL A   1      36.326  34.353  29.401  1.00  0.00     0.134 A 
ATOM     45  F   UNL A   1      34.258  32.973  32.048  1.00  0.00    -0.206 F 
ATOM     46  C   UNL A   1      33.652  34.171  30.124  1.00  0.00     0.040 A 
ATOM     47  C   UNL A   1      35.345  34.925  28.589  1.00  0.00     0.040 A 
ATOM     48  F   UNL A   1      37.602  34.438  28.997  1.00  0.00    -0.206 F 
ATOM     49  C   UNL A   1      34.003  34.824  28.944  1.00  0.00     0.006 A 
ENDBRANCH  28  42
BRANCH  29  50
ATOM     50  C   UNL A   1      43.372  28.698  35.376  1.00  0.00     0.057 A 
ATOM     51  C   UNL A   1      43.128  27.673  36.296  1.00  0.00     0.134 A 
ATOM     52  C   UNL A   1      44.713  29.028  35.129  1.00  0.00     0.134 A 
ATOM     53  F   UNL A   1      41.869  27.318  36.593  1.00  0.00    -0.206 F 
ATOM     54  C   UNL A   1      44.170  27.013  36.953  1.00  0.00     0.040 A 
ATOM     55  C   UNL A   1      45.765  28.358  35.755  1.00  0.00     0.040 A 
ATOM     56  F   UNL A   1      45.023  30.001  34.259  1.00  0.00    -0.206 F 
ATOM     57  C   UNL A   1      45.494  27.351  36.677  1.00  0.00     0.006 A 
ENDBRANCH  29  50
BRANCH  41  58
ATOM     58  C   UNL A   1      39.501  34.307  36.885  1.00  0.00     0.057 A 
ATOM     59  C   UNL A   1      38.812  33.966  38.055  1.00  0.00     0.134 A 
ATOM     60  C   UNL A   1      40.225  35.506  36.878  1.00  0.00     0.134 A 
ATOM     61  F   UNL A   1      38.090  32.837  38.116  1.00  0.00    -0.206 F 
ATOM     62  C   UNL A   1      38.829  34.799  39.173  1.00  0.00     0.040 A 
ATOM     63  C   UNL A   1      40.275  36.331  38.000  1.00  0.00     0.040 A 
ATOM     64  F   UNL A   1      40.914  35.880  35.788  1.00  0.00    -0.206 F 
ATOM     65  C   UNL A   1      39.571  35.980  39.150  1.00  0.00     0.006 A 
ENDBRANCH  41  58
ENDBRANCH  15  16
ENDBRANCH   8  10
ENDBRANCH   7   8
ENDBRANCH   6   7
ENDBRANCH   5   6
ENDBRANCH   4   5
ENDBRANCH   3   4
ENDBRANCH   2   3
ENDBRANCH   1   2
BRANCH   1  66
ATOM     66  C   UNL A   1      37.014  21.275  24.714  1.00  0.00     0.188 C 
BRANCH  66  67
ATOM     67  C   UNL A   1      35.602  21.681  25.198  1.00  0.00     0.188 C 
BRANCH  67  68
ATOM     68  O   UNL A   1      34.582  20.726  24.947  1.00  0.00    -0.376 OA
BRANCH  68  69
ATOM     69  C   UNL A   1      33.496  20.733  25.870  1.00  0.00     0.202 C 
BRANCH  69  70
ATOM     70  C   UNL A   1      33.597  21.766  27.003  1.00  0.00     0.261 C 
BRANCH  70  71
ATOM     71  O   UNL A   1      32.536  22.742  27.062  1.00  0.00    -0.460 OA
BRANCH  71  72
ATOM     72  C   UNL A   1      31.677  22.837  26.024  1.00  0.00     0.338 C 
ATOM     73  O   UNL A   1      30.616  22.257  25.887  1.00  0.00    -0.246 OA
BRANCH  72  74
ATOM     74  C   UNL A   1      32.133  23.974  25.185  1.00  0.00     0.067 A 
ATOM     75  C   UNL A   1      32.363  25.221  25.795  1.00  0.00     0.025 A 
ATOM     76  C   UNL A   1      32.444  23.781  23.837  1.00  0.00     0.101 A 
ATOM     77  C   UNL A   1      32.957  26.277  25.082  1.00  0.00    -0.011 A 
ATOM     78  C   UNL A   1      32.978  24.850  23.109  1.00  0.00     0.270 A 
ATOM     79  C   UNL A   1      33.261  26.080  23.727  1.00  0.00     0.094 A 
BRANCH  77  80
ATOM     80  C   UNL A   1      33.172  27.586  25.707  1.00  0.00    -0.018 A 
ATOM     81  C   UNL A   1      32.384  28.710  25.415  1.00  0.00     0.009 A 
ATOM     82  C   UNL A   1      34.204  27.725  26.645  1.00  0.00     0.009 A 
ATOM     83  C   UNL A   1      32.636  29.941  26.039  1.00  0.00     0.014 A 
ATOM     84  C   UNL A   1      34.458  28.949  27.267  1.00  0.00     0.014 A 
ATOM     85  C   UNL A   1      33.682  30.074  26.968  1.00  0.00     0.056 A 
BRANCH  85  86
ATOM     86  C   UNL A   1      33.971  31.403  27.624  1.00  0.00     0.416 C 
ATOM     87  F   UNL A   1      34.046  31.309  28.980  1.00  0.00    -0.166 F 
ATOM     88  F   UNL A   1      35.153  31.943  27.219  1.00  0.00    -0.166 F 
ATOM     89  F   UNL A   1      33.024  32.351  27.370  1.00  0.00    -0.166 F 
ENDBRANCH  85  86
ENDBRANCH  77  80
BRANCH  78  90
ATOM     90  N   UNL A   1      33.211  24.698  21.669  1.00  0.00     0.062 N 
ATOM     91  O   UNL A   1      33.266  25.729  20.984  1.00  0.00    -0.258 OA
ATOM     92  O   UNL A   1      33.311  23.548  21.220  1.00  0.00    -0.258 OA
ENDBRANCH  78  90
ENDBRANCH  72  74
ENDBRANCH  71  72
ENDBRANCH  70  71
ENDBRANCH  69  70
ENDBRANCH  68  69
ENDBRANCH  67  68
ENDBRANCH  66  67
ENDBRANCH   1  66
TORSDOF 23
ENDMDL
