MODEL 1
REMARK VINA RESULT:     -10.2      0.000      0.000
REMARK SMILES CC[C@H](C(=O)NCc1ccc(C(=O)OCCOCCOCCOCCOC(=O)c2ccc(-c3c4nc(c(-c5c(F)cccc5F)c5ccc([nH]5)c(-c5c(F)cccc5F)c5nc(c(-c6c(F)cccc6F)c6ccc3[nH]6)C=C5)C=C4)cc2)o1)c1ccccc1
REMARK SMILES IDX 19 1 18 2 17 3 16 4 15 5 14 6 12 7 13 8 11 9 8 10 9 11 83 12
REMARK SMILES IDX 10 13 7 14 6 15 4 16 5 17 3 19 2 20 1 21 84 22 85 23 89 24
REMARK SMILES IDX 86 25 88 26 87 27 20 28 21 29 22 30 23 31 24 32 25 33 26 34
REMARK SMILES IDX 27 35 28 36 29 37 30 38 82 39 31 40 81 41 32 42 33 43 34 44
REMARK SMILES IDX 75 45 35 46 80 47 74 48 76 49 36 50 79 51 73 52 72 53 37 55
REMARK SMILES IDX 63 56 46 57 62 58 47 59 50 60 61 61 77 62 48 63 49 64 60 66
REMARK SMILES IDX 78 67 51 68 38 69 39 70 44 71 40 72 41 73 43 74 45 75 42 76
REMARK SMILES IDX 64 77 65 78 70 79 66 80 67 81 69 82 71 83 68 84 52 85 53 86
REMARK SMILES IDX 58 87 54 88 55 89 57 90 59 91 56 92
REMARK H PARENT 6 18 76 54 50 65
REMARK Flexibility Score: inf
ROOT
ATOM      1  C   UNL A   1      41.118  21.218  27.563  1.00  0.00     0.188 C 
ENDROOT
BRANCH   1   2
ATOM      2  C   UNL A   1      40.165  21.405  26.371  1.00  0.00     0.188 C 
BRANCH   2   3
ATOM      3  O   UNL A   1      39.298  22.530  26.523  1.00  0.00    -0.376 OA
BRANCH   3   4
ATOM      4  C   UNL A   1      38.049  22.461  25.843  1.00  0.00     0.202 C 
BRANCH   4   5
ATOM      5  C   UNL A   1      37.442  23.805  25.407  1.00  0.00     0.261 C 
BRANCH   5   6
ATOM      6  O   UNL A   1      36.101  23.746  24.893  1.00  0.00    -0.457 OA
BRANCH   6   7
ATOM      7  C   UNL A   1      35.917  23.260  23.638  1.00  0.00     0.374 C 
ATOM      8  O   UNL A   1      36.755  22.629  23.006  1.00  0.00    -0.242 OA
BRANCH   7   9
ATOM      9  C   UNL A   1      34.543  23.493  23.255  1.00  0.00     0.211 A 
ATOM     10  C   UNL A   1      32.937  24.544  22.166  1.00  0.00     0.124 A 
ATOM     11  C   UNL A   1      32.372  23.391  22.667  1.00  0.00     0.048 A 
ATOM     12  O   UNL A   1      34.244  24.627  22.546  1.00  0.00    -0.452 OA
ATOM     13  C   UNL A   1      33.403  22.713  23.361  1.00  0.00     0.058 A 
BRANCH  10  14
ATOM     14  C   UNL A   1      32.422  25.655  21.329  1.00  0.00     0.191 C 
BRANCH  14  15
ATOM     15  N   UNL A   1      33.221  26.842  21.563  1.00  0.00    -0.348 N 
ATOM     16  C   UNL A   1      33.063  27.845  22.479  1.00  0.00     0.227 C 
ATOM     17  O   UNL A   1      33.963  28.683  22.551  1.00  0.00    -0.274 OA
ATOM     18  H   UNL A   1      34.001  26.942  20.970  1.00  0.00     0.163 HD
BRANCH  16  19
ATOM     19  C   UNL A   1      31.824  27.848  23.391  1.00  0.00     0.108 C 
BRANCH  19  20
ATOM     20  C   UNL A   1      30.572  27.892  22.478  1.00  0.00     0.015 C 
ATOM     21  C   UNL A   1      29.799  29.207  22.518  1.00  0.00     0.005 C 
ENDBRANCH  19  20
BRANCH  19  22
ATOM     22  C   UNL A   1      31.782  26.782  24.493  1.00  0.00    -0.036 A 
ATOM     23  C   UNL A   1      32.955  26.443  25.197  1.00  0.00     0.004 A 
ATOM     24  C   UNL A   1      30.624  26.045  24.788  1.00  0.00     0.004 A 
ATOM     25  C   UNL A   1      32.953  25.464  26.194  1.00  0.00     0.000 A 
ATOM     26  C   UNL A   1      30.620  25.064  25.787  1.00  0.00     0.000 A 
ATOM     27  C   UNL A   1      31.782  24.779  26.495  1.00  0.00     0.000 A 
ENDBRANCH  19  22
ENDBRANCH  16  19
ENDBRANCH  14  15
ENDBRANCH  10  14
ENDBRANCH   7   9
ENDBRANCH   6   7
ENDBRANCH   5   6
ENDBRANCH   4   5
ENDBRANCH   3   4
ENDBRANCH   2   3
ENDBRANCH   1   2
BRANCH   1  28
ATOM     28  O   UNL A   1      41.800  19.975  27.514  1.00  0.00    -0.377 OA
BRANCH  28  29
ATOM     29  C   UNL A   1      41.780  19.284  26.265  1.00  0.00     0.188 C 
BRANCH  29  30
ATOM     30  C   UNL A   1      43.077  18.669  25.699  1.00  0.00     0.188 C 
BRANCH  30  31
ATOM     31  O   UNL A   1      43.719  19.495  24.724  1.00  0.00    -0.376 OA
BRANCH  31  32
ATOM     32  C   UNL A   1      44.422  20.628  25.222  1.00  0.00     0.202 C 
BRANCH  32  33
ATOM     33  C   UNL A   1      43.948  21.954  24.612  1.00  0.00     0.261 C 
BRANCH  33  34
ATOM     34  O   UNL A   1      43.628  22.972  25.572  1.00  0.00    -0.460 OA
BRANCH  34  35
ATOM     35  C   UNL A   1      44.237  24.169  25.428  1.00  0.00     0.338 C 
ATOM     36  O   UNL A   1      45.124  24.461  24.648  1.00  0.00    -0.246 OA
BRANCH  35  37
ATOM     37  C   UNL A   1      43.521  25.142  26.273  1.00  0.00     0.060 A 
ATOM     38  C   UNL A   1      43.847  26.500  26.167  1.00  0.00     0.016 A 
ATOM     39  C   UNL A   1      42.543  24.710  27.173  1.00  0.00     0.016 A 
ATOM     40  C   UNL A   1      43.222  27.430  26.999  1.00  0.00     0.010 A 
ATOM     41  C   UNL A   1      41.933  25.637  28.016  1.00  0.00     0.010 A 
ATOM     42  C   UNL A   1      42.297  26.994  27.957  1.00  0.00    -0.014 A 
BRANCH  42  43
ATOM     43  C   UNL A   1      41.855  27.896  29.042  1.00  0.00     0.031 A 
ATOM     44  C   UNL A   1      42.598  27.844  30.347  1.00  0.00     0.074 A 
ATOM     45  C   UNL A   1      40.796  28.707  28.892  1.00  0.00     0.049 A 
ATOM     46  N   UNL A   1      42.327  28.433  31.482  1.00  0.00    -0.248 NA
ATOM     47  C   UNL A   1      43.809  27.006  30.375  1.00  0.00     0.031 C 
ATOM     48  C   UNL A   1      40.020  28.872  27.666  1.00  0.00     0.029 A 
ATOM     49  N   UNL A   1      40.178  29.532  29.799  1.00  0.00    -0.354 N 
ATOM     50  C   UNL A   1      43.326  28.031  32.360  1.00  0.00     0.074 A 
ATOM     51  C   UNL A   1      44.197  27.135  31.634  1.00  0.00     0.031 C 
ATOM     52  C   UNL A   1      39.011  29.730  27.903  1.00  0.00     0.029 A 
ATOM     53  C   UNL A   1      39.053  30.144  29.306  1.00  0.00     0.049 A 
ATOM     54  H   UNL A   1      40.509  29.670  30.717  1.00  0.00     0.167 HD
ATOM     55  C   UNL A   1      43.502  28.380  33.655  1.00  0.00     0.037 A 
ATOM     56  C   UNL A   1      38.148  30.925  29.928  1.00  0.00     0.037 A 
ATOM     57  C   UNL A   1      42.628  29.260  34.379  1.00  0.00     0.049 A 
ATOM     58  C   UNL A   1      38.319  31.234  31.392  1.00  0.00     0.074 A 
ATOM     59  C   UNL A   1      42.720  29.679  35.694  1.00  0.00     0.029 A 
ATOM     60  N   UNL A   1      41.491  29.850  33.847  1.00  0.00    -0.354 N 
ATOM     61  N   UNL A   1      39.275  30.865  32.211  1.00  0.00    -0.248 NA
ATOM     62  C   UNL A   1      37.280  32.063  32.022  1.00  0.00     0.031 C 
ATOM     63  C   UNL A   1      41.617  30.494  35.970  1.00  0.00     0.029 A 
ATOM     64  C   UNL A   1      40.862  30.614  34.814  1.00  0.00     0.049 A 
ATOM     65  H   UNL A   1      41.178  29.741  32.920  1.00  0.00     0.167 HD
ATOM     66  C   UNL A   1      38.970  31.440  33.439  1.00  0.00     0.074 A 
ATOM     67  C   UNL A   1      37.741  32.184  33.259  1.00  0.00     0.031 C 
ATOM     68  C   UNL A   1      39.650  31.364  34.609  1.00  0.00     0.037 A 
BRANCH  55  69
ATOM     69  C   UNL A   1      44.672  27.781  34.370  1.00  0.00     0.057 A 
ATOM     70  C   UNL A   1      44.588  26.539  35.010  1.00  0.00     0.134 A 
ATOM     71  C   UNL A   1      45.902  28.451  34.413  1.00  0.00     0.134 A 
ATOM     72  F   UNL A   1      43.431  25.858  35.021  1.00  0.00    -0.206 F 
ATOM     73  C   UNL A   1      45.679  25.991  35.685  1.00  0.00     0.040 A 
ATOM     74  C   UNL A   1      47.006  27.903  35.067  1.00  0.00     0.040 A 
ATOM     75  F   UNL A   1      46.048  29.646  33.822  1.00  0.00    -0.206 F 
ATOM     76  C   UNL A   1      46.894  26.671  35.710  1.00  0.00     0.006 A 
ENDBRANCH  55  69
BRANCH  56  77
ATOM     77  C   UNL A   1      36.984  31.457  29.179  1.00  0.00     0.057 A 
ATOM     78  C   UNL A   1      36.971  32.773  28.705  1.00  0.00     0.134 A 
ATOM     79  C   UNL A   1      35.848  30.674  28.942  1.00  0.00     0.134 A 
ATOM     80  F   UNL A   1      38.020  33.579  28.924  1.00  0.00    -0.206 F 
ATOM     81  C   UNL A   1      35.866  33.298  28.032  1.00  0.00     0.040 A 
ATOM     82  C   UNL A   1      34.743  31.178  28.253  1.00  0.00     0.040 A 
ATOM     83  F   UNL A   1      35.797  29.406  29.374  1.00  0.00    -0.206 F 
ATOM     84  C   UNL A   1      34.748  32.497  27.801  1.00  0.00     0.006 A 
ENDBRANCH  56  77
BRANCH  68  85
ATOM     85  C   UNL A   1      39.113  32.137  35.776  1.00  0.00     0.057 A 
ATOM     86  C   UNL A   1      39.407  33.493  35.961  1.00  0.00     0.134 A 
ATOM     87  C   UNL A   1      38.232  31.532  36.682  1.00  0.00     0.134 A 
ATOM     88  F   UNL A   1      40.252  34.125  35.133  1.00  0.00    -0.206 F 
ATOM     89  C   UNL A   1      38.847  34.220  37.013  1.00  0.00     0.040 A 
ATOM     90  C   UNL A   1      37.651  32.253  37.725  1.00  0.00     0.040 A 
ATOM     91  F   UNL A   1      37.904  30.238  36.552  1.00  0.00    -0.206 F 
ATOM     92  C   UNL A   1      37.960  33.601  37.893  1.00  0.00     0.006 A 
ENDBRANCH  68  85
ENDBRANCH  42  43
ENDBRANCH  35  37
ENDBRANCH  34  35
ENDBRANCH  33  34
ENDBRANCH  32  33
ENDBRANCH  31  32
ENDBRANCH  30  31
ENDBRANCH  29  30
ENDBRANCH  28  29
ENDBRANCH   1  28
TORSDOF 25
ENDMDL
MODEL 2
REMARK VINA RESULT:     -10.0      1.374      2.346
REMARK SMILES CC[C@H](C(=O)NCc1ccc(C(=O)OCCOCCOCCOCCOC(=O)c2ccc(-c3c4nc(c(-c5c(F)cccc5F)c5ccc([nH]5)c(-c5c(F)cccc5F)c5nc(c(-c6c(F)cccc6F)c6ccc3[nH]6)C=C5)C=C4)cc2)o1)c1ccccc1
REMARK SMILES IDX 19 1 18 2 17 3 16 4 15 5 14 6 12 7 13 8 11 9 8 10 9 11 83 12
REMARK SMILES IDX 10 13 7 14 6 15 4 16 5 17 3 19 2 20 1 21 84 22 85 23 89 24
REMARK SMILES IDX 86 25 88 26 87 27 20 28 21 29 22 30 23 31 24 32 25 33 26 34
REMARK SMILES IDX 27 35 28 36 29 37 30 38 82 39 31 40 81 41 32 42 33 43 34 44
REMARK SMILES IDX 75 45 35 46 80 47 74 48 76 49 36 50 79 51 73 52 72 53 37 55
REMARK SMILES IDX 63 56 46 57 62 58 47 59 50 60 61 61 77 62 48 63 49 64 60 66
REMARK SMILES IDX 78 67 51 68 38 69 39 70 44 71 40 72 41 73 43 74 45 75 42 76
REMARK SMILES IDX 64 77 65 78 70 79 66 80 67 81 69 82 71 83 68 84 52 85 53 86
REMARK SMILES IDX 58 87 54 88 55 89 57 90 59 91 56 92
REMARK H PARENT 6 18 76 54 50 65
REMARK Flexibility Score: inf
ROOT
ATOM      1  C   UNL A   1      40.394  21.859  26.967  1.00  0.00     0.188 C 
ENDROOT
BRANCH   1   2
ATOM      2  C   UNL A   1      39.378  21.122  26.078  1.00  0.00     0.188 C 
BRANCH   2   3
ATOM      3  O   UNL A   1      38.389  21.992  25.525  1.00  0.00    -0.376 OA
BRANCH   3   4
ATOM      4  C   UNL A   1      37.254  21.364  24.937  1.00  0.00     0.202 C 
BRANCH   4   5
ATOM      5  C   UNL A   1      35.886  21.966  25.300  1.00  0.00     0.261 C 
BRANCH   5   6
ATOM      6  O   UNL A   1      34.906  21.036  25.788  1.00  0.00    -0.457 OA
BRANCH   6   7
ATOM      7  C   UNL A   1      34.213  20.300  24.880  1.00  0.00     0.374 C 
ATOM      8  O   UNL A   1      34.372  19.101  24.690  1.00  0.00    -0.242 OA
BRANCH   7   9
ATOM      9  C   UNL A   1      33.186  21.137  24.301  1.00  0.00     0.211 A 
ATOM     10  C   UNL A   1      31.702  22.770  24.337  1.00  0.00     0.124 A 
ATOM     11  C   UNL A   1      31.847  22.409  23.015  1.00  0.00     0.048 A 
ATOM     12  O   UNL A   1      32.487  21.980  25.125  1.00  0.00    -0.452 OA
ATOM     13  C   UNL A   1      32.804  21.366  22.990  1.00  0.00     0.058 A 
BRANCH  10  14
ATOM     14  C   UNL A   1      30.899  23.804  25.034  1.00  0.00     0.191 C 
BRANCH  14  15
ATOM     15  N   UNL A   1      30.418  24.770  24.065  1.00  0.00    -0.348 N 
ATOM     16  C   UNL A   1      30.949  25.966  23.674  1.00  0.00     0.227 C 
ATOM     17  O   UNL A   1      30.401  26.541  22.732  1.00  0.00    -0.274 OA
ATOM     18  H   UNL A   1      29.575  24.525  23.618  1.00  0.00     0.163 HD
BRANCH  16  19
ATOM     19  C   UNL A   1      32.210  26.500  24.376  1.00  0.00     0.108 C 
BRANCH  19  20
ATOM     20  C   UNL A   1      33.289  26.731  23.287  1.00  0.00     0.015 C 
ATOM     21  C   UNL A   1      33.408  25.611  22.259  1.00  0.00     0.005 C 
ENDBRANCH  19  20
BRANCH  19  22
ATOM     22  C   UNL A   1      32.010  27.673  25.345  1.00  0.00    -0.036 A 
ATOM     23  C   UNL A   1      31.923  28.991  24.854  1.00  0.00     0.004 A 
ATOM     24  C   UNL A   1      31.992  27.506  26.739  1.00  0.00     0.004 A 
ATOM     25  C   UNL A   1      31.758  30.082  25.713  1.00  0.00     0.000 A 
ATOM     26  C   UNL A   1      31.826  28.598  27.600  1.00  0.00     0.000 A 
ATOM     27  C   UNL A   1      31.701  29.884  27.087  1.00  0.00     0.000 A 
ENDBRANCH  19  22
ENDBRANCH  16  19
ENDBRANCH  14  15
ENDBRANCH  10  14
ENDBRANCH   7   9
ENDBRANCH   6   7
ENDBRANCH   5   6
ENDBRANCH   4   5
ENDBRANCH   3   4
ENDBRANCH   2   3
ENDBRANCH   1   2
BRANCH   1  28
ATOM     28  O   UNL A   1      41.416  20.997  27.442  1.00  0.00    -0.377 OA
BRANCH  28  29
ATOM     29  C   UNL A   1      41.386  19.650  26.968  1.00  0.00     0.188 C 
BRANCH  29  30
ATOM     30  C   UNL A   1      42.639  19.030  26.314  1.00  0.00     0.188 C 
BRANCH  30  31
ATOM     31  O   UNL A   1      43.082  19.737  25.153  1.00  0.00    -0.376 OA
BRANCH  31  32
ATOM     32  C   UNL A   1      44.241  20.548  25.313  1.00  0.00     0.202 C 
BRANCH  32  33
ATOM     33  C   UNL A   1      44.088  21.951  24.710  1.00  0.00     0.261 C 
BRANCH  33  34
ATOM     34  O   UNL A   1      43.729  22.971  25.656  1.00  0.00    -0.460 OA
BRANCH  34  35
ATOM     35  C   UNL A   1      44.295  24.187  25.497  1.00  0.00     0.338 C 
ATOM     36  O   UNL A   1      45.162  24.503  24.703  1.00  0.00    -0.246 OA
BRANCH  35  37
ATOM     37  C   UNL A   1      43.555  25.141  26.342  1.00  0.00     0.060 A 
ATOM     38  C   UNL A   1      43.804  26.511  26.195  1.00  0.00     0.016 A 
ATOM     39  C   UNL A   1      42.631  24.680  27.283  1.00  0.00     0.016 A 
ATOM     40  C   UNL A   1      43.158  27.427  27.026  1.00  0.00     0.010 A 
ATOM     41  C   UNL A   1      41.999  25.594  28.124  1.00  0.00     0.010 A 
ATOM     42  C   UNL A   1      42.288  26.966  28.023  1.00  0.00    -0.014 A 
BRANCH  42  43
ATOM     43  C   UNL A   1      41.833  27.870  29.102  1.00  0.00     0.031 A 
ATOM     44  C   UNL A   1      42.567  27.827  30.412  1.00  0.00     0.074 A 
ATOM     45  C   UNL A   1      40.771  28.675  28.941  1.00  0.00     0.049 A 
ATOM     46  N   UNL A   1      42.284  28.419  31.543  1.00  0.00    -0.248 NA
ATOM     47  C   UNL A   1      43.781  26.995  30.453  1.00  0.00     0.031 C 
ATOM     48  C   UNL A   1      40.003  28.832  27.708  1.00  0.00     0.029 A 
ATOM     49  N   UNL A   1      40.142  29.500  29.840  1.00  0.00    -0.354 N 
ATOM     50  C   UNL A   1      43.277  28.025  32.430  1.00  0.00     0.074 A 
ATOM     51  C   UNL A   1      44.159  27.130  31.714  1.00  0.00     0.031 C 
ATOM     52  C   UNL A   1      38.989  29.686  27.934  1.00  0.00     0.029 A 
ATOM     53  C   UNL A   1      39.018  30.105  29.336  1.00  0.00     0.049 A 
ATOM     54  H   UNL A   1      40.465  29.643  30.759  1.00  0.00     0.167 HD
ATOM     55  C   UNL A   1      43.442  28.380  33.725  1.00  0.00     0.037 A 
ATOM     56  C   UNL A   1      38.104  30.883  29.948  1.00  0.00     0.037 A 
ATOM     57  C   UNL A   1      42.558  29.258  34.440  1.00  0.00     0.049 A 
ATOM     58  C   UNL A   1      38.262  31.198  31.412  1.00  0.00     0.074 A 
ATOM     59  C   UNL A   1      42.638  29.682  35.753  1.00  0.00     0.029 A 
ATOM     60  N   UNL A   1      41.422  29.839  33.897  1.00  0.00    -0.354 N 
ATOM     61  N   UNL A   1      39.213  30.837  32.240  1.00  0.00    -0.248 NA
ATOM     62  C   UNL A   1      37.214  32.025  32.031  1.00  0.00     0.031 C 
ATOM     63  C   UNL A   1      41.529  30.491  36.018  1.00  0.00     0.029 A 
ATOM     64  C   UNL A   1      40.781  30.604  34.856  1.00  0.00     0.049 A 
ATOM     65  H   UNL A   1      41.117  29.725  32.967  1.00  0.00     0.167 HD
ATOM     66  C   UNL A   1      38.897  31.416  33.463  1.00  0.00     0.074 A 
ATOM     67  C   UNL A   1      37.665  32.152  33.272  1.00  0.00     0.031 C 
ATOM     68  C   UNL A   1      39.567  31.347  34.639  1.00  0.00     0.037 A 
BRANCH  55  69
ATOM     69  C   UNL A   1      44.610  27.789  34.452  1.00  0.00     0.057 A 
ATOM     70  C   UNL A   1      45.793  28.509  34.654  1.00  0.00     0.134 A 
ATOM     71  C   UNL A   1      44.547  26.485  34.963  1.00  0.00     0.134 A 
ATOM     72  F   UNL A   1      45.920  29.755  34.171  1.00  0.00    -0.206 F 
ATOM     73  C   UNL A   1      46.882  27.948  35.322  1.00  0.00     0.040 A 
ATOM     74  C   UNL A   1      45.622  25.922  35.651  1.00  0.00     0.040 A 
ATOM     75  F   UNL A   1      43.443  25.742  34.800  1.00  0.00    -0.206 F 
ATOM     76  C   UNL A   1      46.796  26.652  35.827  1.00  0.00     0.006 A 
ENDBRANCH  55  69
BRANCH  56  77
ATOM     77  C   UNL A   1      36.943  31.406  29.188  1.00  0.00     0.057 A 
ATOM     78  C   UNL A   1      35.848  30.587  28.890  1.00  0.00     0.134 A 
ATOM     79  C   UNL A   1      36.910  32.725  28.720  1.00  0.00     0.134 A 
ATOM     80  F   UNL A   1      35.834  29.308  29.289  1.00  0.00    -0.206 F 
ATOM     81  C   UNL A   1      34.766  31.057  28.142  1.00  0.00     0.040 A 
ATOM     82  C   UNL A   1      35.826  33.214  27.989  1.00  0.00     0.040 A 
ATOM     83  F   UNL A   1      37.930  33.558  28.970  1.00  0.00    -0.206 F 
ATOM     84  C   UNL A   1      34.752  32.377  27.693  1.00  0.00     0.006 A 
ENDBRANCH  56  77
BRANCH  68  85
ATOM     85  C   UNL A   1      39.018  32.121  35.799  1.00  0.00     0.057 A 
ATOM     86  C   UNL A   1      38.221  31.519  36.778  1.00  0.00     0.134 A 
ATOM     87  C   UNL A   1      39.356  33.470  35.973  1.00  0.00     0.134 A 
ATOM     88  F   UNL A   1      37.855  30.234  36.661  1.00  0.00    -0.206 F 
ATOM     89  C   UNL A   1      37.771  32.234  37.890  1.00  0.00     0.040 A 
ATOM     90  C   UNL A   1      38.930  34.189  37.090  1.00  0.00     0.040 A 
ATOM     91  F   UNL A   1      40.125  34.101  35.074  1.00  0.00    -0.206 F 
ATOM     92  C   UNL A   1      38.133  33.570  38.051  1.00  0.00     0.006 A 
ENDBRANCH  68  85
ENDBRANCH  42  43
ENDBRANCH  35  37
ENDBRANCH  34  35
ENDBRANCH  33  34
ENDBRANCH  32  33
ENDBRANCH  31  32
ENDBRANCH  30  31
ENDBRANCH  29  30
ENDBRANCH  28  29
ENDBRANCH   1  28
TORSDOF 25
ENDMDL
MODEL 3
REMARK VINA RESULT:     -10.0      1.559      6.341
REMARK SMILES CC[C@H](C(=O)NCc1ccc(C(=O)OCCOCCOCCOCCOC(=O)c2ccc(-c3c4nc(c(-c5c(F)cccc5F)c5ccc([nH]5)c(-c5c(F)cccc5F)c5nc(c(-c6c(F)cccc6F)c6ccc3[nH]6)C=C5)C=C4)cc2)o1)c1ccccc1
REMARK SMILES IDX 19 1 18 2 17 3 16 4 15 5 14 6 12 7 13 8 11 9 8 10 9 11 83 12
REMARK SMILES IDX 10 13 7 14 6 15 4 16 5 17 3 19 2 20 1 21 84 22 85 23 89 24
REMARK SMILES IDX 86 25 88 26 87 27 20 28 21 29 22 30 23 31 24 32 25 33 26 34
REMARK SMILES IDX 27 35 28 36 29 37 30 38 82 39 31 40 81 41 32 42 33 43 34 44
REMARK SMILES IDX 75 45 35 46 80 47 74 48 76 49 36 50 79 51 73 52 72 53 37 55
REMARK SMILES IDX 63 56 46 57 62 58 47 59 50 60 61 61 77 62 48 63 49 64 60 66
REMARK SMILES IDX 78 67 51 68 38 69 39 70 44 71 40 72 41 73 43 74 45 75 42 76
REMARK SMILES IDX 64 77 65 78 70 79 66 80 67 81 69 82 71 83 68 84 52 85 53 86
REMARK SMILES IDX 58 87 54 88 55 89 57 90 59 91 56 92
REMARK H PARENT 6 18 76 54 50 65
REMARK Flexibility Score: inf
ROOT
ATOM      1  C   UNL A   1      39.552  23.108  26.888  1.00  0.00     0.188 C 
ENDROOT
BRANCH   1   2
ATOM      2  C   UNL A   1      38.706  22.118  26.072  1.00  0.00     0.188 C 
BRANCH   2   3
ATOM      3  O   UNL A   1      37.869  22.763  25.110  1.00  0.00    -0.376 OA
BRANCH   3   4
ATOM      4  C   UNL A   1      36.780  21.996  24.605  1.00  0.00     0.202 C 
BRANCH   4   5
ATOM      5  C   UNL A   1      35.421  22.225  25.285  1.00  0.00     0.261 C 
BRANCH   5   6
ATOM      6  O   UNL A   1      34.741  21.041  25.733  1.00  0.00    -0.457 OA
BRANCH   6   7
ATOM      7  C   UNL A   1      33.990  20.354  24.832  1.00  0.00     0.374 C 
ATOM      8  O   UNL A   1      34.112  19.160  24.593  1.00  0.00    -0.242 OA
BRANCH   7   9
ATOM      9  C   UNL A   1      32.959  21.235  24.330  1.00  0.00     0.211 A 
ATOM     10  C   UNL A   1      31.425  22.809  24.526  1.00  0.00     0.124 A 
ATOM     11  C   UNL A   1      31.627  22.633  23.175  1.00  0.00     0.048 A 
ATOM     12  O   UNL A   1      32.206  21.942  25.232  1.00  0.00    -0.452 OA
ATOM     13  C   UNL A   1      32.616  21.628  23.048  1.00  0.00     0.058 A 
BRANCH  10  14
ATOM     14  C   UNL A   1      30.567  23.720  25.322  1.00  0.00     0.191 C 
BRANCH  14  15
ATOM     15  N   UNL A   1      30.006  24.734  24.451  1.00  0.00    -0.348 N 
ATOM     16  C   UNL A   1      30.522  25.933  24.045  1.00  0.00     0.227 C 
ATOM     17  O   UNL A   1      29.887  26.556  23.194  1.00  0.00    -0.274 OA
ATOM     18  H   UNL A   1      29.111  24.526  24.094  1.00  0.00     0.163 HD
BRANCH  16  19
ATOM     19  C   UNL A   1      31.868  26.409  24.619  1.00  0.00     0.108 C 
BRANCH  19  20
ATOM     20  C   UNL A   1      32.914  26.339  23.476  1.00  0.00     0.015 C 
ATOM     21  C   UNL A   1      34.058  25.360  23.719  1.00  0.00     0.005 C 
ENDBRANCH  19  20
BRANCH  19  22
ATOM     22  C   UNL A   1      31.851  27.732  25.397  1.00  0.00    -0.036 A 
ATOM     23  C   UNL A   1      31.991  27.730  26.799  1.00  0.00     0.004 A 
ATOM     24  C   UNL A   1      31.612  28.969  24.778  1.00  0.00     0.004 A 
ATOM     25  C   UNL A   1      31.963  28.917  27.538  1.00  0.00     0.000 A 
ATOM     26  C   UNL A   1      31.583  30.158  25.518  1.00  0.00     0.000 A 
ATOM     27  C   UNL A   1      31.767  30.133  26.895  1.00  0.00     0.000 A 
ENDBRANCH  19  22
ENDBRANCH  16  19
ENDBRANCH  14  15
ENDBRANCH  10  14
ENDBRANCH   7   9
ENDBRANCH   6   7
ENDBRANCH   5   6
ENDBRANCH   4   5
ENDBRANCH   3   4
ENDBRANCH   2   3
ENDBRANCH   1   2
BRANCH   1  28
ATOM     28  O   UNL A   1      40.673  22.483  27.494  1.00  0.00    -0.377 OA
BRANCH  28  29
ATOM     29  C   UNL A   1      40.877  21.103  27.188  1.00  0.00     0.188 C 
BRANCH  29  30
ATOM     30  C   UNL A   1      42.155  20.653  26.450  1.00  0.00     0.188 C 
BRANCH  30  31
ATOM     31  O   UNL A   1      42.570  21.562  25.427  1.00  0.00    -0.376 OA
BRANCH  31  32
ATOM     32  C   UNL A   1      43.974  21.753  25.286  1.00  0.00     0.202 C 
BRANCH  32  33
ATOM     33  C   UNL A   1      44.338  22.991  24.455  1.00  0.00     0.261 C 
BRANCH  33  34
ATOM     34  O   UNL A   1      43.661  24.194  24.849  1.00  0.00    -0.460 OA
BRANCH  34  35
ATOM     35  C   UNL A   1      44.427  25.222  25.274  1.00  0.00     0.338 C 
ATOM     36  O   UNL A   1      45.499  25.583  24.825  1.00  0.00    -0.246 OA
BRANCH  35  37
ATOM     37  C   UNL A   1      43.658  25.967  26.287  1.00  0.00     0.060 A 
ATOM     38  C   UNL A   1      43.974  27.310  26.525  1.00  0.00     0.016 A 
ATOM     39  C   UNL A   1      42.640  25.334  27.005  1.00  0.00     0.016 A 
ATOM     40  C   UNL A   1      43.298  28.016  27.521  1.00  0.00     0.010 A 
ATOM     41  C   UNL A   1      41.978  26.034  28.012  1.00  0.00     0.010 A 
ATOM     42  C   UNL A   1      42.329  27.365  28.297  1.00  0.00    -0.014 A 
BRANCH  42  43
ATOM     43  C   UNL A   1      41.822  27.983  29.542  1.00  0.00     0.031 A 
ATOM     44  C   UNL A   1      40.591  28.840  29.452  1.00  0.00     0.074 A 
ATOM     45  C   UNL A   1      42.462  27.828  30.712  1.00  0.00     0.049 A 
ATOM     46  N   UNL A   1      40.031  29.589  30.366  1.00  0.00    -0.248 NA
ATOM     47  C   UNL A   1      39.902  28.858  28.151  1.00  0.00     0.031 C 
ATOM     48  C   UNL A   1      43.641  26.995  30.931  1.00  0.00     0.029 A 
ATOM     49  N   UNL A   1      42.212  28.393  31.938  1.00  0.00    -0.354 N 
ATOM     50  C   UNL A   1      38.933  30.173  29.749  1.00  0.00     0.074 A 
ATOM     51  C   UNL A   1      38.914  29.708  28.380  1.00  0.00     0.031 C 
ATOM     52  C   UNL A   1      44.028  27.120  32.214  1.00  0.00     0.029 A 
ATOM     53  C   UNL A   1      43.145  28.069  32.891  1.00  0.00     0.049 A 
ATOM     54  H   UNL A   1      41.438  28.976  32.117  1.00  0.00     0.167 HD
ATOM     55  C   UNL A   1      38.019  31.020  30.277  1.00  0.00     0.037 A 
ATOM     56  C   UNL A   1      43.282  28.513  34.156  1.00  0.00     0.037 A 
ATOM     57  C   UNL A   1      38.046  31.492  31.633  1.00  0.00     0.049 A 
ATOM     58  C   UNL A   1      42.301  29.519  34.698  1.00  0.00     0.074 A 
ATOM     59  C   UNL A   1      37.165  32.350  32.267  1.00  0.00     0.029 A 
ATOM     60  N   UNL A   1      39.015  31.150  32.564  1.00  0.00    -0.354 N 
ATOM     61  N   UNL A   1      41.255  30.053  34.114  1.00  0.00    -0.248 NA
ATOM     62  C   UNL A   1      42.523  29.991  36.073  1.00  0.00     0.031 C 
ATOM     63  C   UNL A   1      37.623  32.558  33.571  1.00  0.00     0.029 A 
ATOM     64  C   UNL A   1      38.766  31.796  33.762  1.00  0.00     0.049 A 
ATOM     65  H   UNL A   1      39.770  30.539  32.397  1.00  0.00     0.167 HD
ATOM     66  C   UNL A   1      40.679  30.896  35.057  1.00  0.00     0.074 A 
ATOM     67  C   UNL A   1      41.491  30.803  36.253  1.00  0.00     0.031 C 
ATOM     68  C   UNL A   1      39.575  31.674  34.946  1.00  0.00     0.037 A 
BRANCH  55  69
ATOM     69  C   UNL A   1      36.934  31.506  29.368  1.00  0.00     0.057 A 
ATOM     70  C   UNL A   1      36.944  32.801  28.835  1.00  0.00     0.134 A 
ATOM     71  C   UNL A   1      35.869  30.667  29.015  1.00  0.00     0.134 A 
ATOM     72  F   UNL A   1      37.927  33.658  29.152  1.00  0.00    -0.206 F 
ATOM     73  C   UNL A   1      35.923  33.252  27.997  1.00  0.00     0.040 A 
ATOM     74  C   UNL A   1      34.854  31.100  28.161  1.00  0.00     0.040 A 
ATOM     75  F   UNL A   1      35.800  29.416  29.494  1.00  0.00    -0.206 F 
ATOM     76  C   UNL A   1      34.876  32.398  27.655  1.00  0.00     0.006 A 
ENDBRANCH  55  69
BRANCH  56  77
ATOM     77  C   UNL A   1      44.403  28.028  34.998  1.00  0.00     0.057 A 
ATOM     78  C   UNL A   1      44.274  26.870  35.773  1.00  0.00     0.134 A 
ATOM     79  C   UNL A   1      45.616  28.722  35.069  1.00  0.00     0.134 A 
ATOM     80  F   UNL A   1      43.126  26.177  35.765  1.00  0.00    -0.206 F 
ATOM     81  C   UNL A   1      45.308  26.425  36.599  1.00  0.00     0.040 A 
ATOM     82  C   UNL A   1      46.666  28.278  35.875  1.00  0.00     0.040 A 
ATOM     83  F   UNL A   1      45.800  29.841  34.353  1.00  0.00    -0.206 F 
ATOM     84  C   UNL A   1      46.511  27.129  36.648  1.00  0.00     0.006 A 
ENDBRANCH  56  77
BRANCH  68  85
ATOM     85  C   UNL A   1      39.146  32.450  36.155  1.00  0.00     0.057 A 
ATOM     86  C   UNL A   1      38.299  31.900  37.123  1.00  0.00     0.134 A 
ATOM     87  C   UNL A   1      39.651  33.736  36.387  1.00  0.00     0.134 A 
ATOM     88  F   UNL A   1      37.775  30.677  36.954  1.00  0.00    -0.206 F 
ATOM     89  C   UNL A   1      37.961  32.607  38.279  1.00  0.00     0.040 A 
ATOM     90  C   UNL A   1      39.337  34.444  37.547  1.00  0.00     0.040 A 
ATOM     91  F   UNL A   1      40.476  34.314  35.500  1.00  0.00    -0.206 F 
ATOM     92  C   UNL A   1      38.488  33.879  38.496  1.00  0.00     0.006 A 
ENDBRANCH  68  85
ENDBRANCH  42  43
ENDBRANCH  35  37
ENDBRANCH  34  35
ENDBRANCH  33  34
ENDBRANCH  32  33
ENDBRANCH  31  32
ENDBRANCH  30  31
ENDBRANCH  29  30
ENDBRANCH  28  29
ENDBRANCH   1  28
TORSDOF 25
ENDMDL
