MODEL 1
REMARK VINA RESULT:      -9.7      0.000      0.000
REMARK SMILES CC[C@@H]1CCC[C@@H]([NH+]2CC(n3cc(C(=O)OCCOCCOCCOCCOC(=O)c4ccc(-c5c6nc(c(-c7c(F)cccc7F)c7ccc([nH]7)c(-c7c(F)cccc7F)c7nc(c(-c8c(F)cccc8F)c8ccc5[nH]8)C=C7)C=C6)cc4)nn3)C2)C1
REMARK SMILES IDX 21 1 20 2 19 3 18 4 17 5 16 6 14 7 15 8 13 9 11 10 12 11
REMARK SMILES IDX 86 12 85 13 10 14 8 15 9 16 87 17 7 19 3 20 4 21 88 22 5 23
REMARK SMILES IDX 6 24 2 25 1 26 22 27 23 28 24 29 25 30 26 31 27 32 28 33
REMARK SMILES IDX 29 34 30 35 31 36 32 37 84 38 33 39 83 40 34 41 35 42 36 43
REMARK SMILES IDX 77 44 37 45 82 46 76 47 78 48 38 49 81 50 75 51 74 52 39 54
REMARK SMILES IDX 65 55 48 56 64 57 49 58 52 59 63 60 79 61 50 62 51 63 62 65
REMARK SMILES IDX 80 66 53 67 40 68 41 69 46 70 42 71 43 72 45 73 47 74 44 75
REMARK SMILES IDX 66 76 67 77 72 78 68 79 69 80 71 81 73 82 70 83 54 84 55 85
REMARK SMILES IDX 60 86 56 87 57 88 59 89 61 90 58 91
REMARK H PARENT 8 18 78 53 52 64
REMARK Flexibility Score: inf
ROOT
ATOM      1  C   UNL A   1      46.107  19.980  24.467  1.00  0.00     0.188 C 
ENDROOT
BRANCH   1   2
ATOM      2  C   UNL A   1      44.885  19.044  24.354  1.00  0.00     0.188 C 
BRANCH   2   3
ATOM      3  O   UNL A   1      44.475  18.518  25.601  1.00  0.00    -0.376 OA
BRANCH   3   4
ATOM      4  C   UNL A   1      43.179  18.745  26.097  1.00  0.00     0.202 C 
BRANCH   4   5
ATOM      5  C   UNL A   1      42.566  20.140  25.923  1.00  0.00     0.261 C 
BRANCH   5   6
ATOM      6  O   UNL A   1      41.326  20.371  26.596  1.00  0.00    -0.458 OA
BRANCH   6   7
ATOM      7  C   UNL A   1      40.193  19.978  25.939  1.00  0.00     0.360 C 
ATOM      8  O   UNL A   1      40.014  18.863  25.490  1.00  0.00    -0.244 OA
BRANCH   7   9
ATOM      9  C   UNL A   1      39.191  21.034  25.968  1.00  0.00     0.190 A 
ATOM     10  N   UNL A   1      37.409  22.241  25.733  1.00  0.00    -0.237 N 
ATOM     11  C   UNL A   1      37.879  20.975  25.543  1.00  0.00     0.147 A 
ATOM     12  N   UNL A   1      38.377  23.052  26.193  1.00  0.00    -0.066 NA
ATOM     13  N   UNL A   1      39.471  22.321  26.358  1.00  0.00    -0.123 NA
BRANCH  10  14
ATOM     14  C   UNL A   1      36.146  22.690  25.247  1.00  0.00     0.218 C 
ATOM     15  N   UNL A   1      35.355  24.210  23.999  1.00  0.00    -0.329 N 
ATOM     16  C   UNL A   1      36.063  22.942  23.734  1.00  0.00     0.296 C 
ATOM     17  C   UNL A   1      35.917  24.210  25.376  1.00  0.00     0.296 C 
ATOM     18  H   UNL A   1      35.482  24.989  23.354  1.00  0.00     0.348 HD
BRANCH  15  19
ATOM     19  C   UNL A   1      33.876  24.204  23.951  1.00  0.00     0.184 C 
ATOM     20  C   UNL A   1      33.251  26.722  24.037  1.00  0.00    -0.006 C 
ATOM     21  C   UNL A   1      32.589  26.589  22.652  1.00  0.00     0.004 C 
ATOM     22  C   UNL A   1      33.289  25.374  24.778  1.00  0.00     0.068 C 
ATOM     23  C   UNL A   1      33.064  25.402  21.820  1.00  0.00     0.006 C 
ATOM     24  C   UNL A   1      33.107  24.107  22.621  1.00  0.00     0.065 C 
BRANCH  20  25
ATOM     25  C   UNL A   1      32.523  27.828  24.829  1.00  0.00     0.000 C 
ATOM     26  C   UNL A   1      31.082  28.061  24.402  1.00  0.00     0.004 C 
ENDBRANCH  20  25
ENDBRANCH  15  19
ENDBRANCH  10  14
ENDBRANCH   7   9
ENDBRANCH   6   7
ENDBRANCH   5   6
ENDBRANCH   4   5
ENDBRANCH   3   4
ENDBRANCH   2   3
ENDBRANCH   1   2
BRANCH   1  27
ATOM     27  O   UNL A   1      46.073  21.055  25.396  1.00  0.00    -0.377 OA
BRANCH  27  28
ATOM     28  C   UNL A   1      45.360  22.255  25.088  1.00  0.00     0.188 C 
BRANCH  28  29
ATOM     29  C   UNL A   1      45.519  23.587  25.879  1.00  0.00     0.188 C 
BRANCH  29  30
ATOM     30  O   UNL A   1      45.516  24.768  25.099  1.00  0.00    -0.376 OA
BRANCH  30  31
ATOM     31  C   UNL A   1      45.527  26.073  25.634  1.00  0.00     0.202 C 
BRANCH  31  32
ATOM     32  C   UNL A   1      44.311  26.577  26.397  1.00  0.00     0.261 C 
BRANCH  32  33
ATOM     33  O   UNL A   1      43.248  26.973  25.560  1.00  0.00    -0.460 OA
BRANCH  33  34
ATOM     34  C   UNL A   1      42.154  26.197  25.655  1.00  0.00     0.338 C 
ATOM     35  O   UNL A   1      42.019  25.053  25.259  1.00  0.00    -0.246 OA
BRANCH  34  36
ATOM     36  C   UNL A   1      41.086  27.014  26.235  1.00  0.00     0.060 A 
ATOM     37  C   UNL A   1      41.244  28.389  26.080  1.00  0.00     0.016 A 
ATOM     38  C   UNL A   1      40.312  26.441  27.256  1.00  0.00     0.016 A 
ATOM     39  C   UNL A   1      40.937  29.171  27.160  1.00  0.00     0.010 A 
ATOM     40  C   UNL A   1      40.034  27.216  28.345  1.00  0.00     0.010 A 
ATOM     41  C   UNL A   1      40.468  28.536  28.315  1.00  0.00    -0.014 A 
BRANCH  41  42
ATOM     42  C   UNL A   1      40.434  29.307  29.527  1.00  0.00     0.031 A 
ATOM     43  C   UNL A   1      39.219  30.127  29.632  1.00  0.00     0.074 A 
ATOM     44  C   UNL A   1      41.388  29.189  30.465  1.00  0.00     0.049 A 
ATOM     45  N   UNL A   1      39.131  31.409  29.543  1.00  0.00    -0.248 NA
ATOM     46  C   UNL A   1      37.928  29.422  29.622  1.00  0.00     0.031 C 
ATOM     47  C   UNL A   1      42.472  28.206  30.562  1.00  0.00     0.029 A 
ATOM     48  N   UNL A   1      41.505  29.889  31.619  1.00  0.00    -0.354 N 
ATOM     49  C   UNL A   1      37.780  31.687  29.692  1.00  0.00     0.074 A 
ATOM     50  C   UNL A   1      37.081  30.443  29.516  1.00  0.00     0.031 C 
ATOM     51  C   UNL A   1      42.972  28.227  31.820  1.00  0.00     0.029 A 
ATOM     52  C   UNL A   1      42.331  29.297  32.563  1.00  0.00     0.049 A 
ATOM     53  H   UNL A   1      41.044  30.746  31.773  1.00  0.00     0.167 HD
ATOM     54  C   UNL A   1      37.369  32.861  30.235  1.00  0.00     0.037 A 
ATOM     55  C   UNL A   1      42.343  29.626  33.879  1.00  0.00     0.037 A 
ATOM     56  C   UNL A   1      38.410  33.857  30.194  1.00  0.00     0.049 A 
ATOM     57  C   UNL A   1      41.725  30.980  33.997  1.00  0.00     0.074 A 
ATOM     58  C   UNL A   1      39.161  34.423  29.179  1.00  0.00     0.029 A 
ATOM     59  N   UNL A   1      39.094  34.126  31.357  1.00  0.00    -0.354 N 
ATOM     60  N   UNL A   1      42.285  32.070  33.546  1.00  0.00    -0.248 NA
ATOM     61  C   UNL A   1      40.277  31.049  34.160  1.00  0.00     0.031 C 
ATOM     62  C   UNL A   1      40.473  34.553  29.720  1.00  0.00     0.029 A 
ATOM     63  C   UNL A   1      40.430  34.121  31.045  1.00  0.00     0.049 A 
ATOM     64  H   UNL A   1      38.699  34.290  32.243  1.00  0.00     0.167 HD
ATOM     65  C   UNL A   1      41.246  32.801  32.983  1.00  0.00     0.074 A 
ATOM     66  C   UNL A   1      40.023  32.151  33.450  1.00  0.00     0.031 C 
ATOM     67  C   UNL A   1      41.460  33.673  31.953  1.00  0.00     0.037 A 
BRANCH  54  68
ATOM     68  C   UNL A   1      36.179  32.960  31.150  1.00  0.00     0.057 A 
ATOM     69  C   UNL A   1      35.165  33.879  30.846  1.00  0.00     0.134 A 
ATOM     70  C   UNL A   1      36.126  32.408  32.449  1.00  0.00     0.134 A 
ATOM     71  F   UNL A   1      35.124  34.487  29.651  1.00  0.00    -0.206 F 
ATOM     72  C   UNL A   1      34.209  34.271  31.789  1.00  0.00     0.040 A 
ATOM     73  C   UNL A   1      35.142  32.748  33.376  1.00  0.00     0.040 A 
ATOM     74  F   UNL A   1      37.074  31.595  32.931  1.00  0.00    -0.206 F 
ATOM     75  C   UNL A   1      34.198  33.709  33.060  1.00  0.00     0.006 A 
ENDBRANCH  54  68
BRANCH  55  76
ATOM     76  C   UNL A   1      42.512  28.717  35.039  1.00  0.00     0.057 A 
ATOM     77  C   UNL A   1      41.798  27.515  35.123  1.00  0.00     0.134 A 
ATOM     78  C   UNL A   1      43.561  28.873  35.964  1.00  0.00     0.134 A 
ATOM     79  F   UNL A   1      40.809  27.249  34.258  1.00  0.00    -0.206 F 
ATOM     80  C   UNL A   1      42.118  26.520  36.058  1.00  0.00     0.040 A 
ATOM     81  C   UNL A   1      43.885  27.894  36.909  1.00  0.00     0.040 A 
ATOM     82  F   UNL A   1      44.369  29.943  35.931  1.00  0.00    -0.206 F 
ATOM     83  C   UNL A   1      43.171  26.705  36.950  1.00  0.00     0.006 A 
ENDBRANCH  55  76
BRANCH  67  84
ATOM     84  C   UNL A   1      42.880  33.984  31.565  1.00  0.00     0.057 A 
ATOM     85  C   UNL A   1      43.662  34.968  32.189  1.00  0.00     0.134 A 
ATOM     86  C   UNL A   1      43.533  33.142  30.658  1.00  0.00     0.134 A 
ATOM     87  F   UNL A   1      43.153  35.750  33.149  1.00  0.00    -0.206 F 
ATOM     88  C   UNL A   1      45.018  35.133  31.891  1.00  0.00     0.040 A 
ATOM     89  C   UNL A   1      44.895  33.272  30.379  1.00  0.00     0.040 A 
ATOM     90  F   UNL A   1      42.866  32.136  30.069  1.00  0.00    -0.206 F 
ATOM     91  C   UNL A   1      45.641  34.277  30.989  1.00  0.00     0.006 A 
ENDBRANCH  67  84
ENDBRANCH  41  42
ENDBRANCH  34  36
ENDBRANCH  33  34
ENDBRANCH  32  33
ENDBRANCH  31  32
ENDBRANCH  30  31
ENDBRANCH  29  30
ENDBRANCH  28  29
ENDBRANCH  27  28
ENDBRANCH   1  27
TORSDOF 23
ENDMDL
MODEL 2
REMARK VINA RESULT:      -9.1      4.048      8.575
REMARK SMILES CC[C@@H]1CCC[C@@H]([NH+]2CC(n3cc(C(=O)OCCOCCOCCOCCOC(=O)c4ccc(-c5c6nc(c(-c7c(F)cccc7F)c7ccc([nH]7)c(-c7c(F)cccc7F)c7nc(c(-c8c(F)cccc8F)c8ccc5[nH]8)C=C7)C=C6)cc4)nn3)C2)C1
REMARK SMILES IDX 21 1 20 2 19 3 18 4 17 5 16 6 14 7 15 8 13 9 11 10 12 11
REMARK SMILES IDX 86 12 85 13 10 14 8 15 9 16 87 17 7 19 3 20 4 21 88 22 5 23
REMARK SMILES IDX 6 24 2 25 1 26 22 27 23 28 24 29 25 30 26 31 27 32 28 33
REMARK SMILES IDX 29 34 30 35 31 36 32 37 84 38 33 39 83 40 34 41 35 42 36 43
REMARK SMILES IDX 77 44 37 45 82 46 76 47 78 48 38 49 81 50 75 51 74 52 39 54
REMARK SMILES IDX 65 55 48 56 64 57 49 58 52 59 63 60 79 61 50 62 51 63 62 65
REMARK SMILES IDX 80 66 53 67 40 68 41 69 46 70 42 71 43 72 45 73 47 74 44 75
REMARK SMILES IDX 66 76 67 77 72 78 68 79 69 80 71 81 73 82 70 83 54 84 55 85
REMARK SMILES IDX 60 86 56 87 57 88 59 89 61 90 58 91
REMARK H PARENT 8 18 78 53 52 64
REMARK Flexibility Score: inf
ROOT
ATOM      1  C   UNL A   1      30.502  26.126  24.690  1.00  0.00     0.188 C 
ENDROOT
BRANCH   1   2
ATOM      2  C   UNL A   1      30.992  25.692  26.087  1.00  0.00     0.188 C 
BRANCH   2   3
ATOM      3  O   UNL A   1      30.353  24.522  26.558  1.00  0.00    -0.376 OA
BRANCH   3   4
ATOM      4  C   UNL A   1      31.082  23.349  26.822  1.00  0.00     0.202 C 
BRANCH   4   5
ATOM      5  C   UNL A   1      31.099  22.247  25.756  1.00  0.00     0.261 C 
BRANCH   5   6
ATOM      6  O   UNL A   1      31.357  22.671  24.416  1.00  0.00    -0.458 OA
BRANCH   6   7
ATOM      7  C   UNL A   1      32.342  22.003  23.743  1.00  0.00     0.360 C 
ATOM      8  O   UNL A   1      32.141  21.193  22.859  1.00  0.00    -0.244 OA
BRANCH   7   9
ATOM      9  C   UNL A   1      33.656  22.489  24.142  1.00  0.00     0.190 A 
ATOM     10  N   UNL A   1      35.654  22.713  24.946  1.00  0.00    -0.237 N 
ATOM     11  C   UNL A   1      34.686  21.778  24.724  1.00  0.00     0.147 A 
ATOM     12  N   UNL A   1      35.237  23.936  24.579  1.00  0.00    -0.066 NA
ATOM     13  N   UNL A   1      34.019  23.811  24.067  1.00  0.00    -0.123 NA
BRANCH  10  14
ATOM     14  C   UNL A   1      36.828  22.459  25.713  1.00  0.00     0.218 C 
ATOM     15  N   UNL A   1      38.916  22.237  25.425  1.00  0.00    -0.329 N 
ATOM     16  C   UNL A   1      38.012  23.403  25.456  1.00  0.00     0.296 C 
ATOM     17  C   UNL A   1      37.747  21.366  25.130  1.00  0.00     0.296 C 
ATOM     18  H   UNL A   1      39.741  22.269  24.827  1.00  0.00     0.348 HD
BRANCH  15  19
ATOM     19  C   UNL A   1      39.634  21.881  26.668  1.00  0.00     0.184 C 
ATOM     20  C   UNL A   1      42.069  21.464  25.871  1.00  0.00    -0.006 C 
ATOM     21  C   UNL A   1      42.546  22.622  26.768  1.00  0.00     0.004 C 
ATOM     22  C   UNL A   1      40.755  20.851  26.387  1.00  0.00     0.068 C 
ATOM     23  C   UNL A   1      41.466  23.628  27.153  1.00  0.00     0.006 C 
ATOM     24  C   UNL A   1      40.182  22.955  27.626  1.00  0.00     0.065 C 
BRANCH  20  25
ATOM     25  C   UNL A   1      43.210  20.433  25.746  1.00  0.00     0.000 C 
ATOM     26  C   UNL A   1      42.769  18.986  25.906  1.00  0.00     0.004 C 
ENDBRANCH  20  25
ENDBRANCH  15  19
ENDBRANCH  10  14
ENDBRANCH   7   9
ENDBRANCH   6   7
ENDBRANCH   5   6
ENDBRANCH   4   5
ENDBRANCH   3   4
ENDBRANCH   2   3
ENDBRANCH   1   2
BRANCH   1  27
ATOM     27  O   UNL A   1      31.252  27.090  23.961  1.00  0.00    -0.377 OA
BRANCH  27  28
ATOM     28  C   UNL A   1      31.005  28.486  24.142  1.00  0.00     0.188 C 
BRANCH  28  29
ATOM     29  C   UNL A   1      31.888  29.417  25.024  1.00  0.00     0.188 C 
BRANCH  29  30
ATOM     30  O   UNL A   1      32.019  29.036  26.380  1.00  0.00    -0.376 OA
BRANCH  30  31
ATOM     31  C   UNL A   1      32.999  29.544  27.257  1.00  0.00     0.202 C 
BRANCH  31  32
ATOM     32  C   UNL A   1      33.557  30.941  27.024  1.00  0.00     0.261 C 
BRANCH  32  33
ATOM     33  O   UNL A   1      33.449  31.782  28.150  1.00  0.00    -0.460 OA
BRANCH  33  34
ATOM     34  C   UNL A   1      34.549  32.515  28.396  1.00  0.00     0.338 C 
ATOM     35  O   UNL A   1      35.140  33.249  27.624  1.00  0.00    -0.246 OA
BRANCH  34  36
ATOM     36  C   UNL A   1      34.995  32.194  29.753  1.00  0.00     0.060 A 
ATOM     37  C   UNL A   1      34.979  33.260  30.650  1.00  0.00     0.016 A 
ATOM     38  C   UNL A   1      35.817  31.068  29.917  1.00  0.00     0.016 A 
ATOM     39  C   UNL A   1      36.046  33.369  31.499  1.00  0.00     0.010 A 
ATOM     40  C   UNL A   1      36.898  31.192  30.742  1.00  0.00     0.010 A 
ATOM     41  C   UNL A   1      37.048  32.396  31.418  1.00  0.00    -0.014 A 
BRANCH  41  42
ATOM     42  C   UNL A   1      38.291  32.670  32.084  1.00  0.00     0.031 A 
ATOM     43  C   UNL A   1      39.300  33.226  31.171  1.00  0.00     0.074 A 
ATOM     44  C   UNL A   1      38.435  32.502  33.409  1.00  0.00     0.049 A 
ATOM     45  N   UNL A   1      40.368  32.649  30.741  1.00  0.00    -0.248 NA
ATOM     46  C   UNL A   1      38.972  34.491  30.494  1.00  0.00     0.031 C 
ATOM     47  C   UNL A   1      37.413  32.218  34.420  1.00  0.00     0.029 A 
ATOM     48  N   UNL A   1      39.559  32.670  34.147  1.00  0.00    -0.354 N 
ATOM     49  C   UNL A   1      40.966  33.578  29.902  1.00  0.00     0.074 A 
ATOM     50  C   UNL A   1      39.972  34.579  29.620  1.00  0.00     0.031 C 
ATOM     51  C   UNL A   1      37.925  32.476  35.646  1.00  0.00     0.029 A 
ATOM     52  C   UNL A   1      39.329  32.818  35.507  1.00  0.00     0.049 A 
ATOM     53  H   UNL A   1      40.461  32.684  33.752  1.00  0.00     0.167 HD
ATOM     54  C   UNL A   1      42.314  33.604  29.743  1.00  0.00     0.037 A 
ATOM     55  C   UNL A   1      40.236  33.317  36.383  1.00  0.00     0.037 A 
ATOM     56  C   UNL A   1      42.919  32.361  30.151  1.00  0.00     0.049 A 
ATOM     57  C   UNL A   1      41.579  33.196  35.740  1.00  0.00     0.074 A 
ATOM     58  C   UNL A   1      42.754  31.041  29.772  1.00  0.00     0.029 A 
ATOM     59  N   UNL A   1      43.557  32.322  31.368  1.00  0.00    -0.354 N 
ATOM     60  N   UNL A   1      42.171  32.054  35.516  1.00  0.00    -0.248 NA
ATOM     61  C   UNL A   1      42.026  34.301  34.898  1.00  0.00     0.031 C 
ATOM     62  C   UNL A   1      42.843  30.296  30.983  1.00  0.00     0.029 A 
ATOM     63  C   UNL A   1      43.118  31.194  32.014  1.00  0.00     0.049 A 
ATOM     64  H   UNL A   1      44.206  32.978  31.710  1.00  0.00     0.167 HD
ATOM     65  C   UNL A   1      42.746  32.188  34.259  1.00  0.00     0.074 A 
ATOM     66  C   UNL A   1      42.679  33.616  33.956  1.00  0.00     0.031 C 
ATOM     67  C   UNL A   1      42.950  31.109  33.447  1.00  0.00     0.037 A 
BRANCH  54  68
ATOM     68  C   UNL A   1      43.091  34.885  29.604  1.00  0.00     0.057 A 
ATOM     69  C   UNL A   1      43.916  35.059  28.484  1.00  0.00     0.134 A 
ATOM     70  C   UNL A   1      43.284  35.816  30.649  1.00  0.00     0.134 A 
ATOM     71  F   UNL A   1      43.841  34.222  27.438  1.00  0.00    -0.206 F 
ATOM     72  C   UNL A   1      44.908  36.044  28.436  1.00  0.00     0.040 A 
ATOM     73  C   UNL A   1      44.229  36.838  30.586  1.00  0.00     0.040 A 
ATOM     74  F   UNL A   1      42.650  35.729  31.824  1.00  0.00    -0.206 F 
ATOM     75  C   UNL A   1      45.070  36.934  29.491  1.00  0.00     0.006 A 
ENDBRANCH  54  68
BRANCH  55  76
ATOM     76  C   UNL A   1      39.982  34.199  37.547  1.00  0.00     0.057 A 
ATOM     77  C   UNL A   1      40.333  33.801  38.844  1.00  0.00     0.134 A 
ATOM     78  C   UNL A   1      39.627  35.553  37.397  1.00  0.00     0.134 A 
ATOM     79  F   UNL A   1      40.730  32.544  39.086  1.00  0.00    -0.206 F 
ATOM     80  C   UNL A   1      40.349  34.698  39.922  1.00  0.00     0.040 A 
ATOM     81  C   UNL A   1      39.628  36.456  38.465  1.00  0.00     0.040 A 
ATOM     82  F   UNL A   1      39.350  36.073  36.192  1.00  0.00    -0.206 F 
ATOM     83  C   UNL A   1      40.003  36.033  39.732  1.00  0.00     0.006 A 
ENDBRANCH  55  76
BRANCH  67  84
ATOM     84  C   UNL A   1      42.725  29.734  34.015  1.00  0.00     0.057 A 
ATOM     85  C   UNL A   1      41.495  29.060  33.964  1.00  0.00     0.134 A 
ATOM     86  C   UNL A   1      43.828  29.000  34.463  1.00  0.00     0.134 A 
ATOM     87  F   UNL A   1      40.408  29.644  33.448  1.00  0.00    -0.206 F 
ATOM     88  C   UNL A   1      41.363  27.731  34.380  1.00  0.00     0.040 A 
ATOM     89  C   UNL A   1      43.717  27.661  34.848  1.00  0.00     0.040 A 
ATOM     90  F   UNL A   1      45.050  29.557  34.481  1.00  0.00    -0.206 F 
ATOM     91  C   UNL A   1      42.479  27.025  34.817  1.00  0.00     0.006 A 
ENDBRANCH  67  84
ENDBRANCH  41  42
ENDBRANCH  34  36
ENDBRANCH  33  34
ENDBRANCH  32  33
ENDBRANCH  31  32
ENDBRANCH  30  31
ENDBRANCH  29  30
ENDBRANCH  28  29
ENDBRANCH  27  28
ENDBRANCH   1  27
TORSDOF 23
ENDMDL
MODEL 3
REMARK VINA RESULT:      -9.1      1.455      1.681
REMARK SMILES CC[C@@H]1CCC[C@@H]([NH+]2CC(n3cc(C(=O)OCCOCCOCCOCCOC(=O)c4ccc(-c5c6nc(c(-c7c(F)cccc7F)c7ccc([nH]7)c(-c7c(F)cccc7F)c7nc(c(-c8c(F)cccc8F)c8ccc5[nH]8)C=C7)C=C6)cc4)nn3)C2)C1
REMARK SMILES IDX 21 1 20 2 19 3 18 4 17 5 16 6 14 7 15 8 13 9 11 10 12 11
REMARK SMILES IDX 86 12 85 13 10 14 8 15 9 16 87 17 7 19 3 20 4 21 88 22 5 23
REMARK SMILES IDX 6 24 2 25 1 26 22 27 23 28 24 29 25 30 26 31 27 32 28 33
REMARK SMILES IDX 29 34 30 35 31 36 32 37 84 38 33 39 83 40 34 41 35 42 36 43
REMARK SMILES IDX 77 44 37 45 82 46 76 47 78 48 38 49 81 50 75 51 74 52 39 54
REMARK SMILES IDX 65 55 48 56 64 57 49 58 52 59 63 60 79 61 50 62 51 63 62 65
REMARK SMILES IDX 80 66 53 67 40 68 41 69 46 70 42 71 43 72 45 73 47 74 44 75
REMARK SMILES IDX 66 76 67 77 72 78 68 79 69 80 71 81 73 82 70 83 54 84 55 85
REMARK SMILES IDX 60 86 56 87 57 88 59 89 61 90 58 91
REMARK H PARENT 8 18 78 53 52 64
REMARK Flexibility Score: inf
ROOT
ATOM      1  C   UNL A   1      45.664  19.902  24.541  1.00  0.00     0.188 C 
ENDROOT
BRANCH   1   2
ATOM      2  C   UNL A   1      44.440  18.962  24.509  1.00  0.00     0.188 C 
BRANCH   2   3
ATOM      3  O   UNL A   1      44.032  18.543  25.797  1.00  0.00    -0.376 OA
BRANCH   3   4
ATOM      4  C   UNL A   1      42.722  18.770  26.256  1.00  0.00     0.202 C 
BRANCH   4   5
ATOM      5  C   UNL A   1      42.148  20.188  26.148  1.00  0.00     0.261 C 
BRANCH   5   6
ATOM      6  O   UNL A   1      40.844  20.383  26.701  1.00  0.00    -0.458 OA
BRANCH   6   7
ATOM      7  C   UNL A   1      39.786  20.078  25.891  1.00  0.00     0.360 C 
ATOM      8  O   UNL A   1      39.611  18.993  25.372  1.00  0.00    -0.244 OA
BRANCH   7   9
ATOM      9  C   UNL A   1      38.841  21.185  25.843  1.00  0.00     0.190 A 
ATOM     10  N   UNL A   1      37.195  22.520  25.398  1.00  0.00    -0.237 N 
ATOM     11  C   UNL A   1      37.646  21.255  25.156  1.00  0.00     0.147 A 
ATOM     12  N   UNL A   1      38.074  23.212  26.142  1.00  0.00    -0.066 NA
ATOM     13  N   UNL A   1      39.081  22.400  26.437  1.00  0.00    -0.123 NA
BRANCH  10  14
ATOM     14  C   UNL A   1      36.080  23.098  24.723  1.00  0.00     0.218 C 
ATOM     15  N   UNL A   1      34.142  23.833  25.165  1.00  0.00    -0.329 N 
ATOM     16  C   UNL A   1      35.503  24.372  25.356  1.00  0.00     0.296 C 
ATOM     17  C   UNL A   1      34.720  22.465  25.082  1.00  0.00     0.296 C 
ATOM     18  H   UNL A   1      33.414  24.081  25.835  1.00  0.00     0.348 HD
BRANCH  15  19
ATOM     19  C   UNL A   1      33.394  24.246  23.957  1.00  0.00     0.184 C 
ATOM     20  C   UNL A   1      31.438  25.665  24.904  1.00  0.00    -0.006 C 
ATOM     21  C   UNL A   1      31.968  26.886  24.128  1.00  0.00     0.004 C 
ATOM     22  C   UNL A   1      31.877  24.343  24.250  1.00  0.00     0.068 C 
ATOM     23  C   UNL A   1      33.439  26.812  23.733  1.00  0.00     0.006 C 
ATOM     24  C   UNL A   1      33.813  25.468  23.120  1.00  0.00     0.065 C 
BRANCH  20  25
ATOM     25  C   UNL A   1      29.906  25.793  25.043  1.00  0.00     0.000 C 
ATOM     26  C   UNL A   1      29.242  26.603  23.939  1.00  0.00     0.004 C 
ENDBRANCH  20  25
ENDBRANCH  15  19
ENDBRANCH  10  14
ENDBRANCH   7   9
ENDBRANCH   6   7
ENDBRANCH   5   6
ENDBRANCH   4   5
ENDBRANCH   3   4
ENDBRANCH   2   3
ENDBRANCH   1   2
BRANCH   1  27
ATOM     27  O   UNL A   1      45.689  20.975  25.473  1.00  0.00    -0.377 OA
BRANCH  27  28
ATOM     28  C   UNL A   1      44.876  22.132  25.267  1.00  0.00     0.188 C 
BRANCH  28  29
ATOM     29  C   UNL A   1      45.080  23.483  26.015  1.00  0.00     0.188 C 
BRANCH  29  30
ATOM     30  O   UNL A   1      44.976  24.648  25.219  1.00  0.00    -0.376 OA
BRANCH  30  31
ATOM     31  C   UNL A   1      44.985  25.962  25.729  1.00  0.00     0.202 C 
BRANCH  31  32
ATOM     32  C   UNL A   1      43.831  26.432  26.603  1.00  0.00     0.261 C 
BRANCH  32  33
ATOM     33  O   UNL A   1      42.629  26.618  25.892  1.00  0.00    -0.460 OA
BRANCH  33  34
ATOM     34  C   UNL A   1      41.604  25.872  26.339  1.00  0.00     0.338 C 
ATOM     35  O   UNL A   1      41.405  24.687  26.137  1.00  0.00    -0.246 OA
BRANCH  34  36
ATOM     36  C   UNL A   1      40.683  26.769  27.040  1.00  0.00     0.060 A 
ATOM     37  C   UNL A   1      40.694  28.090  26.600  1.00  0.00     0.016 A 
ATOM     38  C   UNL A   1      40.263  26.393  28.326  1.00  0.00     0.016 A 
ATOM     39  C   UNL A   1      40.643  29.062  27.562  1.00  0.00     0.010 A 
ATOM     40  C   UNL A   1      40.243  27.359  29.289  1.00  0.00     0.010 A 
ATOM     41  C   UNL A   1      40.558  28.655  28.898  1.00  0.00    -0.014 A 
BRANCH  41  42
ATOM     42  C   UNL A   1      40.806  29.646  29.908  1.00  0.00     0.031 A 
ATOM     43  C   UNL A   1      39.580  30.348  30.313  1.00  0.00     0.074 A 
ATOM     44  C   UNL A   1      42.024  29.811  30.451  1.00  0.00     0.049 A 
ATOM     45  N   UNL A   1      39.263  31.572  30.066  1.00  0.00    -0.248 NA
ATOM     46  C   UNL A   1      38.491  29.534  30.873  1.00  0.00     0.031 C 
ATOM     47  C   UNL A   1      43.221  28.978  30.304  1.00  0.00     0.029 A 
ATOM     48  N   UNL A   1      42.404  30.736  31.364  1.00  0.00    -0.354 N 
ATOM     49  C   UNL A   1      38.012  31.742  30.642  1.00  0.00     0.074 A 
ATOM     50  C   UNL A   1      37.504  30.426  30.921  1.00  0.00     0.031 C 
ATOM     51  C   UNL A   1      44.101  29.298  31.281  1.00  0.00     0.029 A 
ATOM     52  C   UNL A   1      43.581  30.428  32.031  1.00  0.00     0.049 A 
ATOM     53  H   UNL A   1      41.889  31.558  31.540  1.00  0.00     0.167 HD
ATOM     54  C   UNL A   1      37.622  32.955  31.109  1.00  0.00     0.037 A 
ATOM     55  C   UNL A   1      43.978  31.013  33.188  1.00  0.00     0.037 A 
ATOM     56  C   UNL A   1      38.415  34.019  30.547  1.00  0.00     0.049 A 
ATOM     57  C   UNL A   1      43.225  32.297  33.310  1.00  0.00     0.074 A 
ATOM     58  C   UNL A   1      38.683  34.440  29.257  1.00  0.00     0.029 A 
ATOM     59  N   UNL A   1      39.394  34.580  31.333  1.00  0.00    -0.354 N 
ATOM     60  N   UNL A   1      43.419  33.324  32.527  1.00  0.00    -0.248 NA
ATOM     61  C   UNL A   1      41.923  32.256  33.966  1.00  0.00     0.031 C 
ATOM     62  C   UNL A   1      40.062  34.803  29.267  1.00  0.00     0.029 A 
ATOM     63  C   UNL A   1      40.533  34.643  30.569  1.00  0.00     0.049 A 
ATOM     64  H   UNL A   1      39.297  34.879  32.265  1.00  0.00     0.167 HD
ATOM     65  C   UNL A   1      42.149  33.823  32.267  1.00  0.00     0.074 A 
ATOM     66  C   UNL A   1      41.272  33.164  33.233  1.00  0.00     0.031 C 
ATOM     67  C   UNL A   1      41.865  34.487  31.108  1.00  0.00     0.037 A 
BRANCH  54  68
ATOM     68  C   UNL A   1      36.805  33.119  32.362  1.00  0.00     0.057 A 
ATOM     69  C   UNL A   1      35.666  33.936  32.327  1.00  0.00     0.134 A 
ATOM     70  C   UNL A   1      37.244  32.748  33.652  1.00  0.00     0.134 A 
ATOM     71  F   UNL A   1      35.169  34.372  31.159  1.00  0.00    -0.206 F 
ATOM     72  C   UNL A   1      35.051  34.406  33.491  1.00  0.00     0.040 A 
ATOM     73  C   UNL A   1      36.602  33.162  34.818  1.00  0.00     0.040 A 
ATOM     74  F   UNL A   1      38.370  32.057  33.864  1.00  0.00    -0.206 F 
ATOM     75  C   UNL A   1      35.521  34.023  34.742  1.00  0.00     0.006 A 
ENDBRANCH  54  68
BRANCH  55  76
ATOM     76  C   UNL A   1      44.667  30.376  34.336  1.00  0.00     0.057 A 
ATOM     77  C   UNL A   1      44.288  29.107  34.791  1.00  0.00     0.134 A 
ATOM     78  C   UNL A   1      45.878  30.875  34.852  1.00  0.00     0.134 A 
ATOM     79  F   UNL A   1      43.174  28.523  34.327  1.00  0.00    -0.206 F 
ATOM     80  C   UNL A   1      45.072  28.370  35.690  1.00  0.00     0.040 A 
ATOM     81  C   UNL A   1      46.665  30.155  35.757  1.00  0.00     0.040 A 
ATOM     82  F   UNL A   1      46.389  32.041  34.431  1.00  0.00    -0.206 F 
ATOM     83  C   UNL A   1      46.270  28.891  36.169  1.00  0.00     0.006 A 
ENDBRANCH  55  76
BRANCH  67  84
ATOM     84  C   UNL A   1      43.004  34.851  30.195  1.00  0.00     0.057 A 
ATOM     85  C   UNL A   1      43.757  36.029  30.318  1.00  0.00     0.134 A 
ATOM     86  C   UNL A   1      43.468  33.899  29.281  1.00  0.00     0.134 A 
ATOM     87  F   UNL A   1      43.455  36.950  31.241  1.00  0.00    -0.206 F 
ATOM     88  C   UNL A   1      44.893  36.265  29.537  1.00  0.00     0.040 A 
ATOM     89  C   UNL A   1      44.622  34.106  28.522  1.00  0.00     0.040 A 
ATOM     90  F   UNL A   1      42.837  32.721  29.153  1.00  0.00    -0.206 F 
ATOM     91  C   UNL A   1      45.334  35.297  28.641  1.00  0.00     0.006 A 
ENDBRANCH  67  84
ENDBRANCH  41  42
ENDBRANCH  34  36
ENDBRANCH  33  34
ENDBRANCH  32  33
ENDBRANCH  31  32
ENDBRANCH  30  31
ENDBRANCH  29  30
ENDBRANCH  28  29
ENDBRANCH  27  28
ENDBRANCH   1  27
TORSDOF 23
ENDMDL
