MODEL 1
REMARK VINA RESULT:      -9.8      0.000      0.000
REMARK SMILES C[C@]1(C(=O)OCCOCCOCCOCCOC(=O)c2ccc(-c3c4nc(c(-c5c(F)cccc5F)c5ccc([nH]5)c(-c5c(F)cccc5F)c5nc(c(-c6c(F)cccc6F)c6ccc3[nH]6)C=C5)C=C4)cc2)[NH2+]C2(C(=O)c3ccccc3C2=O)[C@@H]2C(=O)N(c3ccccc3)C(=O)[C@H]21
REMARK SMILES IDX 12 1 11 2 10 3 9 4 8 5 7 6 6 7 5 8 3 9 4 10 2 11 1 12 74 13
REMARK SMILES IDX 98 14 75 15 86 18 96 19 76 20 84 21 87 22 89 23 97 24 77 25
REMARK SMILES IDX 78 26 83 27 85 28 88 29 79 30 82 31 80 32 81 33 90 34 91 35
REMARK SMILES IDX 95 36 92 37 94 38 93 39 13 40 14 41 15 42 16 43 17 44 18 45
REMARK SMILES IDX 19 46 20 47 21 48 73 49 22 50 72 51 23 52 24 53 25 54 66 55
REMARK SMILES IDX 26 56 71 57 65 58 67 59 27 60 70 61 64 62 63 63 28 65 54 66
REMARK SMILES IDX 37 67 53 68 38 69 41 70 52 71 68 72 39 73 40 74 51 76 69 77
REMARK SMILES IDX 42 78 29 79 30 80 35 81 31 82 32 83 34 84 36 85 33 86 55 87
REMARK SMILES IDX 56 88 61 89 57 90 58 91 60 92 62 93 59 94 43 95 44 96 49 97
REMARK SMILES IDX 45 98 46 99 48 100 50 101 47 102
REMARK H PARENT 74 16 74 17 67 64 41 75
REMARK Flexibility Score: inf
ROOT
ATOM      1  C   UNL A   1      34.049  35.084  30.249  1.00  0.00     0.188 C 
ENDROOT
BRANCH   1   2
ATOM      2  O   UNL A   1      33.281  34.603  31.338  1.00  0.00    -0.377 OA
BRANCH   2   3
ATOM      3  C   UNL A   1      33.118  35.425  32.472  1.00  0.00     0.188 C 
BRANCH   3   4
ATOM      4  C   UNL A   1      34.355  36.247  32.857  1.00  0.00     0.188 C 
BRANCH   4   5
ATOM      5  O   UNL A   1      35.348  35.645  33.661  1.00  0.00    -0.376 OA
BRANCH   5   6
ATOM      6  C   UNL A   1      35.259  34.321  34.157  1.00  0.00     0.202 C 
BRANCH   6   7
ATOM      7  C   UNL A   1      36.189  33.135  33.843  1.00  0.00     0.261 C 
BRANCH   7   8
ATOM      8  O   UNL A   1      36.832  32.466  34.924  1.00  0.00    -0.459 OA
BRANCH   8   9
ATOM      9  C   UNL A   1      37.752  31.537  34.588  1.00  0.00     0.368 C 
ATOM     10  O   UNL A   1      37.638  30.796  33.620  1.00  0.00    -0.245 OA
BRANCH   9  11
ATOM     11  C   UNL A   1      38.947  31.479  35.585  1.00  0.00     0.205 C 
ATOM     12  C   UNL A   1      38.478  32.113  36.894  1.00  0.00     0.093 C 
ATOM     13  N   UNL A   1      39.507  30.087  35.876  1.00  0.00    -0.313 N 
ATOM     14  C   UNL A   1      40.148  32.125  34.961  1.00  0.00     0.172 C 
ATOM     15  C   UNL A   1      40.770  29.883  35.057  1.00  0.00     0.237 C 
ATOM     16  H   UNL A   1      38.817  29.380  35.621  1.00  0.00     0.348 HD
ATOM     17  H   UNL A   1      39.722  30.002  36.869  1.00  0.00     0.348 HD
ATOM     18  C   UNL A   1      40.646  30.993  34.075  1.00  0.00     0.177 C 
ATOM     19  C   UNL A   1      40.095  33.247  33.991  1.00  0.00     0.244 C 
ATOM     20  C   UNL A   1      41.988  29.879  35.983  1.00  0.00     0.232 C 
ATOM     21  C   UNL A   1      40.808  28.479  34.442  1.00  0.00     0.232 C 
ATOM     22  C   UNL A   1      41.649  31.705  33.253  1.00  0.00     0.245 C 
ATOM     23  N   UNL A   1      41.066  32.954  33.039  1.00  0.00    -0.250 N 
ATOM     24  O   UNL A   1      39.371  34.219  34.106  1.00  0.00    -0.273 OA
ATOM     25  O   UNL A   1      42.367  30.784  36.706  1.00  0.00    -0.286 OA
ATOM     26  C   UNL A   1      42.574  28.540  35.978  1.00  0.00     0.036 A 
ATOM     27  C   UNL A   1      41.879  27.720  35.100  1.00  0.00     0.036 A 
ATOM     28  O   UNL A   1      40.136  28.028  33.532  1.00  0.00    -0.286 OA
ATOM     29  O   UNL A   1      42.658  31.203  32.791  1.00  0.00    -0.273 OA
ATOM     30  C   UNL A   1      43.639  28.071  36.729  1.00  0.00     0.013 A 
ATOM     31  C   UNL A   1      42.228  26.391  34.927  1.00  0.00     0.013 A 
ATOM     32  C   UNL A   1      44.007  26.733  36.565  1.00  0.00     0.001 A 
ATOM     33  C   UNL A   1      43.306  25.900  35.673  1.00  0.00     0.001 A 
BRANCH  23  34
ATOM     34  C   UNL A   1      41.256  33.761  31.901  1.00  0.00     0.052 A 
ATOM     35  C   UNL A   1      40.262  33.839  30.916  1.00  0.00     0.027 A 
ATOM     36  C   UNL A   1      42.501  34.354  31.662  1.00  0.00     0.027 A 
ATOM     37  C   UNL A   1      40.511  34.481  29.706  1.00  0.00     0.002 A 
ATOM     38  C   UNL A   1      42.761  34.961  30.431  1.00  0.00     0.002 A 
ATOM     39  C   UNL A   1      41.767  35.026  29.456  1.00  0.00     0.000 A 
ENDBRANCH  23  34
ENDBRANCH   9  11
ENDBRANCH   8   9
ENDBRANCH   7   8
ENDBRANCH   6   7
ENDBRANCH   5   6
ENDBRANCH   4   5
ENDBRANCH   3   4
ENDBRANCH   2   3
ENDBRANCH   1   2
BRANCH   1  40
ATOM     40  C   UNL A   1      33.410  35.282  28.857  1.00  0.00     0.188 C 
BRANCH  40  41
ATOM     41  O   UNL A   1      33.942  34.470  27.822  1.00  0.00    -0.376 OA
BRANCH  41  42
ATOM     42  C   UNL A   1      34.797  33.387  28.149  1.00  0.00     0.202 C 
BRANCH  42  43
ATOM     43  C   UNL A   1      34.218  31.963  28.140  1.00  0.00     0.261 C 
BRANCH  43  44
ATOM     44  O   UNL A   1      35.133  30.900  28.435  1.00  0.00    -0.460 OA
BRANCH  44  45
ATOM     45  C   UNL A   1      35.889  31.006  29.547  1.00  0.00     0.338 C 
ATOM     46  O   UNL A   1      35.560  31.494  30.618  1.00  0.00    -0.246 OA
BRANCH  45  47
ATOM     47  C   UNL A   1      37.132  30.238  29.317  1.00  0.00     0.060 A 
ATOM     48  C   UNL A   1      37.669  30.126  28.032  1.00  0.00     0.016 A 
ATOM     49  C   UNL A   1      37.744  29.590  30.398  1.00  0.00     0.016 A 
ATOM     50  C   UNL A   1      38.853  29.411  27.844  1.00  0.00     0.010 A 
ATOM     51  C   UNL A   1      38.925  28.869  30.207  1.00  0.00     0.010 A 
ATOM     52  C   UNL A   1      39.511  28.812  28.935  1.00  0.00    -0.014 A 
BRANCH  52  53
ATOM     53  C   UNL A   1      40.915  28.359  28.773  1.00  0.00     0.031 A 
ATOM     54  C   UNL A   1      41.287  26.958  28.403  1.00  0.00     0.074 A 
ATOM     55  C   UNL A   1      41.879  29.276  28.985  1.00  0.00     0.049 A 
ATOM     56  N   UNL A   1      42.467  26.479  28.094  1.00  0.00    -0.248 NA
ATOM     57  C   UNL A   1      40.209  25.962  28.397  1.00  0.00     0.031 C 
ATOM     58  C   UNL A   1      41.642  30.654  29.425  1.00  0.00     0.029 A 
ATOM     59  N   UNL A   1      43.240  29.201  28.844  1.00  0.00    -0.354 N 
ATOM     60  C   UNL A   1      42.276  25.130  27.829  1.00  0.00     0.074 A 
ATOM     61  C   UNL A   1      40.872  24.857  28.073  1.00  0.00     0.031 C 
ATOM     62  C   UNL A   1      42.812  31.308  29.469  1.00  0.00     0.029 A 
ATOM     63  C   UNL A   1      43.879  30.392  29.088  1.00  0.00     0.049 A 
ATOM     64  H   UNL A   1      43.713  28.375  28.594  1.00  0.00     0.167 HD
ATOM     65  C   UNL A   1      43.184  24.214  27.405  1.00  0.00     0.037 A 
ATOM     66  C   UNL A   1      45.181  30.716  28.999  1.00  0.00     0.037 A 
ATOM     67  C   UNL A   1      44.588  24.489  27.203  1.00  0.00     0.049 A 
ATOM     68  C   UNL A   1      46.163  29.677  28.543  1.00  0.00     0.074 A 
ATOM     69  C   UNL A   1      45.577  23.640  26.730  1.00  0.00     0.029 A 
ATOM     70  N   UNL A   1      45.211  25.698  27.483  1.00  0.00    -0.354 N 
ATOM     71  N   UNL A   1      45.951  28.435  28.183  1.00  0.00    -0.248 NA
ATOM     72  C   UNL A   1      47.567  30.097  28.465  1.00  0.00     0.031 C 
ATOM     73  C   UNL A   1      46.804  24.315  26.783  1.00  0.00     0.029 A 
ATOM     74  C   UNL A   1      46.572  25.607  27.222  1.00  0.00     0.049 A 
ATOM     75  H   UNL A   1      44.754  26.502  27.818  1.00  0.00     0.167 HD
ATOM     76  C   UNL A   1      47.191  27.933  27.809  1.00  0.00     0.074 A 
ATOM     77  C   UNL A   1      48.139  29.019  27.953  1.00  0.00     0.031 C 
ATOM     78  C   UNL A   1      47.516  26.685  27.386  1.00  0.00     0.037 A 
BRANCH  65  79
ATOM     79  C   UNL A   1      42.685  22.821  27.129  1.00  0.00     0.057 A 
ATOM     80  C   UNL A   1      42.430  21.924  28.175  1.00  0.00     0.134 A 
ATOM     81  C   UNL A   1      42.502  22.350  25.822  1.00  0.00     0.134 A 
ATOM     82  F   UNL A   1      42.600  22.299  29.452  1.00  0.00    -0.206 F 
ATOM     83  C   UNL A   1      42.009  20.615  27.931  1.00  0.00     0.040 A 
ATOM     84  C   UNL A   1      42.052  21.053  25.565  1.00  0.00     0.040 A 
ATOM     85  F   UNL A   1      42.730  23.154  24.771  1.00  0.00    -0.206 F 
ATOM     86  C   UNL A   1      41.810  20.179  26.623  1.00  0.00     0.006 A 
ENDBRANCH  65  79
BRANCH  66  87
ATOM     87  C   UNL A   1      45.630  32.096  29.314  1.00  0.00     0.057 A 
ATOM     88  C   UNL A   1      45.707  33.080  28.323  1.00  0.00     0.134 A 
ATOM     89  C   UNL A   1      45.959  32.469  30.623  1.00  0.00     0.134 A 
ATOM     90  F   UNL A   1      45.420  32.782  27.047  1.00  0.00    -0.206 F 
ATOM     91  C   UNL A   1      46.085  34.389  28.622  1.00  0.00     0.040 A 
ATOM     92  C   UNL A   1      46.306  33.781  30.942  1.00  0.00     0.040 A 
ATOM     93  F   UNL A   1      45.894  31.571  31.618  1.00  0.00    -0.206 F 
ATOM     94  C   UNL A   1      46.371  34.746  29.939  1.00  0.00     0.006 A 
ENDBRANCH  66  87
BRANCH  78  95
ATOM     95  C   UNL A   1      48.958  26.455  27.021  1.00  0.00     0.057 A 
ATOM     96  C   UNL A   1      49.885  26.056  27.993  1.00  0.00     0.134 A 
ATOM     97  C   UNL A   1      49.425  26.580  25.704  1.00  0.00     0.134 A 
ATOM     98  F   UNL A   1      49.515  25.925  29.276  1.00  0.00    -0.206 F 
ATOM     99  C   UNL A   1      51.210  25.766  27.666  1.00  0.00     0.040 A 
ATOM    100  C   UNL A   1      50.739  26.257  25.359  1.00  0.00     0.040 A 
ATOM    101  F   UNL A   1      48.590  26.946  24.719  1.00  0.00    -0.206 F 
ATOM    102  C   UNL A   1      51.637  25.849  26.342  1.00  0.00     0.006 A 
ENDBRANCH  78  95
ENDBRANCH  52  53
ENDBRANCH  45  47
ENDBRANCH  44  45
ENDBRANCH  43  44
ENDBRANCH  42  43
ENDBRANCH  41  42
ENDBRANCH  40  41
ENDBRANCH   1  40
TORSDOF 21
ENDMDL
MODEL 2
REMARK VINA RESULT:      -9.4      1.429      3.974
REMARK SMILES C[C@]1(C(=O)OCCOCCOCCOCCOC(=O)c2ccc(-c3c4nc(c(-c5c(F)cccc5F)c5ccc([nH]5)c(-c5c(F)cccc5F)c5nc(c(-c6c(F)cccc6F)c6ccc3[nH]6)C=C5)C=C4)cc2)[NH2+]C2(C(=O)c3ccccc3C2=O)[C@@H]2C(=O)N(c3ccccc3)C(=O)[C@H]21
REMARK SMILES IDX 12 1 11 2 10 3 9 4 8 5 7 6 6 7 5 8 3 9 4 10 2 11 1 12 74 13
REMARK SMILES IDX 98 14 75 15 86 18 96 19 76 20 84 21 87 22 89 23 97 24 77 25
REMARK SMILES IDX 78 26 83 27 85 28 88 29 79 30 82 31 80 32 81 33 90 34 91 35
REMARK SMILES IDX 95 36 92 37 94 38 93 39 13 40 14 41 15 42 16 43 17 44 18 45
REMARK SMILES IDX 19 46 20 47 21 48 73 49 22 50 72 51 23 52 24 53 25 54 66 55
REMARK SMILES IDX 26 56 71 57 65 58 67 59 27 60 70 61 64 62 63 63 28 65 54 66
REMARK SMILES IDX 37 67 53 68 38 69 41 70 52 71 68 72 39 73 40 74 51 76 69 77
REMARK SMILES IDX 42 78 29 79 30 80 35 81 31 82 32 83 34 84 36 85 33 86 55 87
REMARK SMILES IDX 56 88 61 89 57 90 58 91 60 92 62 93 59 94 43 95 44 96 49 97
REMARK SMILES IDX 45 98 46 99 48 100 50 101 47 102
REMARK H PARENT 74 16 74 17 67 64 41 75
REMARK Flexibility Score: inf
ROOT
ATOM      1  C   UNL A   1      33.813  34.719  30.609  1.00  0.00     0.188 C 
ENDROOT
BRANCH   1   2
ATOM      2  O   UNL A   1      33.282  34.950  31.903  1.00  0.00    -0.377 OA
BRANCH   2   3
ATOM      3  C   UNL A   1      33.939  35.861  32.756  1.00  0.00     0.188 C 
BRANCH   3   4
ATOM      4  C   UNL A   1      34.751  35.216  33.888  1.00  0.00     0.188 C 
BRANCH   4   5
ATOM      5  O   UNL A   1      34.751  33.810  34.009  1.00  0.00    -0.376 OA
BRANCH   5   6
ATOM      6  C   UNL A   1      35.724  32.970  33.412  1.00  0.00     0.202 C 
BRANCH   6   7
ATOM      7  C   UNL A   1      36.976  32.365  34.072  1.00  0.00     0.261 C 
BRANCH   7   8
ATOM      8  O   UNL A   1      37.774  31.457  33.318  1.00  0.00    -0.459 OA
BRANCH   8   9
ATOM      9  C   UNL A   1      38.688  30.747  34.014  1.00  0.00     0.368 C 
ATOM     10  O   UNL A   1      38.409  30.066  34.992  1.00  0.00    -0.245 OA
BRANCH   9  11
ATOM     11  C   UNL A   1      40.136  30.923  33.468  1.00  0.00     0.205 C 
ATOM     12  C   UNL A   1      40.777  29.536  33.424  1.00  0.00     0.093 C 
ATOM     13  N   UNL A   1      40.255  31.572  32.090  1.00  0.00    -0.313 N 
ATOM     14  C   UNL A   1      40.865  31.932  34.303  1.00  0.00     0.172 C 
ATOM     15  C   UNL A   1      40.631  33.034  32.265  1.00  0.00     0.237 C 
ATOM     16  H   UNL A   1      39.362  31.505  31.601  1.00  0.00     0.348 HD
ATOM     17  H   UNL A   1      40.972  31.095  31.543  1.00  0.00     0.348 HD
ATOM     18  C   UNL A   1      40.329  33.226  33.708  1.00  0.00     0.177 C 
ATOM     19  C   UNL A   1      40.626  32.162  35.750  1.00  0.00     0.244 C 
ATOM     20  C   UNL A   1      42.072  33.253  31.799  1.00  0.00     0.232 C 
ATOM     21  C   UNL A   1      39.828  33.928  31.313  1.00  0.00     0.232 C 
ATOM     22  C   UNL A   1      40.817  34.210  34.700  1.00  0.00     0.245 C 
ATOM     23  N   UNL A   1      40.679  33.542  35.916  1.00  0.00    -0.250 N 
ATOM     24  O   UNL A   1      40.487  31.273  36.571  1.00  0.00    -0.273 OA
ATOM     25  O   UNL A   1      43.079  32.737  32.250  1.00  0.00    -0.286 OA
ATOM     26  C   UNL A   1      42.053  34.098  30.606  1.00  0.00     0.036 A 
ATOM     27  C   UNL A   1      40.749  34.474  30.310  1.00  0.00     0.036 A 
ATOM     28  O   UNL A   1      38.646  34.219  31.357  1.00  0.00    -0.286 OA
ATOM     29  O   UNL A   1      41.118  35.364  34.450  1.00  0.00    -0.273 OA
ATOM     30  C   UNL A   1      43.122  34.483  29.815  1.00  0.00     0.013 A 
ATOM     31  C   UNL A   1      40.461  35.264  29.209  1.00  0.00     0.013 A 
ATOM     32  C   UNL A   1      42.850  35.283  28.702  1.00  0.00     0.001 A 
ATOM     33  C   UNL A   1      41.530  35.669  28.401  1.00  0.00     0.001 A 
BRANCH  23  34
ATOM     34  C   UNL A   1      40.415  34.150  37.157  1.00  0.00     0.052 A 
ATOM     35  C   UNL A   1      41.388  34.150  38.167  1.00  0.00     0.027 A 
ATOM     36  C   UNL A   1      39.126  34.608  37.453  1.00  0.00     0.027 A 
ATOM     37  C   UNL A   1      41.076  34.580  39.454  1.00  0.00     0.002 A 
ATOM     38  C   UNL A   1      38.805  35.001  38.755  1.00  0.00     0.002 A 
ATOM     39  C   UNL A   1      39.780  34.988  39.753  1.00  0.00     0.000 A 
ENDBRANCH  23  34
ENDBRANCH   9  11
ENDBRANCH   8   9
ENDBRANCH   7   8
ENDBRANCH   6   7
ENDBRANCH   5   6
ENDBRANCH   4   5
ENDBRANCH   3   4
ENDBRANCH   2   3
ENDBRANCH   1   2
BRANCH   1  40
ATOM     40  C   UNL A   1      33.034  35.148  29.347  1.00  0.00     0.188 C 
BRANCH  40  41
ATOM     41  O   UNL A   1      33.116  34.255  28.248  1.00  0.00    -0.376 OA
BRANCH  41  42
ATOM     42  C   UNL A   1      34.317  33.538  28.015  1.00  0.00     0.202 C 
BRANCH  42  43
ATOM     43  C   UNL A   1      34.279  32.002  28.068  1.00  0.00     0.261 C 
BRANCH  43  44
ATOM     44  O   UNL A   1      35.546  31.333  28.111  1.00  0.00    -0.460 OA
BRANCH  44  45
ATOM     45  C   UNL A   1      36.046  31.002  29.319  1.00  0.00     0.338 C 
ATOM     46  O   UNL A   1      35.518  31.172  30.407  1.00  0.00    -0.246 OA
BRANCH  45  47
ATOM     47  C   UNL A   1      37.267  30.199  29.091  1.00  0.00     0.060 A 
ATOM     48  C   UNL A   1      37.775  30.030  27.800  1.00  0.00     0.016 A 
ATOM     49  C   UNL A   1      37.889  29.577  30.182  1.00  0.00     0.016 A 
ATOM     50  C   UNL A   1      38.939  29.284  27.614  1.00  0.00     0.010 A 
ATOM     51  C   UNL A   1      39.050  28.825  29.993  1.00  0.00     0.010 A 
ATOM     52  C   UNL A   1      39.608  28.710  28.712  1.00  0.00    -0.014 A 
BRANCH  52  53
ATOM     53  C   UNL A   1      40.998  28.221  28.538  1.00  0.00     0.031 A 
ATOM     54  C   UNL A   1      41.333  26.798  28.218  1.00  0.00     0.074 A 
ATOM     55  C   UNL A   1      41.985  29.126  28.691  1.00  0.00     0.049 A 
ATOM     56  N   UNL A   1      42.496  26.283  27.902  1.00  0.00    -0.248 NA
ATOM     57  C   UNL A   1      40.235  25.826  28.276  1.00  0.00     0.031 C 
ATOM     58  C   UNL A   1      41.786  30.524  29.078  1.00  0.00     0.029 A 
ATOM     59  N   UNL A   1      43.341  29.016  28.522  1.00  0.00    -0.354 N 
ATOM     60  C   UNL A   1      42.272  24.928  27.697  1.00  0.00     0.074 A 
ATOM     61  C   UNL A   1      40.869  24.695  27.983  1.00  0.00     0.031 C 
ATOM     62  C   UNL A   1      42.969  31.155  29.070  1.00  0.00     0.029 A 
ATOM     63  C   UNL A   1      44.009  30.202  28.703  1.00  0.00     0.049 A 
ATOM     64  H   UNL A   1      43.791  28.171  28.296  1.00  0.00     0.167 HD
ATOM     65  C   UNL A   1      43.151  23.977  27.291  1.00  0.00     0.037 A 
ATOM     66  C   UNL A   1      45.315  30.495  28.572  1.00  0.00     0.037 A 
ATOM     67  C   UNL A   1      44.556  24.214  27.046  1.00  0.00     0.049 A 
ATOM     68  C   UNL A   1      46.265  29.418  28.137  1.00  0.00     0.074 A 
ATOM     69  C   UNL A   1      45.516  23.325  26.587  1.00  0.00     0.029 A 
ATOM     70  N   UNL A   1      45.209  25.419  27.263  1.00  0.00    -0.354 N 
ATOM     71  N   UNL A   1      46.020  28.167  27.833  1.00  0.00    -0.248 NA
ATOM     72  C   UNL A   1      47.675  29.805  28.011  1.00  0.00     0.031 C 
ATOM     73  C   UNL A   1      46.757  23.976  26.585  1.00  0.00     0.029 A 
ATOM     74  C   UNL A   1      46.561  25.290  26.976  1.00  0.00     0.049 A 
ATOM     75  H   UNL A   1      44.776  26.246  27.575  1.00  0.00     0.167 HD
ATOM     76  C   UNL A   1      47.240  27.624  27.453  1.00  0.00     0.074 A 
ATOM     77  C   UNL A   1      48.213  28.694  27.531  1.00  0.00     0.031 C 
ATOM     78  C   UNL A   1      47.530  26.354  27.074  1.00  0.00     0.037 A 
BRANCH  65  79
ATOM     79  C   UNL A   1      42.618  22.585  27.084  1.00  0.00     0.057 A 
ATOM     80  C   UNL A   1      42.395  22.080  25.795  1.00  0.00     0.134 A 
ATOM     81  C   UNL A   1      42.281  21.757  28.164  1.00  0.00     0.134 A 
ATOM     82  F   UNL A   1      42.677  22.822  24.713  1.00  0.00    -0.206 F 
ATOM     83  C   UNL A   1      41.859  20.806  25.591  1.00  0.00     0.040 A 
ATOM     84  C   UNL A   1      41.774  20.471  27.972  1.00  0.00     0.040 A 
ATOM     85  F   UNL A   1      42.466  22.177  29.425  1.00  0.00    -0.206 F 
ATOM     86  C   UNL A   1      41.556  19.994  26.681  1.00  0.00     0.006 A 
ENDBRANCH  65  79
BRANCH  66  87
ATOM     87  C   UNL A   1      45.798  31.876  28.819  1.00  0.00     0.057 A 
ATOM     88  C   UNL A   1      46.201  32.290  30.094  1.00  0.00     0.134 A 
ATOM     89  C   UNL A   1      45.901  32.805  27.776  1.00  0.00     0.134 A 
ATOM     90  F   UNL A   1      46.111  31.452  31.137  1.00  0.00    -0.206 F 
ATOM     91  C   UNL A   1      46.697  33.573  30.322  1.00  0.00     0.040 A 
ATOM     92  C   UNL A   1      46.427  34.080  27.983  1.00  0.00     0.040 A 
ATOM     93  F   UNL A   1      45.540  32.464  26.530  1.00  0.00    -0.206 F 
ATOM     94  C   UNL A   1      46.826  34.467  29.261  1.00  0.00     0.006 A 
ENDBRANCH  66  87
BRANCH  78  95
ATOM     95  C   UNL A   1      48.959  26.079  26.687  1.00  0.00     0.057 A 
ATOM     96  C   UNL A   1      49.425  26.399  25.406  1.00  0.00     0.134 A 
ATOM     97  C   UNL A   1      49.888  25.543  27.591  1.00  0.00     0.134 A 
ATOM     98  F   UNL A   1      48.592  26.905  24.483  1.00  0.00    -0.206 F 
ATOM     99  C   UNL A   1      50.762  26.222  25.047  1.00  0.00     0.040 A 
ATOM    100  C   UNL A   1      51.236  25.397  27.257  1.00  0.00     0.040 A 
ATOM    101  F   UNL A   1      49.515  25.226  28.841  1.00  0.00    -0.206 F 
ATOM    102  C   UNL A   1      51.676  25.736  25.980  1.00  0.00     0.006 A 
ENDBRANCH  78  95
ENDBRANCH  52  53
ENDBRANCH  45  47
ENDBRANCH  44  45
ENDBRANCH  43  44
ENDBRANCH  42  43
ENDBRANCH  41  42
ENDBRANCH  40  41
ENDBRANCH   1  40
TORSDOF 21
ENDMDL
MODEL 3
REMARK VINA RESULT:      -8.6      1.624      3.561
REMARK SMILES C[C@]1(C(=O)OCCOCCOCCOCCOC(=O)c2ccc(-c3c4nc(c(-c5c(F)cccc5F)c5ccc([nH]5)c(-c5c(F)cccc5F)c5nc(c(-c6c(F)cccc6F)c6ccc3[nH]6)C=C5)C=C4)cc2)[NH2+]C2(C(=O)c3ccccc3C2=O)[C@@H]2C(=O)N(c3ccccc3)C(=O)[C@H]21
REMARK SMILES IDX 12 1 11 2 10 3 9 4 8 5 7 6 6 7 5 8 3 9 4 10 2 11 1 12 74 13
REMARK SMILES IDX 98 14 75 15 86 18 96 19 76 20 84 21 87 22 89 23 97 24 77 25
REMARK SMILES IDX 78 26 83 27 85 28 88 29 79 30 82 31 80 32 81 33 90 34 91 35
REMARK SMILES IDX 95 36 92 37 94 38 93 39 13 40 14 41 15 42 16 43 17 44 18 45
REMARK SMILES IDX 19 46 20 47 21 48 73 49 22 50 72 51 23 52 24 53 25 54 66 55
REMARK SMILES IDX 26 56 71 57 65 58 67 59 27 60 70 61 64 62 63 63 28 65 54 66
REMARK SMILES IDX 37 67 53 68 38 69 41 70 52 71 68 72 39 73 40 74 51 76 69 77
REMARK SMILES IDX 42 78 29 79 30 80 35 81 31 82 32 83 34 84 36 85 33 86 55 87
REMARK SMILES IDX 56 88 61 89 57 90 58 91 60 92 62 93 59 94 43 95 44 96 49 97
REMARK SMILES IDX 45 98 46 99 48 100 50 101 47 102
REMARK H PARENT 74 16 74 17 67 64 41 75
REMARK Flexibility Score: inf
ROOT
ATOM      1  C   UNL A   1      32.308  33.377  27.303  1.00  0.00     0.188 C 
ENDROOT
BRANCH   1   2
ATOM      2  O   UNL A   1      32.300  33.999  28.577  1.00  0.00    -0.377 OA
BRANCH   2   3
ATOM      3  C   UNL A   1      33.143  35.108  28.798  1.00  0.00     0.188 C 
BRANCH   3   4
ATOM      4  C   UNL A   1      33.978  35.038  30.084  1.00  0.00     0.188 C 
BRANCH   4   5
ATOM      5  O   UNL A   1      33.328  35.204  31.326  1.00  0.00    -0.376 OA
BRANCH   5   6
ATOM      6  C   UNL A   1      34.014  35.310  32.562  1.00  0.00     0.202 C 
BRANCH   6   7
ATOM      7  C   UNL A   1      35.535  35.369  32.793  1.00  0.00     0.261 C 
BRANCH   7   8
ATOM      8  O   UNL A   1      36.062  34.844  34.008  1.00  0.00    -0.459 OA
BRANCH   8   9
ATOM      9  C   UNL A   1      37.335  34.396  33.961  1.00  0.00     0.368 C 
ATOM     10  O   UNL A   1      38.309  35.138  33.929  1.00  0.00    -0.245 OA
BRANCH   9  11
ATOM     11  C   UNL A   1      37.429  32.843  33.908  1.00  0.00     0.205 C 
ATOM     12  C   UNL A   1      36.109  32.327  33.334  1.00  0.00     0.093 C 
ATOM     13  N   UNL A   1      38.586  32.271  33.091  1.00  0.00    -0.313 N 
ATOM     14  C   UNL A   1      37.776  32.318  35.269  1.00  0.00     0.172 C 
ATOM     15  C   UNL A   1      39.698  31.852  34.038  1.00  0.00     0.237 C 
ATOM     16  H   UNL A   1      38.936  32.982  32.448  1.00  0.00     0.348 HD
ATOM     17  H   UNL A   1      38.266  31.464  32.556  1.00  0.00     0.348 HD
ATOM     18  C   UNL A   1      39.280  32.551  35.282  1.00  0.00     0.177 C 
ATOM     19  C   UNL A   1      37.376  32.955  36.548  1.00  0.00     0.244 C 
ATOM     20  C   UNL A   1      39.795  30.325  34.073  1.00  0.00     0.232 C 
ATOM     21  C   UNL A   1      41.071  32.266  33.496  1.00  0.00     0.232 C 
ATOM     22  C   UNL A   1      39.586  32.304  36.709  1.00  0.00     0.245 C 
ATOM     23  N   UNL A   1      38.488  32.847  37.376  1.00  0.00    -0.250 N 
ATOM     24  O   UNL A   1      36.264  33.400  36.773  1.00  0.00    -0.273 OA
ATOM     25  O   UNL A   1      38.932  29.540  34.423  1.00  0.00    -0.286 OA
ATOM     26  C   UNL A   1      41.068  29.925  33.477  1.00  0.00     0.036 A 
ATOM     27  C   UNL A   1      41.802  31.049  33.122  1.00  0.00     0.036 A 
ATOM     28  O   UNL A   1      41.552  33.382  33.413  1.00  0.00    -0.286 OA
ATOM     29  O   UNL A   1      40.636  31.854  37.130  1.00  0.00    -0.273 OA
ATOM     30  C   UNL A   1      41.533  28.643  33.237  1.00  0.00     0.013 A 
ATOM     31  C   UNL A   1      43.043  30.936  32.518  1.00  0.00     0.013 A 
ATOM     32  C   UNL A   1      42.785  28.511  32.630  1.00  0.00     0.001 A 
ATOM     33  C   UNL A   1      43.533  29.649  32.273  1.00  0.00     0.001 A 
BRANCH  23  34
ATOM     34  C   UNL A   1      38.514  33.419  38.661  1.00  0.00     0.052 A 
ATOM     35  C   UNL A   1      37.847  32.797  39.726  1.00  0.00     0.027 A 
ATOM     36  C   UNL A   1      39.059  34.693  38.851  1.00  0.00     0.027 A 
ATOM     37  C   UNL A   1      37.708  33.442  40.952  1.00  0.00     0.002 A 
ATOM     38  C   UNL A   1      38.884  35.355  40.069  1.00  0.00     0.002 A 
ATOM     39  C   UNL A   1      38.211  34.729  41.118  1.00  0.00     0.000 A 
ENDBRANCH  23  34
ENDBRANCH   9  11
ENDBRANCH   8   9
ENDBRANCH   7   8
ENDBRANCH   6   7
ENDBRANCH   5   6
ENDBRANCH   4   5
ENDBRANCH   3   4
ENDBRANCH   2   3
ENDBRANCH   1   2
BRANCH   1  40
ATOM     40  C   UNL A   1      32.138  31.848  27.170  1.00  0.00     0.188 C 
BRANCH  40  41
ATOM     41  O   UNL A   1      33.299  31.140  26.764  1.00  0.00    -0.376 OA
BRANCH  41  42
ATOM     42  C   UNL A   1      34.406  31.043  27.645  1.00  0.00     0.202 C 
BRANCH  42  43
ATOM     43  C   UNL A   1      35.262  32.295  27.892  1.00  0.00     0.261 C 
BRANCH  43  44
ATOM     44  O   UNL A   1      36.432  32.119  28.701  1.00  0.00    -0.460 OA
BRANCH  44  45
ATOM     45  C   UNL A   1      36.447  31.093  29.576  1.00  0.00     0.338 C 
ATOM     46  O   UNL A   1      35.553  30.761  30.339  1.00  0.00    -0.246 OA
BRANCH  45  47
ATOM     47  C   UNL A   1      37.667  30.298  29.310  1.00  0.00     0.060 A 
ATOM     48  C   UNL A   1      38.035  29.981  28.000  1.00  0.00     0.016 A 
ATOM     49  C   UNL A   1      38.428  29.834  30.391  1.00  0.00     0.016 A 
ATOM     50  C   UNL A   1      39.200  29.246  27.775  1.00  0.00     0.010 A 
ATOM     51  C   UNL A   1      39.590  29.092  30.164  1.00  0.00     0.010 A 
ATOM     52  C   UNL A   1      40.007  28.831  28.851  1.00  0.00    -0.014 A 
BRANCH  52  53
ATOM     53  C   UNL A   1      41.387  28.359  28.580  1.00  0.00     0.031 A 
ATOM     54  C   UNL A   1      41.716  26.939  28.238  1.00  0.00     0.074 A 
ATOM     55  C   UNL A   1      42.372  29.275  28.663  1.00  0.00     0.049 A 
ATOM     56  N   UNL A   1      42.860  26.438  27.842  1.00  0.00    -0.248 NA
ATOM     57  C   UNL A   1      40.636  25.954  28.373  1.00  0.00     0.031 C 
ATOM     58  C   UNL A   1      42.183  30.672  29.064  1.00  0.00     0.029 A 
ATOM     59  N   UNL A   1      43.713  29.181  28.401  1.00  0.00    -0.354 N 
ATOM     60  C   UNL A   1      42.638  25.080  27.654  1.00  0.00     0.074 A 
ATOM     61  C   UNL A   1      41.261  24.830  28.037  1.00  0.00     0.031 C 
ATOM     62  C   UNL A   1      43.356  31.316  28.972  1.00  0.00     0.029 A 
ATOM     63  C   UNL A   1      44.379  30.375  28.534  1.00  0.00     0.049 A 
ATOM     64  H   UNL A   1      44.156  28.341  28.143  1.00  0.00     0.167 HD
ATOM     65  C   UNL A   1      43.498  24.139  27.187  1.00  0.00     0.037 A 
ATOM     66  C   UNL A   1      45.668  30.684  28.312  1.00  0.00     0.037 A 
ATOM     67  C   UNL A   1      44.879  24.392  26.845  1.00  0.00     0.049 A 
ATOM     68  C   UNL A   1      46.598  29.617  27.812  1.00  0.00     0.074 A 
ATOM     69  C   UNL A   1      45.815  23.514  26.320  1.00  0.00     0.029 A 
ATOM     70  N   UNL A   1      45.532  25.605  27.015  1.00  0.00    -0.354 N 
ATOM     71  N   UNL A   1      46.348  28.363  27.526  1.00  0.00    -0.248 NA
ATOM     72  C   UNL A   1      47.992  30.021  27.587  1.00  0.00     0.031 C 
ATOM     73  C   UNL A   1      47.045  24.180  26.231  1.00  0.00     0.029 A 
ATOM     74  C   UNL A   1      46.862  25.491  26.634  1.00  0.00     0.049 A 
ATOM     75  H   UNL A   1      45.112  26.428  27.356  1.00  0.00     0.167 HD
ATOM     76  C   UNL A   1      47.545  27.834  27.061  1.00  0.00     0.074 A 
ATOM     77  C   UNL A   1      48.508  28.916  27.071  1.00  0.00     0.031 C 
ATOM     78  C   UNL A   1      47.823  26.567  26.664  1.00  0.00     0.037 A 
BRANCH  65  79
ATOM     79  C   UNL A   1      42.969  22.741  27.018  1.00  0.00     0.057 A 
ATOM     80  C   UNL A   1      42.625  22.245  25.753  1.00  0.00     0.134 A 
ATOM     81  C   UNL A   1      42.753  21.897  28.117  1.00  0.00     0.134 A 
ATOM     82  F   UNL A   1      42.787  23.001  24.657  1.00  0.00    -0.206 F 
ATOM     83  C   UNL A   1      42.092  20.964  25.588  1.00  0.00     0.040 A 
ATOM     84  C   UNL A   1      42.249  20.604  27.962  1.00  0.00     0.040 A 
ATOM     85  F   UNL A   1      43.057  22.307  29.358  1.00  0.00    -0.206 F 
ATOM     86  C   UNL A   1      41.912  20.136  26.693  1.00  0.00     0.006 A 
ENDBRANCH  65  79
BRANCH  66  87
ATOM     87  C   UNL A   1      46.151  32.071  28.524  1.00  0.00     0.057 A 
ATOM     88  C   UNL A   1      46.187  32.998  27.478  1.00  0.00     0.134 A 
ATOM     89  C   UNL A   1      46.557  32.510  29.791  1.00  0.00     0.134 A 
ATOM     90  F   UNL A   1      45.828  32.635  26.238  1.00  0.00    -0.206 F 
ATOM     91  C   UNL A   1      46.599  34.315  27.683  1.00  0.00     0.040 A 
ATOM     92  C   UNL A   1      46.938  33.832  30.018  1.00  0.00     0.040 A 
ATOM     93  F   UNL A   1      46.534  31.669  30.837  1.00  0.00    -0.206 F 
ATOM     94  C   UNL A   1      46.961  34.739  28.960  1.00  0.00     0.006 A 
ENDBRANCH  66  87
BRANCH  78  95
ATOM     95  C   UNL A   1      49.224  26.308  26.178  1.00  0.00     0.057 A 
ATOM     96  C   UNL A   1      49.625  26.726  24.903  1.00  0.00     0.134 A 
ATOM     97  C   UNL A   1      50.193  25.692  26.984  1.00  0.00     0.134 A 
ATOM     98  F   UNL A   1      48.752  27.313  24.071  1.00  0.00    -0.206 F 
ATOM     99  C   UNL A   1      50.938  26.563  24.458  1.00  0.00     0.040 A 
ATOM    100  C   UNL A   1      51.518  25.558  26.565  1.00  0.00     0.040 A 
ATOM    101  F   UNL A   1      49.883  25.279  28.223  1.00  0.00    -0.206 F 
ATOM    102  C   UNL A   1      51.894  25.994  25.297  1.00  0.00     0.006 A 
ENDBRANCH  78  95
ENDBRANCH  52  53
ENDBRANCH  45  47
ENDBRANCH  44  45
ENDBRANCH  43  44
ENDBRANCH  42  43
ENDBRANCH  41  42
ENDBRANCH  40  41
ENDBRANCH   1  40
TORSDOF 21
ENDMDL
