MODEL 1
REMARK VINA RESULT:      -9.6      0.000      0.000
REMARK SMILES [NH3+][C@@H](CCC1=c2ccccc2=[NH+]C1)C(=O)OCCOCCOCCOCCOC(=O)c1ccc(-c2c3nc(c(-c4c(F)cccc4F)c4ccc([nH]4)c(-c4c(F)cccc4F)c4nc(c(-c5c(F)cccc5F)c5ccc2[nH]5)C=C4)C=C3)cc1
REMARK SMILES IDX 21 1 20 2 19 3 18 4 17 5 16 6 14 7 15 8 2 9 1 10 3 14 4 15
REMARK SMILES IDX 5 16 6 17 13 18 7 19 11 20 12 21 8 22 10 23 9 25 22 26 23 27
REMARK SMILES IDX 24 28 25 29 26 30 27 31 28 32 29 33 30 34 31 35 32 36 84 37
REMARK SMILES IDX 33 38 83 39 34 40 35 41 36 42 77 43 37 44 82 45 76 46 78 47
REMARK SMILES IDX 38 48 81 49 75 50 74 51 39 53 65 54 48 55 64 56 49 57 52 58
REMARK SMILES IDX 63 59 79 60 50 61 51 62 62 64 80 65 53 66 40 67 41 68 46 69
REMARK SMILES IDX 42 70 43 71 45 72 47 73 44 74 66 75 67 76 72 77 68 78 69 79
REMARK SMILES IDX 71 80 73 81 70 82 54 83 55 84 60 85 56 86 57 87 59 88 61 89
REMARK SMILES IDX 58 90
REMARK H PARENT 1 11 1 12 1 13 12 24 78 52 52 63
REMARK Flexibility Score: inf
ROOT
ATOM      1  C   UNL A   1      34.401  30.451  27.066  1.00  0.00     0.188 C 
ENDROOT
BRANCH   1   2
ATOM      2  C   UNL A   1      34.177  28.949  27.315  1.00  0.00     0.188 C 
BRANCH   2   3
ATOM      3  O   UNL A   1      33.540  28.156  26.319  1.00  0.00    -0.376 OA
BRANCH   3   4
ATOM      4  C   UNL A   1      32.274  28.563  25.811  1.00  0.00     0.202 C 
BRANCH   4   5
ATOM      5  C   UNL A   1      31.804  28.049  24.448  1.00  0.00     0.261 C 
BRANCH   5   6
ATOM      6  O   UNL A   1      30.790  27.029  24.519  1.00  0.00    -0.459 OA
BRANCH   6   7
ATOM      7  C   UNL A   1      30.924  26.113  25.514  1.00  0.00     0.364 C 
ATOM      8  O   UNL A   1      30.294  26.133  26.568  1.00  0.00    -0.245 OA
BRANCH   7   9
ATOM      9  C   UNL A   1      32.006  25.053  25.238  1.00  0.00     0.292 C 
BRANCH   9  10
ATOM     10  N   UNL A   1      33.071  24.973  26.249  1.00  0.00    -0.346 N 
ATOM     11  H   UNL A   1      33.509  25.888  26.354  1.00  0.00     0.345 HD
ATOM     12  H   UNL A   1      33.771  24.292  25.953  1.00  0.00     0.345 HD
ATOM     13  H   UNL A   1      32.672  24.683  27.142  1.00  0.00     0.345 HD
ENDBRANCH   9  10
BRANCH   9  14
ATOM     14  C   UNL A   1      31.377  23.691  24.918  1.00  0.00     0.082 C 
BRANCH  14  15
ATOM     15  C   UNL A   1      32.065  22.838  23.841  1.00  0.00     0.045 C 
BRANCH  15  16
ATOM     16  C   UNL A   1      33.149  21.933  24.325  1.00  0.00     0.008 C 
ATOM     17  C   UNL A   1      34.458  22.044  24.119  1.00  0.00     0.051 A 
ATOM     18  C   UNL A   1      32.852  20.725  25.166  1.00  0.00     0.381 C 
ATOM     19  C   UNL A   1      35.300  22.967  23.434  1.00  0.00     0.015 A 
ATOM     20  C   UNL A   1      35.005  20.913  24.884  1.00  0.00     0.206 A 
ATOM     21  N   UNL A   1      34.167  20.113  25.470  1.00  0.00    -0.237 N 
ATOM     22  C   UNL A   1      36.629  22.835  23.564  1.00  0.00     0.001 A 
ATOM     23  C   UNL A   1      36.475  20.819  24.963  1.00  0.00     0.079 A 
ATOM     24  H   UNL A   1      34.359  19.299  25.989  1.00  0.00     0.446 HD
ATOM     25  C   UNL A   1      37.209  21.768  24.365  1.00  0.00     0.007 A 
ENDBRANCH  15  16
ENDBRANCH  14  15
ENDBRANCH   9  14
ENDBRANCH   7   9
ENDBRANCH   6   7
ENDBRANCH   5   6
ENDBRANCH   4   5
ENDBRANCH   3   4
ENDBRANCH   2   3
ENDBRANCH   1   2
BRANCH   1  26
ATOM     26  O   UNL A   1      34.761  31.191  28.223  1.00  0.00    -0.377 OA
BRANCH  26  27
ATOM     27  C   UNL A   1      34.246  32.518  28.293  1.00  0.00     0.188 C 
BRANCH  27  28
ATOM     28  C   UNL A   1      34.794  33.444  29.400  1.00  0.00     0.188 C 
BRANCH  28  29
ATOM     29  O   UNL A   1      34.049  33.392  30.611  1.00  0.00    -0.376 OA
BRANCH  29  30
ATOM     30  C   UNL A   1      34.500  34.177  31.707  1.00  0.00     0.202 C 
BRANCH  30  31
ATOM     31  C   UNL A   1      34.733  33.435  33.033  1.00  0.00     0.261 C 
BRANCH  31  32
ATOM     32  O   UNL A   1      35.463  32.199  32.957  1.00  0.00    -0.460 OA
BRANCH  32  33
ATOM     33  C   UNL A   1      36.640  32.104  33.610  1.00  0.00     0.338 C 
ATOM     34  O   UNL A   1      36.855  32.347  34.783  1.00  0.00    -0.246 OA
BRANCH  33  35
ATOM     35  C   UNL A   1      37.612  31.465  32.696  1.00  0.00     0.060 A 
ATOM     36  C   UNL A   1      37.517  31.656  31.314  1.00  0.00     0.016 A 
ATOM     37  C   UNL A   1      38.635  30.671  33.229  1.00  0.00     0.016 A 
ATOM     38  C   UNL A   1      38.478  31.093  30.472  1.00  0.00     0.010 A 
ATOM     39  C   UNL A   1      39.594  30.104  32.383  1.00  0.00     0.010 A 
ATOM     40  C   UNL A   1      39.541  30.338  31.001  1.00  0.00    -0.014 A 
BRANCH  40  41
ATOM     41  C   UNL A   1      40.680  29.961  30.123  1.00  0.00     0.031 A 
ATOM     42  C   UNL A   1      41.786  30.907  29.776  1.00  0.00     0.074 A 
ATOM     43  C   UNL A   1      40.694  28.717  29.618  1.00  0.00     0.049 A 
ATOM     44  N   UNL A   1      42.903  30.705  29.124  1.00  0.00    -0.248 NA
ATOM     45  C   UNL A   1      41.602  32.283  30.224  1.00  0.00     0.031 C 
ATOM     46  C   UNL A   1      39.653  27.711  29.833  1.00  0.00     0.029 A 
ATOM     47  N   UNL A   1      41.616  28.090  28.828  1.00  0.00    -0.354 N 
ATOM     48  C   UNL A   1      43.564  31.930  29.110  1.00  0.00     0.074 A 
ATOM     49  C   UNL A   1      42.701  32.877  29.783  1.00  0.00     0.031 C 
ATOM     50  C   UNL A   1      40.008  26.581  29.206  1.00  0.00     0.029 A 
ATOM     51  C   UNL A   1      41.286  26.794  28.533  1.00  0.00     0.049 A 
ATOM     52  H   UNL A   1      42.437  28.527  28.503  1.00  0.00     0.167 HD
ATOM     53  C   UNL A   1      44.778  32.233  28.588  1.00  0.00     0.037 A 
ATOM     54  C   UNL A   1      41.948  25.878  27.805  1.00  0.00     0.037 A 
ATOM     55  C   UNL A   1      45.603  31.288  27.879  1.00  0.00     0.049 A 
ATOM     56  C   UNL A   1      43.283  26.232  27.218  1.00  0.00     0.074 A 
ATOM     57  C   UNL A   1      46.868  31.470  27.344  1.00  0.00     0.029 A 
ATOM     58  N   UNL A   1      45.229  29.986  27.583  1.00  0.00    -0.354 N 
ATOM     59  N   UNL A   1      43.951  27.357  27.296  1.00  0.00    -0.248 NA
ATOM     60  C   UNL A   1      43.960  25.178  26.453  1.00  0.00     0.031 C 
ATOM     61  C   UNL A   1      47.233  30.293  26.679  1.00  0.00     0.029 A 
ATOM     62  C   UNL A   1      46.221  29.362  26.847  1.00  0.00     0.049 A 
ATOM     63  H   UNL A   1      44.381  29.567  27.857  1.00  0.00     0.167 HD
ATOM     64  C   UNL A   1      45.137  27.143  26.606  1.00  0.00     0.074 A 
ATOM     65  C   UNL A   1      45.103  25.771  26.139  1.00  0.00     0.031 C 
ATOM     66  C   UNL A   1      46.162  28.001  26.377  1.00  0.00     0.037 A 
BRANCH  53  67
ATOM     67  C   UNL A   1      45.283  33.640  28.752  1.00  0.00     0.057 A 
ATOM     68  C   UNL A   1      44.996  34.625  27.797  1.00  0.00     0.134 A 
ATOM     69  C   UNL A   1      46.102  34.009  29.827  1.00  0.00     0.134 A 
ATOM     70  F   UNL A   1      44.225  34.342  26.737  1.00  0.00    -0.206 F 
ATOM     71  C   UNL A   1      45.507  35.922  27.905  1.00  0.00     0.040 A 
ATOM     72  C   UNL A   1      46.598  35.309  29.959  1.00  0.00     0.040 A 
ATOM     73  F   UNL A   1      46.414  33.119  30.782  1.00  0.00    -0.206 F 
ATOM     74  C   UNL A   1      46.306  36.268  28.991  1.00  0.00     0.006 A 
ENDBRANCH  53  67
BRANCH  54  75
ATOM     75  C   UNL A   1      41.358  24.531  27.629  1.00  0.00     0.057 A 
ATOM     76  C   UNL A   1      40.307  24.309  26.732  1.00  0.00     0.134 A 
ATOM     77  C   UNL A   1      41.816  23.439  28.374  1.00  0.00     0.134 A 
ATOM     78  F   UNL A   1      39.813  25.323  26.004  1.00  0.00    -0.206 F 
ATOM     79  C   UNL A   1      39.725  23.051  26.587  1.00  0.00     0.040 A 
ATOM     80  C   UNL A   1      41.262  22.169  28.220  1.00  0.00     0.040 A 
ATOM     81  F   UNL A   1      42.826  23.592  29.243  1.00  0.00    -0.206 F 
ATOM     82  C   UNL A   1      40.208  21.975  27.328  1.00  0.00     0.006 A 
ENDBRANCH  54  75
BRANCH  66  83
ATOM     83  C   UNL A   1      47.330  27.471  25.597  1.00  0.00     0.057 A 
ATOM     84  C   UNL A   1      48.383  26.813  26.244  1.00  0.00     0.134 A 
ATOM     85  C   UNL A   1      47.418  27.620  24.206  1.00  0.00     0.134 A 
ATOM     86  F   UNL A   1      48.367  26.645  27.575  1.00  0.00    -0.206 F 
ATOM     87  C   UNL A   1      49.479  26.319  25.536  1.00  0.00     0.040 A 
ATOM     88  C   UNL A   1      48.494  27.103  23.484  1.00  0.00     0.040 A 
ATOM     89  F   UNL A   1      46.435  28.229  23.525  1.00  0.00    -0.206 F 
ATOM     90  C   UNL A   1      49.531  26.454  24.150  1.00  0.00     0.006 A 
ENDBRANCH  66  83
ENDBRANCH  40  41
ENDBRANCH  33  35
ENDBRANCH  32  33
ENDBRANCH  31  32
ENDBRANCH  30  31
ENDBRANCH  29  30
ENDBRANCH  28  29
ENDBRANCH  27  28
ENDBRANCH  26  27
ENDBRANCH   1  26
TORSDOF 24
ENDMDL
MODEL 2
REMARK VINA RESULT:      -9.4      0.791      6.110
REMARK SMILES [NH3+][C@@H](CCC1=c2ccccc2=[NH+]C1)C(=O)OCCOCCOCCOCCOC(=O)c1ccc(-c2c3nc(c(-c4c(F)cccc4F)c4ccc([nH]4)c(-c4c(F)cccc4F)c4nc(c(-c5c(F)cccc5F)c5ccc2[nH]5)C=C4)C=C3)cc1
REMARK SMILES IDX 21 1 20 2 19 3 18 4 17 5 16 6 14 7 15 8 2 9 1 10 3 14 4 15
REMARK SMILES IDX 5 16 6 17 13 18 7 19 11 20 12 21 8 22 10 23 9 25 22 26 23 27
REMARK SMILES IDX 24 28 25 29 26 30 27 31 28 32 29 33 30 34 31 35 32 36 84 37
REMARK SMILES IDX 33 38 83 39 34 40 35 41 36 42 77 43 37 44 82 45 76 46 78 47
REMARK SMILES IDX 38 48 81 49 75 50 74 51 39 53 65 54 48 55 64 56 49 57 52 58
REMARK SMILES IDX 63 59 79 60 50 61 51 62 62 64 80 65 53 66 40 67 41 68 46 69
REMARK SMILES IDX 42 70 43 71 45 72 47 73 44 74 66 75 67 76 72 77 68 78 69 79
REMARK SMILES IDX 71 80 73 81 70 82 54 83 55 84 60 85 56 86 57 87 59 88 61 89
REMARK SMILES IDX 58 90
REMARK H PARENT 1 11 1 12 1 13 12 24 78 52 52 63
REMARK Flexibility Score: inf
ROOT
ATOM      1  C   UNL A   1      34.918  30.419  27.721  1.00  0.00     0.188 C 
ENDROOT
BRANCH   1   2
ATOM      2  C   UNL A   1      33.514  30.000  27.252  1.00  0.00     0.188 C 
BRANCH   2   3
ATOM      3  O   UNL A   1      33.093  30.304  25.926  1.00  0.00    -0.376 OA
BRANCH   3   4
ATOM      4  C   UNL A   1      31.993  29.595  25.366  1.00  0.00     0.202 C 
BRANCH   4   5
ATOM      5  C   UNL A   1      31.489  28.320  26.045  1.00  0.00     0.261 C 
BRANCH   5   6
ATOM      6  O   UNL A   1      30.731  27.451  25.182  1.00  0.00    -0.459 OA
BRANCH   6   7
ATOM      7  C   UNL A   1      30.703  26.137  25.524  1.00  0.00     0.364 C 
ATOM      8  O   UNL A   1      30.115  25.683  26.501  1.00  0.00    -0.245 OA
BRANCH   7   9
ATOM      9  C   UNL A   1      31.545  25.240  24.598  1.00  0.00     0.292 C 
BRANCH   9  10
ATOM     10  N   UNL A   1      32.966  25.607  24.500  1.00  0.00    -0.346 N 
ATOM     11  H   UNL A   1      33.066  26.614  24.626  1.00  0.00     0.345 HD
ATOM     12  H   UNL A   1      33.324  25.341  23.582  1.00  0.00     0.345 HD
ATOM     13  H   UNL A   1      33.495  25.120  25.224  1.00  0.00     0.345 HD
ENDBRANCH   9  10
BRANCH   9  14
ATOM     14  C   UNL A   1      31.329  23.755  24.919  1.00  0.00     0.082 C 
BRANCH  14  15
ATOM     15  C   UNL A   1      31.858  22.735  23.899  1.00  0.00     0.045 C 
BRANCH  15  16
ATOM     16  C   UNL A   1      32.963  21.853  24.378  1.00  0.00     0.008 C 
ATOM     17  C   UNL A   1      34.269  21.994  24.167  1.00  0.00     0.051 A 
ATOM     18  C   UNL A   1      32.696  20.638  25.217  1.00  0.00     0.381 C 
ATOM     19  C   UNL A   1      35.088  22.937  23.480  1.00  0.00     0.015 A 
ATOM     20  C   UNL A   1      34.844  20.874  24.927  1.00  0.00     0.206 A 
ATOM     21  N   UNL A   1      34.027  20.055  25.514  1.00  0.00    -0.237 N 
ATOM     22  C   UNL A   1      36.420  22.834  23.605  1.00  0.00     0.001 A 
ATOM     23  C   UNL A   1      36.316  20.813  25.001  1.00  0.00     0.079 A 
ATOM     24  H   UNL A   1      34.239  19.244  26.032  1.00  0.00     0.446 HD
ATOM     25  C   UNL A   1      37.027  21.780  24.402  1.00  0.00     0.007 A 
ENDBRANCH  15  16
ENDBRANCH  14  15
ENDBRANCH   9  14
ENDBRANCH   7   9
ENDBRANCH   6   7
ENDBRANCH   5   6
ENDBRANCH   4   5
ENDBRANCH   3   4
ENDBRANCH   2   3
ENDBRANCH   1   2
BRANCH   1  26
ATOM     26  O   UNL A   1      35.191  31.805  27.589  1.00  0.00    -0.377 OA
BRANCH  26  27
ATOM     27  C   UNL A   1      34.379  32.673  28.376  1.00  0.00     0.188 C 
BRANCH  27  28
ATOM     28  C   UNL A   1      34.709  34.181  28.354  1.00  0.00     0.188 C 
BRANCH  28  29
ATOM     29  O   UNL A   1      34.175  34.900  29.460  1.00  0.00    -0.376 OA
BRANCH  29  30
ATOM     30  C   UNL A   1      34.029  34.212  30.696  1.00  0.00     0.202 C 
BRANCH  30  31
ATOM     31  C   UNL A   1      35.127  34.444  31.746  1.00  0.00     0.261 C 
BRANCH  31  32
ATOM     32  O   UNL A   1      36.344  33.697  31.578  1.00  0.00    -0.460 OA
BRANCH  32  33
ATOM     33  C   UNL A   1      36.467  32.514  32.215  1.00  0.00     0.338 C 
ATOM     34  O   UNL A   1      35.755  32.073  33.098  1.00  0.00    -0.246 OA
BRANCH  33  35
ATOM     35  C   UNL A   1      37.524  31.740  31.526  1.00  0.00     0.060 A 
ATOM     36  C   UNL A   1      37.529  31.632  30.133  1.00  0.00     0.016 A 
ATOM     37  C   UNL A   1      38.524  31.121  32.286  1.00  0.00     0.016 A 
ATOM     38  C   UNL A   1      38.567  30.946  29.498  1.00  0.00     0.010 A 
ATOM     39  C   UNL A   1      39.560  30.431  31.648  1.00  0.00     0.010 A 
ATOM     40  C   UNL A   1      39.607  30.366  30.247  1.00  0.00    -0.014 A 
BRANCH  40  41
ATOM     41  C   UNL A   1      40.819  29.863  29.550  1.00  0.00     0.031 A 
ATOM     42  C   UNL A   1      40.942  28.460  29.042  1.00  0.00     0.074 A 
ATOM     43  C   UNL A   1      41.846  30.713  29.390  1.00  0.00     0.049 A 
ATOM     44  N   UNL A   1      41.875  27.897  28.319  1.00  0.00    -0.248 NA
ATOM     45  C   UNL A   1      39.854  27.561  29.411  1.00  0.00     0.031 C 
ATOM     46  C   UNL A   1      41.881  32.090  29.882  1.00  0.00     0.029 A 
ATOM     47  N   UNL A   1      43.050  30.543  28.766  1.00  0.00    -0.354 N 
ATOM     48  C   UNL A   1      41.468  26.580  28.126  1.00  0.00     0.074 A 
ATOM     49  C   UNL A   1      40.223  26.420  28.846  1.00  0.00     0.031 C 
ATOM     50  C   UNL A   1      43.044  32.650  29.520  1.00  0.00     0.029 A 
ATOM     51  C   UNL A   1      43.837  31.664  28.791  1.00  0.00     0.049 A 
ATOM     52  H   UNL A   1      43.325  29.699  28.340  1.00  0.00     0.167 HD
ATOM     53  C   UNL A   1      42.074  25.600  27.412  1.00  0.00     0.037 A 
ATOM     54  C   UNL A   1      45.060  31.873  28.275  1.00  0.00     0.037 A 
ATOM     55  C   UNL A   1      43.339  25.764  26.741  1.00  0.00     0.049 A 
ATOM     56  C   UNL A   1      45.728  30.774  27.502  1.00  0.00     0.074 A 
ATOM     57  C   UNL A   1      44.028  24.857  25.954  1.00  0.00     0.029 A 
ATOM     58  N   UNL A   1      44.117  26.911  26.802  1.00  0.00    -0.354 N 
ATOM     59  N   UNL A   1      45.294  29.566  27.234  1.00  0.00    -0.248 NA
ATOM     60  C   UNL A   1      47.054  31.076  26.948  1.00  0.00     0.031 C 
ATOM     61  C   UNL A   1      45.247  25.437  25.585  1.00  0.00     0.029 A 
ATOM     62  C   UNL A   1      45.293  26.724  26.095  1.00  0.00     0.049 A 
ATOM     63  H   UNL A   1      43.869  27.735  27.278  1.00  0.00     0.167 HD
ATOM     64  C   UNL A   1      46.283  28.969  26.464  1.00  0.00     0.074 A 
ATOM     65  C   UNL A   1      47.328  29.960  26.290  1.00  0.00     0.031 C 
ATOM     66  C   UNL A   1      46.328  27.716  25.947  1.00  0.00     0.037 A 
BRANCH  53  67
ATOM     67  C   UNL A   1      41.389  24.264  27.329  1.00  0.00     0.057 A 
ATOM     68  C   UNL A   1      40.244  24.089  26.539  1.00  0.00     0.134 A 
ATOM     69  C   UNL A   1      41.828  23.162  28.074  1.00  0.00     0.134 A 
ATOM     70  F   UNL A   1      39.761  25.102  25.805  1.00  0.00    -0.206 F 
ATOM     71  C   UNL A   1      39.562  22.870  26.497  1.00  0.00     0.040 A 
ATOM     72  C   UNL A   1      41.169  21.930  28.021  1.00  0.00     0.040 A 
ATOM     73  F   UNL A   1      42.921  23.256  28.848  1.00  0.00    -0.206 F 
ATOM     74  C   UNL A   1      40.028  21.785  27.236  1.00  0.00     0.006 A 
ENDBRANCH  53  67
BRANCH  54  75
ATOM     75  C   UNL A   1      45.704  33.195  28.453  1.00  0.00     0.057 A 
ATOM     76  C   UNL A   1      45.505  34.230  27.532  1.00  0.00     0.134 A 
ATOM     77  C   UNL A   1      46.553  33.445  29.536  1.00  0.00     0.134 A 
ATOM     78  F   UNL A   1      44.716  34.043  26.463  1.00  0.00    -0.206 F 
ATOM     79  C   UNL A   1      46.136  35.465  27.675  1.00  0.00     0.040 A 
ATOM     80  C   UNL A   1      47.170  34.683  29.707  1.00  0.00     0.040 A 
ATOM     81  F   UNL A   1      46.775  32.491  30.453  1.00  0.00    -0.206 F 
ATOM     82  C   UNL A   1      46.966  35.696  28.770  1.00  0.00     0.006 A 
ENDBRANCH  54  75
BRANCH  66  83
ATOM     83  C   UNL A   1      47.541  27.357  25.138  1.00  0.00     0.057 A 
ATOM     84  C   UNL A   1      47.589  27.624  23.765  1.00  0.00     0.134 A 
ATOM     85  C   UNL A   1      48.657  26.740  25.717  1.00  0.00     0.134 A 
ATOM     86  F   UNL A   1      46.549  28.205  23.147  1.00  0.00    -0.206 F 
ATOM     87  C   UNL A   1      48.705  27.293  22.996  1.00  0.00     0.040 A 
ATOM     88  C   UNL A   1      49.791  26.432  24.965  1.00  0.00     0.040 A 
ATOM     89  F   UNL A   1      48.680  26.469  27.031  1.00  0.00    -0.206 F 
ATOM     90  C   UNL A   1      49.815  26.704  23.598  1.00  0.00     0.006 A 
ENDBRANCH  66  83
ENDBRANCH  40  41
ENDBRANCH  33  35
ENDBRANCH  32  33
ENDBRANCH  31  32
ENDBRANCH  30  31
ENDBRANCH  29  30
ENDBRANCH  28  29
ENDBRANCH  27  28
ENDBRANCH  26  27
ENDBRANCH   1  26
TORSDOF 24
ENDMDL
MODEL 3
REMARK VINA RESULT:      -9.3      1.379      6.382
REMARK SMILES [NH3+][C@@H](CCC1=c2ccccc2=[NH+]C1)C(=O)OCCOCCOCCOCCOC(=O)c1ccc(-c2c3nc(c(-c4c(F)cccc4F)c4ccc([nH]4)c(-c4c(F)cccc4F)c4nc(c(-c5c(F)cccc5F)c5ccc2[nH]5)C=C4)C=C3)cc1
REMARK SMILES IDX 21 1 20 2 19 3 18 4 17 5 16 6 14 7 15 8 2 9 1 10 3 14 4 15
REMARK SMILES IDX 5 16 6 17 13 18 7 19 11 20 12 21 8 22 10 23 9 25 22 26 23 27
REMARK SMILES IDX 24 28 25 29 26 30 27 31 28 32 29 33 30 34 31 35 32 36 84 37
REMARK SMILES IDX 33 38 83 39 34 40 35 41 36 42 77 43 37 44 82 45 76 46 78 47
REMARK SMILES IDX 38 48 81 49 75 50 74 51 39 53 65 54 48 55 64 56 49 57 52 58
REMARK SMILES IDX 63 59 79 60 50 61 51 62 62 64 80 65 53 66 40 67 41 68 46 69
REMARK SMILES IDX 42 70 43 71 45 72 47 73 44 74 66 75 67 76 72 77 68 78 69 79
REMARK SMILES IDX 71 80 73 81 70 82 54 83 55 84 60 85 56 86 57 87 59 88 61 89
REMARK SMILES IDX 58 90
REMARK H PARENT 1 11 1 12 1 13 12 24 78 52 52 63
REMARK Flexibility Score: inf
ROOT
ATOM      1  C   UNL A   1      35.474  33.244  28.048  1.00  0.00     0.188 C 
ENDROOT
BRANCH   1   2
ATOM      2  C   UNL A   1      34.929  31.805  28.036  1.00  0.00     0.188 C 
BRANCH   2   3
ATOM      3  O   UNL A   1      33.624  31.549  27.528  1.00  0.00    -0.376 OA
BRANCH   3   4
ATOM      4  C   UNL A   1      33.311  30.248  27.041  1.00  0.00     0.202 C 
BRANCH   4   5
ATOM      5  C   UNL A   1      32.478  30.098  25.766  1.00  0.00     0.261 C 
BRANCH   5   6
ATOM      6  O   UNL A   1      32.746  28.894  25.024  1.00  0.00    -0.459 OA
BRANCH   6   7
ATOM      7  C   UNL A   1      31.907  28.623  23.990  1.00  0.00     0.364 C 
ATOM      8  O   UNL A   1      32.035  29.069  22.854  1.00  0.00    -0.245 OA
BRANCH   7   9
ATOM      9  C   UNL A   1      30.709  27.737  24.382  1.00  0.00     0.292 C 
BRANCH   9  10
ATOM     10  N   UNL A   1      30.036  27.068  23.257  1.00  0.00    -0.346 N 
ATOM     11  H   UNL A   1      29.414  26.344  23.616  1.00  0.00     0.345 HD
ATOM     12  H   UNL A   1      30.735  26.646  22.645  1.00  0.00     0.345 HD
ATOM     13  H   UNL A   1      29.493  27.753  22.731  1.00  0.00     0.345 HD
ENDBRANCH   9  10
BRANCH   9  14
ATOM     14  C   UNL A   1      31.080  26.775  25.518  1.00  0.00     0.082 C 
BRANCH  14  15
ATOM     15  C   UNL A   1      30.548  25.337  25.420  1.00  0.00     0.045 C 
BRANCH  15  16
ATOM     16  C   UNL A   1      31.436  24.279  25.983  1.00  0.00     0.008 C 
ATOM     17  C   UNL A   1      32.754  24.164  25.851  1.00  0.00     0.051 A 
ATOM     18  C   UNL A   1      30.895  23.161  26.827  1.00  0.00     0.381 C 
ATOM     19  C   UNL A   1      33.776  24.914  25.199  1.00  0.00     0.015 A 
ATOM     20  C   UNL A   1      33.061  22.979  26.667  1.00  0.00     0.206 A 
ATOM     21  N   UNL A   1      32.070  22.347  27.218  1.00  0.00    -0.237 N 
ATOM     22  C   UNL A   1      35.055  24.565  25.409  1.00  0.00     0.001 A 
ATOM     23  C   UNL A   1      34.488  22.643  26.834  1.00  0.00     0.079 A 
ATOM     24  H   UNL A   1      32.094  21.527  27.763  1.00  0.00     0.446 HD
ATOM     25  C   UNL A   1      35.403  23.440  26.262  1.00  0.00     0.007 A 
ENDBRANCH  15  16
ENDBRANCH  14  15
ENDBRANCH   9  14
ENDBRANCH   7   9
ENDBRANCH   6   7
ENDBRANCH   5   6
ENDBRANCH   4   5
ENDBRANCH   3   4
ENDBRANCH   2   3
ENDBRANCH   1   2
BRANCH   1  26
ATOM     26  O   UNL A   1      34.565  34.219  27.561  1.00  0.00    -0.377 OA
BRANCH  26  27
ATOM     27  C   UNL A   1      34.224  35.258  28.476  1.00  0.00     0.188 C 
BRANCH  27  28
ATOM     28  C   UNL A   1      33.386  34.877  29.715  1.00  0.00     0.188 C 
BRANCH  28  29
ATOM     29  O   UNL A   1      33.836  35.487  30.920  1.00  0.00    -0.376 OA
BRANCH  29  30
ATOM     30  C   UNL A   1      34.706  34.742  31.761  1.00  0.00     0.202 C 
BRANCH  30  31
ATOM     31  C   UNL A   1      34.242  33.329  32.150  1.00  0.00     0.261 C 
BRANCH  31  32
ATOM     32  O   UNL A   1      35.161  32.256  31.884  1.00  0.00    -0.460 OA
BRANCH  32  33
ATOM     33  C   UNL A   1      36.209  32.084  32.716  1.00  0.00     0.338 C 
ATOM     34  O   UNL A   1      36.257  32.335  33.906  1.00  0.00    -0.246 OA
BRANCH  33  35
ATOM     35  C   UNL A   1      37.259  31.355  31.971  1.00  0.00     0.060 A 
ATOM     36  C   UNL A   1      37.340  31.454  30.579  1.00  0.00     0.016 A 
ATOM     37  C   UNL A   1      38.178  30.568  32.676  1.00  0.00     0.016 A 
ATOM     38  C   UNL A   1      38.373  30.805  29.899  1.00  0.00     0.010 A 
ATOM     39  C   UNL A   1      39.209  29.915  31.993  1.00  0.00     0.010 A 
ATOM     40  C   UNL A   1      39.334  30.055  30.603  1.00  0.00    -0.014 A 
BRANCH  40  41
ATOM     41  C   UNL A   1      40.555  29.584  29.899  1.00  0.00     0.031 A 
ATOM     42  C   UNL A   1      40.682  28.207  29.325  1.00  0.00     0.074 A 
ATOM     43  C   UNL A   1      41.585  30.439  29.793  1.00  0.00     0.049 A 
ATOM     44  N   UNL A   1      41.625  27.678  28.587  1.00  0.00    -0.248 NA
ATOM     45  C   UNL A   1      39.589  27.293  29.636  1.00  0.00     0.031 C 
ATOM     46  C   UNL A   1      41.614  31.791  30.352  1.00  0.00     0.029 A 
ATOM     47  N   UNL A   1      42.796  30.297  29.177  1.00  0.00    -0.354 N 
ATOM     48  C   UNL A   1      41.218  26.372  28.327  1.00  0.00     0.074 A 
ATOM     49  C   UNL A   1      39.964  26.180  29.021  1.00  0.00     0.031 C 
ATOM     50  C   UNL A   1      42.782  32.365  30.032  1.00  0.00     0.029 A 
ATOM     51  C   UNL A   1      43.584  31.415  29.267  1.00  0.00     0.049 A 
ATOM     52  H   UNL A   1      43.076  29.474  28.714  1.00  0.00     0.167 HD
ATOM     53  C   UNL A   1      41.833  25.427  27.574  1.00  0.00     0.037 A 
ATOM     54  C   UNL A   1      44.814  31.646  28.778  1.00  0.00     0.037 A 
ATOM     55  C   UNL A   1      43.107  25.621  26.928  1.00  0.00     0.049 A 
ATOM     56  C   UNL A   1      45.491  30.584  27.961  1.00  0.00     0.074 A 
ATOM     57  C   UNL A   1      43.806  24.752  26.107  1.00  0.00     0.029 A 
ATOM     58  N   UNL A   1      43.886  26.762  27.054  1.00  0.00    -0.354 N 
ATOM     59  N   UNL A   1      45.059  29.392  27.629  1.00  0.00    -0.248 NA
ATOM     60  C   UNL A   1      46.824  30.911  27.440  1.00  0.00     0.031 C 
ATOM     61  C   UNL A   1      45.030  25.347  25.783  1.00  0.00     0.029 A 
ATOM     62  C   UNL A   1      45.070  26.608  26.355  1.00  0.00     0.049 A 
ATOM     63  H   UNL A   1      43.632  27.563  27.567  1.00  0.00     0.167 HD
ATOM     64  C   UNL A   1      46.058  28.831  26.845  1.00  0.00     0.074 A 
ATOM     65  C   UNL A   1      47.106  29.827  26.732  1.00  0.00     0.031 C 
ATOM     66  C   UNL A   1      46.108  27.604  26.269  1.00  0.00     0.037 A 
BRANCH  53  67
ATOM     67  C   UNL A   1      41.148  24.098  27.417  1.00  0.00     0.057 A 
ATOM     68  C   UNL A   1      41.624  22.958  28.080  1.00  0.00     0.134 A 
ATOM     69  C   UNL A   1      40.049  23.930  26.564  1.00  0.00     0.134 A 
ATOM     70  F   UNL A   1      42.677  23.041  28.907  1.00  0.00    -0.206 F 
ATOM     71  C   UNL A   1      41.034  21.704  27.899  1.00  0.00     0.040 A 
ATOM     72  C   UNL A   1      39.435  22.686  26.393  1.00  0.00     0.040 A 
ATOM     73  F   UNL A   1      39.537  24.978  25.901  1.00  0.00    -0.206 F 
ATOM     74  C   UNL A   1      39.933  21.567  27.057  1.00  0.00     0.006 A 
ENDBRANCH  53  67
BRANCH  54  75
ATOM     75  C   UNL A   1      45.457  32.957  29.028  1.00  0.00     0.057 A 
ATOM     76  C   UNL A   1      46.273  33.164  30.147  1.00  0.00     0.134 A 
ATOM     77  C   UNL A   1      45.249  34.039  28.167  1.00  0.00     0.134 A 
ATOM     78  F   UNL A   1      46.493  32.167  31.018  1.00  0.00    -0.206 F 
ATOM     79  C   UNL A   1      46.853  34.404  30.406  1.00  0.00     0.040 A 
ATOM     80  C   UNL A   1      45.844  35.278  28.400  1.00  0.00     0.040 A 
ATOM     81  F   UNL A   1      44.482  33.896  27.077  1.00  0.00    -0.206 F 
ATOM     82  C   UNL A   1      46.644  35.464  29.526  1.00  0.00     0.006 A 
ENDBRANCH  54  75
BRANCH  66  83
ATOM     83  C   UNL A   1      47.331  27.283  25.459  1.00  0.00     0.057 A 
ATOM     84  C   UNL A   1      48.425  26.633  26.044  1.00  0.00     0.134 A 
ATOM     85  C   UNL A   1      47.430  27.624  24.104  1.00  0.00     0.134 A 
ATOM     86  F   UNL A   1      48.399  26.287  27.340  1.00  0.00    -0.206 F 
ATOM     87  C   UNL A   1      49.572  26.331  25.309  1.00  0.00     0.040 A 
ATOM     88  C   UNL A   1      48.559  27.300  23.351  1.00  0.00     0.040 A 
ATOM     89  F   UNL A   1      46.411  28.236  23.481  1.00  0.00    -0.206 F 
ATOM     90  C   UNL A   1      49.636  26.655  23.956  1.00  0.00     0.006 A 
ENDBRANCH  66  83
ENDBRANCH  40  41
ENDBRANCH  33  35
ENDBRANCH  32  33
ENDBRANCH  31  32
ENDBRANCH  30  31
ENDBRANCH  29  30
ENDBRANCH  28  29
ENDBRANCH  27  28
ENDBRANCH  26  27
ENDBRANCH   1  26
TORSDOF 24
ENDMDL
