MODEL 1
REMARK VINA RESULT:      -9.5      0.000      0.000
REMARK SMILES O=C(OCCOCCOCCOCCOC(=O)c1cn(C2CN(C(=O)Nc3ccsc3)C2)nn1)c1ccc(-c2c3nc(c(-c4c(F)cccc4F)c4ccc([nH]4)c(-c4c(F)cccc4F)c4nc(c(-c5c(F)cccc5F)c5ccc2[nH]5)C=C4)C=C3)cc1
REMARK SMILES IDX 9 1 8 2 7 3 6 4 5 5 4 6 3 7 2 8 1 9 35 10 36 11 88 12 37 13
REMARK SMILES IDX 87 14 38 15 39 16 40 17 81 18 41 19 86 20 80 21 82 22 42 23
REMARK SMILES IDX 85 24 79 25 78 26 43 28 69 29 52 30 68 31 53 32 56 33 67 34
REMARK SMILES IDX 83 35 54 36 55 37 66 39 84 40 57 41 44 42 45 43 50 44 46 45
REMARK SMILES IDX 47 46 49 47 51 48 48 49 70 50 71 51 76 52 72 53 73 54 75 55
REMARK SMILES IDX 77 56 74 57 58 58 59 59 64 60 60 61 61 62 63 63 65 64 62 65
REMARK SMILES IDX 10 66 11 67 12 68 13 69 14 70 15 71 16 72 17 73 18 74 19 75
REMARK SMILES IDX 34 76 20 77 33 78 21 79 22 80 32 81 23 82 24 83 25 84 26 85
REMARK SMILES IDX 27 87 28 88 31 89 29 90 30 91
REMARK H PARENT 82 27 56 38 26 86
REMARK Flexibility Score: inf
ROOT
ATOM      1  O   UNL A   1      33.012  27.523  22.584  1.00  0.00    -0.377 OA
ENDROOT
BRANCH   1   2
ATOM      2  C   UNL A   1      31.871  27.853  23.357  1.00  0.00     0.188 C 
BRANCH   2   3
ATOM      3  C   UNL A   1      32.032  29.079  24.269  1.00  0.00     0.188 C 
BRANCH   3   4
ATOM      4  O   UNL A   1      33.188  29.370  25.047  1.00  0.00    -0.376 OA
BRANCH   4   5
ATOM      5  C   UNL A   1      33.291  29.296  26.452  1.00  0.00     0.202 C 
BRANCH   5   6
ATOM      6  C   UNL A   1      34.625  29.002  27.146  1.00  0.00     0.261 C 
BRANCH   6   7
ATOM      7  O   UNL A   1      35.253  30.105  27.794  1.00  0.00    -0.460 OA
BRANCH   7   8
ATOM      8  C   UNL A   1      36.253  30.133  28.698  1.00  0.00     0.338 C 
ATOM      9  O   UNL A   1      36.104  30.843  29.692  1.00  0.00    -0.246 OA
BRANCH   8  10
ATOM     10  C   UNL A   1      37.547  29.404  28.554  1.00  0.00     0.060 A 
ATOM     11  C   UNL A   1      38.073  28.465  29.442  1.00  0.00     0.016 A 
ATOM     12  C   UNL A   1      38.291  29.719  27.400  1.00  0.00     0.016 A 
ATOM     13  C   UNL A   1      39.355  27.972  29.274  1.00  0.00     0.010 A 
ATOM     14  C   UNL A   1      39.563  29.202  27.205  1.00  0.00     0.010 A 
ATOM     15  C   UNL A   1      40.115  28.389  28.189  1.00  0.00    -0.014 A 
BRANCH  15  16
ATOM     16  C   UNL A   1      41.514  27.993  28.182  1.00  0.00     0.031 A 
ATOM     17  C   UNL A   1      41.854  26.691  27.552  1.00  0.00     0.074 A 
ATOM     18  C   UNL A   1      42.458  28.800  28.702  1.00  0.00     0.049 A 
ATOM     19  N   UNL A   1      42.496  25.690  28.067  1.00  0.00    -0.248 NA
ATOM     20  C   UNL A   1      41.383  26.461  26.179  1.00  0.00     0.031 C 
ATOM     21  C   UNL A   1      42.314  30.197  29.123  1.00  0.00     0.029 A 
ATOM     22  N   UNL A   1      43.787  28.558  28.860  1.00  0.00    -0.354 N 
ATOM     23  C   UNL A   1      42.659  24.768  27.035  1.00  0.00     0.074 A 
ATOM     24  C   UNL A   1      41.880  25.251  25.923  1.00  0.00     0.031 C 
ATOM     25  C   UNL A   1      43.542  30.740  29.266  1.00  0.00     0.029 A 
ATOM     26  C   UNL A   1      44.537  29.700  29.077  1.00  0.00     0.049 A 
ATOM     27  H   UNL A   1      44.178  27.656  28.823  1.00  0.00     0.167 HD
ATOM     28  C   UNL A   1      43.566  23.756  27.099  1.00  0.00     0.037 A 
ATOM     29  C   UNL A   1      45.885  29.801  29.021  1.00  0.00     0.037 A 
ATOM     30  C   UNL A   1      43.936  23.437  28.449  1.00  0.00     0.049 A 
ATOM     31  C   UNL A   1      46.457  28.443  29.167  1.00  0.00     0.074 A 
ATOM     32  C   UNL A   1      43.251  22.997  29.565  1.00  0.00     0.029 A 
ATOM     33  N   UNL A   1      45.168  23.828  28.907  1.00  0.00    -0.354 N 
ATOM     34  N   UNL A   1      46.444  27.751  30.272  1.00  0.00    -0.248 NA
ATOM     35  C   UNL A   1      46.715  27.677  27.956  1.00  0.00     0.031 C 
ATOM     36  C   UNL A   1      43.918  23.597  30.673  1.00  0.00     0.029 A 
ATOM     37  C   UNL A   1      44.973  24.350  30.159  1.00  0.00     0.049 A 
ATOM     38  H   UNL A   1      46.024  23.748  28.428  1.00  0.00     0.167 HD
ATOM     39  C   UNL A   1      46.282  26.435  29.865  1.00  0.00     0.074 A 
ATOM     40  C   UNL A   1      46.573  26.440  28.436  1.00  0.00     0.031 C 
ATOM     41  C   UNL A   1      45.659  25.518  30.661  1.00  0.00     0.037 A 
BRANCH  28  42
ATOM     42  C   UNL A   1      44.336  23.249  25.907  1.00  0.00     0.057 A 
ATOM     43  C   UNL A   1      44.281  21.889  25.557  1.00  0.00     0.134 A 
ATOM     44  C   UNL A   1      45.345  23.995  25.264  1.00  0.00     0.134 A 
ATOM     45  F   UNL A   1      43.388  21.066  26.127  1.00  0.00    -0.206 F 
ATOM     46  C   UNL A   1      45.192  21.305  24.667  1.00  0.00     0.040 A 
ATOM     47  C   UNL A   1      46.228  23.434  24.337  1.00  0.00     0.040 A 
ATOM     48  F   UNL A   1      45.588  25.276  25.573  1.00  0.00    -0.206 F 
ATOM     49  C   UNL A   1      46.171  22.078  24.055  1.00  0.00     0.006 A 
ENDBRANCH  28  42
BRANCH  29  50
ATOM     50  C   UNL A   1      46.679  30.966  28.581  1.00  0.00     0.057 A 
ATOM     51  C   UNL A   1      46.772  31.311  27.228  1.00  0.00     0.134 A 
ATOM     52  C   UNL A   1      47.174  31.912  29.499  1.00  0.00     0.134 A 
ATOM     53  F   UNL A   1      46.283  30.496  26.283  1.00  0.00    -0.206 F 
ATOM     54  C   UNL A   1      47.317  32.531  26.811  1.00  0.00     0.040 A 
ATOM     55  C   UNL A   1      47.734  33.126  29.095  1.00  0.00     0.040 A 
ATOM     56  F   UNL A   1      47.053  31.729  30.821  1.00  0.00    -0.206 F 
ATOM     57  C   UNL A   1      47.796  33.445  27.745  1.00  0.00     0.006 A 
ENDBRANCH  29  50
BRANCH  41  58
ATOM     58  C   UNL A   1      45.403  25.887  32.095  1.00  0.00     0.057 A 
ATOM     59  C   UNL A   1      46.326  25.664  33.128  1.00  0.00     0.134 A 
ATOM     60  C   UNL A   1      44.259  26.626  32.414  1.00  0.00     0.134 A 
ATOM     61  F   UNL A   1      47.500  25.063  32.892  1.00  0.00    -0.206 F 
ATOM     62  C   UNL A   1      46.093  26.111  34.432  1.00  0.00     0.040 A 
ATOM     63  C   UNL A   1      44.032  27.108  33.706  1.00  0.00     0.040 A 
ATOM     64  F   UNL A   1      43.364  26.936  31.463  1.00  0.00    -0.206 F 
ATOM     65  C   UNL A   1      44.945  26.840  34.723  1.00  0.00     0.006 A 
ENDBRANCH  41  58
ENDBRANCH  15  16
ENDBRANCH   8  10
ENDBRANCH   7   8
ENDBRANCH   6   7
ENDBRANCH   5   6
ENDBRANCH   4   5
ENDBRANCH   3   4
ENDBRANCH   2   3
ENDBRANCH   1   2
BRANCH   1  66
ATOM     66  C   UNL A   1      33.061  26.182  22.155  1.00  0.00     0.188 C 
BRANCH  66  67
ATOM     67  C   UNL A   1      32.746  25.138  23.243  1.00  0.00     0.188 C 
BRANCH  67  68
ATOM     68  O   UNL A   1      31.496  24.462  23.342  1.00  0.00    -0.376 OA
BRANCH  68  69
ATOM     69  C   UNL A   1      30.598  24.676  24.416  1.00  0.00     0.202 C 
BRANCH  69  70
ATOM     70  C   UNL A   1      31.195  25.015  25.788  1.00  0.00     0.261 C 
BRANCH  70  71
ATOM     71  O   UNL A   1      30.389  24.604  26.898  1.00  0.00    -0.458 OA
BRANCH  71  72
ATOM     72  C   UNL A   1      30.267  23.257  27.053  1.00  0.00     0.360 C 
ATOM     73  O   UNL A   1      29.204  22.656  27.184  1.00  0.00    -0.244 OA
BRANCH  72  74
ATOM     74  C   UNL A   1      31.539  22.579  26.905  1.00  0.00     0.190 A 
ATOM     75  C   UNL A   1      31.938  21.634  25.977  1.00  0.00     0.147 A 
ATOM     76  N   UNL A   1      32.553  22.761  27.816  1.00  0.00    -0.123 NA
ATOM     77  N   UNL A   1      33.250  21.406  26.302  1.00  0.00    -0.245 N 
ATOM     78  N   UNL A   1      33.552  21.960  27.491  1.00  0.00    -0.066 NA
BRANCH  77  79
ATOM     79  C   UNL A   1      34.324  21.089  25.416  1.00  0.00     0.148 C 
ATOM     80  C   UNL A   1      34.425  21.739  24.039  1.00  0.00     0.150 C 
ATOM     81  C   UNL A   1      35.518  21.978  25.824  1.00  0.00     0.150 C 
ATOM     82  N   UNL A   1      35.803  22.089  24.416  1.00  0.00    -0.320 N 
ATOM     83  C   UNL A   1      36.698  22.773  23.662  1.00  0.00     0.322 C 
ATOM     84  O   UNL A   1      36.524  22.900  22.447  1.00  0.00    -0.248 OA
ATOM     85  N   UNL A   1      37.714  23.472  24.235  1.00  0.00    -0.307 N 
ATOM     86  H   UNL A   1      38.115  24.146  23.641  1.00  0.00     0.171 HD
BRANCH  85  87
ATOM     87  C   UNL A   1      38.294  23.420  25.491  1.00  0.00     0.053 A 
ATOM     88  C   UNL A   1      38.155  24.336  26.573  1.00  0.00     0.038 A 
ATOM     89  C   UNL A   1      39.060  22.336  25.872  1.00  0.00     0.091 A 
ATOM     90  C   UNL A   1      38.967  24.026  27.643  1.00  0.00     0.067 A 
ATOM     91  S   UNL A   1      39.783  22.545  27.409  1.00  0.00    -0.150 S 
ENDBRANCH  85  87
ENDBRANCH  77  79
ENDBRANCH  72  74
ENDBRANCH  71  72
ENDBRANCH  70  71
ENDBRANCH  69  70
ENDBRANCH  68  69
ENDBRANCH  67  68
ENDBRANCH  66  67
ENDBRANCH   1  66
TORSDOF 22
ENDMDL
MODEL 2
REMARK VINA RESULT:      -9.2      1.899      2.806
REMARK SMILES O=C(OCCOCCOCCOCCOC(=O)c1cn(C2CN(C(=O)Nc3ccsc3)C2)nn1)c1ccc(-c2c3nc(c(-c4c(F)cccc4F)c4ccc([nH]4)c(-c4c(F)cccc4F)c4nc(c(-c5c(F)cccc5F)c5ccc2[nH]5)C=C4)C=C3)cc1
REMARK SMILES IDX 9 1 8 2 7 3 6 4 5 5 4 6 3 7 2 8 1 9 35 10 36 11 88 12 37 13
REMARK SMILES IDX 87 14 38 15 39 16 40 17 81 18 41 19 86 20 80 21 82 22 42 23
REMARK SMILES IDX 85 24 79 25 78 26 43 28 69 29 52 30 68 31 53 32 56 33 67 34
REMARK SMILES IDX 83 35 54 36 55 37 66 39 84 40 57 41 44 42 45 43 50 44 46 45
REMARK SMILES IDX 47 46 49 47 51 48 48 49 70 50 71 51 76 52 72 53 73 54 75 55
REMARK SMILES IDX 77 56 74 57 58 58 59 59 64 60 60 61 61 62 63 63 65 64 62 65
REMARK SMILES IDX 10 66 11 67 12 68 13 69 14 70 15 71 16 72 17 73 18 74 19 75
REMARK SMILES IDX 34 76 20 77 33 78 21 79 22 80 32 81 23 82 24 83 25 84 26 85
REMARK SMILES IDX 27 87 28 88 31 89 29 90 30 91
REMARK H PARENT 82 27 56 38 26 86
REMARK Flexibility Score: inf
ROOT
ATOM      1  O   UNL A   1      32.467  25.528  25.065  1.00  0.00    -0.377 OA
ENDROOT
BRANCH   1   2
ATOM      2  C   UNL A   1      32.958  26.475  25.997  1.00  0.00     0.188 C 
BRANCH   2   3
ATOM      3  C   UNL A   1      31.891  27.377  26.636  1.00  0.00     0.188 C 
BRANCH   3   4
ATOM      4  O   UNL A   1      32.156  28.412  27.577  1.00  0.00    -0.376 OA
BRANCH   4   5
ATOM      5  C   UNL A   1      32.723  29.673  27.295  1.00  0.00     0.202 C 
BRANCH   5   6
ATOM      6  C   UNL A   1      34.205  29.827  26.944  1.00  0.00     0.261 C 
BRANCH   6   7
ATOM      7  O   UNL A   1      35.131  29.217  27.840  1.00  0.00    -0.460 OA
BRANCH   7   8
ATOM      8  C   UNL A   1      36.153  29.753  28.539  1.00  0.00     0.338 C 
ATOM      9  O   UNL A   1      35.948  30.817  29.122  1.00  0.00    -0.246 OA
BRANCH   8  10
ATOM     10  C   UNL A   1      37.525  29.173  28.613  1.00  0.00     0.060 A 
ATOM     11  C   UNL A   1      38.002  28.293  29.587  1.00  0.00     0.016 A 
ATOM     12  C   UNL A   1      38.406  29.574  27.590  1.00  0.00     0.016 A 
ATOM     13  C   UNL A   1      39.340  27.946  29.634  1.00  0.00     0.010 A 
ATOM     14  C   UNL A   1      39.742  29.202  27.609  1.00  0.00     0.010 A 
ATOM     15  C   UNL A   1      40.214  28.451  28.680  1.00  0.00    -0.014 A 
BRANCH  15  16
ATOM     16  C   UNL A   1      41.631  28.213  28.902  1.00  0.00     0.031 A 
ATOM     17  C   UNL A   1      42.257  27.078  28.176  1.00  0.00     0.074 A 
ATOM     18  C   UNL A   1      42.342  29.017  29.713  1.00  0.00     0.049 A 
ATOM     19  N   UNL A   1      42.923  26.078  28.663  1.00  0.00    -0.248 NA
ATOM     20  C   UNL A   1      42.084  27.031  26.717  1.00  0.00     0.031 C 
ATOM     21  C   UNL A   1      41.934  30.301  30.291  1.00  0.00     0.029 A 
ATOM     22  N   UNL A   1      43.640  28.895  30.104  1.00  0.00    -0.354 N 
ATOM     23  C   UNL A   1      43.400  25.364  27.566  1.00  0.00     0.074 A 
ATOM     24  C   UNL A   1      42.782  25.940  26.398  1.00  0.00     0.031 C 
ATOM     25  C   UNL A   1      43.027  30.939  30.759  1.00  0.00     0.029 A 
ATOM     26  C   UNL A   1      44.173  30.057  30.630  1.00  0.00     0.049 A 
ATOM     27  H   UNL A   1      44.150  28.058  30.019  1.00  0.00     0.167 HD
ATOM     28  C   UNL A   1      44.409  24.457  27.668  1.00  0.00     0.037 A 
ATOM     29  C   UNL A   1      45.481  30.309  30.867  1.00  0.00     0.037 A 
ATOM     30  C   UNL A   1      44.562  23.959  29.006  1.00  0.00     0.049 A 
ATOM     31  C   UNL A   1      46.197  29.014  30.931  1.00  0.00     0.074 A 
ATOM     32  C   UNL A   1      43.750  23.268  29.884  1.00  0.00     0.029 A 
ATOM     33  N   UNL A   1      45.623  24.397  29.757  1.00  0.00    -0.354 N 
ATOM     34  N   UNL A   1      46.074  28.150  31.900  1.00  0.00    -0.248 NA
ATOM     35  C   UNL A   1      46.777  28.493  29.702  1.00  0.00     0.031 C 
ATOM     36  C   UNL A   1      44.111  23.743  31.179  1.00  0.00     0.029 A 
ATOM     37  C   UNL A   1      45.130  24.679  31.005  1.00  0.00     0.049 A 
ATOM     38  H   UNL A   1      46.556  24.489  29.458  1.00  0.00     0.167 HD
ATOM     39  C   UNL A   1      46.172  26.911  31.285  1.00  0.00     0.074 A 
ATOM     40  C   UNL A   1      46.720  27.186  29.961  1.00  0.00     0.031 C 
ATOM     41  C   UNL A   1      45.544  25.813  31.797  1.00  0.00     0.037 A 
BRANCH  28  42
ATOM     42  C   UNL A   1      45.449  24.241  26.599  1.00  0.00     0.057 A 
ATOM     43  C   UNL A   1      46.181  25.330  26.096  1.00  0.00     0.134 A 
ATOM     44  C   UNL A   1      45.555  23.049  25.854  1.00  0.00     0.134 A 
ATOM     45  F   UNL A   1      46.133  26.529  26.695  1.00  0.00    -0.206 F 
ATOM     46  C   UNL A   1      46.928  25.249  24.914  1.00  0.00     0.040 A 
ATOM     47  C   UNL A   1      46.337  22.943  24.701  1.00  0.00     0.040 A 
ATOM     48  F   UNL A   1      44.834  21.959  26.150  1.00  0.00    -0.206 F 
ATOM     49  C   UNL A   1      47.007  24.054  24.211  1.00  0.00     0.006 A 
ENDBRANCH  28  42
BRANCH  29  50
ATOM     50  C   UNL A   1      46.176  31.609  30.769  1.00  0.00     0.057 A 
ATOM     51  C   UNL A   1      46.306  32.271  29.543  1.00  0.00     0.134 A 
ATOM     52  C   UNL A   1      46.521  32.350  31.916  1.00  0.00     0.134 A 
ATOM     53  F   UNL A   1      45.955  31.664  28.401  1.00  0.00    -0.206 F 
ATOM     54  C   UNL A   1      46.747  33.597  29.461  1.00  0.00     0.040 A 
ATOM     55  C   UNL A   1      46.977  33.668  31.847  1.00  0.00     0.040 A 
ATOM     56  F   UNL A   1      46.348  31.849  33.147  1.00  0.00    -0.206 F 
ATOM     57  C   UNL A   1      47.080  34.301  30.615  1.00  0.00     0.006 A 
ENDBRANCH  29  50
BRANCH  41  58
ATOM     58  C   UNL A   1      44.979  25.908  33.186  1.00  0.00     0.057 A 
ATOM     59  C   UNL A   1      43.735  26.488  33.478  1.00  0.00     0.134 A 
ATOM     60  C   UNL A   1      45.640  25.261  34.236  1.00  0.00     0.134 A 
ATOM     61  F   UNL A   1      42.980  27.031  32.515  1.00  0.00    -0.206 F 
ATOM     62  C   UNL A   1      43.199  26.469  34.769  1.00  0.00     0.040 A 
ATOM     63  C   UNL A   1      45.098  25.205  35.523  1.00  0.00     0.040 A 
ATOM     64  F   UNL A   1      46.802  24.627  34.018  1.00  0.00    -0.206 F 
ATOM     65  C   UNL A   1      43.879  25.821  35.796  1.00  0.00     0.006 A 
ENDBRANCH  41  58
ENDBRANCH  15  16
ENDBRANCH   8  10
ENDBRANCH   7   8
ENDBRANCH   6   7
ENDBRANCH   5   6
ENDBRANCH   4   5
ENDBRANCH   3   4
ENDBRANCH   2   3
ENDBRANCH   1   2
BRANCH   1  66
ATOM     66  C   UNL A   1      33.440  24.640  24.563  1.00  0.00     0.188 C 
BRANCH  66  67
ATOM     67  C   UNL A   1      33.060  23.932  23.249  1.00  0.00     0.188 C 
BRANCH  67  68
ATOM     68  O   UNL A   1      33.267  22.541  23.020  1.00  0.00    -0.376 OA
BRANCH  68  69
ATOM     69  C   UNL A   1      32.305  21.725  22.375  1.00  0.00     0.202 C 
BRANCH  69  70
ATOM     70  C   UNL A   1      32.110  20.300  22.904  1.00  0.00     0.261 C 
BRANCH  70  71
ATOM     71  O   UNL A   1      31.903  20.220  24.319  1.00  0.00    -0.458 OA
BRANCH  71  72
ATOM     72  C   UNL A   1      32.861  19.536  25.003  1.00  0.00     0.360 C 
ATOM     73  O   UNL A   1      32.900  18.316  25.134  1.00  0.00    -0.244 OA
BRANCH  72  74
ATOM     74  C   UNL A   1      33.929  20.408  25.452  1.00  0.00     0.190 A 
ATOM     75  C   UNL A   1      35.234  20.516  25.005  1.00  0.00     0.147 A 
ATOM     76  N   UNL A   1      33.761  21.240  26.534  1.00  0.00    -0.123 NA
ATOM     77  N   UNL A   1      35.744  21.536  25.765  1.00  0.00    -0.245 N 
ATOM     78  N   UNL A   1      34.910  21.845  26.776  1.00  0.00    -0.066 NA
BRANCH  77  79
ATOM     79  C   UNL A   1      36.720  22.506  25.379  1.00  0.00     0.148 C 
ATOM     80  C   UNL A   1      36.861  23.823  26.137  1.00  0.00     0.150 C 
ATOM     81  C   UNL A   1      38.052  22.087  26.039  1.00  0.00     0.150 C 
ATOM     82  N   UNL A   1      38.291  23.493  26.241  1.00  0.00    -0.320 N 
ATOM     83  C   UNL A   1      39.247  24.232  26.855  1.00  0.00     0.322 C 
ATOM     84  O   UNL A   1      39.044  25.420  27.123  1.00  0.00    -0.248 OA
ATOM     85  N   UNL A   1      40.381  23.657  27.337  1.00  0.00    -0.307 N 
ATOM     86  H   UNL A   1      40.855  24.211  27.998  1.00  0.00     0.171 HD
BRANCH  85  87
ATOM     87  C   UNL A   1      40.998  22.445  27.079  1.00  0.00     0.053 A 
ATOM     88  C   UNL A   1      41.703  22.036  25.911  1.00  0.00     0.038 A 
ATOM     89  C   UNL A   1      41.067  21.467  28.051  1.00  0.00     0.091 A 
ATOM     90  C   UNL A   1      42.094  20.715  25.958  1.00  0.00     0.067 A 
ATOM     91  S   UNL A   1      41.753  20.009  27.475  1.00  0.00    -0.150 S 
ENDBRANCH  85  87
ENDBRANCH  77  79
ENDBRANCH  72  74
ENDBRANCH  71  72
ENDBRANCH  70  71
ENDBRANCH  69  70
ENDBRANCH  68  69
ENDBRANCH  67  68
ENDBRANCH  66  67
ENDBRANCH   1  66
TORSDOF 22
ENDMDL
MODEL 3
REMARK VINA RESULT:      -9.0      2.400      6.020
REMARK SMILES O=C(OCCOCCOCCOCCOC(=O)c1cn(C2CN(C(=O)Nc3ccsc3)C2)nn1)c1ccc(-c2c3nc(c(-c4c(F)cccc4F)c4ccc([nH]4)c(-c4c(F)cccc4F)c4nc(c(-c5c(F)cccc5F)c5ccc2[nH]5)C=C4)C=C3)cc1
REMARK SMILES IDX 9 1 8 2 7 3 6 4 5 5 4 6 3 7 2 8 1 9 35 10 36 11 88 12 37 13
REMARK SMILES IDX 87 14 38 15 39 16 40 17 81 18 41 19 86 20 80 21 82 22 42 23
REMARK SMILES IDX 85 24 79 25 78 26 43 28 69 29 52 30 68 31 53 32 56 33 67 34
REMARK SMILES IDX 83 35 54 36 55 37 66 39 84 40 57 41 44 42 45 43 50 44 46 45
REMARK SMILES IDX 47 46 49 47 51 48 48 49 70 50 71 51 76 52 72 53 73 54 75 55
REMARK SMILES IDX 77 56 74 57 58 58 59 59 64 60 60 61 61 62 63 63 65 64 62 65
REMARK SMILES IDX 10 66 11 67 12 68 13 69 14 70 15 71 16 72 17 73 18 74 19 75
REMARK SMILES IDX 34 76 20 77 33 78 21 79 22 80 32 81 23 82 24 83 25 84 26 85
REMARK SMILES IDX 27 87 28 88 31 89 29 90 30 91
REMARK H PARENT 82 27 56 38 26 86
REMARK Flexibility Score: inf
ROOT
ATOM      1  O   UNL A   1      31.862  27.186  23.287  1.00  0.00    -0.377 OA
ENDROOT
BRANCH   1   2
ATOM      2  C   UNL A   1      31.209  28.381  22.898  1.00  0.00     0.188 C 
BRANCH   2   3
ATOM      3  C   UNL A   1      30.811  29.315  24.051  1.00  0.00     0.188 C 
BRANCH   3   4
ATOM      4  O   UNL A   1      31.645  29.646  25.156  1.00  0.00    -0.376 OA
BRANCH   4   5
ATOM      5  C   UNL A   1      31.747  28.934  26.370  1.00  0.00     0.202 C 
BRANCH   5   6
ATOM      6  C   UNL A   1      32.958  29.093  27.295  1.00  0.00     0.261 C 
BRANCH   6   7
ATOM      7  O   UNL A   1      33.697  30.305  27.161  1.00  0.00    -0.460 OA
BRANCH   7   8
ATOM      8  C   UNL A   1      34.590  30.879  27.993  1.00  0.00     0.338 C 
ATOM      9  O   UNL A   1      34.200  31.816  28.689  1.00  0.00    -0.246 OA
BRANCH   8  10
ATOM     10  C   UNL A   1      36.027  30.493  28.090  1.00  0.00     0.060 A 
ATOM     11  C   UNL A   1      36.583  29.267  27.721  1.00  0.00     0.016 A 
ATOM     12  C   UNL A   1      36.883  31.481  28.615  1.00  0.00     0.016 A 
ATOM     13  C   UNL A   1      37.906  28.975  28.003  1.00  0.00     0.010 A 
ATOM     14  C   UNL A   1      38.220  31.209  28.868  1.00  0.00     0.010 A 
ATOM     15  C   UNL A   1      38.701  29.926  28.630  1.00  0.00    -0.014 A 
BRANCH  15  16
ATOM     16  C   UNL A   1      40.012  29.488  29.076  1.00  0.00     0.031 A 
ATOM     17  C   UNL A   1      40.213  29.304  30.537  1.00  0.00     0.074 A 
ATOM     18  C   UNL A   1      40.989  29.230  28.187  1.00  0.00     0.049 A 
ATOM     19  N   UNL A   1      41.114  29.837  31.301  1.00  0.00    -0.248 NA
ATOM     20  C   UNL A   1      39.257  28.442  31.248  1.00  0.00     0.031 C 
ATOM     21  C   UNL A   1      40.874  29.123  26.729  1.00  0.00     0.029 A 
ATOM     22  N   UNL A   1      42.287  28.900  28.425  1.00  0.00    -0.354 N 
ATOM     23  C   UNL A   1      40.950  29.252  32.554  1.00  0.00     0.074 A 
ATOM     24  C   UNL A   1      39.740  28.471  32.490  1.00  0.00     0.031 C 
ATOM     25  C   UNL A   1      41.986  28.534  26.243  1.00  0.00     0.029 A 
ATOM     26  C   UNL A   1      42.930  28.348  27.331  1.00  0.00     0.049 A 
ATOM     27  H   UNL A   1      42.728  29.042  29.293  1.00  0.00     0.167 HD
ATOM     28  C   UNL A   1      41.912  29.304  33.515  1.00  0.00     0.037 A 
ATOM     29  C   UNL A   1      44.120  27.706  27.335  1.00  0.00     0.037 A 
ATOM     30  C   UNL A   1      42.827  30.391  33.314  1.00  0.00     0.049 A 
ATOM     31  C   UNL A   1      44.850  28.093  28.564  1.00  0.00     0.074 A 
ATOM     32  C   UNL A   1      42.704  31.766  33.255  1.00  0.00     0.029 A 
ATOM     33  N   UNL A   1      44.087  30.117  32.848  1.00  0.00    -0.354 N 
ATOM     34  N   UNL A   1      45.360  29.273  28.780  1.00  0.00    -0.248 NA
ATOM     35  C   UNL A   1      44.682  27.262  29.748  1.00  0.00     0.031 C 
ATOM     36  C   UNL A   1      43.690  32.189  32.316  1.00  0.00     0.029 A 
ATOM     37  C   UNL A   1      44.358  31.046  31.877  1.00  0.00     0.049 A 
ATOM     38  H   UNL A   1      44.682  29.394  33.153  1.00  0.00     0.167 HD
ATOM     39  C   UNL A   1      45.196  29.488  30.140  1.00  0.00     0.074 A 
ATOM     40  C   UNL A   1      44.884  28.177  30.698  1.00  0.00     0.031 C 
ATOM     41  C   UNL A   1      45.052  30.747  30.647  1.00  0.00     0.037 A 
BRANCH  28  42
ATOM     42  C   UNL A   1      42.188  28.181  34.482  1.00  0.00     0.057 A 
ATOM     43  C   UNL A   1      42.740  26.973  34.022  1.00  0.00     0.134 A 
ATOM     44  C   UNL A   1      41.671  28.145  35.793  1.00  0.00     0.134 A 
ATOM     45  F   UNL A   1      43.231  26.869  32.778  1.00  0.00    -0.206 F 
ATOM     46  C   UNL A   1      42.737  25.805  34.795  1.00  0.00     0.040 A 
ATOM     47  C   UNL A   1      41.708  26.999  36.591  1.00  0.00     0.040 A 
ATOM     48  F   UNL A   1      41.020  29.187  36.329  1.00  0.00    -0.206 F 
ATOM     49  C   UNL A   1      42.219  25.814  36.083  1.00  0.00     0.006 A 
ENDBRANCH  28  42
BRANCH  29  50
ATOM     50  C   UNL A   1      44.535  26.580  26.473  1.00  0.00     0.057 A 
ATOM     51  C   UNL A   1      45.570  26.723  25.542  1.00  0.00     0.134 A 
ATOM     52  C   UNL A   1      44.087  25.266  26.708  1.00  0.00     0.134 A 
ATOM     53  F   UNL A   1      46.096  27.930  25.289  1.00  0.00    -0.206 F 
ATOM     54  C   UNL A   1      46.134  25.622  24.887  1.00  0.00     0.040 A 
ATOM     55  C   UNL A   1      44.630  24.161  26.050  1.00  0.00     0.040 A 
ATOM     56  F   UNL A   1      43.166  25.002  27.645  1.00  0.00    -0.206 F 
ATOM     57  C   UNL A   1      45.667  24.336  25.143  1.00  0.00     0.006 A 
ENDBRANCH  29  50
BRANCH  41  58
ATOM     58  C   UNL A   1      45.357  31.909  29.744  1.00  0.00     0.057 A 
ATOM     59  C   UNL A   1      44.430  32.453  28.842  1.00  0.00     0.134 A 
ATOM     60  C   UNL A   1      46.567  32.594  29.900  1.00  0.00     0.134 A 
ATOM     61  F   UNL A   1      43.204  31.931  28.709  1.00  0.00    -0.206 F 
ATOM     62  C   UNL A   1      44.717  33.596  28.091  1.00  0.00     0.040 A 
ATOM     63  C   UNL A   1      46.852  33.758  29.181  1.00  0.00     0.040 A 
ATOM     64  F   UNL A   1      47.475  32.172  30.794  1.00  0.00    -0.206 F 
ATOM     65  C   UNL A   1      45.931  34.256  28.263  1.00  0.00     0.006 A 
ENDBRANCH  41  58
ENDBRANCH  15  16
ENDBRANCH   8  10
ENDBRANCH   7   8
ENDBRANCH   6   7
ENDBRANCH   5   6
ENDBRANCH   4   5
ENDBRANCH   3   4
ENDBRANCH   2   3
ENDBRANCH   1   2
BRANCH   1  66
ATOM     66  C   UNL A   1      31.433  26.032  22.601  1.00  0.00     0.188 C 
BRANCH  66  67
ATOM     67  C   UNL A   1      30.303  25.245  23.292  1.00  0.00     0.188 C 
BRANCH  67  68
ATOM     68  O   UNL A   1      30.470  23.928  23.810  1.00  0.00    -0.376 OA
BRANCH  68  69
ATOM     69  C   UNL A   1      31.360  23.636  24.873  1.00  0.00     0.202 C 
BRANCH  69  70
ATOM     70  C   UNL A   1      31.080  22.386  25.714  1.00  0.00     0.261 C 
BRANCH  70  71
ATOM     71  O   UNL A   1      32.255  21.708  26.173  1.00  0.00    -0.458 OA
BRANCH  71  72
ATOM     72  C   UNL A   1      32.824  20.866  25.267  1.00  0.00     0.360 C 
ATOM     73  O   UNL A   1      32.222  20.013  24.622  1.00  0.00    -0.244 OA
BRANCH  72  74
ATOM     74  C   UNL A   1      34.221  21.183  25.039  1.00  0.00     0.190 A 
ATOM     75  C   UNL A   1      34.792  22.276  24.413  1.00  0.00     0.147 A 
ATOM     76  N   UNL A   1      35.216  20.297  25.379  1.00  0.00    -0.123 NA
ATOM     77  N   UNL A   1      36.137  22.050  24.549  1.00  0.00    -0.245 N 
ATOM     78  N   UNL A   1      36.372  20.796  24.979  1.00  0.00    -0.066 NA
BRANCH  77  79
ATOM     79  C   UNL A   1      37.171  23.021  24.713  1.00  0.00     0.148 C 
ATOM     80  C   UNL A   1      37.140  24.014  25.872  1.00  0.00     0.150 C 
ATOM     81  C   UNL A   1      38.327  22.322  25.460  1.00  0.00     0.150 C 
ATOM     82  N   UNL A   1      38.513  23.569  26.156  1.00  0.00    -0.320 N 
ATOM     83  C   UNL A   1      39.310  24.005  27.163  1.00  0.00     0.322 C 
ATOM     84  O   UNL A   1      39.051  25.055  27.756  1.00  0.00    -0.248 OA
ATOM     85  N   UNL A   1      40.313  23.228  27.653  1.00  0.00    -0.307 N 
ATOM     86  H   UNL A   1      40.630  23.506  28.543  1.00  0.00     0.171 HD
BRANCH  85  87
ATOM     87  C   UNL A   1      40.974  22.122  27.147  1.00  0.00     0.053 A 
ATOM     88  C   UNL A   1      41.957  22.067  26.118  1.00  0.00     0.038 A 
ATOM     89  C   UNL A   1      40.786  20.872  27.702  1.00  0.00     0.091 A 
ATOM     90  C   UNL A   1      42.321  20.778  25.795  1.00  0.00     0.067 A 
ATOM     91  S   UNL A   1      41.597  19.636  26.838  1.00  0.00    -0.150 S 
ENDBRANCH  85  87
ENDBRANCH  77  79
ENDBRANCH  72  74
ENDBRANCH  71  72
ENDBRANCH  70  71
ENDBRANCH  69  70
ENDBRANCH  68  69
ENDBRANCH  67  68
ENDBRANCH  66  67
ENDBRANCH   1  66
TORSDOF 22
ENDMDL
