MODEL 1
REMARK VINA RESULT:      -8.1      0.000      0.000
REMARK SMILES C[C@H](Oc1ccc(/C=C2/SC(=S)N(c3ccc(F)c(Cl)c3)C2=O)cc1)C(=O)OCCOCCOCCOCCOC(=O)c1ccc(-c2c3nc(c(-c4c(F)cccc4F)c4ccc([nH]4)c(-c4c(F)cccc4F)c4nc(c(-c5c(F)cccc5F)c5ccc2[nH]5)C=C4)C=C3)cc1
REMARK SMILES IDX 33 1 32 2 31 3 30 4 29 5 28 6 26 7 27 8 2 9 1 10 3 11 4 12
REMARK SMILES IDX 5 13 25 14 6 15 24 16 7 17 8 18 9 19 10 20 22 21 11 22 13 23
REMARK SMILES IDX 23 24 12 25 14 26 15 27 21 28 16 29 19 30 17 31 20 32 18 33
REMARK SMILES IDX 34 34 35 35 36 36 37 37 38 38 39 39 40 40 41 41 42 42 43 43
REMARK SMILES IDX 44 44 96 45 45 46 95 47 46 48 47 49 48 50 89 51 49 52 94 53
REMARK SMILES IDX 88 54 90 55 50 56 93 57 87 58 86 59 51 61 77 62 60 63 76 64
REMARK SMILES IDX 61 65 64 66 75 67 91 68 62 69 63 70 74 72 92 73 65 74 52 75
REMARK SMILES IDX 53 76 58 77 54 78 55 79 57 80 59 81 56 82 78 83 79 84 84 85
REMARK SMILES IDX 80 86 81 87 83 88 85 89 82 90 66 91 67 92 72 93 68 94 69 95
REMARK SMILES IDX 71 96 73 97 70 98
REMARK H PARENT 90 60 64 71
REMARK Flexibility Score: inf
ROOT
ATOM      1  C   UNL A   1      37.979  32.950  29.396  1.00  0.00     0.188 C 
ENDROOT
BRANCH   1   2
ATOM      2  C   UNL A   1      38.385  32.585  30.835  1.00  0.00     0.188 C 
BRANCH   2   3
ATOM      3  O   UNL A   1      39.725  32.714  31.289  1.00  0.00    -0.376 OA
BRANCH   3   4
ATOM      4  C   UNL A   1      40.847  32.334  30.510  1.00  0.00     0.202 C 
BRANCH   4   5
ATOM      5  C   UNL A   1      41.717  31.098  30.788  1.00  0.00     0.261 C 
BRANCH   5   6
ATOM      6  O   UNL A   1      41.134  30.033  31.536  1.00  0.00    -0.461 OA
BRANCH   6   7
ATOM      7  C   UNL A   1      40.538  29.060  30.805  1.00  0.00     0.347 C 
ATOM      8  O   UNL A   1      41.103  28.397  29.940  1.00  0.00    -0.248 OA
BRANCH   7   9
ATOM      9  C   UNL A   1      39.040  28.929  31.111  1.00  0.00     0.279 C 
ATOM     10  C   UNL A   1      38.989  28.031  32.346  1.00  0.00     0.066 C 
BRANCH   9  11
ATOM     11  O   UNL A   1      38.297  28.460  29.985  1.00  0.00    -0.479 OA
BRANCH  11  12
ATOM     12  C   UNL A   1      37.344  29.214  29.365  1.00  0.00     0.120 A 
ATOM     13  C   UNL A   1      36.166  29.677  29.937  1.00  0.00     0.047 A 
ATOM     14  C   UNL A   1      37.556  29.438  28.001  1.00  0.00     0.047 A 
ATOM     15  C   UNL A   1      35.125  30.144  29.128  1.00  0.00     0.012 A 
ATOM     16  C   UNL A   1      36.542  29.974  27.197  1.00  0.00     0.012 A 
ATOM     17  C   UNL A   1      35.280  30.220  27.743  1.00  0.00    -0.024 A 
BRANCH  17  18
ATOM     18  C   UNL A   1      34.095  30.495  26.920  1.00  0.00     0.029 C 
ATOM     19  C   UNL A   1      33.344  29.575  26.293  1.00  0.00     0.081 C 
ATOM     20  S   UNL A   1      31.940  29.996  25.384  1.00  0.00    -0.054 SA
ATOM     21  C   UNL A   1      33.558  28.095  26.222  1.00  0.00     0.270 C 
ATOM     22  C   UNL A   1      31.693  28.351  24.801  1.00  0.00     0.152 C 
ATOM     23  N   UNL A   1      32.695  27.526  25.288  1.00  0.00    -0.261 N 
ATOM     24  O   UNL A   1      34.404  27.501  26.875  1.00  0.00    -0.268 OA
ATOM     25  S   UNL A   1      30.350  27.961  23.883  1.00  0.00    -0.051 S 
BRANCH  23  26
ATOM     26  C   UNL A   1      32.928  26.180  24.855  1.00  0.00     0.052 A 
ATOM     27  C   UNL A   1      33.733  25.909  23.735  1.00  0.00     0.030 A 
ATOM     28  C   UNL A   1      32.244  25.116  25.463  1.00  0.00     0.050 A 
ATOM     29  C   UNL A   1      33.857  24.608  23.238  1.00  0.00     0.043 A 
ATOM     30  C   UNL A   1      32.356  23.819  24.953  1.00  0.00     0.078 A 
ATOM     31  C   UNL A   1      33.160  23.571  23.846  1.00  0.00     0.141 A 
ATOM     32  Cl  UNL A   1      31.445  22.550  25.679  1.00  0.00    -0.081 Cl
ATOM     33  F   UNL A   1      33.260  22.337  23.333  1.00  0.00    -0.205 F 
ENDBRANCH  23  26
ENDBRANCH  17  18
ENDBRANCH  11  12
ENDBRANCH   9  11
ENDBRANCH   7   9
ENDBRANCH   6   7
ENDBRANCH   5   6
ENDBRANCH   4   5
ENDBRANCH   3   4
ENDBRANCH   2   3
ENDBRANCH   1   2
BRANCH   1  34
ATOM     34  O   UNL A   1      36.815  33.749  29.313  1.00  0.00    -0.377 OA
BRANCH  34  35
ATOM     35  C   UNL A   1      36.015  33.592  28.149  1.00  0.00     0.188 C 
BRANCH  35  36
ATOM     36  C   UNL A   1      34.587  34.180  28.151  1.00  0.00     0.188 C 
BRANCH  36  37
ATOM     37  O   UNL A   1      34.501  35.485  28.706  1.00  0.00    -0.376 OA
BRANCH  37  38
ATOM     38  C   UNL A   1      33.320  35.845  29.405  1.00  0.00     0.202 C 
BRANCH  38  39
ATOM     39  C   UNL A   1      33.035  35.104  30.721  1.00  0.00     0.261 C 
BRANCH  39  40
ATOM     40  O   UNL A   1      34.177  34.784  31.529  1.00  0.00    -0.460 OA
BRANCH  40  41
ATOM     41  C   UNL A   1      34.372  33.491  31.859  1.00  0.00     0.338 C 
ATOM     42  O   UNL A   1      34.053  32.509  31.207  1.00  0.00    -0.246 OA
BRANCH  41  43
ATOM     43  C   UNL A   1      35.224  33.453  33.065  1.00  0.00     0.060 A 
ATOM     44  C   UNL A   1      35.102  34.474  34.016  1.00  0.00     0.016 A 
ATOM     45  C   UNL A   1      36.138  32.414  33.259  1.00  0.00     0.016 A 
ATOM     46  C   UNL A   1      35.924  34.484  35.144  1.00  0.00     0.010 A 
ATOM     47  C   UNL A   1      36.977  32.435  34.377  1.00  0.00     0.010 A 
ATOM     48  C   UNL A   1      36.899  33.490  35.304  1.00  0.00    -0.014 A 
BRANCH  48  49
ATOM     49  C   UNL A   1      37.970  33.668  36.315  1.00  0.00     0.031 A 
ATOM     50  C   UNL A   1      39.304  34.192  35.855  1.00  0.00     0.074 A 
ATOM     51  C   UNL A   1      37.766  33.394  37.615  1.00  0.00     0.049 A 
ATOM     52  N   UNL A   1      40.407  34.377  36.532  1.00  0.00    -0.248 NA
ATOM     53  C   UNL A   1      39.404  34.554  34.431  1.00  0.00     0.031 C 
ATOM     54  C   UNL A   1      36.510  32.928  38.196  1.00  0.00     0.029 A 
ATOM     55  N   UNL A   1      38.628  33.460  38.682  1.00  0.00    -0.354 N 
ATOM     56  C   UNL A   1      41.333  34.865  35.618  1.00  0.00     0.074 A 
ATOM     57  C   UNL A   1      40.673  34.918  34.332  1.00  0.00     0.031 C 
ATOM     58  C   UNL A   1      36.686  32.736  39.516  1.00  0.00     0.029 A 
ATOM     59  C   UNL A   1      38.076  33.030  39.863  1.00  0.00     0.049 A 
ATOM     60  H   UNL A   1      39.555  33.786  38.607  1.00  0.00     0.167 HD
ATOM     61  C   UNL A   1      42.616  35.241  35.832  1.00  0.00     0.037 A 
ATOM     62  C   UNL A   1      38.638  32.867  41.076  1.00  0.00     0.037 A 
ATOM     63  C   UNL A   1      43.272  35.181  37.110  1.00  0.00     0.049 A 
ATOM     64  C   UNL A   1      40.094  33.212  41.272  1.00  0.00     0.074 A 
ATOM     65  C   UNL A   1      44.564  35.555  37.433  1.00  0.00     0.029 A 
ATOM     66  N   UNL A   1      42.690  34.705  38.275  1.00  0.00    -0.354 N 
ATOM     67  N   UNL A   1      40.954  33.699  40.410  1.00  0.00    -0.248 NA
ATOM     68  C   UNL A   1      40.655  32.986  42.612  1.00  0.00     0.031 C 
ATOM     69  C   UNL A   1      44.785  35.248  38.779  1.00  0.00     0.029 A 
ATOM     70  C   UNL A   1      43.607  34.746  39.312  1.00  0.00     0.049 A 
ATOM     71  H   UNL A   1      41.762  34.385  38.353  1.00  0.00     0.167 HD
ATOM     72  C   UNL A   1      42.144  33.868  41.110  1.00  0.00     0.074 A 
ATOM     73  C   UNL A   1      41.890  33.445  42.471  1.00  0.00     0.031 C 
ATOM     74  C   UNL A   1      43.339  34.331  40.666  1.00  0.00     0.037 A 
BRANCH  61  75
ATOM     75  C   UNL A   1      43.402  35.718  34.644  1.00  0.00     0.057 A 
ATOM     76  C   UNL A   1      44.236  34.862  33.910  1.00  0.00     0.134 A 
ATOM     77  C   UNL A   1      43.304  37.047  34.213  1.00  0.00     0.134 A 
ATOM     78  F   UNL A   1      44.388  33.581  34.279  1.00  0.00    -0.206 F 
ATOM     79  C   UNL A   1      44.961  35.318  32.809  1.00  0.00     0.040 A 
ATOM     80  C   UNL A   1      44.001  37.507  33.094  1.00  0.00     0.040 A 
ATOM     81  F   UNL A   1      42.521  37.919  34.866  1.00  0.00    -0.206 F 
ATOM     82  C   UNL A   1      44.839  36.643  32.394  1.00  0.00     0.006 A 
ENDBRANCH  61  75
BRANCH  62  83
ATOM     83  C   UNL A   1      37.833  32.333  42.208  1.00  0.00     0.057 A 
ATOM     84  C   UNL A   1      37.857  30.973  42.538  1.00  0.00     0.134 A 
ATOM     85  C   UNL A   1      36.996  33.163  42.964  1.00  0.00     0.134 A 
ATOM     86  F   UNL A   1      38.619  30.122  41.835  1.00  0.00    -0.206 F 
ATOM     87  C   UNL A   1      37.062  30.453  43.562  1.00  0.00     0.040 A 
ATOM     88  C   UNL A   1      36.218  32.663  44.009  1.00  0.00     0.040 A 
ATOM     89  F   UNL A   1      36.927  34.478  42.702  1.00  0.00    -0.206 F 
ATOM     90  C   UNL A   1      36.243  31.301  44.304  1.00  0.00     0.006 A 
ENDBRANCH  62  83
BRANCH  74  91
ATOM     91  C   UNL A   1      44.453  34.452  41.669  1.00  0.00     0.057 A 
ATOM     92  C   UNL A   1      44.643  35.608  42.436  1.00  0.00     0.134 A 
ATOM     93  C   UNL A   1      45.321  33.375  41.899  1.00  0.00     0.134 A 
ATOM     94  F   UNL A   1      43.855  36.679  42.260  1.00  0.00    -0.206 F 
ATOM     95  C   UNL A   1      45.672  35.699  43.377  1.00  0.00     0.040 A 
ATOM     96  C   UNL A   1      46.332  33.442  42.859  1.00  0.00     0.040 A 
ATOM     97  F   UNL A   1      45.188  32.232  41.209  1.00  0.00    -0.206 F 
ATOM     98  C   UNL A   1      46.514  34.610  43.596  1.00  0.00     0.006 A 
ENDBRANCH  74  91
ENDBRANCH  48  49
ENDBRANCH  41  43
ENDBRANCH  40  41
ENDBRANCH  39  40
ENDBRANCH  38  39
ENDBRANCH  37  38
ENDBRANCH  36  37
ENDBRANCH  35  36
ENDBRANCH  34  35
ENDBRANCH   1  34
TORSDOF 24
ENDMDL
MODEL 2
REMARK VINA RESULT:      -7.6      5.284     11.173
REMARK SMILES C[C@H](Oc1ccc(/C=C2/SC(=S)N(c3ccc(F)c(Cl)c3)C2=O)cc1)C(=O)OCCOCCOCCOCCOC(=O)c1ccc(-c2c3nc(c(-c4c(F)cccc4F)c4ccc([nH]4)c(-c4c(F)cccc4F)c4nc(c(-c5c(F)cccc5F)c5ccc2[nH]5)C=C4)C=C3)cc1
REMARK SMILES IDX 33 1 32 2 31 3 30 4 29 5 28 6 26 7 27 8 2 9 1 10 3 11 4 12
REMARK SMILES IDX 5 13 25 14 6 15 24 16 7 17 8 18 9 19 10 20 22 21 11 22 13 23
REMARK SMILES IDX 23 24 12 25 14 26 15 27 21 28 16 29 19 30 17 31 20 32 18 33
REMARK SMILES IDX 34 34 35 35 36 36 37 37 38 38 39 39 40 40 41 41 42 42 43 43
REMARK SMILES IDX 44 44 96 45 45 46 95 47 46 48 47 49 48 50 89 51 49 52 94 53
REMARK SMILES IDX 88 54 90 55 50 56 93 57 87 58 86 59 51 61 77 62 60 63 76 64
REMARK SMILES IDX 61 65 64 66 75 67 91 68 62 69 63 70 74 72 92 73 65 74 52 75
REMARK SMILES IDX 53 76 58 77 54 78 55 79 57 80 59 81 56 82 78 83 79 84 84 85
REMARK SMILES IDX 80 86 81 87 83 88 85 89 82 90 66 91 67 92 72 93 68 94 69 95
REMARK SMILES IDX 71 96 73 97 70 98
REMARK H PARENT 90 60 64 71
REMARK Flexibility Score: inf
ROOT
ATOM      1  C   UNL A   1      40.618  25.799  28.415  1.00  0.00     0.188 C 
ENDROOT
BRANCH   1   2
ATOM      2  C   UNL A   1      39.737  26.989  27.996  1.00  0.00     0.188 C 
BRANCH   2   3
ATOM      3  O   UNL A   1      39.810  28.243  28.659  1.00  0.00    -0.376 OA
BRANCH   3   4
ATOM      4  C   UNL A   1      39.195  28.495  29.912  1.00  0.00     0.202 C 
BRANCH   4   5
ATOM      5  C   UNL A   1      38.603  29.850  30.330  1.00  0.00     0.261 C 
BRANCH   5   6
ATOM      6  O   UNL A   1      37.550  30.387  29.532  1.00  0.00    -0.461 OA
BRANCH   6   7
ATOM      7  C   UNL A   1      36.373  29.716  29.585  1.00  0.00     0.347 C 
ATOM      8  O   UNL A   1      35.841  29.327  30.620  1.00  0.00    -0.248 OA
BRANCH   7   9
ATOM      9  C   UNL A   1      35.809  29.410  28.191  1.00  0.00     0.279 C 
ATOM     10  C   UNL A   1      36.907  29.874  27.234  1.00  0.00     0.066 C 
BRANCH   9  11
ATOM     11  O   UNL A   1      34.528  30.007  27.983  1.00  0.00    -0.479 OA
BRANCH  11  12
ATOM     12  C   UNL A   1      33.572  29.442  27.192  1.00  0.00     0.120 A 
ATOM     13  C   UNL A   1      32.464  28.726  27.629  1.00  0.00     0.047 A 
ATOM     14  C   UNL A   1      33.813  29.522  25.817  1.00  0.00     0.047 A 
ATOM     15  C   UNL A   1      31.748  27.919  26.739  1.00  0.00     0.012 A 
ATOM     16  C   UNL A   1      33.052  28.772  24.911  1.00  0.00     0.012 A 
ATOM     17  C   UNL A   1      32.090  27.878  25.386  1.00  0.00    -0.024 A 
BRANCH  17  18
ATOM     18  C   UNL A   1      31.466  26.853  24.538  1.00  0.00     0.029 C 
ATOM     19  C   UNL A   1      31.900  25.591  24.383  1.00  0.00     0.081 C 
ATOM     20  S   UNL A   1      31.070  24.446  23.398  1.00  0.00    -0.054 SA
ATOM     21  C   UNL A   1      33.125  24.954  24.963  1.00  0.00     0.270 C 
ATOM     22  C   UNL A   1      32.315  23.213  23.593  1.00  0.00     0.152 C 
ATOM     23  N   UNL A   1      33.344  23.708  24.380  1.00  0.00    -0.261 N 
ATOM     24  O   UNL A   1      33.836  25.491  25.801  1.00  0.00    -0.268 OA
ATOM     25  S   UNL A   1      32.111  21.682  22.951  1.00  0.00    -0.051 S 
BRANCH  23  26
ATOM     26  C   UNL A   1      34.606  23.060  24.575  1.00  0.00     0.052 A 
ATOM     27  C   UNL A   1      35.812  23.769  24.439  1.00  0.00     0.030 A 
ATOM     28  C   UNL A   1      34.663  21.672  24.775  1.00  0.00     0.050 A 
ATOM     29  C   UNL A   1      37.044  23.110  24.505  1.00  0.00     0.043 A 
ATOM     30  C   UNL A   1      35.896  21.013  24.822  1.00  0.00     0.078 A 
ATOM     31  C   UNL A   1      37.078  21.734  24.687  1.00  0.00     0.141 A 
ATOM     32  Cl  UNL A   1      35.926  19.300  24.994  1.00  0.00    -0.081 Cl
ATOM     33  F   UNL A   1      38.266  21.114  24.709  1.00  0.00    -0.205 F 
ENDBRANCH  23  26
ENDBRANCH  17  18
ENDBRANCH  11  12
ENDBRANCH   9  11
ENDBRANCH   7   9
ENDBRANCH   6   7
ENDBRANCH   5   6
ENDBRANCH   4   5
ENDBRANCH   3   4
ENDBRANCH   2   3
ENDBRANCH   1   2
BRANCH   1  34
ATOM     34  O   UNL A   1      41.308  25.189  27.342  1.00  0.00    -0.377 OA
BRANCH  34  35
ATOM     35  C   UNL A   1      42.512  25.816  26.920  1.00  0.00     0.188 C 
BRANCH  35  36
ATOM     36  C   UNL A   1      42.680  26.155  25.422  1.00  0.00     0.188 C 
BRANCH  36  37
ATOM     37  O   UNL A   1      42.239  27.461  25.074  1.00  0.00    -0.376 OA
BRANCH  37  38
ATOM     38  C   UNL A   1      42.701  28.557  25.846  1.00  0.00     0.202 C 
BRANCH  38  39
ATOM     39  C   UNL A   1      44.209  28.619  26.138  1.00  0.00     0.261 C 
BRANCH  39  40
ATOM     40  O   UNL A   1      44.685  29.818  26.769  1.00  0.00    -0.460 OA
BRANCH  40  41
ATOM     41  C   UNL A   1      45.662  30.510  26.149  1.00  0.00     0.338 C 
ATOM     42  O   UNL A   1      46.428  30.095  25.292  1.00  0.00    -0.246 OA
BRANCH  41  43
ATOM     43  C   UNL A   1      45.530  31.930  26.534  1.00  0.00     0.060 A 
ATOM     44  C   UNL A   1      46.680  32.648  26.886  1.00  0.00     0.016 A 
ATOM     45  C   UNL A   1      44.278  32.551  26.548  1.00  0.00     0.016 A 
ATOM     46  C   UNL A   1      46.578  33.978  27.294  1.00  0.00     0.010 A 
ATOM     47  C   UNL A   1      44.174  33.877  26.978  1.00  0.00     0.010 A 
ATOM     48  C   UNL A   1      45.318  34.584  27.389  1.00  0.00    -0.014 A 
BRANCH  48  49
ATOM     49  C   UNL A   1      45.174  35.870  28.113  1.00  0.00     0.031 A 
ATOM     50  C   UNL A   1      44.787  35.829  29.567  1.00  0.00     0.074 A 
ATOM     51  C   UNL A   1      45.399  37.050  27.509  1.00  0.00     0.049 A 
ATOM     52  N   UNL A   1      44.544  36.812  30.395  1.00  0.00    -0.248 NA
ATOM     53  C   UNL A   1      44.654  34.490  30.167  1.00  0.00     0.031 C 
ATOM     54  C   UNL A   1      45.824  37.225  26.123  1.00  0.00     0.029 A 
ATOM     55  N   UNL A   1      45.287  38.330  27.992  1.00  0.00    -0.354 N 
ATOM     56  C   UNL A   1      44.219  36.213  31.605  1.00  0.00     0.074 A 
ATOM     57  C   UNL A   1      44.266  34.782  31.399  1.00  0.00     0.031 C 
ATOM     58  C   UNL A   1      45.925  38.540  25.862  1.00  0.00     0.029 A 
ATOM     59  C   UNL A   1      45.534  39.298  27.050  1.00  0.00     0.049 A 
ATOM     60  H   UNL A   1      45.052  38.535  28.927  1.00  0.00     0.167 HD
ATOM     61  C   UNL A   1      43.916  36.802  32.787  1.00  0.00     0.037 A 
ATOM     62  C   UNL A   1      45.430  40.638  27.133  1.00  0.00     0.037 A 
ATOM     63  C   UNL A   1      43.864  38.225  32.989  1.00  0.00     0.049 A 
ATOM     64  C   UNL A   1      45.007  41.270  28.437  1.00  0.00     0.074 A 
ATOM     65  C   UNL A   1      43.583  38.920  34.152  1.00  0.00     0.029 A 
ATOM     66  N   UNL A   1      44.086  39.172  32.001  1.00  0.00    -0.354 N 
ATOM     67  N   UNL A   1      44.730  40.699  29.584  1.00  0.00    -0.248 NA
ATOM     68  C   UNL A   1      44.885  42.735  28.456  1.00  0.00     0.031 C 
ATOM     69  C   UNL A   1      43.574  40.286  33.853  1.00  0.00     0.029 A 
ATOM     70  C   UNL A   1      43.917  40.445  32.520  1.00  0.00     0.049 A 
ATOM     71  H   UNL A   1      44.327  38.968  31.068  1.00  0.00     0.167 HD
ATOM     72  C   UNL A   1      44.435  41.732  30.466  1.00  0.00     0.074 A 
ATOM     73  C   UNL A   1      44.581  42.967  29.724  1.00  0.00     0.031 C 
ATOM     74  C   UNL A   1      44.075  41.667  31.772  1.00  0.00     0.037 A 
BRANCH  61  75
ATOM     75  C   UNL A   1      43.583  35.902  33.942  1.00  0.00     0.057 A 
ATOM     76  C   UNL A   1      42.304  35.355  34.115  1.00  0.00     0.134 A 
ATOM     77  C   UNL A   1      44.565  35.555  34.879  1.00  0.00     0.134 A 
ATOM     78  F   UNL A   1      41.314  35.658  33.264  1.00  0.00    -0.206 F 
ATOM     79  C   UNL A   1      42.008  34.519  35.193  1.00  0.00     0.040 A 
ATOM     80  C   UNL A   1      44.288  34.696  35.944  1.00  0.00     0.040 A 
ATOM     81  F   UNL A   1      45.811  36.038  34.772  1.00  0.00    -0.206 F 
ATOM     82  C   UNL A   1      43.004  34.182  36.108  1.00  0.00     0.006 A 
ENDBRANCH  61  75
BRANCH  62  83
ATOM     83  C   UNL A   1      45.712  41.486  25.944  1.00  0.00     0.057 A 
ATOM     84  C   UNL A   1      46.988  42.012  25.713  1.00  0.00     0.134 A 
ATOM     85  C   UNL A   1      44.705  41.817  25.028  1.00  0.00     0.134 A 
ATOM     86  F   UNL A   1      47.989  41.753  26.567  1.00  0.00    -0.206 F 
ATOM     87  C   UNL A   1      47.248  42.855  24.631  1.00  0.00     0.040 A 
ATOM     88  C   UNL A   1      44.957  42.635  23.926  1.00  0.00     0.040 A 
ATOM     89  F   UNL A   1      43.459  41.345  25.189  1.00  0.00    -0.206 F 
ATOM     90  C   UNL A   1      46.231  43.165  23.730  1.00  0.00     0.006 A 
ENDBRANCH  62  83
BRANCH  74  91
ATOM     91  C   UNL A   1      43.859  42.965  32.500  1.00  0.00     0.057 A 
ATOM     92  C   UNL A   1      42.603  43.578  32.574  1.00  0.00     0.134 A 
ATOM     93  C   UNL A   1      44.920  43.586  33.174  1.00  0.00     0.134 A 
ATOM     94  F   UNL A   1      41.546  43.043  31.944  1.00  0.00    -0.206 F 
ATOM     95  C   UNL A   1      42.414  44.774  33.270  1.00  0.00     0.040 A 
ATOM     96  C   UNL A   1      44.737  44.764  33.900  1.00  0.00     0.040 A 
ATOM     97  F   UNL A   1      46.149  43.047  33.156  1.00  0.00    -0.206 F 
ATOM     98  C   UNL A   1      43.482  45.366  33.942  1.00  0.00     0.006 A 
ENDBRANCH  74  91
ENDBRANCH  48  49
ENDBRANCH  41  43
ENDBRANCH  40  41
ENDBRANCH  39  40
ENDBRANCH  38  39
ENDBRANCH  37  38
ENDBRANCH  36  37
ENDBRANCH  35  36
ENDBRANCH  34  35
ENDBRANCH   1  34
TORSDOF 24
ENDMDL
MODEL 3
REMARK VINA RESULT:      -7.5      7.814     15.429
REMARK SMILES C[C@H](Oc1ccc(/C=C2/SC(=S)N(c3ccc(F)c(Cl)c3)C2=O)cc1)C(=O)OCCOCCOCCOCCOC(=O)c1ccc(-c2c3nc(c(-c4c(F)cccc4F)c4ccc([nH]4)c(-c4c(F)cccc4F)c4nc(c(-c5c(F)cccc5F)c5ccc2[nH]5)C=C4)C=C3)cc1
REMARK SMILES IDX 33 1 32 2 31 3 30 4 29 5 28 6 26 7 27 8 2 9 1 10 3 11 4 12
REMARK SMILES IDX 5 13 25 14 6 15 24 16 7 17 8 18 9 19 10 20 22 21 11 22 13 23
REMARK SMILES IDX 23 24 12 25 14 26 15 27 21 28 16 29 19 30 17 31 20 32 18 33
REMARK SMILES IDX 34 34 35 35 36 36 37 37 38 38 39 39 40 40 41 41 42 42 43 43
REMARK SMILES IDX 44 44 96 45 45 46 95 47 46 48 47 49 48 50 89 51 49 52 94 53
REMARK SMILES IDX 88 54 90 55 50 56 93 57 87 58 86 59 51 61 77 62 60 63 76 64
REMARK SMILES IDX 61 65 64 66 75 67 91 68 62 69 63 70 74 72 92 73 65 74 52 75
REMARK SMILES IDX 53 76 58 77 54 78 55 79 57 80 59 81 56 82 78 83 79 84 84 85
REMARK SMILES IDX 80 86 81 87 83 88 85 89 82 90 66 91 67 92 72 93 68 94 69 95
REMARK SMILES IDX 71 96 73 97 70 98
REMARK H PARENT 90 60 64 71
REMARK Flexibility Score: inf
ROOT
ATOM      1  C   UNL A   1      43.800  39.191  34.491  1.00  0.00     0.188 C 
ENDROOT
BRANCH   1   2
ATOM      2  C   UNL A   1      43.588  38.622  33.077  1.00  0.00     0.188 C 
BRANCH   2   3
ATOM      3  O   UNL A   1      43.055  37.321  32.867  1.00  0.00    -0.376 OA
BRANCH   3   4
ATOM      4  C   UNL A   1      42.841  36.392  33.916  1.00  0.00     0.202 C 
BRANCH   4   5
ATOM      5  C   UNL A   1      41.979  35.127  33.792  1.00  0.00     0.261 C 
BRANCH   5   6
ATOM      6  O   UNL A   1      41.220  34.959  32.596  1.00  0.00    -0.461 OA
BRANCH   6   7
ATOM      7  C   UNL A   1      41.862  34.339  31.575  1.00  0.00     0.347 C 
ATOM      8  O   UNL A   1      42.871  33.653  31.704  1.00  0.00    -0.248 OA
BRANCH   7   9
ATOM      9  C   UNL A   1      41.240  34.660  30.209  1.00  0.00     0.279 C 
ATOM     10  C   UNL A   1      40.038  33.721  30.117  1.00  0.00     0.066 C 
BRANCH   9  11
ATOM     11  O   UNL A   1      42.186  34.547  29.145  1.00  0.00    -0.479 OA
BRANCH  11  12
ATOM     12  C   UNL A   1      42.469  35.579  28.299  1.00  0.00     0.120 A 
ATOM     13  C   UNL A   1      43.629  35.728  27.549  1.00  0.00     0.047 A 
ATOM     14  C   UNL A   1      41.530  36.614  28.286  1.00  0.00     0.047 A 
ATOM     15  C   UNL A   1      43.952  36.967  26.987  1.00  0.00     0.012 A 
ATOM     16  C   UNL A   1      41.817  37.834  27.662  1.00  0.00     0.012 A 
ATOM     17  C   UNL A   1      43.081  38.051  27.109  1.00  0.00    -0.024 A 
BRANCH  17  18
ATOM     18  C   UNL A   1      43.558  39.381  26.708  1.00  0.00     0.029 C 
ATOM     19  C   UNL A   1      43.929  40.367  27.542  1.00  0.00     0.081 C 
ATOM     20  S   UNL A   1      44.521  41.882  26.971  1.00  0.00    -0.054 SA
ATOM     21  C   UNL A   1      43.887  40.381  29.039  1.00  0.00     0.270 C 
ATOM     22  C   UNL A   1      44.588  42.586  28.586  1.00  0.00     0.152 C 
ATOM     23  N   UNL A   1      44.137  41.665  29.518  1.00  0.00    -0.261 N 
ATOM     24  O   UNL A   1      43.629  39.397  29.718  1.00  0.00    -0.268 OA
ATOM     25  S   UNL A   1      45.219  44.117  28.827  1.00  0.00    -0.051 S 
BRANCH  23  26
ATOM     26  C   UNL A   1      43.860  41.960  30.892  1.00  0.00     0.052 A 
ATOM     27  C   UNL A   1      42.540  42.119  31.347  1.00  0.00     0.030 A 
ATOM     28  C   UNL A   1      44.913  42.231  31.780  1.00  0.00     0.050 A 
ATOM     29  C   UNL A   1      42.277  42.531  32.657  1.00  0.00     0.043 A 
ATOM     30  C   UNL A   1      44.647  42.660  33.084  1.00  0.00     0.078 A 
ATOM     31  C   UNL A   1      43.332  42.808  33.516  1.00  0.00     0.141 A 
ATOM     32  Cl  UNL A   1      45.962  43.053  34.124  1.00  0.00    -0.081 Cl
ATOM     33  F   UNL A   1      43.062  43.239  34.756  1.00  0.00    -0.205 F 
ENDBRANCH  23  26
ENDBRANCH  17  18
ENDBRANCH  11  12
ENDBRANCH   9  11
ENDBRANCH   7   9
ENDBRANCH   6   7
ENDBRANCH   5   6
ENDBRANCH   4   5
ENDBRANCH   3   4
ENDBRANCH   2   3
ENDBRANCH   1   2
BRANCH   1  34
ATOM     34  O   UNL A   1      45.097  39.711  34.712  1.00  0.00    -0.377 OA
BRANCH  34  35
ATOM     35  C   UNL A   1      45.861  39.100  35.743  1.00  0.00     0.188 C 
BRANCH  35  36
ATOM     36  C   UNL A   1      45.632  37.603  36.042  1.00  0.00     0.188 C 
BRANCH  36  37
ATOM     37  O   UNL A   1      46.131  36.730  35.038  1.00  0.00    -0.376 OA
BRANCH  37  38
ATOM     38  C   UNL A   1      47.235  37.159  34.258  1.00  0.00     0.202 C 
BRANCH  38  39
ATOM     39  C   UNL A   1      47.041  37.191  32.734  1.00  0.00     0.261 C 
BRANCH  39  40
ATOM     40  O   UNL A   1      46.838  35.922  32.093  1.00  0.00    -0.460 OA
BRANCH  40  41
ATOM     41  C   UNL A   1      45.995  35.876  31.042  1.00  0.00     0.338 C 
ATOM     42  O   UNL A   1      45.463  36.823  30.483  1.00  0.00    -0.246 OA
BRANCH  41  43
ATOM     43  C   UNL A   1      45.968  34.487  30.540  1.00  0.00     0.060 A 
ATOM     44  C   UNL A   1      45.777  34.263  29.171  1.00  0.00     0.016 A 
ATOM     45  C   UNL A   1      46.133  33.410  31.415  1.00  0.00     0.016 A 
ATOM     46  C   UNL A   1      45.705  32.960  28.677  1.00  0.00     0.010 A 
ATOM     47  C   UNL A   1      46.041  32.105  30.924  1.00  0.00     0.010 A 
ATOM     48  C   UNL A   1      45.788  31.875  29.559  1.00  0.00    -0.014 A 
BRANCH  48  49
ATOM     49  C   UNL A   1      45.401  30.520  29.096  1.00  0.00     0.031 A 
ATOM     50  C   UNL A   1      43.952  30.122  29.189  1.00  0.00     0.074 A 
ATOM     51  C   UNL A   1      46.303  29.664  28.585  1.00  0.00     0.049 A 
ATOM     52  N   UNL A   1      43.379  28.982  28.904  1.00  0.00    -0.248 NA
ATOM     53  C   UNL A   1      43.024  31.158  29.673  1.00  0.00     0.031 C 
ATOM     54  C   UNL A   1      47.724  29.943  28.396  1.00  0.00     0.029 A 
ATOM     55  N   UNL A   1      46.150  28.374  28.139  1.00  0.00    -0.354 N 
ATOM     56  C   UNL A   1      42.030  29.158  29.184  1.00  0.00     0.074 A 
ATOM     57  C   UNL A   1      41.873  30.504  29.690  1.00  0.00     0.031 C 
ATOM     58  C   UNL A   1      48.318  28.849  27.885  1.00  0.00     0.029 A 
ATOM     59  C   UNL A   1      47.325  27.784  27.747  1.00  0.00     0.049 A 
ATOM     60  H   UNL A   1      45.278  27.916  28.104  1.00  0.00     0.167 HD
ATOM     61  C   UNL A   1      41.011  28.280  29.027  1.00  0.00     0.037 A 
ATOM     62  C   UNL A   1      47.573  26.521  27.349  1.00  0.00     0.037 A 
ATOM     63  C   UNL A   1      41.170  26.940  28.530  1.00  0.00     0.049 A 
ATOM     64  C   UNL A   1      46.435  25.533  27.263  1.00  0.00     0.074 A 
ATOM     65  C   UNL A   1      40.198  25.979  28.319  1.00  0.00     0.029 A 
ATOM     66  N   UNL A   1      42.383  26.367  28.177  1.00  0.00    -0.354 N 
ATOM     67  N   UNL A   1      45.159  25.716  27.503  1.00  0.00    -0.248 NA
ATOM     68  C   UNL A   1      46.774  24.164  26.850  1.00  0.00     0.031 C 
ATOM     69  C   UNL A   1      40.829  24.804  27.898  1.00  0.00     0.029 A 
ATOM     70  C   UNL A   1      42.187  25.055  27.780  1.00  0.00     0.049 A 
ATOM     71  H   UNL A   1      43.254  26.826  28.207  1.00  0.00     0.167 HD
ATOM     72  C   UNL A   1      44.541  24.499  27.238  1.00  0.00     0.074 A 
ATOM     73  C   UNL A   1      45.581  23.589  26.805  1.00  0.00     0.031 C 
ATOM     74  C   UNL A   1      43.231  24.163  27.342  1.00  0.00     0.037 A 
BRANCH  61  75
ATOM     75  C   UNL A   1      39.639  28.735  29.434  1.00  0.00     0.057 A 
ATOM     76  C   UNL A   1      39.147  28.550  30.734  1.00  0.00     0.134 A 
ATOM     77  C   UNL A   1      38.807  29.393  28.518  1.00  0.00     0.134 A 
ATOM     78  F   UNL A   1      39.884  27.914  31.655  1.00  0.00    -0.206 F 
ATOM     79  C   UNL A   1      37.869  28.978  31.098  1.00  0.00     0.040 A 
ATOM     80  C   UNL A   1      37.540  29.852  28.880  1.00  0.00     0.040 A 
ATOM     81  F   UNL A   1      39.216  29.608  27.258  1.00  0.00    -0.206 F 
ATOM     82  C   UNL A   1      37.065  29.638  30.171  1.00  0.00     0.006 A 
ENDBRANCH  61  75
BRANCH  62  83
ATOM     83  C   UNL A   1      48.960  26.100  27.015  1.00  0.00     0.057 A 
ATOM     84  C   UNL A   1      49.804  25.547  27.985  1.00  0.00     0.134 A 
ATOM     85  C   UNL A   1      49.486  26.272  25.729  1.00  0.00     0.134 A 
ATOM     86  F   UNL A   1      49.368  25.379  29.243  1.00  0.00    -0.206 F 
ATOM     87  C   UNL A   1      51.126  25.201  27.696  1.00  0.00     0.040 A 
ATOM     88  C   UNL A   1      50.796  25.905  25.418  1.00  0.00     0.040 A 
ATOM     89  F   UNL A   1      48.731  26.796  24.751  1.00  0.00    -0.206 F 
ATOM     90  C   UNL A   1      51.623  25.376  26.406  1.00  0.00     0.006 A 
ENDBRANCH  62  83
BRANCH  74  91
ATOM     91  C   UNL A   1      42.836  22.769  26.939  1.00  0.00     0.057 A 
ATOM     92  C   UNL A   1      42.509  21.785  27.881  1.00  0.00     0.134 A 
ATOM     93  C   UNL A   1      42.740  22.422  25.584  1.00  0.00     0.134 A 
ATOM     94  F   UNL A   1      42.589  22.046  29.194  1.00  0.00    -0.206 F 
ATOM     95  C   UNL A   1      42.126  20.500  27.491  1.00  0.00     0.040 A 
ATOM     96  C   UNL A   1      42.327  21.151  25.182  1.00  0.00     0.040 A 
ATOM     97  F   UNL A   1      43.026  23.319  24.628  1.00  0.00    -0.206 F 
ATOM     98  C   UNL A   1      42.026  20.183  26.137  1.00  0.00     0.006 A 
ENDBRANCH  74  91
ENDBRANCH  48  49
ENDBRANCH  41  43
ENDBRANCH  40  41
ENDBRANCH  39  40
ENDBRANCH  38  39
ENDBRANCH  37  38
ENDBRANCH  36  37
ENDBRANCH  35  36
ENDBRANCH  34  35
ENDBRANCH   1  34
TORSDOF 24
ENDMDL
