MODEL 1
REMARK VINA RESULT:      -9.4      0.000      0.000
REMARK SMILES CCc1ccccc1NC(=O)CCCC(=O)OCCOCCOCCOCCOC(=O)c1ccc(-c2c3nc(c(-c4c(F)cccc4F)c4ccc([nH]4)c(-c4c(F)cccc4F)c4nc(c(-c5c(F)cccc5F)c5ccc2[nH]5)C=C4)C=C3)cc1
REMARK SMILES IDX 21 1 20 2 19 3 18 4 17 5 15 6 16 7 14 8 13 9 12 10 10 11
REMARK SMILES IDX 9 12 11 14 8 15 3 16 4 17 5 18 7 19 6 20 2 21 1 22 22 23
REMARK SMILES IDX 23 24 24 25 25 26 26 27 27 28 28 29 29 30 30 31 31 32 32 33
REMARK SMILES IDX 33 34 85 35 34 36 84 37 35 38 36 39 37 40 78 41 38 42 83 43
REMARK SMILES IDX 77 44 79 45 39 46 82 47 76 48 75 49 40 51 66 52 49 53 65 54
REMARK SMILES IDX 50 55 53 56 64 57 80 58 51 59 52 60 63 62 81 63 54 64 41 65
REMARK SMILES IDX 42 66 47 67 43 68 44 69 46 70 48 71 45 72 67 73 68 74 73 75
REMARK SMILES IDX 69 76 70 77 72 78 74 79 71 80 55 81 56 82 61 83 57 84 58 85
REMARK SMILES IDX 60 86 62 87 59 88
REMARK H PARENT 9 13 79 50 53 61
REMARK Flexibility Score: inf
ROOT
ATOM      1  C   UNL A   1      32.821  25.543  21.494  1.00  0.00     0.188 C 
ENDROOT
BRANCH   1   2
ATOM      2  O   UNL A   1      32.290  26.444  22.451  1.00  0.00    -0.376 OA
BRANCH   2   3
ATOM      3  C   UNL A   1      33.154  26.826  23.502  1.00  0.00     0.202 C 
BRANCH   3   4
ATOM      4  C   UNL A   1      32.501  27.563  24.655  1.00  0.00     0.261 C 
BRANCH   4   5
ATOM      5  O   UNL A   1      31.221  27.107  25.126  1.00  0.00    -0.463 OA
BRANCH   5   6
ATOM      6  C   UNL A   1      31.008  25.945  25.777  1.00  0.00     0.305 C 
ATOM      7  O   UNL A   1      29.917  25.540  26.152  1.00  0.00    -0.252 OA
BRANCH   6   8
ATOM      8  C   UNL A   1      32.309  25.189  26.004  1.00  0.00     0.123 C 
BRANCH   8   9
ATOM      9  C   UNL A   1      32.221  23.810  26.672  1.00  0.00     0.022 C 
BRANCH   9  10
ATOM     10  C   UNL A   1      32.424  22.566  25.795  1.00  0.00     0.101 C 
BRANCH  10  11
ATOM     11  C   UNL A   1      33.156  21.435  26.477  1.00  0.00     0.224 C 
ATOM     12  N   UNL A   1      33.382  20.219  25.915  1.00  0.00    -0.326 N 
ATOM     13  H   UNL A   1      34.006  19.675  26.448  1.00  0.00     0.169 HD
ATOM     14  O   UNL A   1      33.664  21.634  27.588  1.00  0.00    -0.275 OA
BRANCH  12  15
ATOM     15  C   UNL A   1      32.945  19.543  24.760  1.00  0.00     0.044 A 
ATOM     16  C   UNL A   1      32.955  18.139  24.753  1.00  0.00    -0.025 A 
ATOM     17  C   UNL A   1      32.922  17.437  23.534  1.00  0.00     0.006 A 
ATOM     18  C   UNL A   1      32.606  18.098  22.365  1.00  0.00     0.000 A 
ATOM     19  C   UNL A   1      32.422  20.156  23.640  1.00  0.00     0.026 A 
ATOM     20  C   UNL A   1      32.231  19.428  22.451  1.00  0.00     0.002 A 
BRANCH  16  21
ATOM     21  C   UNL A   1      32.734  17.358  26.025  1.00  0.00     0.034 C 
ATOM     22  C   UNL A   1      32.639  15.867  25.675  1.00  0.00     0.009 C 
ENDBRANCH  16  21
ENDBRANCH  12  15
ENDBRANCH  10  11
ENDBRANCH   9  10
ENDBRANCH   8   9
ENDBRANCH   6   8
ENDBRANCH   5   6
ENDBRANCH   4   5
ENDBRANCH   3   4
ENDBRANCH   2   3
ENDBRANCH   1   2
BRANCH   1  23
ATOM     23  C   UNL A   1      33.287  24.186  22.056  1.00  0.00     0.188 C 
BRANCH  23  24
ATOM     24  O   UNL A   1      34.596  24.062  22.594  1.00  0.00    -0.377 OA
BRANCH  24  25
ATOM     25  C   UNL A   1      34.965  22.942  23.392  1.00  0.00     0.188 C 
BRANCH  25  26
ATOM     26  C   UNL A   1      36.432  22.525  23.569  1.00  0.00     0.188 C 
BRANCH  26  27
ATOM     27  O   UNL A   1      36.715  21.904  24.802  1.00  0.00    -0.376 OA
BRANCH  27  28
ATOM     28  C   UNL A   1      36.890  20.500  24.833  1.00  0.00     0.202 C 
BRANCH  28  29
ATOM     29  C   UNL A   1      38.293  19.902  25.043  1.00  0.00     0.261 C 
BRANCH  29  30
ATOM     30  O   UNL A   1      39.381  20.796  25.333  1.00  0.00    -0.460 OA
BRANCH  30  31
ATOM     31  C   UNL A   1      40.075  20.651  26.479  1.00  0.00     0.338 C 
ATOM     32  O   UNL A   1      40.579  19.628  26.913  1.00  0.00    -0.246 OA
BRANCH  31  33
ATOM     33  C   UNL A   1      40.308  22.007  27.032  1.00  0.00     0.060 A 
ATOM     34  C   UNL A   1      39.558  23.090  26.549  1.00  0.00     0.016 A 
ATOM     35  C   UNL A   1      41.260  22.203  28.036  1.00  0.00     0.016 A 
ATOM     36  C   UNL A   1      39.799  24.380  27.026  1.00  0.00     0.010 A 
ATOM     37  C   UNL A   1      41.525  23.499  28.488  1.00  0.00     0.010 A 
ATOM     38  C   UNL A   1      40.830  24.596  27.948  1.00  0.00    -0.014 A 
BRANCH  38  39
ATOM     39  C   UNL A   1      41.369  25.966  28.126  1.00  0.00     0.031 A 
ATOM     40  C   UNL A   1      42.745  26.245  27.583  1.00  0.00     0.074 A 
ATOM     41  C   UNL A   1      40.660  26.944  28.715  1.00  0.00     0.049 A 
ATOM     42  N   UNL A   1      43.473  27.329  27.667  1.00  0.00    -0.248 NA
ATOM     43  C   UNL A   1      43.387  25.146  26.840  1.00  0.00     0.031 C 
ATOM     44  C   UNL A   1      39.294  26.818  29.217  1.00  0.00     0.029 A 
ATOM     45  N   UNL A   1      41.004  28.243  28.992  1.00  0.00    -0.354 N 
ATOM     46  C   UNL A   1      44.656  27.036  26.998  1.00  0.00     0.074 A 
ATOM     47  C   UNL A   1      44.565  25.669  26.541  1.00  0.00     0.031 C 
ATOM     48  C   UNL A   1      38.919  27.992  29.754  1.00  0.00     0.029 A 
ATOM     49  C   UNL A   1      40.032  28.938  29.668  1.00  0.00     0.049 A 
ATOM     50  H   UNL A   1      41.867  28.640  28.732  1.00  0.00     0.167 HD
ATOM     51  C   UNL A   1      45.724  27.840  26.779  1.00  0.00     0.037 A 
ATOM     52  C   UNL A   1      40.054  30.185  30.179  1.00  0.00     0.037 A 
ATOM     53  C   UNL A   1      45.813  29.197  27.244  1.00  0.00     0.049 A 
ATOM     54  C   UNL A   1      41.294  31.027  30.012  1.00  0.00     0.074 A 
ATOM     55  C   UNL A   1      46.852  30.097  27.083  1.00  0.00     0.029 A 
ATOM     56  N   UNL A   1      44.827  29.848  27.969  1.00  0.00    -0.354 N 
ATOM     57  N   UNL A   1      42.410  30.746  29.383  1.00  0.00    -0.248 NA
ATOM     58  C   UNL A   1      41.277  32.362  30.629  1.00  0.00     0.031 C 
ATOM     59  C   UNL A   1      46.517  31.273  27.759  1.00  0.00     0.029 A 
ATOM     60  C   UNL A   1      45.242  31.130  28.285  1.00  0.00     0.049 A 
ATOM     61  H   UNL A   1      43.960  29.456  28.223  1.00  0.00     0.167 HD
ATOM     62  C   UNL A   1      43.210  31.877  29.496  1.00  0.00     0.074 A 
ATOM     63  C   UNL A   1      42.447  32.853  30.247  1.00  0.00     0.031 C 
ATOM     64  C   UNL A   1      44.462  32.092  29.021  1.00  0.00     0.037 A 
BRANCH  51  65
ATOM     65  C   UNL A   1      46.888  27.255  26.034  1.00  0.00     0.057 A 
ATOM     66  C   UNL A   1      47.894  26.525  26.682  1.00  0.00     0.134 A 
ATOM     67  C   UNL A   1      46.992  27.407  24.646  1.00  0.00     0.134 A 
ATOM     68  F   UNL A   1      47.866  26.361  28.013  1.00  0.00    -0.206 F 
ATOM     69  C   UNL A   1      48.972  25.985  25.977  1.00  0.00     0.040 A 
ATOM     70  C   UNL A   1      48.050  26.846  23.927  1.00  0.00     0.040 A 
ATOM     71  F   UNL A   1      46.064  28.095  23.963  1.00  0.00    -0.206 F 
ATOM     72  C   UNL A   1      49.046  26.138  24.595  1.00  0.00     0.006 A 
ENDBRANCH  51  65
BRANCH  52  73
ATOM     73  C   UNL A   1      38.875  30.717  30.911  1.00  0.00     0.057 A 
ATOM     74  C   UNL A   1      38.713  30.496  32.284  1.00  0.00     0.134 A 
ATOM     75  C   UNL A   1      37.866  31.433  30.253  1.00  0.00     0.134 A 
ATOM     76  F   UNL A   1      39.631  29.795  32.967  1.00  0.00    -0.206 F 
ATOM     77  C   UNL A   1      37.587  30.952  32.973  1.00  0.00     0.040 A 
ATOM     78  C   UNL A   1      36.748  31.918  30.934  1.00  0.00     0.040 A 
ATOM     79  F   UNL A   1      37.955  31.675  28.937  1.00  0.00    -0.206 F 
ATOM     80  C   UNL A   1      36.602  31.670  32.297  1.00  0.00     0.006 A 
ENDBRANCH  52  73
BRANCH  64  81
ATOM     81  C   UNL A   1      45.067  33.448  29.250  1.00  0.00     0.057 A 
ATOM     82  C   UNL A   1      45.883  33.725  30.354  1.00  0.00     0.134 A 
ATOM     83  C   UNL A   1      44.870  34.479  28.319  1.00  0.00     0.134 A 
ATOM     84  F   UNL A   1      46.106  32.787  31.286  1.00  0.00    -0.206 F 
ATOM     85  C   UNL A   1      46.457  34.983  30.540  1.00  0.00     0.040 A 
ATOM     86  C   UNL A   1      45.464  35.731  28.477  1.00  0.00     0.040 A 
ATOM     87  F   UNL A   1      44.111  34.278  27.231  1.00  0.00    -0.206 F 
ATOM     88  C   UNL A   1      46.255  35.988  29.594  1.00  0.00     0.006 A 
ENDBRANCH  64  81
ENDBRANCH  38  39
ENDBRANCH  31  33
ENDBRANCH  30  31
ENDBRANCH  29  30
ENDBRANCH  28  29
ENDBRANCH  27  28
ENDBRANCH  26  27
ENDBRANCH  25  26
ENDBRANCH  24  25
ENDBRANCH  23  24
ENDBRANCH   1  23
TORSDOF 25
ENDMDL
MODEL 2
REMARK VINA RESULT:      -9.3      1.169      2.465
REMARK SMILES CCc1ccccc1NC(=O)CCCC(=O)OCCOCCOCCOCCOC(=O)c1ccc(-c2c3nc(c(-c4c(F)cccc4F)c4ccc([nH]4)c(-c4c(F)cccc4F)c4nc(c(-c5c(F)cccc5F)c5ccc2[nH]5)C=C4)C=C3)cc1
REMARK SMILES IDX 21 1 20 2 19 3 18 4 17 5 15 6 16 7 14 8 13 9 12 10 10 11
REMARK SMILES IDX 9 12 11 14 8 15 3 16 4 17 5 18 7 19 6 20 2 21 1 22 22 23
REMARK SMILES IDX 23 24 24 25 25 26 26 27 27 28 28 29 29 30 30 31 31 32 32 33
REMARK SMILES IDX 33 34 85 35 34 36 84 37 35 38 36 39 37 40 78 41 38 42 83 43
REMARK SMILES IDX 77 44 79 45 39 46 82 47 76 48 75 49 40 51 66 52 49 53 65 54
REMARK SMILES IDX 50 55 53 56 64 57 80 58 51 59 52 60 63 62 81 63 54 64 41 65
REMARK SMILES IDX 42 66 47 67 43 68 44 69 46 70 48 71 45 72 67 73 68 74 73 75
REMARK SMILES IDX 69 76 70 77 72 78 74 79 71 80 55 81 56 82 61 83 57 84 58 85
REMARK SMILES IDX 60 86 62 87 59 88
REMARK H PARENT 9 13 79 50 53 61
REMARK Flexibility Score: inf
ROOT
ATOM      1  C   UNL A   1      32.747  25.120  21.276  1.00  0.00     0.188 C 
ENDROOT
BRANCH   1   2
ATOM      2  O   UNL A   1      32.433  26.422  21.740  1.00  0.00    -0.376 OA
BRANCH   2   3
ATOM      3  C   UNL A   1      33.459  27.108  22.428  1.00  0.00     0.202 C 
BRANCH   3   4
ATOM      4  C   UNL A   1      33.179  28.564  22.743  1.00  0.00     0.261 C 
BRANCH   4   5
ATOM      5  O   UNL A   1      31.815  28.976  22.941  1.00  0.00    -0.463 OA
BRANCH   5   6
ATOM      6  C   UNL A   1      31.278  29.321  24.130  1.00  0.00     0.305 C 
ATOM      7  O   UNL A   1      30.328  30.075  24.278  1.00  0.00    -0.252 OA
BRANCH   6   8
ATOM      8  C   UNL A   1      32.014  28.658  25.284  1.00  0.00     0.123 C 
BRANCH   8   9
ATOM      9  C   UNL A   1      31.183  27.832  26.276  1.00  0.00     0.022 C 
BRANCH   9  10
ATOM     10  C   UNL A   1      31.612  26.383  26.551  1.00  0.00     0.101 C 
BRANCH  10  11
ATOM     11  C   UNL A   1      30.987  25.364  25.629  1.00  0.00     0.224 C 
ATOM     12  N   UNL A   1      31.400  24.074  25.520  1.00  0.00    -0.326 N 
ATOM     13  H   UNL A   1      30.775  23.529  24.991  1.00  0.00     0.169 HD
ATOM     14  O   UNL A   1      29.979  25.678  24.983  1.00  0.00    -0.275 OA
BRANCH  12  15
ATOM     15  C   UNL A   1      32.501  23.324  25.977  1.00  0.00     0.044 A 
ATOM     16  C   UNL A   1      32.507  21.936  25.769  1.00  0.00    -0.025 A 
ATOM     17  C   UNL A   1      33.349  21.108  26.534  1.00  0.00     0.006 A 
ATOM     18  C   UNL A   1      34.361  21.665  27.291  1.00  0.00     0.000 A 
ATOM     19  C   UNL A   1      33.634  23.860  26.552  1.00  0.00     0.026 A 
ATOM     20  C   UNL A   1      34.574  23.028  27.189  1.00  0.00     0.002 A 
BRANCH  16  21
ATOM     21  C   UNL A   1      31.826  21.332  24.565  1.00  0.00     0.034 C 
ATOM     22  C   UNL A   1      32.770  20.299  23.935  1.00  0.00     0.009 C 
ENDBRANCH  16  21
ENDBRANCH  12  15
ENDBRANCH  10  11
ENDBRANCH   9  10
ENDBRANCH   8   9
ENDBRANCH   6   8
ENDBRANCH   5   6
ENDBRANCH   4   5
ENDBRANCH   3   4
ENDBRANCH   2   3
ENDBRANCH   1   2
BRANCH   1  23
ATOM     23  C   UNL A   1      33.263  24.144  22.351  1.00  0.00     0.188 C 
BRANCH  23  24
ATOM     24  O   UNL A   1      34.651  23.848  22.421  1.00  0.00    -0.377 OA
BRANCH  24  25
ATOM     25  C   UNL A   1      35.198  23.123  23.518  1.00  0.00     0.188 C 
BRANCH  25  26
ATOM     26  C   UNL A   1      36.627  22.564  23.483  1.00  0.00     0.188 C 
BRANCH  26  27
ATOM     27  O   UNL A   1      37.096  22.091  24.726  1.00  0.00    -0.376 OA
BRANCH  27  28
ATOM     28  C   UNL A   1      37.039  20.702  24.989  1.00  0.00     0.202 C 
BRANCH  28  29
ATOM     29  C   UNL A   1      38.332  19.918  25.276  1.00  0.00     0.261 C 
BRANCH  29  30
ATOM     30  O   UNL A   1      39.564  20.649  25.396  1.00  0.00    -0.460 OA
BRANCH  30  31
ATOM     31  C   UNL A   1      40.309  20.523  26.511  1.00  0.00     0.338 C 
ATOM     32  O   UNL A   1      40.871  19.517  26.915  1.00  0.00    -0.246 OA
BRANCH  31  33
ATOM     33  C   UNL A   1      40.508  21.882  27.069  1.00  0.00     0.060 A 
ATOM     34  C   UNL A   1      39.692  22.937  26.630  1.00  0.00     0.016 A 
ATOM     35  C   UNL A   1      41.494  22.110  28.032  1.00  0.00     0.016 A 
ATOM     36  C   UNL A   1      39.900  24.231  27.110  1.00  0.00     0.010 A 
ATOM     37  C   UNL A   1      41.724  23.412  28.486  1.00  0.00     0.010 A 
ATOM     38  C   UNL A   1      40.960  24.483  27.989  1.00  0.00    -0.014 A 
BRANCH  38  39
ATOM     39  C   UNL A   1      41.448  25.873  28.159  1.00  0.00     0.031 A 
ATOM     40  C   UNL A   1      42.812  26.200  27.611  1.00  0.00     0.074 A 
ATOM     41  C   UNL A   1      40.704  26.827  28.742  1.00  0.00     0.049 A 
ATOM     42  N   UNL A   1      43.500  27.310  27.689  1.00  0.00    -0.248 NA
ATOM     43  C   UNL A   1      43.493  25.121  26.874  1.00  0.00     0.031 C 
ATOM     44  C   UNL A   1      39.344  26.654  29.247  1.00  0.00     0.029 A 
ATOM     45  N   UNL A   1      41.000  28.140  29.011  1.00  0.00    -0.354 N 
ATOM     46  C   UNL A   1      44.692  27.058  27.020  1.00  0.00     0.074 A 
ATOM     47  C   UNL A   1      44.651  25.685  26.571  1.00  0.00     0.031 C 
ATOM     48  C   UNL A   1      38.926  27.816  29.777  1.00  0.00     0.029 A 
ATOM     49  C   UNL A   1      40.003  28.803  29.684  1.00  0.00     0.049 A 
ATOM     50  H   UNL A   1      41.848  28.567  28.747  1.00  0.00     0.167 HD
ATOM     51  C   UNL A   1      45.729  27.899  26.795  1.00  0.00     0.037 A 
ATOM     52  C   UNL A   1      39.979  30.053  30.187  1.00  0.00     0.037 A 
ATOM     53  C   UNL A   1      45.769  29.261  27.252  1.00  0.00     0.049 A 
ATOM     54  C   UNL A   1      41.187  30.939  30.014  1.00  0.00     0.074 A 
ATOM     55  C   UNL A   1      46.773  30.198  27.084  1.00  0.00     0.029 A 
ATOM     56  N   UNL A   1      44.759  29.880  27.973  1.00  0.00    -0.354 N 
ATOM     57  N   UNL A   1      42.313  30.695  29.386  1.00  0.00    -0.248 NA
ATOM     58  C   UNL A   1      41.121  32.276  30.623  1.00  0.00     0.031 C 
ATOM     59  C   UNL A   1      46.395  31.365  27.753  1.00  0.00     0.029 A 
ATOM     60  C   UNL A   1      45.127  31.179  28.281  1.00  0.00     0.049 A 
ATOM     61  H   UNL A   1      43.907  29.458  28.231  1.00  0.00     0.167 HD
ATOM     62  C   UNL A   1      43.070  31.856  29.491  1.00  0.00     0.074 A 
ATOM     63  C   UNL A   1      42.272  32.808  30.237  1.00  0.00     0.031 C 
ATOM     64  C   UNL A   1      44.313  32.115  29.013  1.00  0.00     0.037 A 
BRANCH  51  65
ATOM     65  C   UNL A   1      46.914  27.354  26.052  1.00  0.00     0.057 A 
ATOM     66  C   UNL A   1      47.032  27.464  24.660  1.00  0.00     0.134 A 
ATOM     67  C   UNL A   1      47.959  26.729  26.742  1.00  0.00     0.134 A 
ATOM     68  F   UNL A   1      46.056  28.032  23.936  1.00  0.00    -0.206 F 
ATOM     69  C   UNL A   1      48.141  26.953  23.980  1.00  0.00     0.040 A 
ATOM     70  C   UNL A   1      49.085  26.241  26.076  1.00  0.00     0.040 A 
ATOM     71  F   UNL A   1      47.909  26.589  28.076  1.00  0.00    -0.206 F 
ATOM     72  C   UNL A   1      49.175  26.348  24.690  1.00  0.00     0.006 A 
ENDBRANCH  51  65
BRANCH  52  73
ATOM     73  C   UNL A   1      38.782  30.545  30.918  1.00  0.00     0.057 A 
ATOM     74  C   UNL A   1      38.619  30.307  32.287  1.00  0.00     0.134 A 
ATOM     75  C   UNL A   1      37.758  31.239  30.261  1.00  0.00     0.134 A 
ATOM     76  F   UNL A   1      39.552  29.625  32.970  1.00  0.00    -0.206 F 
ATOM     77  C   UNL A   1      37.477  30.724  32.974  1.00  0.00     0.040 A 
ATOM     78  C   UNL A   1      36.623  31.686  30.940  1.00  0.00     0.040 A 
ATOM     79  F   UNL A   1      37.847  31.496  28.948  1.00  0.00    -0.206 F 
ATOM     80  C   UNL A   1      36.476  31.422  32.300  1.00  0.00     0.006 A 
ENDBRANCH  52  73
BRANCH  64  81
ATOM     81  C   UNL A   1      44.867  33.494  29.233  1.00  0.00     0.057 A 
ATOM     82  C   UNL A   1      44.620  34.548  28.344  1.00  0.00     0.134 A 
ATOM     83  C   UNL A   1      45.619  33.781  30.381  1.00  0.00     0.134 A 
ATOM     84  F   UNL A   1      43.915  34.340  27.223  1.00  0.00    -0.206 F 
ATOM     85  C   UNL A   1      45.123  35.829  28.576  1.00  0.00     0.040 A 
ATOM     86  C   UNL A   1      46.100  35.065  30.639  1.00  0.00     0.040 A 
ATOM     87  F   UNL A   1      45.881  32.821  31.282  1.00  0.00    -0.206 F 
ATOM     88  C   UNL A   1      45.857  36.093  29.731  1.00  0.00     0.006 A 
ENDBRANCH  64  81
ENDBRANCH  38  39
ENDBRANCH  31  33
ENDBRANCH  30  31
ENDBRANCH  29  30
ENDBRANCH  28  29
ENDBRANCH  27  28
ENDBRANCH  26  27
ENDBRANCH  25  26
ENDBRANCH  24  25
ENDBRANCH  23  24
ENDBRANCH   1  23
TORSDOF 25
ENDMDL
MODEL 3
REMARK VINA RESULT:      -8.9      2.495      6.828
REMARK SMILES CCc1ccccc1NC(=O)CCCC(=O)OCCOCCOCCOCCOC(=O)c1ccc(-c2c3nc(c(-c4c(F)cccc4F)c4ccc([nH]4)c(-c4c(F)cccc4F)c4nc(c(-c5c(F)cccc5F)c5ccc2[nH]5)C=C4)C=C3)cc1
REMARK SMILES IDX 21 1 20 2 19 3 18 4 17 5 15 6 16 7 14 8 13 9 12 10 10 11
REMARK SMILES IDX 9 12 11 14 8 15 3 16 4 17 5 18 7 19 6 20 2 21 1 22 22 23
REMARK SMILES IDX 23 24 24 25 25 26 26 27 27 28 28 29 29 30 30 31 31 32 32 33
REMARK SMILES IDX 33 34 85 35 34 36 84 37 35 38 36 39 37 40 78 41 38 42 83 43
REMARK SMILES IDX 77 44 79 45 39 46 82 47 76 48 75 49 40 51 66 52 49 53 65 54
REMARK SMILES IDX 50 55 53 56 64 57 80 58 51 59 52 60 63 62 81 63 54 64 41 65
REMARK SMILES IDX 42 66 47 67 43 68 44 69 46 70 48 71 45 72 67 73 68 74 73 75
REMARK SMILES IDX 69 76 70 77 72 78 74 79 71 80 55 81 56 82 61 83 57 84 58 85
REMARK SMILES IDX 60 86 62 87 59 88
REMARK H PARENT 9 13 79 50 53 61
REMARK Flexibility Score: inf
ROOT
ATOM      1  C   UNL A   1      33.958  26.234  22.963  1.00  0.00     0.188 C 
ENDROOT
BRANCH   1   2
ATOM      2  O   UNL A   1      33.099  26.905  23.869  1.00  0.00    -0.376 OA
BRANCH   2   3
ATOM      3  C   UNL A   1      33.586  28.111  24.421  1.00  0.00     0.202 C 
BRANCH   3   4
ATOM      4  C   UNL A   1      33.628  28.170  25.935  1.00  0.00     0.261 C 
BRANCH   4   5
ATOM      5  O   UNL A   1      34.898  28.366  26.581  1.00  0.00    -0.463 OA
BRANCH   5   6
ATOM      6  C   UNL A   1      35.177  29.360  27.450  1.00  0.00     0.305 C 
ATOM      7  O   UNL A   1      35.912  29.257  28.422  1.00  0.00    -0.252 OA
BRANCH   6   8
ATOM      8  C   UNL A   1      34.447  30.642  27.080  1.00  0.00     0.123 C 
BRANCH   8   9
ATOM      9  C   UNL A   1      33.787  31.437  28.215  1.00  0.00     0.022 C 
BRANCH   9  10
ATOM     10  C   UNL A   1      33.651  32.958  28.052  1.00  0.00     0.101 C 
BRANCH  10  11
ATOM     11  C   UNL A   1      34.914  33.731  28.343  1.00  0.00     0.224 C 
ATOM     12  N   UNL A   1      35.122  34.465  29.468  1.00  0.00    -0.326 N 
ATOM     13  H   UNL A   1      36.056  34.762  29.549  1.00  0.00     0.169 HD
ATOM     14  O   UNL A   1      35.869  33.637  27.561  1.00  0.00    -0.275 OA
BRANCH  12  15
ATOM     15  C   UNL A   1      34.332  34.904  30.547  1.00  0.00     0.044 A 
ATOM     16  C   UNL A   1      33.503  36.024  30.367  1.00  0.00    -0.025 A 
ATOM     17  C   UNL A   1      33.020  36.734  31.482  1.00  0.00     0.006 A 
ATOM     18  C   UNL A   1      33.122  36.187  32.745  1.00  0.00     0.000 A 
ATOM     19  C   UNL A   1      34.240  34.267  31.767  1.00  0.00     0.026 A 
ATOM     20  C   UNL A   1      33.615  34.899  32.858  1.00  0.00     0.002 A 
BRANCH  16  21
ATOM     21  C   UNL A   1      32.903  36.332  29.017  1.00  0.00     0.034 C 
ATOM     22  C   UNL A   1      33.612  37.563  28.436  1.00  0.00     0.009 C 
ENDBRANCH  16  21
ENDBRANCH  12  15
ENDBRANCH  10  11
ENDBRANCH   9  10
ENDBRANCH   8   9
ENDBRANCH   6   8
ENDBRANCH   5   6
ENDBRANCH   4   5
ENDBRANCH   3   4
ENDBRANCH   2   3
ENDBRANCH   1   2
BRANCH   1  23
ATOM     23  C   UNL A   1      33.805  24.701  22.922  1.00  0.00     0.188 C 
BRANCH  23  24
ATOM     24  O   UNL A   1      34.220  23.925  24.038  1.00  0.00    -0.377 OA
BRANCH  24  25
ATOM     25  C   UNL A   1      34.505  22.536  23.907  1.00  0.00     0.188 C 
BRANCH  25  26
ATOM     26  C   UNL A   1      35.873  21.954  24.289  1.00  0.00     0.188 C 
BRANCH  26  27
ATOM     27  O   UNL A   1      35.807  20.789  25.082  1.00  0.00    -0.376 OA
BRANCH  27  28
ATOM     28  C   UNL A   1      36.691  19.722  24.796  1.00  0.00     0.202 C 
BRANCH  28  29
ATOM     29  C   UNL A   1      38.209  19.907  24.979  1.00  0.00     0.261 C 
BRANCH  29  30
ATOM     30  O   UNL A   1      38.672  20.735  26.059  1.00  0.00    -0.460 OA
BRANCH  30  31
ATOM     31  C   UNL A   1      39.987  20.782  26.346  1.00  0.00     0.338 C 
ATOM     32  O   UNL A   1      40.841  19.967  26.034  1.00  0.00    -0.246 OA
BRANCH  31  33
ATOM     33  C   UNL A   1      40.268  22.114  26.933  1.00  0.00     0.060 A 
ATOM     34  C   UNL A   1      39.489  23.218  26.549  1.00  0.00     0.016 A 
ATOM     35  C   UNL A   1      41.292  22.269  27.869  1.00  0.00     0.016 A 
ATOM     36  C   UNL A   1      39.772  24.487  27.056  1.00  0.00     0.010 A 
ATOM     37  C   UNL A   1      41.597  23.545  28.351  1.00  0.00     0.010 A 
ATOM     38  C   UNL A   1      40.869  24.664  27.907  1.00  0.00    -0.014 A 
BRANCH  38  39
ATOM     39  C   UNL A   1      41.427  26.025  28.099  1.00  0.00     0.031 A 
ATOM     40  C   UNL A   1      42.799  26.297  27.539  1.00  0.00     0.074 A 
ATOM     41  C   UNL A   1      40.738  27.002  28.712  1.00  0.00     0.049 A 
ATOM     42  N   UNL A   1      43.540  27.370  27.629  1.00  0.00    -0.248 NA
ATOM     43  C   UNL A   1      43.416  25.201  26.770  1.00  0.00     0.031 C 
ATOM     44  C   UNL A   1      39.378  26.884  29.232  1.00  0.00     0.029 A 
ATOM     45  N   UNL A   1      41.102  28.292  29.004  1.00  0.00    -0.354 N 
ATOM     46  C   UNL A   1      44.710  27.074  26.939  1.00  0.00     0.074 A 
ATOM     47  C   UNL A   1      44.596  25.715  26.462  1.00  0.00     0.031 C 
ATOM     48  C   UNL A   1      39.025  28.054  29.792  1.00  0.00     0.029 A 
ATOM     49  C   UNL A   1      40.148  28.989  29.704  1.00  0.00     0.049 A 
ATOM     50  H   UNL A   1      41.966  28.683  28.737  1.00  0.00     0.167 HD
ATOM     51  C   UNL A   1      45.784  27.868  26.717  1.00  0.00     0.037 A 
ATOM     52  C   UNL A   1      40.192  30.227  30.233  1.00  0.00     0.037 A 
ATOM     53  C   UNL A   1      45.897  29.216  27.200  1.00  0.00     0.049 A 
ATOM     54  C   UNL A   1      41.439  31.057  30.061  1.00  0.00     0.074 A 
ATOM     55  C   UNL A   1      46.943  30.106  27.038  1.00  0.00     0.029 A 
ATOM     56  N   UNL A   1      44.928  29.868  27.949  1.00  0.00    -0.354 N 
ATOM     57  N   UNL A   1      42.543  30.772  29.412  1.00  0.00    -0.248 NA
ATOM     58  C   UNL A   1      41.447  32.382  30.698  1.00  0.00     0.031 C 
ATOM     59  C   UNL A   1      46.632  31.276  27.736  1.00  0.00     0.029 A 
ATOM     60  C   UNL A   1      45.364  31.141  28.278  1.00  0.00     0.049 A 
ATOM     61  H   UNL A   1      44.060  29.483  28.210  1.00  0.00     0.167 HD
ATOM     62  C   UNL A   1      43.358  31.892  29.531  1.00  0.00     0.074 A 
ATOM     63  C   UNL A   1      42.618  32.865  30.307  1.00  0.00     0.031 C 
ATOM     64  C   UNL A   1      44.606  32.100  29.040  1.00  0.00     0.037 A 
BRANCH  51  65
ATOM     65  C   UNL A   1      46.931  27.281  25.946  1.00  0.00     0.057 A 
ATOM     66  C   UNL A   1      47.060  27.453  24.561  1.00  0.00     0.134 A 
ATOM     67  C   UNL A   1      47.929  26.553  26.602  1.00  0.00     0.134 A 
ATOM     68  F   UNL A   1      46.127  28.123  23.867  1.00  0.00    -0.206 F 
ATOM     69  C   UNL A   1      48.133  26.903  23.855  1.00  0.00     0.040 A 
ATOM     70  C   UNL A   1      49.021  26.023  25.912  1.00  0.00     0.040 A 
ATOM     71  F   UNL A   1      47.867  26.350  27.927  1.00  0.00    -0.206 F 
ATOM     72  C   UNL A   1      49.121  26.193  24.533  1.00  0.00     0.006 A 
ENDBRANCH  51  65
BRANCH  52  73
ATOM     73  C   UNL A   1      39.030  30.762  30.990  1.00  0.00     0.057 A 
ATOM     74  C   UNL A   1      37.981  31.422  30.340  1.00  0.00     0.134 A 
ATOM     75  C   UNL A   1      38.953  30.652  32.385  1.00  0.00     0.134 A 
ATOM     76  F   UNL A   1      38.008  31.583  29.008  1.00  0.00    -0.206 F 
ATOM     77  C   UNL A   1      36.907  31.968  31.047  1.00  0.00     0.040 A 
ATOM     78  C   UNL A   1      37.872  31.169  33.102  1.00  0.00     0.040 A 
ATOM     79  F   UNL A   1      39.926  30.036  33.071  1.00  0.00    -0.206 F 
ATOM     80  C   UNL A   1      36.849  31.837  32.433  1.00  0.00     0.006 A 
ENDBRANCH  52  73
BRANCH  64  81
ATOM     81  C   UNL A   1      45.230  33.445  29.280  1.00  0.00     0.057 A 
ATOM     82  C   UNL A   1      46.035  33.706  30.397  1.00  0.00     0.134 A 
ATOM     83  C   UNL A   1      45.063  34.481  28.350  1.00  0.00     0.134 A 
ATOM     84  F   UNL A   1      46.229  32.762  31.329  1.00  0.00    -0.206 F 
ATOM     85  C   UNL A   1      46.627  34.954  30.593  1.00  0.00     0.040 A 
ATOM     86  C   UNL A   1      45.676  35.723  28.519  1.00  0.00     0.040 A 
ATOM     87  F   UNL A   1      44.316  34.296  27.251  1.00  0.00    -0.206 F 
ATOM     88  C   UNL A   1      46.456  35.964  29.648  1.00  0.00     0.006 A 
ENDBRANCH  64  81
ENDBRANCH  38  39
ENDBRANCH  31  33
ENDBRANCH  30  31
ENDBRANCH  29  30
ENDBRANCH  28  29
ENDBRANCH  27  28
ENDBRANCH  26  27
ENDBRANCH  25  26
ENDBRANCH  24  25
ENDBRANCH  23  24
ENDBRANCH   1  23
TORSDOF 25
ENDMDL
