MODEL 1
REMARK VINA RESULT:      -9.8      0.000      0.000
REMARK SMILES Cc1ccc(NS(=O)(=O)N2CCCC[C@@H]2C(=O)OCCOCCOCCOCCOC(=O)c2ccc(-c3c4nc(c(-c5c(F)cccc5F)c5ccc([nH]5)c(-c5c(F)cccc5F)c5nc(c(-c6c(F)cccc6F)c6ccc3[nH]6)C=C5)C=C4)cc2)c(C)n1
REMARK SMILES IDX 23 1 22 2 21 3 20 4 19 5 18 6 16 7 17 8 15 9 10 10 11 11
REMARK SMILES IDX 12 12 14 13 13 14 7 15 8 16 9 17 6 18 5 20 1 21 2 22 3 23
REMARK SMILES IDX 89 24 4 25 87 26 88 27 24 28 25 29 26 30 27 31 28 32 29 33
REMARK SMILES IDX 30 34 31 35 32 36 33 37 34 38 86 39 35 40 85 41 36 42 37 43
REMARK SMILES IDX 38 44 79 45 39 46 84 47 78 48 80 49 40 50 83 51 77 52 76 53
REMARK SMILES IDX 41 55 67 56 50 57 66 58 51 59 54 60 65 61 81 62 52 63 53 64
REMARK SMILES IDX 64 66 82 67 55 68 42 69 43 70 48 71 44 72 45 73 47 74 49 75
REMARK SMILES IDX 46 76 68 77 69 78 74 79 70 80 71 81 73 82 75 83 72 84 56 85
REMARK SMILES IDX 57 86 62 87 58 88 59 89 61 90 63 91 60 92
REMARK H PARENT 6 19 80 54 54 65
REMARK Flexibility Score: inf
ROOT
ATOM      1  C   UNL A   1      33.919  28.950  25.939  1.00  0.00     0.188 C 
ENDROOT
BRANCH   1   2
ATOM      2  C   UNL A   1      32.624  29.192  25.150  1.00  0.00     0.188 C 
BRANCH   2   3
ATOM      3  O   UNL A   1      32.728  29.303  23.747  1.00  0.00    -0.376 OA
BRANCH   3   4
ATOM      4  C   UNL A   1      33.804  28.705  23.051  1.00  0.00     0.202 C 
BRANCH   4   5
ATOM      5  C   UNL A   1      33.703  27.581  22.001  1.00  0.00     0.261 C 
BRANCH   5   6
ATOM      6  O   UNL A   1      34.058  26.223  22.294  1.00  0.00    -0.462 OA
BRANCH   6   7
ATOM      7  C   UNL A   1      33.050  25.337  22.455  1.00  0.00     0.324 C 
ATOM      8  O   UNL A   1      32.928  24.329  21.768  1.00  0.00    -0.250 OA
BRANCH   7   9
ATOM      9  C   UNL A   1      32.053  25.745  23.554  1.00  0.00     0.184 C 
ATOM     10  N   UNL A   1      32.188  25.062  24.878  1.00  0.00    -0.170 NA
ATOM     11  C   UNL A   1      31.456  25.846  25.911  1.00  0.00     0.105 C 
ATOM     12  C   UNL A   1      29.960  25.685  25.663  1.00  0.00     0.017 C 
ATOM     13  C   UNL A   1      30.562  25.626  23.163  1.00  0.00     0.032 C 
ATOM     14  C   UNL A   1      29.569  26.075  24.243  1.00  0.00     0.004 C 
BRANCH  10  15
ATOM     15  S   UNL A   1      33.687  24.492  25.367  1.00  0.00     0.302 S 
ATOM     16  O   UNL A   1      33.529  23.690  26.553  1.00  0.00    -0.189 OA
ATOM     17  O   UNL A   1      34.596  25.616  25.372  1.00  0.00    -0.189 OA
BRANCH  15  18
ATOM     18  N   UNL A   1      34.171  23.487  24.147  1.00  0.00    -0.269 N 
ATOM     19  H   UNL A   1      34.549  23.934  23.355  1.00  0.00     0.181 HD
BRANCH  18  20
ATOM     20  C   UNL A   1      34.118  22.045  24.083  1.00  0.00     0.071 A 
ATOM     21  C   UNL A   1      32.878  18.219  25.416  1.00  0.00     0.067 C 
ATOM     22  C   UNL A   1      33.313  19.472  24.738  1.00  0.00     0.038 A 
ATOM     23  C   UNL A   1      32.432  20.274  24.047  1.00  0.00     0.026 A 
ATOM     24  N   UNL A   1      34.585  19.841  24.961  1.00  0.00    -0.256 NA
ATOM     25  C   UNL A   1      32.847  21.562  23.715  1.00  0.00     0.030 A 
ATOM     26  C   UNL A   1      34.990  21.100  24.630  1.00  0.00     0.062 A 
ATOM     27  C   UNL A   1      36.418  21.292  24.991  1.00  0.00     0.069 C 
ENDBRANCH  18  20
ENDBRANCH  15  18
ENDBRANCH  10  15
ENDBRANCH   7   9
ENDBRANCH   6   7
ENDBRANCH   5   6
ENDBRANCH   4   5
ENDBRANCH   3   4
ENDBRANCH   2   3
ENDBRANCH   1   2
BRANCH   1  28
ATOM     28  O   UNL A   1      33.873  29.389  27.287  1.00  0.00    -0.377 OA
BRANCH  28  29
ATOM     29  C   UNL A   1      34.804  30.400  27.631  1.00  0.00     0.188 C 
BRANCH  29  30
ATOM     30  C   UNL A   1      34.198  31.782  27.930  1.00  0.00     0.188 C 
BRANCH  30  31
ATOM     31  O   UNL A   1      35.074  32.864  27.648  1.00  0.00    -0.376 OA
BRANCH  31  32
ATOM     32  C   UNL A   1      35.341  33.852  28.628  1.00  0.00     0.202 C 
BRANCH  32  33
ATOM     33  C   UNL A   1      35.700  33.423  30.063  1.00  0.00     0.261 C 
BRANCH  33  34
ATOM     34  O   UNL A   1      36.925  32.700  30.247  1.00  0.00    -0.460 OA
BRANCH  34  35
ATOM     35  C   UNL A   1      36.861  31.484  30.826  1.00  0.00     0.338 C 
ATOM     36  O   UNL A   1      35.954  31.035  31.500  1.00  0.00    -0.246 OA
BRANCH  35  37
ATOM     37  C   UNL A   1      38.015  30.695  30.343  1.00  0.00     0.060 A 
ATOM     38  C   UNL A   1      38.937  30.201  31.275  1.00  0.00     0.016 A 
ATOM     39  C   UNL A   1      38.197  30.468  28.978  1.00  0.00     0.016 A 
ATOM     40  C   UNL A   1      40.077  29.527  30.840  1.00  0.00     0.010 A 
ATOM     41  C   UNL A   1      39.353  29.816  28.540  1.00  0.00     0.010 A 
ATOM     42  C   UNL A   1      40.319  29.384  29.468  1.00  0.00    -0.014 A 
BRANCH  42  43
ATOM     43  C   UNL A   1      41.672  28.996  29.003  1.00  0.00     0.031 A 
ATOM     44  C   UNL A   1      41.895  27.573  28.588  1.00  0.00     0.074 A 
ATOM     45  C   UNL A   1      42.672  29.890  28.907  1.00  0.00     0.049 A 
ATOM     46  N   UNL A   1      42.999  26.985  28.213  1.00  0.00    -0.248 NA
ATOM     47  C   UNL A   1      40.712  26.696  28.596  1.00  0.00     0.031 C 
ATOM     48  C   UNL A   1      42.544  31.305  29.217  1.00  0.00     0.029 A 
ATOM     49  N   UNL A   1      43.982  29.748  28.529  1.00  0.00    -0.354 N 
ATOM     50  C   UNL A   1      42.645  25.672  27.938  1.00  0.00     0.074 A 
ATOM     51  C   UNL A   1      41.235  25.537  28.227  1.00  0.00     0.031 C 
ATOM     52  C   UNL A   1      43.730  31.910  29.037  1.00  0.00     0.029 A 
ATOM     53  C   UNL A   1      44.712  30.909  28.632  1.00  0.00     0.049 A 
ATOM     54  H   UNL A   1      44.364  28.897  28.217  1.00  0.00     0.167 HD
ATOM     55  C   UNL A   1      43.429  24.673  27.471  1.00  0.00     0.037 A 
ATOM     56  C   UNL A   1      46.029  31.127  28.449  1.00  0.00     0.037 A 
ATOM     57  C   UNL A   1      44.833  24.815  27.198  1.00  0.00     0.049 A 
ATOM     58  C   UNL A   1      46.900  29.966  28.042  1.00  0.00     0.074 A 
ATOM     59  C   UNL A   1      45.723  23.858  26.747  1.00  0.00     0.029 A 
ATOM     60  N   UNL A   1      45.554  25.990  27.356  1.00  0.00    -0.354 N 
ATOM     61  N   UNL A   1      46.558  28.725  27.785  1.00  0.00    -0.248 NA
ATOM     62  C   UNL A   1      48.339  30.232  27.901  1.00  0.00     0.031 C 
ATOM     63  C   UNL A   1      46.991  24.440  26.677  1.00  0.00     0.029 A 
ATOM     64  C   UNL A   1      46.881  25.777  27.026  1.00  0.00     0.049 A 
ATOM     65  H   UNL A   1      45.176  26.848  27.657  1.00  0.00     0.167 HD
ATOM     66  C   UNL A   1      47.728  28.077  27.412  1.00  0.00     0.074 A 
ATOM     67  C   UNL A   1      48.786  29.064  27.462  1.00  0.00     0.031 C 
ATOM     68  C   UNL A   1      47.914  26.781  27.059  1.00  0.00     0.037 A 
BRANCH  55  69
ATOM     69  C   UNL A   1      42.784  23.339  27.250  1.00  0.00     0.057 A 
ATOM     70  C   UNL A   1      42.329  22.941  25.986  1.00  0.00     0.134 A 
ATOM     71  C   UNL A   1      42.644  22.429  28.304  1.00  0.00     0.134 A 
ATOM     72  F   UNL A   1      42.412  23.776  24.938  1.00  0.00    -0.206 F 
ATOM     73  C   UNL A   1      41.746  21.690  25.782  1.00  0.00     0.040 A 
ATOM     74  C   UNL A   1      42.088  21.165  28.107  1.00  0.00     0.040 A 
ATOM     75  F   UNL A   1      43.055  22.750  29.541  1.00  0.00    -0.206 F 
ATOM     76  C   UNL A   1      41.634  20.794  26.842  1.00  0.00     0.006 A 
ENDBRANCH  55  69
BRANCH  56  77
ATOM     77  C   UNL A   1      46.625  32.472  28.668  1.00  0.00     0.057 A 
ATOM     78  C   UNL A   1      47.058  32.878  29.937  1.00  0.00     0.134 A 
ATOM     79  C   UNL A   1      46.708  33.413  27.633  1.00  0.00     0.134 A 
ATOM     80  F   UNL A   1      46.986  32.033  30.977  1.00  0.00    -0.206 F 
ATOM     81  C   UNL A   1      47.513  34.176  30.177  1.00  0.00     0.040 A 
ATOM     82  C   UNL A   1      47.192  34.704  27.852  1.00  0.00     0.040 A 
ATOM     83  F   UNL A   1      46.311  33.093  26.393  1.00  0.00    -0.206 F 
ATOM     84  C   UNL A   1      47.583  35.094  29.131  1.00  0.00     0.006 A 
ENDBRANCH  56  77
BRANCH  68  85
ATOM     85  C   UNL A   1      49.296  26.375  26.638  1.00  0.00     0.057 A 
ATOM     86  C   UNL A   1      49.726  26.464  25.308  1.00  0.00     0.134 A 
ATOM     87  C   UNL A   1      50.221  25.923  27.588  1.00  0.00     0.134 A 
ATOM     88  F   UNL A   1      48.886  26.878  24.347  1.00  0.00    -0.206 F 
ATOM     89  C   UNL A   1      51.018  26.091  24.934  1.00  0.00     0.040 A 
ATOM     90  C   UNL A   1      51.525  25.579  27.232  1.00  0.00     0.040 A 
ATOM     91  F   UNL A   1      49.877  25.824  28.882  1.00  0.00    -0.206 F 
ATOM     92  C   UNL A   1      51.924  25.654  25.899  1.00  0.00     0.006 A 
ENDBRANCH  68  85
ENDBRANCH  42  43
ENDBRANCH  35  37
ENDBRANCH  34  35
ENDBRANCH  33  34
ENDBRANCH  32  33
ENDBRANCH  31  32
ENDBRANCH  30  31
ENDBRANCH  29  30
ENDBRANCH  28  29
ENDBRANCH   1  28
TORSDOF 23
ENDMDL
MODEL 2
REMARK VINA RESULT:      -9.3      6.372     12.989
REMARK SMILES Cc1ccc(NS(=O)(=O)N2CCCC[C@@H]2C(=O)OCCOCCOCCOCCOC(=O)c2ccc(-c3c4nc(c(-c5c(F)cccc5F)c5ccc([nH]5)c(-c5c(F)cccc5F)c5nc(c(-c6c(F)cccc6F)c6ccc3[nH]6)C=C5)C=C4)cc2)c(C)n1
REMARK SMILES IDX 23 1 22 2 21 3 20 4 19 5 18 6 16 7 17 8 15 9 10 10 11 11
REMARK SMILES IDX 12 12 14 13 13 14 7 15 8 16 9 17 6 18 5 20 1 21 2 22 3 23
REMARK SMILES IDX 89 24 4 25 87 26 88 27 24 28 25 29 26 30 27 31 28 32 29 33
REMARK SMILES IDX 30 34 31 35 32 36 33 37 34 38 86 39 35 40 85 41 36 42 37 43
REMARK SMILES IDX 38 44 79 45 39 46 84 47 78 48 80 49 40 50 83 51 77 52 76 53
REMARK SMILES IDX 41 55 67 56 50 57 66 58 51 59 54 60 65 61 81 62 52 63 53 64
REMARK SMILES IDX 64 66 82 67 55 68 42 69 43 70 48 71 44 72 45 73 47 74 49 75
REMARK SMILES IDX 46 76 68 77 69 78 74 79 70 80 71 81 73 82 75 83 72 84 56 85
REMARK SMILES IDX 57 86 62 87 58 88 59 89 61 90 63 91 60 92
REMARK H PARENT 6 19 80 54 54 65
REMARK Flexibility Score: inf
ROOT
ATOM      1  C   UNL A   1      46.084  19.205  24.984  1.00  0.00     0.188 C 
ENDROOT
BRANCH   1   2
ATOM      2  C   UNL A   1      45.767  20.656  25.374  1.00  0.00     0.188 C 
BRANCH   2   3
ATOM      3  O   UNL A   1      45.365  21.534  24.343  1.00  0.00    -0.376 OA
BRANCH   3   4
ATOM      4  C   UNL A   1      45.703  22.906  24.387  1.00  0.00     0.202 C 
BRANCH   4   5
ATOM      5  C   UNL A   1      45.945  23.748  25.655  1.00  0.00     0.261 C 
BRANCH   5   6
ATOM      6  O   UNL A   1      47.130  23.613  26.452  1.00  0.00    -0.462 OA
BRANCH   6   7
ATOM      7  C   UNL A   1      47.648  24.738  26.993  1.00  0.00     0.324 C 
ATOM      8  O   UNL A   1      48.598  24.733  27.769  1.00  0.00    -0.250 OA
BRANCH   7   9
ATOM      9  C   UNL A   1      46.899  26.015  26.572  1.00  0.00     0.184 C 
ATOM     10  N   UNL A   1      47.601  26.928  25.616  1.00  0.00    -0.170 NA
ATOM     11  C   UNL A   1      46.608  27.856  25.007  1.00  0.00     0.105 C 
ATOM     12  C   UNL A   1      46.168  28.853  26.074  1.00  0.00     0.017 C 
ATOM     13  C   UNL A   1      46.419  26.908  27.739  1.00  0.00     0.032 C 
ATOM     14  C   UNL A   1      45.634  28.158  27.321  1.00  0.00     0.004 C 
BRANCH  10  15
ATOM     15  S   UNL A   1      48.720  26.297  24.539  1.00  0.00     0.302 S 
ATOM     16  O   UNL A   1      48.073  25.328  23.691  1.00  0.00    -0.189 OA
ATOM     17  O   UNL A   1      49.889  25.921  25.301  1.00  0.00    -0.189 OA
BRANCH  15  18
ATOM     18  N   UNL A   1      49.155  27.577  23.589  1.00  0.00    -0.269 N 
ATOM     19  H   UNL A   1      48.810  28.454  23.876  1.00  0.00     0.181 HD
BRANCH  18  20
ATOM     20  C   UNL A   1      49.971  27.588  22.397  1.00  0.00     0.071 A 
ATOM     21  C   UNL A   1      51.443  25.950  18.777  1.00  0.00     0.067 C 
ATOM     22  C   UNL A   1      50.955  26.730  19.949  1.00  0.00     0.038 A 
ATOM     23  C   UNL A   1      49.696  27.286  19.985  1.00  0.00     0.026 A 
ATOM     24  N   UNL A   1      51.766  26.735  21.019  1.00  0.00    -0.256 NA
ATOM     25  C   UNL A   1      49.212  27.722  21.218  1.00  0.00     0.030 A 
ATOM     26  C   UNL A   1      51.292  27.168  22.223  1.00  0.00     0.062 A 
ATOM     27  C   UNL A   1      52.349  27.058  23.261  1.00  0.00     0.069 C 
ENDBRANCH  18  20
ENDBRANCH  15  18
ENDBRANCH  10  15
ENDBRANCH   7   9
ENDBRANCH   6   7
ENDBRANCH   5   6
ENDBRANCH   4   5
ENDBRANCH   3   4
ENDBRANCH   2   3
ENDBRANCH   1   2
BRANCH   1  28
ATOM     28  O   UNL A   1      45.101  18.265  25.385  1.00  0.00    -0.377 OA
BRANCH  28  29
ATOM     29  C   UNL A   1      43.771  18.574  25.007  1.00  0.00     0.188 C 
BRANCH  29  30
ATOM     30  C   UNL A   1      42.782  18.766  26.170  1.00  0.00     0.188 C 
BRANCH  30  31
ATOM     31  O   UNL A   1      41.573  19.409  25.792  1.00  0.00    -0.376 OA
BRANCH  31  32
ATOM     32  C   UNL A   1      41.252  20.696  26.291  1.00  0.00     0.202 C 
BRANCH  32  33
ATOM     33  C   UNL A   1      42.223  21.868  26.050  1.00  0.00     0.261 C 
BRANCH  33  34
ATOM     34  O   UNL A   1      41.941  23.104  26.722  1.00  0.00    -0.460 OA
BRANCH  34  35
ATOM     35  C   UNL A   1      42.234  24.254  26.082  1.00  0.00     0.338 C 
ATOM     36  O   UNL A   1      42.693  24.379  24.964  1.00  0.00    -0.246 OA
BRANCH  35  37
ATOM     37  C   UNL A   1      41.719  25.370  26.905  1.00  0.00     0.060 A 
ATOM     38  C   UNL A   1      42.271  26.646  26.738  1.00  0.00     0.016 A 
ATOM     39  C   UNL A   1      40.716  25.149  27.850  1.00  0.00     0.016 A 
ATOM     40  C   UNL A   1      41.862  27.696  27.559  1.00  0.00     0.010 A 
ATOM     41  C   UNL A   1      40.325  26.196  28.691  1.00  0.00     0.010 A 
ATOM     42  C   UNL A   1      40.931  27.461  28.578  1.00  0.00    -0.014 A 
BRANCH  42  43
ATOM     43  C   UNL A   1      40.764  28.463  29.658  1.00  0.00     0.031 A 
ATOM     44  C   UNL A   1      41.705  28.407  30.824  1.00  0.00     0.074 A 
ATOM     45  C   UNL A   1      39.831  29.428  29.590  1.00  0.00     0.049 A 
ATOM     46  N   UNL A   1      41.714  29.128  31.913  1.00  0.00    -0.248 NA
ATOM     47  C   UNL A   1      42.781  27.404  30.750  1.00  0.00     0.031 C 
ATOM     48  C   UNL A   1      38.917  29.613  28.475  1.00  0.00     0.029 A 
ATOM     49  N   UNL A   1      39.493  30.425  30.469  1.00  0.00    -0.354 N 
ATOM     50  C   UNL A   1      42.794  28.669  32.652  1.00  0.00     0.074 A 
ATOM     51  C   UNL A   1      43.394  27.583  31.910  1.00  0.00     0.031 C 
ATOM     52  C   UNL A   1      38.102  30.650  28.735  1.00  0.00     0.029 A 
ATOM     53  C   UNL A   1      38.418  31.178  30.057  1.00  0.00     0.049 A 
ATOM     54  H   UNL A   1      39.972  30.585  31.313  1.00  0.00     0.167 HD
ATOM     55  C   UNL A   1      43.252  29.127  33.840  1.00  0.00     0.037 A 
ATOM     56  C   UNL A   1      37.752  32.161  30.694  1.00  0.00     0.037 A 
ATOM     57  C   UNL A   1      42.642  30.200  34.576  1.00  0.00     0.049 A 
ATOM     58  C   UNL A   1      38.214  32.570  32.068  1.00  0.00     0.074 A 
ATOM     59  C   UNL A   1      43.012  30.724  35.801  1.00  0.00     0.029 A 
ATOM     60  N   UNL A   1      41.528  30.913  34.155  1.00  0.00    -0.354 N 
ATOM     61  N   UNL A   1      39.237  32.131  32.762  1.00  0.00    -0.248 NA
ATOM     62  C   UNL A   1      37.430  33.611  32.751  1.00  0.00     0.031 C 
ATOM     63  C   UNL A   1      42.096  31.721  36.144  1.00  0.00     0.029 A 
ATOM     64  C   UNL A   1      41.188  31.861  35.105  1.00  0.00     0.049 A 
ATOM     65  H   UNL A   1      41.051  30.766  33.307  1.00  0.00     0.167 HD
ATOM     66  C   UNL A   1      39.244  32.868  33.940  1.00  0.00     0.074 A 
ATOM     67  C   UNL A   1      38.132  33.793  33.859  1.00  0.00     0.031 C 
ATOM     68  C   UNL A   1      40.092  32.789  34.994  1.00  0.00     0.037 A 
BRANCH  55  69
ATOM     69  C   UNL A   1      44.457  28.451  34.420  1.00  0.00     0.057 A 
ATOM     70  C   UNL A   1      44.344  27.316  35.234  1.00  0.00     0.134 A 
ATOM     71  C   UNL A   1      45.745  28.919  34.137  1.00  0.00     0.134 A 
ATOM     72  F   UNL A   1      43.137  26.831  35.564  1.00  0.00    -0.206 F 
ATOM     73  C   UNL A   1      45.471  26.680  35.756  1.00  0.00     0.040 A 
ATOM     74  C   UNL A   1      46.880  28.275  34.630  1.00  0.00     0.040 A 
ATOM     75  F   UNL A   1      45.922  30.004  33.367  1.00  0.00    -0.206 F 
ATOM     76  C   UNL A   1      46.744  27.153  35.446  1.00  0.00     0.006 A 
ENDBRANCH  55  69
BRANCH  56  77
ATOM     77  C   UNL A   1      36.567  32.813  30.073  1.00  0.00     0.057 A 
ATOM     78  C   UNL A   1      36.711  33.809  29.098  1.00  0.00     0.134 A 
ATOM     79  C   UNL A   1      35.264  32.512  30.490  1.00  0.00     0.134 A 
ATOM     80  F   UNL A   1      37.933  34.161  28.669  1.00  0.00    -0.206 F 
ATOM     81  C   UNL A   1      35.612  34.506  28.592  1.00  0.00     0.040 A 
ATOM     82  C   UNL A   1      34.153  33.177  29.968  1.00  0.00     0.040 A 
ATOM     83  F   UNL A   1      35.051  31.569  31.420  1.00  0.00    -0.206 F 
ATOM     84  C   UNL A   1      34.327  34.189  29.027  1.00  0.00     0.006 A 
ENDBRANCH  56  77
BRANCH  68  85
ATOM     85  C   UNL A   1      39.892  33.769  36.112  1.00  0.00     0.057 A 
ATOM     86  C   UNL A   1      40.451  35.052  36.088  1.00  0.00     0.134 A 
ATOM     87  C   UNL A   1      39.093  33.433  37.213  1.00  0.00     0.134 A 
ATOM     88  F   UNL A   1      41.236  35.434  35.068  1.00  0.00    -0.206 F 
ATOM     89  C   UNL A   1      40.248  35.956  37.132  1.00  0.00     0.040 A 
ATOM     90  C   UNL A   1      38.854  34.339  38.247  1.00  0.00     0.040 A 
ATOM     91  F   UNL A   1      38.516  32.223  37.294  1.00  0.00    -0.206 F 
ATOM     92  C   UNL A   1      39.440  35.602  38.212  1.00  0.00     0.006 A 
ENDBRANCH  68  85
ENDBRANCH  42  43
ENDBRANCH  35  37
ENDBRANCH  34  35
ENDBRANCH  33  34
ENDBRANCH  32  33
ENDBRANCH  31  32
ENDBRANCH  30  31
ENDBRANCH  29  30
ENDBRANCH  28  29
ENDBRANCH   1  28
TORSDOF 23
ENDMDL
MODEL 3
REMARK VINA RESULT:      -9.3      5.975     12.580
REMARK SMILES Cc1ccc(NS(=O)(=O)N2CCCC[C@@H]2C(=O)OCCOCCOCCOCCOC(=O)c2ccc(-c3c4nc(c(-c5c(F)cccc5F)c5ccc([nH]5)c(-c5c(F)cccc5F)c5nc(c(-c6c(F)cccc6F)c6ccc3[nH]6)C=C5)C=C4)cc2)c(C)n1
REMARK SMILES IDX 23 1 22 2 21 3 20 4 19 5 18 6 16 7 17 8 15 9 10 10 11 11
REMARK SMILES IDX 12 12 14 13 13 14 7 15 8 16 9 17 6 18 5 20 1 21 2 22 3 23
REMARK SMILES IDX 89 24 4 25 87 26 88 27 24 28 25 29 26 30 27 31 28 32 29 33
REMARK SMILES IDX 30 34 31 35 32 36 33 37 34 38 86 39 35 40 85 41 36 42 37 43
REMARK SMILES IDX 38 44 79 45 39 46 84 47 78 48 80 49 40 50 83 51 77 52 76 53
REMARK SMILES IDX 41 55 67 56 50 57 66 58 51 59 54 60 65 61 81 62 52 63 53 64
REMARK SMILES IDX 64 66 82 67 55 68 42 69 43 70 48 71 44 72 45 73 47 74 49 75
REMARK SMILES IDX 46 76 68 77 69 78 74 79 70 80 71 81 73 82 75 83 72 84 56 85
REMARK SMILES IDX 57 86 62 87 58 88 59 89 61 90 63 91 60 92
REMARK H PARENT 6 19 80 54 54 65
REMARK Flexibility Score: inf
ROOT
ATOM      1  C   UNL A   1      45.962  19.724  24.492  1.00  0.00     0.188 C 
ENDROOT
BRANCH   1   2
ATOM      2  C   UNL A   1      45.999  21.256  24.593  1.00  0.00     0.188 C 
BRANCH   2   3
ATOM      3  O   UNL A   1      45.997  21.822  25.886  1.00  0.00    -0.376 OA
BRANCH   3   4
ATOM      4  C   UNL A   1      45.819  23.212  26.068  1.00  0.00     0.202 C 
BRANCH   4   5
ATOM      5  C   UNL A   1      46.356  24.331  25.154  1.00  0.00     0.261 C 
BRANCH   5   6
ATOM      6  O   UNL A   1      45.529  25.407  24.690  1.00  0.00    -0.462 OA
BRANCH   6   7
ATOM      7  C   UNL A   1      45.772  26.639  25.189  1.00  0.00     0.324 C 
ATOM      8  O   UNL A   1      44.998  27.581  25.057  1.00  0.00    -0.250 OA
BRANCH   7   9
ATOM      9  C   UNL A   1      47.135  26.749  25.896  1.00  0.00     0.184 C 
ATOM     10  N   UNL A   1      47.146  27.392  27.248  1.00  0.00    -0.170 NA
ATOM     11  C   UNL A   1      48.417  27.046  27.943  1.00  0.00     0.105 C 
ATOM     12  C   UNL A   1      49.554  27.802  27.265  1.00  0.00     0.017 C 
ATOM     13  C   UNL A   1      48.241  27.456  25.080  1.00  0.00     0.032 C 
ATOM     14  C   UNL A   1      49.611  27.526  25.767  1.00  0.00     0.004 C 
BRANCH  10  15
ATOM     15  S   UNL A   1      45.778  27.313  28.213  1.00  0.00     0.302 S 
ATOM     16  O   UNL A   1      46.141  27.584  29.580  1.00  0.00    -0.189 OA
ATOM     17  O   UNL A   1      45.084  26.089  27.880  1.00  0.00    -0.189 OA
BRANCH  15  18
ATOM     18  N   UNL A   1      44.827  28.562  27.694  1.00  0.00    -0.269 N 
ATOM     19  H   UNL A   1      44.096  28.311  27.083  1.00  0.00     0.181 HD
BRANCH  18  20
ATOM     20  C   UNL A   1      44.919  29.967  28.013  1.00  0.00     0.071 A 
ATOM     21  C   UNL A   1      43.629  34.000  27.845  1.00  0.00     0.067 C 
ATOM     22  C   UNL A   1      44.159  32.634  28.114  1.00  0.00     0.038 A 
ATOM     23  C   UNL A   1      43.495  31.737  28.921  1.00  0.00     0.026 A 
ATOM     24  N   UNL A   1      45.248  32.286  27.410  1.00  0.00    -0.256 NA
ATOM     25  C   UNL A   1      43.888  30.401  28.870  1.00  0.00     0.030 A 
ATOM     26  C   UNL A   1      45.634  30.978  27.366  1.00  0.00     0.062 A 
ATOM     27  C   UNL A   1      46.839  30.826  26.511  1.00  0.00     0.069 C 
ENDBRANCH  18  20
ENDBRANCH  15  18
ENDBRANCH  10  15
ENDBRANCH   7   9
ENDBRANCH   6   7
ENDBRANCH   5   6
ENDBRANCH   4   5
ENDBRANCH   3   4
ENDBRANCH   2   3
ENDBRANCH   1   2
BRANCH   1  28
ATOM     28  O   UNL A   1      45.140  19.093  25.461  1.00  0.00    -0.377 OA
BRANCH  28  29
ATOM     29  C   UNL A   1      43.810  18.828  25.053  1.00  0.00     0.188 C 
BRANCH  29  30
ATOM     30  C   UNL A   1      42.776  18.737  26.188  1.00  0.00     0.188 C 
BRANCH  30  31
ATOM     31  O   UNL A   1      41.539  19.366  25.886  1.00  0.00    -0.376 OA
BRANCH  31  32
ATOM     32  C   UNL A   1      41.184  20.594  26.498  1.00  0.00     0.202 C 
BRANCH  32  33
ATOM     33  C   UNL A   1      41.944  21.880  26.121  1.00  0.00     0.261 C 
BRANCH  33  34
ATOM     34  O   UNL A   1      41.414  23.123  26.601  1.00  0.00    -0.460 OA
BRANCH  34  35
ATOM     35  C   UNL A   1      41.900  24.264  26.073  1.00  0.00     0.338 C 
ATOM     36  O   UNL A   1      42.498  24.395  25.023  1.00  0.00    -0.246 OA
BRANCH  35  37
ATOM     37  C   UNL A   1      41.412  25.387  26.904  1.00  0.00     0.060 A 
ATOM     38  C   UNL A   1      41.926  26.671  26.678  1.00  0.00     0.016 A 
ATOM     39  C   UNL A   1      40.474  25.167  27.914  1.00  0.00     0.016 A 
ATOM     40  C   UNL A   1      41.546  27.729  27.501  1.00  0.00     0.010 A 
ATOM     41  C   UNL A   1      40.114  26.223  28.756  1.00  0.00     0.010 A 
ATOM     42  C   UNL A   1      40.684  27.497  28.580  1.00  0.00    -0.014 A 
BRANCH  42  43
ATOM     43  C   UNL A   1      40.562  28.517  29.649  1.00  0.00     0.031 A 
ATOM     44  C   UNL A   1      41.531  28.462  30.792  1.00  0.00     0.074 A 
ATOM     45  C   UNL A   1      39.645  29.498  29.590  1.00  0.00     0.049 A 
ATOM     46  N   UNL A   1      41.581  29.199  31.869  1.00  0.00    -0.248 NA
ATOM     47  C   UNL A   1      42.587  27.440  30.706  1.00  0.00     0.031 C 
ATOM     48  C   UNL A   1      38.706  29.683  28.495  1.00  0.00     0.029 A 
ATOM     49  N   UNL A   1      39.347  30.515  30.461  1.00  0.00    -0.354 N 
ATOM     50  C   UNL A   1      42.671  28.732  32.588  1.00  0.00     0.074 A 
ATOM     51  C   UNL A   1      43.232  27.624  31.847  1.00  0.00     0.031 C 
ATOM     52  C   UNL A   1      37.916  30.738  28.759  1.00  0.00     0.029 A 
ATOM     53  C   UNL A   1      38.276  31.281  30.065  1.00  0.00     0.049 A 
ATOM     54  H   UNL A   1      39.850  30.679  31.290  1.00  0.00     0.167 HD
ATOM     55  C   UNL A   1      43.167  29.199  33.756  1.00  0.00     0.037 A 
ATOM     56  C   UNL A   1      37.643  32.285  30.702  1.00  0.00     0.037 A 
ATOM     57  C   UNL A   1      42.594  30.295  34.491  1.00  0.00     0.049 A 
ATOM     58  C   UNL A   1      38.147  32.706  32.058  1.00  0.00     0.074 A 
ATOM     59  C   UNL A   1      43.005  30.830  35.698  1.00  0.00     0.029 A 
ATOM     60  N   UNL A   1      41.483  31.021  34.087  1.00  0.00    -0.354 N 
ATOM     61  N   UNL A   1      39.179  32.259  32.733  1.00  0.00    -0.248 NA
ATOM     62  C   UNL A   1      37.399  33.771  32.744  1.00  0.00     0.031 C 
ATOM     63  C   UNL A   1      42.115  31.849  36.048  1.00  0.00     0.029 A 
ATOM     64  C   UNL A   1      41.184  31.989  35.030  1.00  0.00     0.049 A 
ATOM     65  H   UNL A   1      40.982  30.870  33.253  1.00  0.00     0.167 HD
ATOM     66  C   UNL A   1      39.229  33.014  33.898  1.00  0.00     0.074 A 
ATOM     67  C   UNL A   1      38.133  33.957  33.831  1.00  0.00     0.031 C 
ATOM     68  C   UNL A   1      40.102  32.935  34.932  1.00  0.00     0.037 A 
BRANCH  55  69
ATOM     69  C   UNL A   1      44.374  28.510  34.316  1.00  0.00     0.057 A 
ATOM     70  C   UNL A   1      44.260  27.426  35.196  1.00  0.00     0.134 A 
ATOM     71  C   UNL A   1      45.663  28.914  33.949  1.00  0.00     0.134 A 
ATOM     72  F   UNL A   1      43.054  27.005  35.607  1.00  0.00    -0.206 F 
ATOM     73  C   UNL A   1      45.388  26.776  35.700  1.00  0.00     0.040 A 
ATOM     74  C   UNL A   1      46.796  28.256  34.424  1.00  0.00     0.040 A 
ATOM     75  F   UNL A   1      45.840  29.949  33.113  1.00  0.00    -0.206 F 
ATOM     76  C   UNL A   1      46.660  27.184  35.306  1.00  0.00     0.006 A 
ENDBRANCH  55  69
BRANCH  56  77
ATOM     77  C   UNL A   1      36.455  32.949  30.101  1.00  0.00     0.057 A 
ATOM     78  C   UNL A   1      35.153  32.553  30.435  1.00  0.00     0.134 A 
ATOM     79  C   UNL A   1      36.589  33.946  29.125  1.00  0.00     0.134 A 
ATOM     80  F   UNL A   1      34.954  31.589  31.346  1.00  0.00    -0.206 F 
ATOM     81  C   UNL A   1      34.035  33.091  29.795  1.00  0.00     0.040 A 
ATOM     82  C   UNL A   1      35.479  34.517  28.501  1.00  0.00     0.040 A 
ATOM     83  F   UNL A   1      37.805  34.374  28.757  1.00  0.00    -0.206 F 
ATOM     84  C   UNL A   1      34.196  34.078  28.824  1.00  0.00     0.006 A 
ENDBRANCH  56  77
BRANCH  68  85
ATOM     85  C   UNL A   1      39.948  33.936  36.040  1.00  0.00     0.057 A 
ATOM     86  C   UNL A   1      40.572  35.189  36.005  1.00  0.00     0.134 A 
ATOM     87  C   UNL A   1      39.129  33.652  37.140  1.00  0.00     0.134 A 
ATOM     88  F   UNL A   1      41.379  35.520  34.985  1.00  0.00    -0.206 F 
ATOM     89  C   UNL A   1      40.410  36.112  37.039  1.00  0.00     0.040 A 
ATOM     90  C   UNL A   1      38.932  34.578  38.164  1.00  0.00     0.040 A 
ATOM     91  F   UNL A   1      38.492  32.473  37.231  1.00  0.00    -0.206 F 
ATOM     92  C   UNL A   1      39.581  35.810  38.119  1.00  0.00     0.006 A 
ENDBRANCH  68  85
ENDBRANCH  42  43
ENDBRANCH  35  37
ENDBRANCH  34  35
ENDBRANCH  33  34
ENDBRANCH  32  33
ENDBRANCH  31  32
ENDBRANCH  30  31
ENDBRANCH  29  30
ENDBRANCH  28  29
ENDBRANCH   1  28
TORSDOF 23
ENDMDL
