MODEL 1
REMARK VINA RESULT:      -8.7      0.000      0.000
REMARK SMILES COC(=O)[C@@H]1[C@@H](NC(=O)COCC(=O)OCCOCCOCCOCCOC(=O)c2ccc(-c3c4nc(c(-c5c(F)cccc5F)c5ccc([nH]5)c(-c5c(F)cccc5F)c5nc(c(-c6c(F)cccc6F)c6ccc3[nH]6)C=C5)C=C4)cc2)CCN1C(C)=O
REMARK SMILES IDX 19 1 18 2 17 3 16 4 15 5 13 6 14 7 12 8 11 9 10 10 8 11 7 12
REMARK SMILES IDX 9 14 6 15 5 16 86 17 84 18 85 19 3 20 4 21 2 22 1 23 87 24
REMARK SMILES IDX 88 25 89 26 20 27 21 28 22 29 23 30 24 31 25 32 26 33 27 34
REMARK SMILES IDX 28 35 29 36 30 37 31 38 83 39 32 40 82 41 33 42 34 43 35 44
REMARK SMILES IDX 76 45 36 46 81 47 75 48 77 49 37 50 80 51 74 52 73 53 38 55
REMARK SMILES IDX 64 56 47 57 63 58 48 59 51 60 62 61 78 62 49 63 50 64 61 66
REMARK SMILES IDX 79 67 52 68 39 69 40 70 45 71 41 72 42 73 44 74 46 75 43 76
REMARK SMILES IDX 65 77 66 78 71 79 67 80 68 81 70 82 72 83 69 84 53 85 54 86
REMARK SMILES IDX 59 87 55 88 56 89 58 90 60 91 57 92
REMARK H PARENT 7 13 77 54 51 65
REMARK Flexibility Score: inf
ROOT
ATOM      1  C   UNL A   1      42.453  19.197  27.184  1.00  0.00     0.188 C 
ENDROOT
BRANCH   1   2
ATOM      2  O   UNL A   1      41.312  19.973  27.567  1.00  0.00    -0.376 OA
BRANCH   2   3
ATOM      3  C   UNL A   1      40.414  20.399  26.541  1.00  0.00     0.202 C 
BRANCH   3   4
ATOM      4  C   UNL A   1      40.061  21.895  26.511  1.00  0.00     0.261 C 
BRANCH   4   5
ATOM      5  O   UNL A   1      38.713  22.142  26.079  1.00  0.00    -0.462 OA
BRANCH   5   6
ATOM      6  C   UNL A   1      38.216  23.383  26.307  1.00  0.00     0.332 C 
ATOM      7  O   UNL A   1      38.666  24.184  27.120  1.00  0.00    -0.250 OA
BRANCH   6   8
ATOM      8  C   UNL A   1      37.089  23.745  25.329  1.00  0.00     0.283 C 
BRANCH   8   9
ATOM      9  O   UNL A   1      35.825  23.125  25.516  1.00  0.00    -0.360 OA
BRANCH   9  10
ATOM     10  C   UNL A   1      35.460  22.202  24.507  1.00  0.00     0.260 C 
BRANCH  10  11
ATOM     11  C   UNL A   1      33.977  21.905  24.352  1.00  0.00     0.246 C 
ATOM     12  N   UNL A   1      33.076  22.899  24.164  1.00  0.00    -0.349 N 
ATOM     13  H   UNL A   1      32.205  22.573  23.839  1.00  0.00     0.163 HD
ATOM     14  O   UNL A   1      33.568  20.741  24.363  1.00  0.00    -0.272 OA
BRANCH  12  15
ATOM     15  C   UNL A   1      33.115  24.349  24.337  1.00  0.00     0.118 C 
ATOM     16  C   UNL A   1      31.856  25.189  24.666  1.00  0.00     0.217 C 
ATOM     17  N   UNL A   1      32.230  26.539  24.214  1.00  0.00    -0.327 N 
ATOM     18  C   UNL A   1      33.628  25.020  23.061  1.00  0.00     0.049 C 
ATOM     19  C   UNL A   1      33.358  26.497  23.299  1.00  0.00     0.122 C 
BRANCH  16  20
ATOM     20  C   UNL A   1      31.503  25.065  26.158  1.00  0.00     0.330 C 
ATOM     21  O   UNL A   1      31.294  26.004  26.915  1.00  0.00    -0.250 OA
BRANCH  20  22
ATOM     22  O   UNL A   1      31.467  23.749  26.506  1.00  0.00    -0.467 OA
ATOM     23  C   UNL A   1      30.209  23.141  26.794  1.00  0.00     0.282 C 
ENDBRANCH  20  22
ENDBRANCH  16  20
BRANCH  17  24
ATOM     24  C   UNL A   1      31.327  27.578  24.286  1.00  0.00     0.220 C 
ATOM     25  C   UNL A   1      31.869  28.940  24.626  1.00  0.00     0.114 C 
ATOM     26  O   UNL A   1      30.117  27.413  24.157  1.00  0.00    -0.275 OA
ENDBRANCH  17  24
ENDBRANCH  12  15
ENDBRANCH  10  11
ENDBRANCH   9  10
ENDBRANCH   8   9
ENDBRANCH   6   8
ENDBRANCH   5   6
ENDBRANCH   4   5
ENDBRANCH   3   4
ENDBRANCH   2   3
ENDBRANCH   1   2
BRANCH   1  27
ATOM     27  C   UNL A   1      42.674  19.042  25.679  1.00  0.00     0.188 C 
BRANCH  27  28
ATOM     28  O   UNL A   1      43.797  18.195  25.447  1.00  0.00    -0.377 OA
BRANCH  28  29
ATOM     29  C   UNL A   1      45.108  18.745  25.463  1.00  0.00     0.188 C 
BRANCH  29  30
ATOM     30  C   UNL A   1      45.540  19.517  24.221  1.00  0.00     0.188 C 
BRANCH  30  31
ATOM     31  O   UNL A   1      44.620  20.495  23.734  1.00  0.00    -0.376 OA
BRANCH  31  32
ATOM     32  C   UNL A   1      44.966  21.869  23.893  1.00  0.00     0.202 C 
BRANCH  32  33
ATOM     33  C   UNL A   1      46.206  22.149  24.742  1.00  0.00     0.261 C 
BRANCH  33  34
ATOM     34  O   UNL A   1      45.898  22.225  26.143  1.00  0.00    -0.460 OA
BRANCH  34  35
ATOM     35  C   UNL A   1      44.778  22.923  26.444  1.00  0.00     0.338 C 
ATOM     36  O   UNL A   1      43.681  22.481  26.753  1.00  0.00    -0.246 OA
BRANCH  35  37
ATOM     37  C   UNL A   1      45.116  24.351  26.527  1.00  0.00     0.060 A 
ATOM     38  C   UNL A   1      44.903  25.158  25.400  1.00  0.00     0.016 A 
ATOM     39  C   UNL A   1      45.708  24.869  27.679  1.00  0.00     0.016 A 
ATOM     40  C   UNL A   1      45.312  26.484  25.409  1.00  0.00     0.010 A 
ATOM     41  C   UNL A   1      46.149  26.189  27.677  1.00  0.00     0.010 A 
ATOM     42  C   UNL A   1      45.987  26.983  26.527  1.00  0.00    -0.014 A 
BRANCH  42  43
ATOM     43  C   UNL A   1      46.738  28.246  26.400  1.00  0.00     0.031 A 
ATOM     44  C   UNL A   1      48.219  28.160  26.167  1.00  0.00     0.074 A 
ATOM     45  C   UNL A   1      46.107  29.430  26.459  1.00  0.00     0.049 A 
ATOM     46  N   UNL A   1      49.108  29.115  26.111  1.00  0.00    -0.248 NA
ATOM     47  C   UNL A   1      48.772  26.808  25.976  1.00  0.00     0.031 C 
ATOM     48  C   UNL A   1      44.665  29.614  26.613  1.00  0.00     0.029 A 
ATOM     49  N   UNL A   1      46.610  30.702  26.406  1.00  0.00    -0.354 N 
ATOM     50  C   UNL A   1      50.322  28.480  25.884  1.00  0.00     0.074 A 
ATOM     51  C   UNL A   1      50.064  27.059  25.847  1.00  0.00     0.031 C 
ATOM     52  C   UNL A   1      44.401  30.931  26.663  1.00  0.00     0.029 A 
ATOM     53  C   UNL A   1      45.656  31.672  26.586  1.00  0.00     0.049 A 
ATOM     54  H   UNL A   1      47.562  30.901  26.252  1.00  0.00     0.167 HD
ATOM     55  C   UNL A   1      51.542  29.039  25.712  1.00  0.00     0.037 A 
ATOM     56  C   UNL A   1      45.801  33.005  26.710  1.00  0.00     0.037 A 
ATOM     57  C   UNL A   1      51.780  30.456  25.764  1.00  0.00     0.049 A 
ATOM     58  C   UNL A   1      47.185  33.596  26.621  1.00  0.00     0.074 A 
ATOM     59  C   UNL A   1      52.975  31.137  25.620  1.00  0.00     0.029 A 
ATOM     60  N   UNL A   1      50.797  31.410  25.985  1.00  0.00    -0.354 N 
ATOM     61  N   UNL A   1      48.331  32.994  26.406  1.00  0.00    -0.248 NA
ATOM     62  C   UNL A   1      47.294  35.050  26.792  1.00  0.00     0.031 C 
ATOM     63  C   UNL A   1      52.722  32.500  25.807  1.00  0.00     0.029 A 
ATOM     64  C   UNL A   1      51.360  32.673  26.003  1.00  0.00     0.049 A 
ATOM     65  H   UNL A   1      49.839  31.216  26.110  1.00  0.00     0.167 HD
ATOM     66  C   UNL A   1      49.291  33.999  26.378  1.00  0.00     0.074 A 
ATOM     67  C   UNL A   1      48.588  35.249  26.586  1.00  0.00     0.031 C 
ATOM     68  C   UNL A   1      50.631  33.902  26.196  1.00  0.00     0.037 A 
BRANCH  55  69
ATOM     69  C   UNL A   1      52.702  28.114  25.487  1.00  0.00     0.057 A 
ATOM     70  C   UNL A   1      53.102  27.722  24.203  1.00  0.00     0.134 A 
ATOM     71  C   UNL A   1      53.441  27.620  26.570  1.00  0.00     0.134 A 
ATOM     72  F   UNL A   1      52.426  28.142  23.122  1.00  0.00    -0.206 F 
ATOM     73  C   UNL A   1      54.178  26.855  24.004  1.00  0.00     0.040 A 
ATOM     74  C   UNL A   1      54.537  26.776  26.383  1.00  0.00     0.040 A 
ATOM     75  F   UNL A   1      53.112  27.953  27.828  1.00  0.00    -0.206 F 
ATOM     76  C   UNL A   1      54.904  26.386  25.097  1.00  0.00     0.006 A 
ENDBRANCH  55  69
BRANCH  56  77
ATOM     77  C   UNL A   1      44.618  33.869  26.957  1.00  0.00     0.057 A 
ATOM     78  C   UNL A   1      43.914  34.457  25.900  1.00  0.00     0.134 A 
ATOM     79  C   UNL A   1      44.184  34.158  28.258  1.00  0.00     0.134 A 
ATOM     80  F   UNL A   1      44.293  34.236  24.633  1.00  0.00    -0.206 F 
ATOM     81  C   UNL A   1      42.843  35.322  26.126  1.00  0.00     0.040 A 
ATOM     82  C   UNL A   1      43.095  34.997  28.498  1.00  0.00     0.040 A 
ATOM     83  F   UNL A   1      44.813  33.626  29.316  1.00  0.00    -0.206 F 
ATOM     84  C   UNL A   1      42.428  35.591  27.428  1.00  0.00     0.006 A 
ENDBRANCH  56  77
BRANCH  68  85
ATOM     85  C   UNL A   1      51.413  35.183  26.157  1.00  0.00     0.057 A 
ATOM     86  C   UNL A   1      51.611  35.898  24.970  1.00  0.00     0.134 A 
ATOM     87  C   UNL A   1      51.940  35.727  27.336  1.00  0.00     0.134 A 
ATOM     88  F   UNL A   1      51.143  35.426  23.803  1.00  0.00    -0.206 F 
ATOM     89  C   UNL A   1      52.329  37.096  24.951  1.00  0.00     0.040 A 
ATOM     90  C   UNL A   1      52.630  36.939  27.336  1.00  0.00     0.040 A 
ATOM     91  F   UNL A   1      51.775  35.100  28.510  1.00  0.00    -0.206 F 
ATOM     92  C   UNL A   1      52.833  37.623  26.139  1.00  0.00     0.006 A 
ENDBRANCH  68  85
ENDBRANCH  42  43
ENDBRANCH  35  37
ENDBRANCH  34  35
ENDBRANCH  33  34
ENDBRANCH  32  33
ENDBRANCH  31  32
ENDBRANCH  30  31
ENDBRANCH  29  30
ENDBRANCH  28  29
ENDBRANCH  27  28
ENDBRANCH   1  27
TORSDOF 27
ENDMDL
MODEL 2
REMARK VINA RESULT:      -8.1      3.229      7.284
REMARK SMILES COC(=O)[C@@H]1[C@@H](NC(=O)COCC(=O)OCCOCCOCCOCCOC(=O)c2ccc(-c3c4nc(c(-c5c(F)cccc5F)c5ccc([nH]5)c(-c5c(F)cccc5F)c5nc(c(-c6c(F)cccc6F)c6ccc3[nH]6)C=C5)C=C4)cc2)CCN1C(C)=O
REMARK SMILES IDX 19 1 18 2 17 3 16 4 15 5 13 6 14 7 12 8 11 9 10 10 8 11 7 12
REMARK SMILES IDX 9 14 6 15 5 16 86 17 84 18 85 19 3 20 4 21 2 22 1 23 87 24
REMARK SMILES IDX 88 25 89 26 20 27 21 28 22 29 23 30 24 31 25 32 26 33 27 34
REMARK SMILES IDX 28 35 29 36 30 37 31 38 83 39 32 40 82 41 33 42 34 43 35 44
REMARK SMILES IDX 76 45 36 46 81 47 75 48 77 49 37 50 80 51 74 52 73 53 38 55
REMARK SMILES IDX 64 56 47 57 63 58 48 59 51 60 62 61 78 62 49 63 50 64 61 66
REMARK SMILES IDX 79 67 52 68 39 69 40 70 45 71 41 72 42 73 44 74 46 75 43 76
REMARK SMILES IDX 65 77 66 78 71 79 67 80 68 81 70 82 72 83 69 84 53 85 54 86
REMARK SMILES IDX 59 87 55 88 56 89 58 90 60 91 57 92
REMARK H PARENT 7 13 77 54 51 65
REMARK Flexibility Score: inf
ROOT
ATOM      1  C   UNL A   1      41.968  19.238  27.270  1.00  0.00     0.188 C 
ENDROOT
BRANCH   1   2
ATOM      2  O   UNL A   1      40.921  20.064  27.794  1.00  0.00    -0.376 OA
BRANCH   2   3
ATOM      3  C   UNL A   1      40.442  21.137  26.982  1.00  0.00     0.202 C 
BRANCH   3   4
ATOM      4  C   UNL A   1      40.609  22.557  27.547  1.00  0.00     0.261 C 
BRANCH   4   5
ATOM      5  O   UNL A   1      40.191  23.576  26.625  1.00  0.00    -0.462 OA
BRANCH   5   6
ATOM      6  C   UNL A   1      39.159  24.367  27.014  1.00  0.00     0.332 C 
ATOM      7  O   UNL A   1      39.220  25.225  27.889  1.00  0.00    -0.250 OA
BRANCH   6   8
ATOM      8  C   UNL A   1      37.915  24.168  26.138  1.00  0.00     0.283 C 
BRANCH   8   9
ATOM      9  O   UNL A   1      37.531  22.837  25.824  1.00  0.00    -0.360 OA
BRANCH   9  10
ATOM     10  C   UNL A   1      36.151  22.564  25.980  1.00  0.00     0.260 C 
BRANCH  10  11
ATOM     11  C   UNL A   1      35.612  21.328  25.278  1.00  0.00     0.246 C 
ATOM     12  N   UNL A   1      34.291  21.188  25.013  1.00  0.00    -0.349 N 
ATOM     13  H   UNL A   1      34.102  20.482  24.353  1.00  0.00     0.163 HD
ATOM     14  O   UNL A   1      36.379  20.436  24.904  1.00  0.00    -0.272 OA
BRANCH  12  15
ATOM     15  C   UNL A   1      33.084  21.859  25.491  1.00  0.00     0.118 C 
ATOM     16  C   UNL A   1      32.728  23.318  25.111  1.00  0.00     0.217 C 
ATOM     17  N   UNL A   1      31.814  23.728  26.190  1.00  0.00    -0.327 N 
ATOM     18  C   UNL A   1      33.082  21.913  27.020  1.00  0.00     0.049 C 
ATOM     19  C   UNL A   1      31.932  22.854  27.344  1.00  0.00     0.122 C 
BRANCH  16  20
ATOM     20  C   UNL A   1      32.141  23.374  23.691  1.00  0.00     0.330 C 
ATOM     21  O   UNL A   1      30.948  23.392  23.419  1.00  0.00    -0.250 OA
BRANCH  20  22
ATOM     22  O   UNL A   1      33.157  23.393  22.783  1.00  0.00    -0.467 OA
ATOM     23  C   UNL A   1      34.240  24.301  22.972  1.00  0.00     0.282 C 
ENDBRANCH  20  22
ENDBRANCH  16  20
BRANCH  17  24
ATOM     24  C   UNL A   1      31.317  25.013  26.237  1.00  0.00     0.220 C 
ATOM     25  C   UNL A   1      32.294  26.138  26.020  1.00  0.00     0.114 C 
ATOM     26  O   UNL A   1      30.148  25.261  26.518  1.00  0.00    -0.275 OA
ENDBRANCH  17  24
ENDBRANCH  12  15
ENDBRANCH  10  11
ENDBRANCH   9  10
ENDBRANCH   8   9
ENDBRANCH   6   8
ENDBRANCH   5   6
ENDBRANCH   4   5
ENDBRANCH   3   4
ENDBRANCH   2   3
ENDBRANCH   1   2
BRANCH   1  27
ATOM     27  C   UNL A   1      42.399  19.546  25.837  1.00  0.00     0.188 C 
BRANCH  27  28
ATOM     28  O   UNL A   1      43.134  18.443  25.313  1.00  0.00    -0.377 OA
BRANCH  28  29
ATOM     29  C   UNL A   1      44.470  18.217  25.748  1.00  0.00     0.188 C 
BRANCH  29  30
ATOM     30  C   UNL A   1      45.537  19.152  25.191  1.00  0.00     0.188 C 
BRANCH  30  31
ATOM     31  O   UNL A   1      45.128  20.018  24.132  1.00  0.00    -0.376 OA
BRANCH  31  32
ATOM     32  C   UNL A   1      45.367  21.415  24.288  1.00  0.00     0.202 C 
BRANCH  32  33
ATOM     33  C   UNL A   1      45.656  21.886  25.713  1.00  0.00     0.261 C 
BRANCH  33  34
ATOM     34  O   UNL A   1      44.480  22.387  26.368  1.00  0.00    -0.460 OA
BRANCH  34  35
ATOM     35  C   UNL A   1      43.767  23.286  25.651  1.00  0.00     0.338 C 
ATOM     36  O   UNL A   1      42.832  23.068  24.895  1.00  0.00    -0.246 OA
BRANCH  35  37
ATOM     37  C   UNL A   1      44.167  24.642  26.056  1.00  0.00     0.060 A 
ATOM     38  C   UNL A   1      44.823  24.808  27.284  1.00  0.00     0.016 A 
ATOM     39  C   UNL A   1      43.829  25.741  25.267  1.00  0.00     0.016 A 
ATOM     40  C   UNL A   1      45.118  26.083  27.745  1.00  0.00     0.010 A 
ATOM     41  C   UNL A   1      44.094  27.022  25.745  1.00  0.00     0.010 A 
ATOM     42  C   UNL A   1      44.701  27.192  27.002  1.00  0.00    -0.014 A 
BRANCH  42  43
ATOM     43  C   UNL A   1      44.676  28.516  27.651  1.00  0.00     0.031 A 
ATOM     44  C   UNL A   1      43.417  28.925  28.360  1.00  0.00     0.074 A 
ATOM     45  C   UNL A   1      45.758  29.311  27.634  1.00  0.00     0.049 A 
ATOM     46  N   UNL A   1      43.114  30.062  28.926  1.00  0.00    -0.248 NA
ATOM     47  C   UNL A   1      42.352  27.910  28.436  1.00  0.00     0.031 C 
ATOM     48  C   UNL A   1      47.046  28.973  27.032  1.00  0.00     0.029 A 
ATOM     49  N   UNL A   1      45.934  30.574  28.132  1.00  0.00    -0.354 N 
ATOM     50  C   UNL A   1      41.825  29.901  29.419  1.00  0.00     0.074 A 
ATOM     51  C   UNL A   1      41.389  28.572  29.057  1.00  0.00     0.031 C 
ATOM     52  C   UNL A   1      47.879  30.019  27.178  1.00  0.00     0.029 A 
ATOM     53  C   UNL A   1      47.167  31.105  27.845  1.00  0.00     0.049 A 
ATOM     54  H   UNL A   1      45.245  31.054  28.646  1.00  0.00     0.167 HD
ATOM     55  C   UNL A   1      41.080  30.785  30.121  1.00  0.00     0.037 A 
ATOM     56  C   UNL A   1      47.640  32.345  28.069  1.00  0.00     0.037 A 
ATOM     57  C   UNL A   1      41.527  32.107  30.462  1.00  0.00     0.049 A 
ATOM     58  C   UNL A   1      46.749  33.347  28.759  1.00  0.00     0.074 A 
ATOM     59  C   UNL A   1      40.854  33.096  31.155  1.00  0.00     0.029 A 
ATOM     60  N   UNL A   1      42.768  32.628  30.124  1.00  0.00    -0.354 N 
ATOM     61  N   UNL A   1      45.532  33.193  29.224  1.00  0.00    -0.248 NA
ATOM     62  C   UNL A   1      47.300  34.694  28.955  1.00  0.00     0.031 C 
ATOM     63  C   UNL A   1      41.668  34.232  31.191  1.00  0.00     0.029 A 
ATOM     64  C   UNL A   1      42.873  33.931  30.576  1.00  0.00     0.049 A 
ATOM     65  H   UNL A   1      43.471  32.141  29.635  1.00  0.00     0.167 HD
ATOM     66  C   UNL A   1      45.186  34.409  29.801  1.00  0.00     0.074 A 
ATOM     67  C   UNL A   1      46.329  35.286  29.636  1.00  0.00     0.031 C 
ATOM     68  C   UNL A   1      44.032  34.774  30.412  1.00  0.00     0.037 A 
BRANCH  55  69
ATOM     69  C   UNL A   1      39.701  30.356  30.530  1.00  0.00     0.057 A 
ATOM     70  C   UNL A   1      38.580  30.587  29.720  1.00  0.00     0.134 A 
ATOM     71  C   UNL A   1      39.491  29.688  31.743  1.00  0.00     0.134 A 
ATOM     72  F   UNL A   1      38.707  31.241  28.555  1.00  0.00    -0.206 F 
ATOM     73  C   UNL A   1      37.300  30.191  30.112  1.00  0.00     0.040 A 
ATOM     74  C   UNL A   1      38.220  29.260  32.132  1.00  0.00     0.040 A 
ATOM     75  F   UNL A   1      40.518  29.435  32.568  1.00  0.00    -0.206 F 
ATOM     76  C   UNL A   1      37.119  29.517  31.319  1.00  0.00     0.006 A 
ENDBRANCH  55  69
BRANCH  56  77
ATOM     77  C   UNL A   1      49.004  32.721  27.619  1.00  0.00     0.057 A 
ATOM     78  C   UNL A   1      49.209  33.418  26.423  1.00  0.00     0.134 A 
ATOM     79  C   UNL A   1      50.140  32.362  28.356  1.00  0.00     0.134 A 
ATOM     80  F   UNL A   1      48.163  33.773  25.662  1.00  0.00    -0.206 F 
ATOM     81  C   UNL A   1      50.491  33.718  25.960  1.00  0.00     0.040 A 
ATOM     82  C   UNL A   1      51.427  32.682  27.921  1.00  0.00     0.040 A 
ATOM     83  F   UNL A   1      50.016  31.695  29.513  1.00  0.00    -0.206 F 
ATOM     84  C   UNL A   1      51.605  33.353  26.713  1.00  0.00     0.006 A 
ENDBRANCH  56  77
BRANCH  68  85
ATOM     85  C   UNL A   1      43.969  36.155  30.995  1.00  0.00     0.057 A 
ATOM     86  C   UNL A   1      43.701  37.283  30.210  1.00  0.00     0.134 A 
ATOM     87  C   UNL A   1      44.140  36.350  32.373  1.00  0.00     0.134 A 
ATOM     88  F   UNL A   1      43.540  37.167  28.883  1.00  0.00    -0.206 F 
ATOM     89  C   UNL A   1      43.633  38.561  30.770  1.00  0.00     0.040 A 
ATOM     90  C   UNL A   1      44.040  37.617  32.949  1.00  0.00     0.040 A 
ATOM     91  F   UNL A   1      44.386  35.310  33.184  1.00  0.00    -0.206 F 
ATOM     92  C   UNL A   1      43.794  38.728  32.145  1.00  0.00     0.006 A 
ENDBRANCH  68  85
ENDBRANCH  42  43
ENDBRANCH  35  37
ENDBRANCH  34  35
ENDBRANCH  33  34
ENDBRANCH  32  33
ENDBRANCH  31  32
ENDBRANCH  30  31
ENDBRANCH  29  30
ENDBRANCH  28  29
ENDBRANCH  27  28
ENDBRANCH   1  27
TORSDOF 27
ENDMDL
MODEL 3
REMARK VINA RESULT:      -8.1      1.266      2.298
REMARK SMILES COC(=O)[C@@H]1[C@@H](NC(=O)COCC(=O)OCCOCCOCCOCCOC(=O)c2ccc(-c3c4nc(c(-c5c(F)cccc5F)c5ccc([nH]5)c(-c5c(F)cccc5F)c5nc(c(-c6c(F)cccc6F)c6ccc3[nH]6)C=C5)C=C4)cc2)CCN1C(C)=O
REMARK SMILES IDX 19 1 18 2 17 3 16 4 15 5 13 6 14 7 12 8 11 9 10 10 8 11 7 12
REMARK SMILES IDX 9 14 6 15 5 16 86 17 84 18 85 19 3 20 4 21 2 22 1 23 87 24
REMARK SMILES IDX 88 25 89 26 20 27 21 28 22 29 23 30 24 31 25 32 26 33 27 34
REMARK SMILES IDX 28 35 29 36 30 37 31 38 83 39 32 40 82 41 33 42 34 43 35 44
REMARK SMILES IDX 76 45 36 46 81 47 75 48 77 49 37 50 80 51 74 52 73 53 38 55
REMARK SMILES IDX 64 56 47 57 63 58 48 59 51 60 62 61 78 62 49 63 50 64 61 66
REMARK SMILES IDX 79 67 52 68 39 69 40 70 45 71 41 72 42 73 44 74 46 75 43 76
REMARK SMILES IDX 65 77 66 78 71 79 67 80 68 81 70 82 72 83 69 84 53 85 54 86
REMARK SMILES IDX 59 87 55 88 56 89 58 90 60 91 57 92
REMARK H PARENT 7 13 77 54 51 65
REMARK Flexibility Score: inf
ROOT
ATOM      1  C   UNL A   1      41.790  19.191  27.372  1.00  0.00     0.188 C 
ENDROOT
BRANCH   1   2
ATOM      2  O   UNL A   1      40.872  20.109  27.978  1.00  0.00    -0.376 OA
BRANCH   2   3
ATOM      3  C   UNL A   1      40.707  21.392  27.374  1.00  0.00     0.202 C 
BRANCH   3   4
ATOM      4  C   UNL A   1      41.173  22.606  28.194  1.00  0.00     0.261 C 
BRANCH   4   5
ATOM      5  O   UNL A   1      41.312  23.795  27.400  1.00  0.00    -0.462 OA
BRANCH   5   6
ATOM      6  C   UNL A   1      40.606  24.883  27.799  1.00  0.00     0.332 C 
ATOM      7  O   UNL A   1      40.922  25.627  28.723  1.00  0.00    -0.250 OA
BRANCH   6   8
ATOM      8  C   UNL A   1      39.416  25.174  26.875  1.00  0.00     0.283 C 
BRANCH   8   9
ATOM      9  O   UNL A   1      38.791  24.072  26.232  1.00  0.00    -0.360 OA
BRANCH   9  10
ATOM     10  C   UNL A   1      37.379  24.054  26.325  1.00  0.00     0.260 C 
BRANCH  10  11
ATOM     11  C   UNL A   1      36.624  23.412  25.171  1.00  0.00     0.246 C 
ATOM     12  N   UNL A   1      35.313  23.676  24.954  1.00  0.00    -0.349 N 
ATOM     13  H   UNL A   1      35.008  23.403  24.058  1.00  0.00     0.163 HD
ATOM     14  O   UNL A   1      37.205  22.659  24.386  1.00  0.00    -0.272 OA
BRANCH  12  15
ATOM     15  C   UNL A   1      34.253  24.277  25.761  1.00  0.00     0.118 C 
ATOM     16  C   UNL A   1      32.825  23.682  25.848  1.00  0.00     0.217 C 
ATOM     17  N   UNL A   1      32.011  24.834  26.267  1.00  0.00    -0.327 N 
ATOM     18  C   UNL A   1      33.980  25.707  25.291  1.00  0.00     0.049 C 
ATOM     19  C   UNL A   1      32.704  26.088  26.025  1.00  0.00     0.122 C 
BRANCH  16  20
ATOM     20  C   UNL A   1      32.804  22.476  26.802  1.00  0.00     0.330 C 
ATOM     21  O   UNL A   1      32.656  22.536  28.016  1.00  0.00    -0.250 OA
BRANCH  20  22
ATOM     22  O   UNL A   1      32.983  21.331  26.086  1.00  0.00    -0.467 OA
ATOM     23  C   UNL A   1      32.140  21.074  24.965  1.00  0.00     0.282 C 
ENDBRANCH  20  22
ENDBRANCH  16  20
BRANCH  17  24
ATOM     24  C   UNL A   1      30.644  24.716  26.399  1.00  0.00     0.220 C 
ATOM     25  C   UNL A   1      29.790  25.660  25.595  1.00  0.00     0.114 C 
ATOM     26  O   UNL A   1      30.120  23.935  27.188  1.00  0.00    -0.275 OA
ENDBRANCH  17  24
ENDBRANCH  12  15
ENDBRANCH  10  11
ENDBRANCH   9  10
ENDBRANCH   8   9
ENDBRANCH   6   8
ENDBRANCH   5   6
ENDBRANCH   4   5
ENDBRANCH   3   4
ENDBRANCH   2   3
ENDBRANCH   1   2
BRANCH   1  27
ATOM     27  C   UNL A   1      42.256  19.556  25.962  1.00  0.00     0.188 C 
BRANCH  27  28
ATOM     28  O   UNL A   1      42.969  18.459  25.398  1.00  0.00    -0.377 OA
BRANCH  28  29
ATOM     29  C   UNL A   1      44.310  18.208  25.803  1.00  0.00     0.188 C 
BRANCH  29  30
ATOM     30  C   UNL A   1      45.384  19.108  25.203  1.00  0.00     0.188 C 
BRANCH  30  31
ATOM     31  O   UNL A   1      44.980  19.930  24.107  1.00  0.00    -0.376 OA
BRANCH  31  32
ATOM     32  C   UNL A   1      45.349  21.308  24.140  1.00  0.00     0.202 C 
BRANCH  32  33
ATOM     33  C   UNL A   1      45.879  21.823  25.478  1.00  0.00     0.261 C 
BRANCH  33  34
ATOM     34  O   UNL A   1      44.832  22.344  26.311  1.00  0.00    -0.460 OA
BRANCH  34  35
ATOM     35  C   UNL A   1      43.975  23.189  25.690  1.00  0.00     0.338 C 
ATOM     36  O   UNL A   1      42.936  22.909  25.112  1.00  0.00    -0.246 OA
BRANCH  35  37
ATOM     37  C   UNL A   1      44.387  24.572  25.969  1.00  0.00     0.060 A 
ATOM     38  C   UNL A   1      44.241  25.532  24.956  1.00  0.00     0.016 A 
ATOM     39  C   UNL A   1      44.980  24.899  27.188  1.00  0.00     0.016 A 
ATOM     40  C   UNL A   1      44.720  26.820  25.148  1.00  0.00     0.010 A 
ATOM     41  C   UNL A   1      45.491  26.182  27.368  1.00  0.00     0.010 A 
ATOM     42  C   UNL A   1      45.396  27.129  26.333  1.00  0.00    -0.014 A 
BRANCH  42  43
ATOM     43  C   UNL A   1      46.215  28.354  26.387  1.00  0.00     0.031 A 
ATOM     44  C   UNL A   1      47.699  28.213  26.203  1.00  0.00     0.074 A 
ATOM     45  C   UNL A   1      45.643  29.556  26.562  1.00  0.00     0.049 A 
ATOM     46  N   UNL A   1      48.637  29.116  26.296  1.00  0.00    -0.248 NA
ATOM     47  C   UNL A   1      48.190  26.863  25.873  1.00  0.00     0.031 C 
ATOM     48  C   UNL A   1      44.207  29.801  26.680  1.00  0.00     0.029 A 
ATOM     49  N   UNL A   1      46.212  30.796  26.680  1.00  0.00    -0.354 N 
ATOM     50  C   UNL A   1      49.826  28.445  26.042  1.00  0.00     0.074 A 
ATOM     51  C   UNL A   1      49.498  27.055  25.826  1.00  0.00     0.031 C 
ATOM     52  C   UNL A   1      44.008  31.116  26.877  1.00  0.00     0.029 A 
ATOM     53  C   UNL A   1      45.302  31.790  26.938  1.00  0.00     0.049 A 
ATOM     54  H   UNL A   1      47.180  30.958  26.588  1.00  0.00     0.167 HD
ATOM     55  C   UNL A   1      51.079  28.952  25.985  1.00  0.00     0.037 A 
ATOM     56  C   UNL A   1      45.509  33.088  27.226  1.00  0.00     0.037 A 
ATOM     57  C   UNL A   1      51.387  30.337  26.216  1.00  0.00     0.049 A 
ATOM     58  C   UNL A   1      46.924  33.607  27.262  1.00  0.00     0.074 A 
ATOM     59  C   UNL A   1      52.620  30.962  26.200  1.00  0.00     0.029 A 
ATOM     60  N   UNL A   1      50.445  31.312  26.510  1.00  0.00    -0.354 N 
ATOM     61  N   UNL A   1      48.046  32.972  27.021  1.00  0.00    -0.248 NA
ATOM     62  C   UNL A   1      47.099  35.023  27.608  1.00  0.00     0.031 C 
ATOM     63  C   UNL A   1      52.429  32.306  26.538  1.00  0.00     0.029 A 
ATOM     64  C   UNL A   1      51.070  32.531  26.701  1.00  0.00     0.049 A 
ATOM     65  H   UNL A   1      49.474  31.159  26.574  1.00  0.00     0.167 HD
ATOM     66  C   UNL A   1      49.056  33.918  27.150  1.00  0.00     0.074 A 
ATOM     67  C   UNL A   1      48.410  35.172  27.478  1.00  0.00     0.031 C 
ATOM     68  C   UNL A   1      50.397  33.768  27.010  1.00  0.00     0.037 A 
BRANCH  55  69
ATOM     69  C   UNL A   1      52.200  27.996  25.698  1.00  0.00     0.057 A 
ATOM     70  C   UNL A   1      52.864  27.301  26.718  1.00  0.00     0.134 A 
ATOM     71  C   UNL A   1      52.612  27.754  24.381  1.00  0.00     0.134 A 
ATOM     72  F   UNL A   1      52.534  27.502  28.003  1.00  0.00    -0.206 F 
ATOM     73  C   UNL A   1      53.911  26.420  26.441  1.00  0.00     0.040 A 
ATOM     74  C   UNL A   1      53.637  26.852  24.089  1.00  0.00     0.040 A 
ATOM     75  F   UNL A   1      52.021  28.386  23.355  1.00  0.00    -0.206 F 
ATOM     76  C   UNL A   1      54.294  26.187  25.122  1.00  0.00     0.006 A 
ENDBRANCH  55  69
BRANCH  56  77
ATOM     77  C   UNL A   1      44.362  33.983  27.527  1.00  0.00     0.057 A 
ATOM     78  C   UNL A   1      43.833  34.076  28.820  1.00  0.00     0.134 A 
ATOM     79  C   UNL A   1      43.742  34.738  26.524  1.00  0.00     0.134 A 
ATOM     80  F   UNL A   1      44.370  33.362  29.821  1.00  0.00    -0.206 F 
ATOM     81  C   UNL A   1      42.715  34.864  29.099  1.00  0.00     0.040 A 
ATOM     82  C   UNL A   1      42.642  35.554  26.794  1.00  0.00     0.040 A 
ATOM     83  F   UNL A   1      44.199  34.697  25.263  1.00  0.00    -0.206 F 
ATOM     84  C   UNL A   1      42.119  35.609  28.084  1.00  0.00     0.006 A 
ENDBRANCH  56  77
BRANCH  68  85
ATOM     85  C   UNL A   1      51.244  34.999  27.155  1.00  0.00     0.057 A 
ATOM     86  C   UNL A   1      51.809  35.373  28.380  1.00  0.00     0.134 A 
ATOM     87  C   UNL A   1      51.531  35.796  26.038  1.00  0.00     0.134 A 
ATOM     88  F   UNL A   1      51.564  34.660  29.490  1.00  0.00    -0.206 F 
ATOM     89  C   UNL A   1      52.607  36.513  28.495  1.00  0.00     0.040 A 
ATOM     90  C   UNL A   1      52.354  36.918  26.134  1.00  0.00     0.040 A 
ATOM     91  F   UNL A   1      51.033  35.485  24.832  1.00  0.00    -0.206 F 
ATOM     92  C   UNL A   1      52.888  37.284  27.368  1.00  0.00     0.006 A 
ENDBRANCH  68  85
ENDBRANCH  42  43
ENDBRANCH  35  37
ENDBRANCH  34  35
ENDBRANCH  33  34
ENDBRANCH  32  33
ENDBRANCH  31  32
ENDBRANCH  30  31
ENDBRANCH  29  30
ENDBRANCH  28  29
ENDBRANCH  27  28
ENDBRANCH   1  27
TORSDOF 27
ENDMDL
