MODEL 1
REMARK VINA RESULT:      -8.3      0.000      0.000
REMARK SMILES Cc1nnc(SCC2=C(C(=O)OCCOCCOCCOCCOC(=O)c3ccc(-c4c5nc(c(-c6c(F)cccc6F)c6ccc([nH]6)c(-c6c(F)cccc6F)c6nc(c(-c7c(F)cccc7F)c7ccc4[nH]7)C=C6)C=C5)cc3)N3C(=O)[C@H](NC(=O)c4cn(C)nc4C)[C@@H]3SC2)s1
REMARK SMILES IDX 17 1 16 2 15 3 14 4 13 5 12 6 10 7 11 8 9 9 8 10 97 11 81 12
REMARK SMILES IDX 96 13 82 14 95 15 83 16 84 17 7 18 6 19 5 20 1 21 2 22 3 23
REMARK SMILES IDX 98 24 4 25 85 26 86 27 87 29 88 30 89 31 93 32 90 33 92 34
REMARK SMILES IDX 94 35 91 36 18 37 19 38 20 39 21 40 22 41 23 42 24 43 25 44
REMARK SMILES IDX 26 45 27 46 28 47 80 48 29 49 79 50 30 51 31 52 32 53 73 54
REMARK SMILES IDX 33 55 78 56 72 57 74 58 34 59 77 60 71 61 70 62 35 64 61 65
REMARK SMILES IDX 44 66 60 67 45 68 48 69 59 70 75 71 46 72 47 73 58 75 76 76
REMARK SMILES IDX 49 77 36 78 37 79 42 80 38 81 39 82 41 83 43 84 40 85 62 86
REMARK SMILES IDX 63 87 68 88 64 89 65 90 67 91 69 92 66 93 50 94 51 95 56 96
REMARK SMILES IDX 52 97 53 98 55 99 57 100 54 101
REMARK H PARENT 85 28 74 63 48 74
REMARK Flexibility Score: inf
ROOT
ATOM      1  C   UNL A   1      36.522  33.208  36.365  1.00  0.00     0.188 C 
ENDROOT
BRANCH   1   2
ATOM      2  C   UNL A   1      38.014  33.506  36.608  1.00  0.00     0.188 C 
BRANCH   2   3
ATOM      3  O   UNL A   1      38.296  34.122  37.863  1.00  0.00    -0.376 OA
BRANCH   3   4
ATOM      4  C   UNL A   1      38.472  33.218  38.949  1.00  0.00     0.202 C 
BRANCH   4   5
ATOM      5  C   UNL A   1      37.329  33.275  39.964  1.00  0.00     0.261 C 
BRANCH   5   6
ATOM      6  O   UNL A   1      37.772  32.964  41.291  1.00  0.00    -0.459 OA
BRANCH   6   7
ATOM      7  C   UNL A   1      37.232  33.668  42.313  1.00  0.00     0.355 C 
ATOM      8  O   UNL A   1      36.678  34.749  42.226  1.00  0.00    -0.244 OA
BRANCH   7   9
ATOM      9  C   UNL A   1      37.302  32.819  43.558  1.00  0.00     0.132 C 
ATOM     10  C   UNL A   1      38.350  32.855  44.427  1.00  0.00    -0.019 C 
ATOM     11  C   UNL A   1      38.383  32.039  45.716  1.00  0.00     0.106 C 
ATOM     12  N   UNL A   1      36.269  31.949  43.751  1.00  0.00    -0.289 N 
ATOM     13  S   UNL A   1      36.748  31.466  46.291  1.00  0.00    -0.129 SA
ATOM     14  C   UNL A   1      35.142  31.565  43.114  1.00  0.00     0.253 C 
ATOM     15  C   UNL A   1      36.307  30.833  44.672  1.00  0.00     0.181 C 
ATOM     16  O   UNL A   1      34.647  31.847  42.053  1.00  0.00    -0.272 OA
ATOM     17  C   UNL A   1      34.810  30.602  44.320  1.00  0.00     0.206 C 
BRANCH  10  18
ATOM     18  C   UNL A   1      39.616  33.657  44.126  1.00  0.00     0.111 C 
BRANCH  18  19
ATOM     19  S   UNL A   1      41.091  33.230  45.085  1.00  0.00    -0.089 SA
BRANCH  19  20
ATOM     20  C   UNL A   1      41.838  32.049  44.041  1.00  0.00     0.174 A 
ATOM     21  C   UNL A   1      44.357  29.767  42.292  1.00  0.00     0.081 C 
ATOM     22  C   UNL A   1      43.245  30.586  42.828  1.00  0.00     0.115 A 
ATOM     23  N   UNL A   1      42.053  30.691  42.281  1.00  0.00    -0.143 NA
ATOM     24  S   UNL A   1      43.443  31.500  44.268  1.00  0.00    -0.091 S 
ATOM     25  N   UNL A   1      41.231  31.536  42.994  1.00  0.00    -0.132 NA
ENDBRANCH  19  20
ENDBRANCH  18  19
ENDBRANCH  10  18
BRANCH  17  26
ATOM     26  N   UNL A   1      33.783  31.136  45.248  1.00  0.00    -0.337 N 
ATOM     27  C   UNL A   1      33.081  30.476  46.225  1.00  0.00     0.255 C 
ATOM     28  H   UNL A   1      33.576  32.094  45.149  1.00  0.00     0.164 HD
ATOM     29  O   UNL A   1      32.098  31.017  46.724  1.00  0.00    -0.269 OA
BRANCH  27  30
ATOM     30  C   UNL A   1      33.517  29.153  46.627  1.00  0.00     0.080 A 
ATOM     31  C   UNL A   1      34.361  28.818  47.670  1.00  0.00     0.122 A 
ATOM     32  C   UNL A   1      33.107  27.899  46.094  1.00  0.00     0.072 A 
ATOM     33  N   UNL A   1      34.434  27.457  47.682  1.00  0.00    -0.275 N 
ATOM     34  N   UNL A   1      33.698  26.874  46.725  1.00  0.00    -0.178 NA
ATOM     35  C   UNL A   1      32.177  27.626  44.968  1.00  0.00     0.069 C 
ATOM     36  C   UNL A   1      35.198  26.632  48.586  1.00  0.00     0.173 C 
ENDBRANCH  27  30
ENDBRANCH  17  26
ENDBRANCH   7   9
ENDBRANCH   6   7
ENDBRANCH   5   6
ENDBRANCH   4   5
ENDBRANCH   3   4
ENDBRANCH   2   3
ENDBRANCH   1   2
BRANCH   1  37
ATOM     37  O   UNL A   1      35.745  34.148  35.642  1.00  0.00    -0.377 OA
BRANCH  37  38
ATOM     38  C   UNL A   1      35.545  33.949  34.243  1.00  0.00     0.188 C 
BRANCH  38  39
ATOM     39  C   UNL A   1      35.273  35.137  33.294  1.00  0.00     0.188 C 
BRANCH  39  40
ATOM     40  O   UNL A   1      33.899  35.388  33.026  1.00  0.00    -0.376 OA
BRANCH  40  41
ATOM     41  C   UNL A   1      33.598  36.596  32.341  1.00  0.00     0.202 C 
BRANCH  41  42
ATOM     42  C   UNL A   1      32.928  36.383  30.979  1.00  0.00     0.261 C 
BRANCH  42  43
ATOM     43  O   UNL A   1      32.733  35.006  30.615  1.00  0.00    -0.460 OA
BRANCH  43  44
ATOM     44  C   UNL A   1      33.163  34.634  29.389  1.00  0.00     0.338 C 
ATOM     45  O   UNL A   1      32.684  34.929  28.311  1.00  0.00    -0.246 OA
BRANCH  44  46
ATOM     46  C   UNL A   1      34.441  33.923  29.565  1.00  0.00     0.060 A 
ATOM     47  C   UNL A   1      34.537  32.928  30.545  1.00  0.00     0.016 A 
ATOM     48  C   UNL A   1      35.538  34.251  28.766  1.00  0.00     0.016 A 
ATOM     49  C   UNL A   1      35.752  32.277  30.753  1.00  0.00     0.010 A 
ATOM     50  C   UNL A   1      36.757  33.613  28.987  1.00  0.00     0.010 A 
ATOM     51  C   UNL A   1      36.876  32.647  30.002  1.00  0.00    -0.014 A 
BRANCH  51  52
ATOM     52  C   UNL A   1      38.222  32.179  30.402  1.00  0.00     0.031 A 
ATOM     53  C   UNL A   1      38.728  30.891  29.815  1.00  0.00     0.074 A 
ATOM     54  C   UNL A   1      38.973  32.871  31.273  1.00  0.00     0.049 A 
ATOM     55  N   UNL A   1      39.834  30.240  30.068  1.00  0.00    -0.248 NA
ATOM     56  C   UNL A   1      37.864  30.246  28.813  1.00  0.00     0.031 C 
ATOM     57  C   UNL A   1      38.606  34.147  31.882  1.00  0.00     0.029 A 
ATOM     58  N   UNL A   1      40.203  32.582  31.807  1.00  0.00    -0.354 N 
ATOM     59  C   UNL A   1      39.798  29.112  29.258  1.00  0.00     0.074 A 
ATOM     60  C   UNL A   1      38.548  29.149  28.529  1.00  0.00     0.031 C 
ATOM     61  C   UNL A   1      39.585  34.524  32.724  1.00  0.00     0.029 A 
ATOM     62  C   UNL A   1      40.631  33.502  32.732  1.00  0.00     0.049 A 
ATOM     63  H   UNL A   1      40.730  31.789  31.551  1.00  0.00     0.167 HD
ATOM     64  C   UNL A   1      40.725  28.136  29.129  1.00  0.00     0.037 A 
ATOM     65  C   UNL A   1      41.729  33.499  33.512  1.00  0.00     0.037 A 
ATOM     66  C   UNL A   1      41.962  28.094  29.860  1.00  0.00     0.049 A 
ATOM     67  C   UNL A   1      42.709  32.360  33.407  1.00  0.00     0.074 A 
ATOM     68  C   UNL A   1      42.977  27.157  29.786  1.00  0.00     0.029 A 
ATOM     69  N   UNL A   1      42.346  29.029  30.810  1.00  0.00    -0.354 N 
ATOM     70  N   UNL A   1      42.683  31.312  32.619  1.00  0.00    -0.248 NA
ATOM     71  C   UNL A   1      43.873  32.402  34.307  1.00  0.00     0.031 C 
ATOM     72  C   UNL A   1      43.955  27.499  30.726  1.00  0.00     0.029 A 
ATOM     73  C   UNL A   1      43.570  28.675  31.351  1.00  0.00     0.049 A 
ATOM     74  H   UNL A   1      41.826  29.825  31.062  1.00  0.00     0.167 HD
ATOM     75  C   UNL A   1      43.833  30.587  32.908  1.00  0.00     0.074 A 
ATOM     76  C   UNL A   1      44.542  31.319  33.935  1.00  0.00     0.031 C 
ATOM     77  C   UNL A   1      44.264  29.419  32.370  1.00  0.00     0.037 A 
BRANCH  64  78
ATOM     78  C   UNL A   1      40.418  27.020  28.176  1.00  0.00     0.057 A 
ATOM     79  C   UNL A   1      40.969  26.975  26.889  1.00  0.00     0.134 A 
ATOM     80  C   UNL A   1      39.574  25.970  28.556  1.00  0.00     0.134 A 
ATOM     81  F   UNL A   1      41.770  27.962  26.457  1.00  0.00    -0.206 F 
ATOM     82  C   UNL A   1      40.675  25.936  26.006  1.00  0.00     0.040 A 
ATOM     83  C   UNL A   1      39.291  24.913  27.691  1.00  0.00     0.040 A 
ATOM     84  F   UNL A   1      39.013  25.954  29.774  1.00  0.00    -0.206 F 
ATOM     85  C   UNL A   1      39.838  24.896  26.409  1.00  0.00     0.006 A 
ENDBRANCH  64  78
BRANCH  65  86
ATOM     86  C   UNL A   1      41.959  34.602  34.478  1.00  0.00     0.057 A 
ATOM     87  C   UNL A   1      42.508  35.823  34.069  1.00  0.00     0.134 A 
ATOM     88  C   UNL A   1      41.665  34.451  35.839  1.00  0.00     0.134 A 
ATOM     89  F   UNL A   1      42.835  36.017  32.783  1.00  0.00    -0.206 F 
ATOM     90  C   UNL A   1      42.773  36.848  34.980  1.00  0.00     0.040 A 
ATOM     91  C   UNL A   1      41.902  35.476  36.757  1.00  0.00     0.040 A 
ATOM     92  F   UNL A   1      41.140  33.305  36.295  1.00  0.00    -0.206 F 
ATOM     93  C   UNL A   1      42.464  36.676  36.327  1.00  0.00     0.006 A 
ENDBRANCH  65  86
BRANCH  77  94
ATOM     94  C   UNL A   1      45.574  28.876  32.862  1.00  0.00     0.057 A 
ATOM     95  C   UNL A   1      45.643  27.964  33.922  1.00  0.00     0.134 A 
ATOM     96  C   UNL A   1      46.775  29.233  32.234  1.00  0.00     0.134 A 
ATOM     97  F   UNL A   1      44.532  27.591  34.573  1.00  0.00    -0.206 F 
ATOM     98  C   UNL A   1      46.864  27.441  34.354  1.00  0.00     0.040 A 
ATOM     99  C   UNL A   1      47.997  28.697  32.640  1.00  0.00     0.040 A 
ATOM    100  F   UNL A   1      46.775  30.093  31.205  1.00  0.00    -0.206 F 
ATOM    101  C   UNL A   1      48.045  27.802  33.707  1.00  0.00     0.006 A 
ENDBRANCH  77  94
ENDBRANCH  51  52
ENDBRANCH  44  46
ENDBRANCH  43  44
ENDBRANCH  42  43
ENDBRANCH  41  42
ENDBRANCH  40  41
ENDBRANCH  39  40
ENDBRANCH  38  39
ENDBRANCH  37  38
ENDBRANCH   1  37
TORSDOF 25
ENDMDL
MODEL 2
REMARK VINA RESULT:      -8.3      8.793     13.745
REMARK SMILES Cc1nnc(SCC2=C(C(=O)OCCOCCOCCOCCOC(=O)c3ccc(-c4c5nc(c(-c6c(F)cccc6F)c6ccc([nH]6)c(-c6c(F)cccc6F)c6nc(c(-c7c(F)cccc7F)c7ccc4[nH]7)C=C6)C=C5)cc3)N3C(=O)[C@H](NC(=O)c4cn(C)nc4C)[C@@H]3SC2)s1
REMARK SMILES IDX 17 1 16 2 15 3 14 4 13 5 12 6 10 7 11 8 9 9 8 10 97 11 81 12
REMARK SMILES IDX 96 13 82 14 95 15 83 16 84 17 7 18 6 19 5 20 1 21 2 22 3 23
REMARK SMILES IDX 98 24 4 25 85 26 86 27 87 29 88 30 89 31 93 32 90 33 92 34
REMARK SMILES IDX 94 35 91 36 18 37 19 38 20 39 21 40 22 41 23 42 24 43 25 44
REMARK SMILES IDX 26 45 27 46 28 47 80 48 29 49 79 50 30 51 31 52 32 53 73 54
REMARK SMILES IDX 33 55 78 56 72 57 74 58 34 59 77 60 71 61 70 62 35 64 61 65
REMARK SMILES IDX 44 66 60 67 45 68 48 69 59 70 75 71 46 72 47 73 58 75 76 76
REMARK SMILES IDX 49 77 36 78 37 79 42 80 38 81 39 82 41 83 43 84 40 85 62 86
REMARK SMILES IDX 63 87 68 88 64 89 65 90 67 91 69 92 66 93 50 94 51 95 56 96
REMARK SMILES IDX 52 97 53 98 55 99 57 100 54 101
REMARK H PARENT 85 28 74 63 48 74
REMARK Flexibility Score: inf
ROOT
ATOM      1  C   UNL A   1      40.690  34.790  29.188  1.00  0.00     0.188 C 
ENDROOT
BRANCH   1   2
ATOM      2  C   UNL A   1      42.156  35.233  29.357  1.00  0.00     0.188 C 
BRANCH   2   3
ATOM      3  O   UNL A   1      42.746  35.780  28.180  1.00  0.00    -0.376 OA
BRANCH   3   4
ATOM      4  C   UNL A   1      41.891  36.629  27.420  1.00  0.00     0.202 C 
BRANCH   4   5
ATOM      5  C   UNL A   1      42.625  37.828  26.816  1.00  0.00     0.261 C 
BRANCH   5   6
ATOM      6  O   UNL A   1      42.999  38.788  27.814  1.00  0.00    -0.459 OA
BRANCH   6   7
ATOM      7  C   UNL A   1      44.319  38.958  28.057  1.00  0.00     0.355 C 
ATOM      8  O   UNL A   1      45.213  38.205  27.715  1.00  0.00    -0.244 OA
BRANCH   7   9
ATOM      9  C   UNL A   1      44.511  40.311  28.694  1.00  0.00     0.132 C 
ATOM     10  C   UNL A   1      44.732  41.448  27.977  1.00  0.00    -0.019 C 
ATOM     11  C   UNL A   1      44.863  42.822  28.627  1.00  0.00     0.106 C 
ATOM     12  N   UNL A   1      44.509  40.339  30.057  1.00  0.00    -0.289 N 
ATOM     13  S   UNL A   1      44.161  42.934  30.309  1.00  0.00    -0.129 SA
ATOM     14  C   UNL A   1      44.411  39.467  31.083  1.00  0.00     0.253 C 
ATOM     15  C   UNL A   1      45.004  41.445  30.849  1.00  0.00     0.181 C 
ATOM     16  O   UNL A   1      44.333  38.267  31.153  1.00  0.00    -0.272 OA
ATOM     17  C   UNL A   1      44.479  40.676  32.095  1.00  0.00     0.206 C 
BRANCH  10  18
ATOM     18  C   UNL A   1      44.956  41.413  26.465  1.00  0.00     0.111 C 
BRANCH  18  19
ATOM     19  S   UNL A   1      43.543  41.865  25.428  1.00  0.00    -0.089 SA
BRANCH  19  20
ATOM     20  C   UNL A   1      44.155  43.291  24.632  1.00  0.00     0.174 A 
ATOM     21  C   UNL A   1      45.310  45.820  22.008  1.00  0.00     0.081 C 
ATOM     22  C   UNL A   1      44.936  44.974  23.164  1.00  0.00     0.115 A 
ATOM     23  N   UNL A   1      45.233  45.235  24.419  1.00  0.00    -0.143 NA
ATOM     24  S   UNL A   1      44.049  43.520  22.939  1.00  0.00    -0.091 S 
ATOM     25  N   UNL A   1      44.769  44.259  25.274  1.00  0.00    -0.132 NA
ENDBRANCH  19  20
ENDBRANCH  18  19
ENDBRANCH  10  18
BRANCH  17  26
ATOM     26  N   UNL A   1      43.161  41.065  32.654  1.00  0.00    -0.337 N 
ATOM     27  C   UNL A   1      42.885  41.938  33.676  1.00  0.00     0.255 C 
ATOM     28  H   UNL A   1      42.379  40.640  32.234  1.00  0.00     0.164 HD
ATOM     29  O   UNL A   1      41.758  41.947  34.166  1.00  0.00    -0.269 OA
BRANCH  27  30
ATOM     30  C   UNL A   1      43.938  42.811  34.154  1.00  0.00     0.080 A 
ATOM     31  C   UNL A   1      45.083  42.460  34.847  1.00  0.00     0.122 A 
ATOM     32  C   UNL A   1      44.074  44.212  33.947  1.00  0.00     0.072 A 
ATOM     33  N   UNL A   1      45.785  43.612  35.035  1.00  0.00    -0.275 N 
ATOM     34  N   UNL A   1      45.188  44.694  34.515  1.00  0.00    -0.178 NA
ATOM     35  C   UNL A   1      43.156  45.140  33.236  1.00  0.00     0.069 C 
ATOM     36  C   UNL A   1      47.050  43.762  35.714  1.00  0.00     0.173 C 
ENDBRANCH  27  30
ENDBRANCH  17  26
ENDBRANCH   7   9
ENDBRANCH   6   7
ENDBRANCH   5   6
ENDBRANCH   4   5
ENDBRANCH   3   4
ENDBRANCH   2   3
ENDBRANCH   1   2
BRANCH   1  37
ATOM     37  O   UNL A   1      40.036  34.158  30.276  1.00  0.00    -0.377 OA
BRANCH  37  38
ATOM     38  C   UNL A   1      38.615  34.250  30.376  1.00  0.00     0.188 C 
BRANCH  38  39
ATOM     39  C   UNL A   1      37.915  34.430  31.741  1.00  0.00     0.188 C 
BRANCH  39  40
ATOM     40  O   UNL A   1      37.072  33.353  32.130  1.00  0.00    -0.376 OA
BRANCH  40  41
ATOM     41  C   UNL A   1      35.673  33.588  32.059  1.00  0.00     0.202 C 
BRANCH  41  42
ATOM     42  C   UNL A   1      34.954  32.726  31.016  1.00  0.00     0.261 C 
BRANCH  42  43
ATOM     43  O   UNL A   1      35.569  31.452  30.763  1.00  0.00    -0.460 OA
BRANCH  43  44
ATOM     44  C   UNL A   1      35.602  31.037  29.477  1.00  0.00     0.338 C 
ATOM     45  O   UNL A   1      34.829  31.323  28.582  1.00  0.00    -0.246 OA
BRANCH  44  46
ATOM     46  C   UNL A   1      36.856  30.289  29.285  1.00  0.00     0.060 A 
ATOM     47  C   UNL A   1      37.417  29.611  30.374  1.00  0.00     0.016 A 
ATOM     48  C   UNL A   1      37.474  30.270  28.033  1.00  0.00     0.016 A 
ATOM     49  C   UNL A   1      38.627  28.935  30.219  1.00  0.00     0.010 A 
ATOM     50  C   UNL A   1      38.692  29.610  27.885  1.00  0.00     0.010 A 
ATOM     51  C   UNL A   1      39.288  28.968  28.985  1.00  0.00    -0.014 A 
BRANCH  51  52
ATOM     52  C   UNL A   1      40.691  28.508  28.882  1.00  0.00     0.031 A 
ATOM     53  C   UNL A   1      41.785  29.509  29.124  1.00  0.00     0.074 A 
ATOM     54  C   UNL A   1      40.989  27.236  28.568  1.00  0.00     0.049 A 
ATOM     55  N   UNL A   1      43.080  29.367  29.017  1.00  0.00    -0.248 NA
ATOM     56  C   UNL A   1      41.357  30.857  29.535  1.00  0.00     0.031 C 
ATOM     57  C   UNL A   1      40.017  26.169  28.344  1.00  0.00     0.029 A 
ATOM     58  N   UNL A   1      42.206  26.635  28.371  1.00  0.00    -0.354 N 
ATOM     59  C   UNL A   1      43.621  30.603  29.346  1.00  0.00     0.074 A 
ATOM     60  C   UNL A   1      42.514  31.493  29.627  1.00  0.00     0.031 C 
ATOM     61  C   UNL A   1      40.678  25.043  28.021  1.00  0.00     0.029 A 
ATOM     62  C   UNL A   1      42.113  25.320  27.988  1.00  0.00     0.049 A 
ATOM     63  H   UNL A   1      43.064  27.103  28.492  1.00  0.00     0.167 HD
ATOM     64  C   UNL A   1      44.923  30.964  29.414  1.00  0.00     0.037 A 
ATOM     65  C   UNL A   1      43.079  24.453  27.628  1.00  0.00     0.037 A 
ATOM     66  C   UNL A   1      46.022  30.083  29.127  1.00  0.00     0.049 A 
ATOM     67  C   UNL A   1      44.517  24.901  27.636  1.00  0.00     0.074 A 
ATOM     68  C   UNL A   1      47.379  30.348  29.186  1.00  0.00     0.029 A 
ATOM     69  N   UNL A   1      45.887  28.766  28.714  1.00  0.00    -0.354 N 
ATOM     70  N   UNL A   1      45.023  26.063  27.976  1.00  0.00    -0.248 NA
ATOM     71  C   UNL A   1      45.521  23.916  27.204  1.00  0.00     0.031 C 
ATOM     72  C   UNL A   1      48.064  29.204  28.763  1.00  0.00     0.029 A 
ATOM     73  C   UNL A   1      47.136  28.214  28.486  1.00  0.00     0.049 A 
ATOM     74  H   UNL A   1      45.031  28.295  28.599  1.00  0.00     0.167 HD
ATOM     75  C   UNL A   1      46.399  25.940  27.825  1.00  0.00     0.074 A 
ATOM     76  C   UNL A   1      46.651  24.588  27.374  1.00  0.00     0.031 C 
ATOM     77  C   UNL A   1      47.368  26.863  28.041  1.00  0.00     0.037 A 
BRANCH  64  78
ATOM     78  C   UNL A   1      45.223  32.383  29.793  1.00  0.00     0.057 A 
ATOM     79  C   UNL A   1      45.255  32.800  31.130  1.00  0.00     0.134 A 
ATOM     80  C   UNL A   1      45.497  33.340  28.809  1.00  0.00     0.134 A 
ATOM     81  F   UNL A   1      44.982  31.935  32.119  1.00  0.00    -0.206 F 
ATOM     82  C   UNL A   1      45.531  34.124  31.474  1.00  0.00     0.040 A 
ATOM     83  C   UNL A   1      45.797  34.662  29.141  1.00  0.00     0.040 A 
ATOM     84  F   UNL A   1      45.480  33.006  27.510  1.00  0.00    -0.206 F 
ATOM     85  C   UNL A   1      45.809  35.058  30.478  1.00  0.00     0.006 A 
ENDBRANCH  64  78
BRANCH  65  86
ATOM     86  C   UNL A   1      42.723  23.074  27.209  1.00  0.00     0.057 A 
ATOM     87  C   UNL A   1      42.638  22.725  25.857  1.00  0.00     0.134 A 
ATOM     88  C   UNL A   1      42.430  22.081  28.152  1.00  0.00     0.134 A 
ATOM     89  F   UNL A   1      42.881  23.641  24.908  1.00  0.00    -0.206 F 
ATOM     90  C   UNL A   1      42.256  21.444  25.455  1.00  0.00     0.040 A 
ATOM     91  C   UNL A   1      42.070  20.788  27.765  1.00  0.00     0.040 A 
ATOM     92  F   UNL A   1      42.491  22.352  29.463  1.00  0.00    -0.206 F 
ATOM     93  C   UNL A   1      41.977  20.470  26.411  1.00  0.00     0.006 A 
ENDBRANCH  65  86
BRANCH  77  94
ATOM     94  C   UNL A   1      48.790  26.436  27.820  1.00  0.00     0.057 A 
ATOM     95  C   UNL A   1      49.428  26.608  26.586  1.00  0.00     0.134 A 
ATOM     96  C   UNL A   1      49.542  25.891  28.869  1.00  0.00     0.134 A 
ATOM     97  F   UNL A   1      48.760  27.114  25.538  1.00  0.00    -0.206 F 
ATOM     98  C   UNL A   1      50.760  26.235  26.397  1.00  0.00     0.040 A 
ATOM     99  C   UNL A   1      50.881  25.538  28.699  1.00  0.00     0.040 A 
ATOM    100  F   UNL A   1      48.992  25.711  30.079  1.00  0.00    -0.206 F 
ATOM    101  C   UNL A   1      51.492  25.705  27.458  1.00  0.00     0.006 A 
ENDBRANCH  77  94
ENDBRANCH  51  52
ENDBRANCH  44  46
ENDBRANCH  43  44
ENDBRANCH  42  43
ENDBRANCH  41  42
ENDBRANCH  40  41
ENDBRANCH  39  40
ENDBRANCH  38  39
ENDBRANCH  37  38
ENDBRANCH   1  37
TORSDOF 25
ENDMDL
MODEL 3
REMARK VINA RESULT:      -8.2      6.284     10.888
REMARK SMILES Cc1nnc(SCC2=C(C(=O)OCCOCCOCCOCCOC(=O)c3ccc(-c4c5nc(c(-c6c(F)cccc6F)c6ccc([nH]6)c(-c6c(F)cccc6F)c6nc(c(-c7c(F)cccc7F)c7ccc4[nH]7)C=C6)C=C5)cc3)N3C(=O)[C@H](NC(=O)c4cn(C)nc4C)[C@@H]3SC2)s1
REMARK SMILES IDX 17 1 16 2 15 3 14 4 13 5 12 6 10 7 11 8 9 9 8 10 97 11 81 12
REMARK SMILES IDX 96 13 82 14 95 15 83 16 84 17 7 18 6 19 5 20 1 21 2 22 3 23
REMARK SMILES IDX 98 24 4 25 85 26 86 27 87 29 88 30 89 31 93 32 90 33 92 34
REMARK SMILES IDX 94 35 91 36 18 37 19 38 20 39 21 40 22 41 23 42 24 43 25 44
REMARK SMILES IDX 26 45 27 46 28 47 80 48 29 49 79 50 30 51 31 52 32 53 73 54
REMARK SMILES IDX 33 55 78 56 72 57 74 58 34 59 77 60 71 61 70 62 35 64 61 65
REMARK SMILES IDX 44 66 60 67 45 68 48 69 59 70 75 71 46 72 47 73 58 75 76 76
REMARK SMILES IDX 49 77 36 78 37 79 42 80 38 81 39 82 41 83 43 84 40 85 62 86
REMARK SMILES IDX 63 87 68 88 64 89 65 90 67 91 69 92 66 93 50 94 51 95 56 96
REMARK SMILES IDX 52 97 53 98 55 99 57 100 54 101
REMARK H PARENT 85 28 74 63 48 74
REMARK Flexibility Score: inf
ROOT
ATOM      1  C   UNL A   1      45.838  38.392  34.520  1.00  0.00     0.188 C 
ENDROOT
BRANCH   1   2
ATOM      2  C   UNL A   1      44.705  37.358  34.671  1.00  0.00     0.188 C 
BRANCH   2   3
ATOM      3  O   UNL A   1      43.406  37.857  34.360  1.00  0.00    -0.376 OA
BRANCH   3   4
ATOM      4  C   UNL A   1      42.330  36.999  34.725  1.00  0.00     0.202 C 
BRANCH   4   5
ATOM      5  C   UNL A   1      42.459  35.595  34.133  1.00  0.00     0.261 C 
BRANCH   5   6
ATOM      6  O   UNL A   1      41.277  35.200  33.423  1.00  0.00    -0.459 OA
BRANCH   6   7
ATOM      7  C   UNL A   1      41.407  34.247  32.471  1.00  0.00     0.355 C 
ATOM      8  O   UNL A   1      42.288  34.188  31.632  1.00  0.00    -0.244 OA
BRANCH   7   9
ATOM      9  C   UNL A   1      40.359  33.191  32.715  1.00  0.00     0.132 C 
ATOM     10  C   UNL A   1      40.533  32.155  33.582  1.00  0.00    -0.019 C 
ATOM     11  C   UNL A   1      39.444  31.126  33.868  1.00  0.00     0.106 C 
ATOM     12  N   UNL A   1      39.221  33.289  31.969  1.00  0.00    -0.289 N 
ATOM     13  S   UNL A   1      37.756  31.669  33.433  1.00  0.00    -0.129 SA
ATOM     14  C   UNL A   1      38.722  34.075  30.991  1.00  0.00     0.253 C 
ATOM     15  C   UNL A   1      38.263  32.217  31.802  1.00  0.00     0.181 C 
ATOM     16  O   UNL A   1      39.161  35.003  30.362  1.00  0.00    -0.272 OA
ATOM     17  C   UNL A   1      37.384  33.239  31.028  1.00  0.00     0.206 C 
BRANCH  10  18
ATOM     18  C   UNL A   1      41.875  31.897  34.267  1.00  0.00     0.111 C 
BRANCH  18  19
ATOM     19  S   UNL A   1      41.817  31.475  36.026  1.00  0.00    -0.089 SA
BRANCH  19  20
ATOM     20  C   UNL A   1      41.381  33.012  36.725  1.00  0.00     0.174 A 
ATOM     21  C   UNL A   1      41.424  36.312  38.655  1.00  0.00     0.081 C 
ATOM     22  C   UNL A   1      41.206  35.072  37.874  1.00  0.00     0.115 A 
ATOM     23  N   UNL A   1      40.041  34.656  37.425  1.00  0.00    -0.143 NA
ATOM     24  S   UNL A   1      42.521  34.038  37.484  1.00  0.00    -0.091 S 
ATOM     25  N   UNL A   1      40.146  33.461  36.747  1.00  0.00    -0.132 NA
ENDBRANCH  19  20
ENDBRANCH  18  19
ENDBRANCH  10  18
BRANCH  17  26
ATOM     26  N   UNL A   1      36.279  33.907  31.759  1.00  0.00    -0.337 N 
ATOM     27  C   UNL A   1      35.026  34.237  31.309  1.00  0.00     0.255 C 
ATOM     28  H   UNL A   1      36.472  34.146  32.695  1.00  0.00     0.164 HD
ATOM     29  O   UNL A   1      34.336  35.006  31.973  1.00  0.00    -0.269 OA
BRANCH  27  30
ATOM     30  C   UNL A   1      34.563  33.678  30.054  1.00  0.00     0.080 A 
ATOM     31  C   UNL A   1      34.662  32.368  29.621  1.00  0.00     0.122 A 
ATOM     32  C   UNL A   1      33.829  34.330  29.024  1.00  0.00     0.072 A 
ATOM     33  N   UNL A   1      34.046  32.319  28.407  1.00  0.00    -0.275 N 
ATOM     34  N   UNL A   1      33.547  33.498  28.011  1.00  0.00    -0.178 NA
ATOM     35  C   UNL A   1      33.396  35.749  28.947  1.00  0.00     0.069 C 
ATOM     36  C   UNL A   1      33.893  31.166  27.552  1.00  0.00     0.173 C 
ENDBRANCH  27  30
ENDBRANCH  17  26
ENDBRANCH   7   9
ENDBRANCH   6   7
ENDBRANCH   5   6
ENDBRANCH   4   5
ENDBRANCH   3   4
ENDBRANCH   2   3
ENDBRANCH   1   2
BRANCH   1  37
ATOM     37  O   UNL A   1      46.551  38.452  33.296  1.00  0.00    -0.377 OA
BRANCH  37  38
ATOM     38  C   UNL A   1      46.588  37.296  32.461  1.00  0.00     0.188 C 
BRANCH  38  39
ATOM     39  C   UNL A   1      47.927  36.697  31.976  1.00  0.00     0.188 C 
BRANCH  39  40
ATOM     40  O   UNL A   1      48.750  37.589  31.235  1.00  0.00    -0.376 OA
BRANCH  40  41
ATOM     41  C   UNL A   1      48.182  38.141  30.056  1.00  0.00     0.202 C 
BRANCH  41  42
ATOM     42  C   UNL A   1      48.129  37.162  28.878  1.00  0.00     0.261 C 
BRANCH  42  43
ATOM     43  O   UNL A   1      46.885  37.155  28.160  1.00  0.00    -0.460 OA
BRANCH  43  44
ATOM     44  C   UNL A   1      45.789  36.756  28.843  1.00  0.00     0.338 C 
ATOM     45  O   UNL A   1      44.946  37.456  29.372  1.00  0.00    -0.246 OA
BRANCH  44  46
ATOM     46  C   UNL A   1      45.687  35.294  28.702  1.00  0.00     0.060 A 
ATOM     47  C   UNL A   1      45.414  34.750  27.441  1.00  0.00     0.016 A 
ATOM     48  C   UNL A   1      45.852  34.471  29.817  1.00  0.00     0.016 A 
ATOM     49  C   UNL A   1      45.271  33.370  27.299  1.00  0.00     0.010 A 
ATOM     50  C   UNL A   1      45.690  33.094  29.678  1.00  0.00     0.010 A 
ATOM     51  C   UNL A   1      45.367  32.543  28.425  1.00  0.00    -0.014 A 
BRANCH  51  52
ATOM     52  C   UNL A   1      44.938  31.128  28.346  1.00  0.00     0.031 A 
ATOM     53  C   UNL A   1      45.923  30.115  27.835  1.00  0.00     0.074 A 
ATOM     54  C   UNL A   1      43.699  30.753  28.705  1.00  0.00     0.049 A 
ATOM     55  N   UNL A   1      45.758  28.839  27.603  1.00  0.00    -0.248 NA
ATOM     56  C   UNL A   1      47.276  30.612  27.539  1.00  0.00     0.031 C 
ATOM     57  C   UNL A   1      42.669  31.636  29.245  1.00  0.00     0.029 A 
ATOM     58  N   UNL A   1      43.098  29.521  28.653  1.00  0.00    -0.354 N 
ATOM     59  C   UNL A   1      46.983  28.382  27.134  1.00  0.00     0.074 A 
ATOM     60  C   UNL A   1      47.874  29.522  27.085  1.00  0.00     0.031 C 
ATOM     61  C   UNL A   1      41.551  30.919  29.459  1.00  0.00     0.029 A 
ATOM     62  C   UNL A   1      41.781  29.536  29.043  1.00  0.00     0.049 A 
ATOM     63  H   UNL A   1      43.566  28.704  28.363  1.00  0.00     0.167 HD
ATOM     64  C   UNL A   1      47.336  27.125  26.781  1.00  0.00     0.037 A 
ATOM     65  C   UNL A   1      40.866  28.548  29.038  1.00  0.00     0.037 A 
ATOM     66  C   UNL A   1      46.449  25.995  26.822  1.00  0.00     0.049 A 
ATOM     67  C   UNL A   1      41.262  27.173  28.566  1.00  0.00     0.074 A 
ATOM     68  C   UNL A   1      46.718  24.675  26.503  1.00  0.00     0.029 A 
ATOM     69  N   UNL A   1      45.115  26.055  27.195  1.00  0.00    -0.354 N 
ATOM     70  N   UNL A   1      42.429  26.742  28.152  1.00  0.00    -0.248 NA
ATOM     71  C   UNL A   1      40.208  26.146  28.557  1.00  0.00     0.031 C 
ATOM     72  C   UNL A   1      45.532  23.945  26.638  1.00  0.00     0.029 A 
ATOM     73  C   UNL A   1      44.539  24.801  27.087  1.00  0.00     0.049 A 
ATOM     74  H   UNL A   1      44.648  26.868  27.492  1.00  0.00     0.167 HD
ATOM     75  C   UNL A   1      42.258  25.394  27.859  1.00  0.00     0.074 A 
ATOM     76  C   UNL A   1      40.878  25.075  28.154  1.00  0.00     0.031 C 
ATOM     77  C   UNL A   1      43.163  24.501  27.389  1.00  0.00     0.037 A 
BRANCH  64  78
ATOM     78  C   UNL A   1      48.740  26.917  26.298  1.00  0.00     0.057 A 
ATOM     79  C   UNL A   1      49.777  26.561  27.170  1.00  0.00     0.134 A 
ATOM     80  C   UNL A   1      49.055  27.059  24.942  1.00  0.00     0.134 A 
ATOM     81  F   UNL A   1      49.544  26.429  28.485  1.00  0.00    -0.206 F 
ATOM     82  C   UNL A   1      51.082  26.374  26.713  1.00  0.00     0.040 A 
ATOM     83  C   UNL A   1      50.351  26.851  24.468  1.00  0.00     0.040 A 
ATOM     84  F   UNL A   1      48.108  27.399  24.054  1.00  0.00    -0.206 F 
ATOM     85  C   UNL A   1      51.370  26.513  25.356  1.00  0.00     0.006 A 
ENDBRANCH  64  78
BRANCH  65  86
ATOM     86  C   UNL A   1      39.474  28.820  29.477  1.00  0.00     0.057 A 
ATOM     87  C   UNL A   1      39.051  28.518  30.776  1.00  0.00     0.134 A 
ATOM     88  C   UNL A   1      38.526  29.359  28.598  1.00  0.00     0.134 A 
ATOM     89  F   UNL A   1      39.906  27.975  31.654  1.00  0.00    -0.206 F 
ATOM     90  C   UNL A   1      37.731  28.726  31.182  1.00  0.00     0.040 A 
ATOM     91  C   UNL A   1      37.209  29.594  28.997  1.00  0.00     0.040 A 
ATOM     92  F   UNL A   1      38.868  29.668  27.339  1.00  0.00    -0.206 F 
ATOM     93  C   UNL A   1      36.808  29.270  30.292  1.00  0.00     0.006 A 
ENDBRANCH  65  86
BRANCH  77  94
ATOM     94  C   UNL A   1      42.697  23.087  27.190  1.00  0.00     0.057 A 
ATOM     95  C   UNL A   1      42.468  22.227  28.271  1.00  0.00     0.134 A 
ATOM     96  C   UNL A   1      42.427  22.600  25.904  1.00  0.00     0.134 A 
ATOM     97  F   UNL A   1      42.717  22.629  29.526  1.00  0.00    -0.206 F 
ATOM     98  C   UNL A   1      42.006  20.924  28.078  1.00  0.00     0.040 A 
ATOM     99  C   UNL A   1      41.941  21.308  25.702  1.00  0.00     0.040 A 
ATOM    100  F   UNL A   1      42.615  23.378  24.828  1.00  0.00    -0.206 F 
ATOM    101  C   UNL A   1      41.735  20.463  26.791  1.00  0.00     0.006 A 
ENDBRANCH  77  94
ENDBRANCH  51  52
ENDBRANCH  44  46
ENDBRANCH  43  44
ENDBRANCH  42  43
ENDBRANCH  41  42
ENDBRANCH  40  41
ENDBRANCH  39  40
ENDBRANCH  38  39
ENDBRANCH  37  38
ENDBRANCH   1  37
TORSDOF 25
ENDMDL
