MODEL 1
REMARK VINA RESULT:     -10.5      0.000      0.000
REMARK SMILES Cc1cc2c(=O)c3ccccc3oc2c(C(=O)OCCOCCOCCOCCOC(=O)c2ccc(-c3c4nc(c(-c5c(F)cccc5F)c5ccc([nH]5)c(-c5c(F)cccc5F)c5nc(c(-c6c(F)cccc6F)c6ccc3[nH]6)C=C5)C=C4)cc2)c1C
REMARK SMILES IDX 25 1 24 2 23 3 22 4 21 5 20 6 19 7 18 8 16 9 17 10 15 11
REMARK SMILES IDX 1 12 2 13 3 14 87 15 4 16 88 17 5 18 14 19 6 20 7 21 13 22
REMARK SMILES IDX 8 23 12 24 9 25 11 26 10 27 26 28 27 29 28 30 29 31 30 32
REMARK SMILES IDX 31 33 32 34 33 35 34 36 86 37 35 38 85 39 36 40 37 41 38 42
REMARK SMILES IDX 79 43 39 44 84 45 78 46 80 47 40 48 83 49 77 50 76 51 41 53
REMARK SMILES IDX 67 54 50 55 66 56 51 57 54 58 65 59 81 60 52 61 53 62 64 64
REMARK SMILES IDX 82 65 55 66 42 67 43 68 48 69 44 70 45 71 47 72 49 73 46 74
REMARK SMILES IDX 68 75 69 76 74 77 70 78 71 79 73 80 75 81 72 82 56 83 57 84
REMARK SMILES IDX 62 85 58 86 59 87 61 88 63 89 60 90
REMARK H PARENT 80 52 54 63
REMARK Flexibility Score: inf
ROOT
ATOM      1  C   UNL A   1      34.165  28.310  22.657  1.00  0.00     0.188 C 
ENDROOT
BRANCH   1   2
ATOM      2  O   UNL A   1      33.697  27.427  21.651  1.00  0.00    -0.377 OA
BRANCH   2   3
ATOM      3  C   UNL A   1      33.248  26.140  22.061  1.00  0.00     0.188 C 
BRANCH   3   4
ATOM      4  C   UNL A   1      33.814  25.411  23.304  1.00  0.00     0.188 C 
BRANCH   4   5
ATOM      5  O   UNL A   1      33.797  23.985  23.236  1.00  0.00    -0.376 OA
BRANCH   5   6
ATOM      6  C   UNL A   1      32.882  23.400  22.317  1.00  0.00     0.202 C 
BRANCH   6   7
ATOM      7  C   UNL A   1      31.890  22.466  23.007  1.00  0.00     0.261 C 
BRANCH   7   8
ATOM      8  O   UNL A   1      32.435  21.156  23.216  1.00  0.00    -0.460 OA
BRANCH   8   9
ATOM      9  C   UNL A   1      32.518  20.724  24.493  1.00  0.00     0.342 C 
ATOM     10  O   UNL A   1      31.735  20.993  25.387  1.00  0.00    -0.246 OA
BRANCH   9  11
ATOM     11  C   UNL A   1      33.666  19.780  24.625  1.00  0.00     0.106 A 
ATOM     12  C   UNL A   1      34.583  16.040  24.501  1.00  0.00     0.044 C 
ATOM     13  C   UNL A   1      34.655  17.543  24.572  1.00  0.00    -0.046 A 
ATOM     14  C   UNL A   1      35.921  18.130  24.710  1.00  0.00     0.019 A 
ATOM     15  C   UNL A   1      33.503  18.366  24.546  1.00  0.00    -0.030 A 
ATOM     16  C   UNL A   1      36.054  19.511  24.864  1.00  0.00     0.067 A 
ATOM     17  C   UNL A   1      32.125  17.746  24.539  1.00  0.00     0.046 C 
ATOM     18  C   UNL A   1      37.387  20.095  25.085  1.00  0.00     0.200 A 
ATOM     19  C   UNL A   1      34.939  20.341  24.849  1.00  0.00     0.153 A 
ATOM     20  O   UNL A   1      38.406  19.424  24.996  1.00  0.00    -0.288 OA
ATOM     21  C   UNL A   1      37.429  21.513  25.457  1.00  0.00     0.065 A 
ATOM     22  O   UNL A   1      35.020  21.690  25.125  1.00  0.00    -0.455 OA
ATOM     23  C   UNL A   1      38.638  22.127  25.800  1.00  0.00     0.016 A 
ATOM     24  C   UNL A   1      36.232  22.219  25.500  1.00  0.00     0.138 A 
ATOM     25  C   UNL A   1      38.640  23.458  26.216  1.00  0.00     0.001 A 
ATOM     26  C   UNL A   1      36.235  23.547  25.931  1.00  0.00     0.048 A 
ATOM     27  C   UNL A   1      37.437  24.164  26.294  1.00  0.00     0.004 A 
ENDBRANCH   9  11
ENDBRANCH   8   9
ENDBRANCH   7   8
ENDBRANCH   6   7
ENDBRANCH   5   6
ENDBRANCH   4   5
ENDBRANCH   3   4
ENDBRANCH   2   3
ENDBRANCH   1   2
BRANCH   1  28
ATOM     28  C   UNL A   1      33.015  29.047  23.366  1.00  0.00     0.188 C 
BRANCH  28  29
ATOM     29  O   UNL A   1      33.253  29.195  24.763  1.00  0.00    -0.376 OA
BRANCH  29  30
ATOM     30  C   UNL A   1      32.166  29.640  25.564  1.00  0.00     0.202 C 
BRANCH  30  31
ATOM     31  C   UNL A   1      32.447  30.251  26.948  1.00  0.00     0.261 C 
BRANCH  31  32
ATOM     32  O   UNL A   1      33.756  30.051  27.502  1.00  0.00    -0.460 OA
BRANCH  32  33
ATOM     33  C   UNL A   1      34.509  31.121  27.829  1.00  0.00     0.338 C 
ATOM     34  O   UNL A   1      34.170  32.290  27.859  1.00  0.00    -0.246 OA
BRANCH  33  35
ATOM     35  C   UNL A   1      35.786  30.578  28.345  1.00  0.00     0.060 A 
ATOM     36  C   UNL A   1      36.978  30.821  27.657  1.00  0.00     0.016 A 
ATOM     37  C   UNL A   1      35.776  29.737  29.466  1.00  0.00     0.016 A 
ATOM     38  C   UNL A   1      38.165  30.230  28.094  1.00  0.00     0.010 A 
ATOM     39  C   UNL A   1      36.962  29.133  29.892  1.00  0.00     0.010 A 
ATOM     40  C   UNL A   1      38.166  29.387  29.217  1.00  0.00    -0.014 A 
BRANCH  40  41
ATOM     41  C   UNL A   1      39.456  28.917  29.776  1.00  0.00     0.031 A 
ATOM     42  C   UNL A   1      40.087  29.551  30.977  1.00  0.00     0.074 A 
ATOM     43  C   UNL A   1      40.056  27.879  29.164  1.00  0.00     0.049 A 
ATOM     44  N   UNL A   1      41.171  29.193  31.619  1.00  0.00    -0.248 NA
ATOM     45  C   UNL A   1      39.421  30.739  31.529  1.00  0.00     0.031 C 
ATOM     46  C   UNL A   1      39.538  27.196  27.976  1.00  0.00     0.029 A 
ATOM     47  N   UNL A   1      41.221  27.220  29.452  1.00  0.00    -0.354 N 
ATOM     48  C   UNL A   1      41.309  30.092  32.667  1.00  0.00     0.074 A 
ATOM     49  C   UNL A   1      40.220  31.042  32.547  1.00  0.00     0.031 C 
ATOM     50  C   UNL A   1      40.381  26.207  27.640  1.00  0.00     0.029 A 
ATOM     51  C   UNL A   1      41.500  26.199  28.576  1.00  0.00     0.049 A 
ATOM     52  H   UNL A   1      41.802  27.454  30.211  1.00  0.00     0.167 HD
ATOM     53  C   UNL A   1      42.250  30.111  33.644  1.00  0.00     0.037 A 
ATOM     54  C   UNL A   1      42.543  25.353  28.533  1.00  0.00     0.037 A 
ATOM     55  C   UNL A   1      43.349  29.180  33.738  1.00  0.00     0.049 A 
ATOM     56  C   UNL A   1      43.608  25.445  29.586  1.00  0.00     0.074 A 
ATOM     57  C   UNL A   1      44.324  29.087  34.718  1.00  0.00     0.029 A 
ATOM     58  N   UNL A   1      43.633  28.193  32.805  1.00  0.00    -0.354 N 
ATOM     59  N   UNL A   1      43.679  26.242  30.623  1.00  0.00    -0.248 NA
ATOM     60  C   UNL A   1      44.737  24.513  29.462  1.00  0.00     0.031 C 
ATOM     61  C   UNL A   1      45.227  28.082  34.349  1.00  0.00     0.029 A 
ATOM     62  C   UNL A   1      44.789  27.516  33.163  1.00  0.00     0.049 A 
ATOM     63  H   UNL A   1      43.094  28.002  32.003  1.00  0.00     0.167 HD
ATOM     64  C   UNL A   1      44.849  25.899  31.285  1.00  0.00     0.074 A 
ATOM     65  C   UNL A   1      45.444  24.805  30.545  1.00  0.00     0.031 C 
ATOM     66  C   UNL A   1      45.383  26.442  32.407  1.00  0.00     0.037 A 
BRANCH  53  67
ATOM     67  C   UNL A   1      42.138  31.176  34.696  1.00  0.00     0.057 A 
ATOM     68  C   UNL A   1      41.308  31.006  35.810  1.00  0.00     0.134 A 
ATOM     69  C   UNL A   1      42.809  32.401  34.574  1.00  0.00     0.134 A 
ATOM     70  F   UNL A   1      40.627  29.863  35.985  1.00  0.00    -0.206 F 
ATOM     71  C   UNL A   1      41.149  32.013  36.765  1.00  0.00     0.040 A 
ATOM     72  C   UNL A   1      42.675  33.408  35.533  1.00  0.00     0.040 A 
ATOM     73  F   UNL A   1      43.624  32.629  33.533  1.00  0.00    -0.206 F 
ATOM     74  C   UNL A   1      41.838  33.217  36.630  1.00  0.00     0.006 A 
ENDBRANCH  53  67
BRANCH  54  75
ATOM     75  C   UNL A   1      42.623  24.335  27.458  1.00  0.00     0.057 A 
ATOM     76  C   UNL A   1      42.179  23.023  27.665  1.00  0.00     0.134 A 
ATOM     77  C   UNL A   1      43.136  24.656  26.198  1.00  0.00     0.134 A 
ATOM     78  F   UNL A   1      41.684  22.655  28.856  1.00  0.00    -0.206 F 
ATOM     79  C   UNL A   1      42.249  22.063  26.656  1.00  0.00     0.040 A 
ATOM     80  C   UNL A   1      43.188  23.712  25.171  1.00  0.00     0.040 A 
ATOM     81  F   UNL A   1      43.559  25.900  25.938  1.00  0.00    -0.206 F 
ATOM     82  C   UNL A   1      42.746  22.410  25.401  1.00  0.00     0.006 A 
ENDBRANCH  54  75
BRANCH  66  83
ATOM     83  C   UNL A   1      46.676  25.852  32.892  1.00  0.00     0.057 A 
ATOM     84  C   UNL A   1      47.906  26.359  32.455  1.00  0.00     0.134 A 
ATOM     85  C   UNL A   1      46.701  24.781  33.795  1.00  0.00     0.134 A 
ATOM     86  F   UNL A   1      47.953  27.381  31.588  1.00  0.00    -0.206 F 
ATOM     87  C   UNL A   1      49.115  25.823  32.902  1.00  0.00     0.040 A 
ATOM     88  C   UNL A   1      47.904  24.254  34.269  1.00  0.00     0.040 A 
ATOM     89  F   UNL A   1      45.556  24.262  34.267  1.00  0.00    -0.206 F 
ATOM     90  C   UNL A   1      49.116  24.774  33.819  1.00  0.00     0.006 A 
ENDBRANCH  66  83
ENDBRANCH  40  41
ENDBRANCH  33  35
ENDBRANCH  32  33
ENDBRANCH  31  32
ENDBRANCH  30  31
ENDBRANCH  29  30
ENDBRANCH  28  29
ENDBRANCH   1  28
TORSDOF 20
ENDMDL
MODEL 2
REMARK VINA RESULT:     -10.4      3.190      9.282
REMARK SMILES Cc1cc2c(=O)c3ccccc3oc2c(C(=O)OCCOCCOCCOCCOC(=O)c2ccc(-c3c4nc(c(-c5c(F)cccc5F)c5ccc([nH]5)c(-c5c(F)cccc5F)c5nc(c(-c6c(F)cccc6F)c6ccc3[nH]6)C=C5)C=C4)cc2)c1C
REMARK SMILES IDX 25 1 24 2 23 3 22 4 21 5 20 6 19 7 18 8 16 9 17 10 15 11
REMARK SMILES IDX 1 12 2 13 3 14 87 15 4 16 88 17 5 18 14 19 6 20 7 21 13 22
REMARK SMILES IDX 8 23 12 24 9 25 11 26 10 27 26 28 27 29 28 30 29 31 30 32
REMARK SMILES IDX 31 33 32 34 33 35 34 36 86 37 35 38 85 39 36 40 37 41 38 42
REMARK SMILES IDX 79 43 39 44 84 45 78 46 80 47 40 48 83 49 77 50 76 51 41 53
REMARK SMILES IDX 67 54 50 55 66 56 51 57 54 58 65 59 81 60 52 61 53 62 64 64
REMARK SMILES IDX 82 65 55 66 42 67 43 68 48 69 44 70 45 71 47 72 49 73 46 74
REMARK SMILES IDX 68 75 69 76 74 77 70 78 71 79 73 80 75 81 72 82 56 83 57 84
REMARK SMILES IDX 62 85 58 86 59 87 61 88 63 89 60 90
REMARK H PARENT 80 52 54 63
REMARK Flexibility Score: inf
ROOT
ATOM      1  C   UNL A   1      36.904  23.263  25.296  1.00  0.00     0.188 C 
ENDROOT
BRANCH   1   2
ATOM      2  O   UNL A   1      36.145  23.864  24.260  1.00  0.00    -0.377 OA
BRANCH   2   3
ATOM      3  C   UNL A   1      35.100  23.094  23.677  1.00  0.00     0.188 C 
BRANCH   3   4
ATOM      4  C   UNL A   1      33.837  23.732  23.049  1.00  0.00     0.188 C 
BRANCH   4   5
ATOM      5  O   UNL A   1      34.055  24.961  22.355  1.00  0.00    -0.376 OA
BRANCH   5   6
ATOM      6  C   UNL A   1      32.899  25.653  21.901  1.00  0.00     0.202 C 
BRANCH   6   7
ATOM      7  C   UNL A   1      32.740  27.014  22.575  1.00  0.00     0.261 C 
BRANCH   7   8
ATOM      8  O   UNL A   1      31.429  27.563  22.383  1.00  0.00    -0.460 OA
BRANCH   8   9
ATOM      9  C   UNL A   1      30.616  27.597  23.459  1.00  0.00     0.342 C 
ATOM     10  O   UNL A   1      30.219  26.628  24.082  1.00  0.00    -0.246 OA
BRANCH   9  11
ATOM     11  C   UNL A   1      30.351  29.016  23.838  1.00  0.00     0.106 A 
ATOM     12  C   UNL A   1      28.033  32.002  23.095  1.00  0.00     0.044 C 
ATOM     13  C   UNL A   1      29.078  31.100  23.699  1.00  0.00    -0.046 A 
ATOM     14  C   UNL A   1      29.840  31.604  24.763  1.00  0.00     0.019 A 
ATOM     15  C   UNL A   1      29.339  29.798  23.209  1.00  0.00    -0.030 A 
ATOM     16  C   UNL A   1      30.879  30.854  25.314  1.00  0.00     0.067 A 
ATOM     17  C   UNL A   1      28.626  29.291  21.976  1.00  0.00     0.046 C 
ATOM     18  C   UNL A   1      31.714  31.434  26.378  1.00  0.00     0.200 A 
ATOM     19  C   UNL A   1      31.161  29.574  24.848  1.00  0.00     0.153 A 
ATOM     20  O   UNL A   1      31.438  32.507  26.898  1.00  0.00    -0.288 OA
ATOM     21  C   UNL A   1      32.915  30.683  26.755  1.00  0.00     0.065 A 
ATOM     22  O   UNL A   1      32.256  28.856  25.280  1.00  0.00    -0.455 OA
ATOM     23  C   UNL A   1      33.832  31.210  27.671  1.00  0.00     0.016 A 
ATOM     24  C   UNL A   1      33.141  29.453  26.147  1.00  0.00     0.138 A 
ATOM     25  C   UNL A   1      34.999  30.504  27.959  1.00  0.00     0.001 A 
ATOM     26  C   UNL A   1      34.318  28.756  26.426  1.00  0.00     0.048 A 
ATOM     27  C   UNL A   1      35.248  29.284  27.327  1.00  0.00     0.004 A 
ENDBRANCH   9  11
ENDBRANCH   8   9
ENDBRANCH   7   8
ENDBRANCH   6   7
ENDBRANCH   5   6
ENDBRANCH   4   5
ENDBRANCH   3   4
ENDBRANCH   2   3
ENDBRANCH   1   2
BRANCH   1  28
ATOM     28  C   UNL A   1      37.432  21.873  24.899  1.00  0.00     0.188 C 
BRANCH  28  29
ATOM     29  O   UNL A   1      38.569  21.491  25.669  1.00  0.00    -0.376 OA
BRANCH  29  30
ATOM     30  C   UNL A   1      39.206  22.506  26.434  1.00  0.00     0.202 C 
BRANCH  30  31
ATOM     31  C   UNL A   1      40.741  22.607  26.428  1.00  0.00     0.261 C 
BRANCH  31  32
ATOM     32  O   UNL A   1      41.332  23.671  27.190  1.00  0.00    -0.460 OA
BRANCH  32  33
ATOM     33  C   UNL A   1      41.576  24.857  26.596  1.00  0.00     0.338 C 
ATOM     34  O   UNL A   1      41.789  25.070  25.416  1.00  0.00    -0.246 OA
BRANCH  33  35
ATOM     35  C   UNL A   1      41.333  25.888  27.631  1.00  0.00     0.060 A 
ATOM     36  C   UNL A   1      40.205  25.801  28.452  1.00  0.00     0.016 A 
ATOM     37  C   UNL A   1      42.183  26.999  27.712  1.00  0.00     0.016 A 
ATOM     38  C   UNL A   1      39.930  26.822  29.363  1.00  0.00     0.010 A 
ATOM     39  C   UNL A   1      41.896  28.029  28.612  1.00  0.00     0.010 A 
ATOM     40  C   UNL A   1      40.776  27.940  29.453  1.00  0.00    -0.014 A 
BRANCH  40  41
ATOM     41  C   UNL A   1      40.575  28.922  30.545  1.00  0.00     0.031 A 
ATOM     42  C   UNL A   1      39.546  30.008  30.465  1.00  0.00     0.074 A 
ATOM     43  C   UNL A   1      41.356  28.808  31.634  1.00  0.00     0.049 A 
ATOM     44  N   UNL A   1      39.209  30.886  31.377  1.00  0.00    -0.248 NA
ATOM     45  C   UNL A   1      38.801  30.127  29.205  1.00  0.00     0.031 C 
ATOM     46  C   UNL A   1      42.403  27.798  31.811  1.00  0.00     0.029 A 
ATOM     47  N   UNL A   1      41.394  29.538  32.792  1.00  0.00    -0.354 N 
ATOM     48  C   UNL A   1      38.195  31.650  30.815  1.00  0.00     0.074 A 
ATOM     49  C   UNL A   1      38.004  31.158  29.464  1.00  0.00     0.031 C 
ATOM     50  C   UNL A   1      42.976  27.969  33.012  1.00  0.00     0.029 A 
ATOM     51  C   UNL A   1      42.349  29.106  33.678  1.00  0.00     0.049 A 
ATOM     52  H   UNL A   1      40.795  30.299  32.971  1.00  0.00     0.167 HD
ATOM     53  C   UNL A   1      37.484  32.656  31.383  1.00  0.00     0.037 A 
ATOM     54  C   UNL A   1      42.684  29.575  34.893  1.00  0.00     0.037 A 
ATOM     55  C   UNL A   1      37.703  33.159  32.717  1.00  0.00     0.049 A 
ATOM     56  C   UNL A   1      41.927  30.738  35.465  1.00  0.00     0.074 A 
ATOM     57  C   UNL A   1      37.001  34.141  33.398  1.00  0.00     0.029 A 
ATOM     58  N   UNL A   1      38.714  32.736  33.568  1.00  0.00    -0.354 N 
ATOM     59  N   UNL A   1      40.911  31.392  34.960  1.00  0.00    -0.248 NA
ATOM     60  C   UNL A   1      42.364  31.223  36.781  1.00  0.00     0.031 C 
ATOM     61  C   UNL A   1      37.621  34.349  34.636  1.00  0.00     0.029 A 
ATOM     62  C   UNL A   1      38.681  33.464  34.748  1.00  0.00     0.049 A 
ATOM     63  H   UNL A   1      39.362  32.023  33.363  1.00  0.00     0.167 HD
ATOM     64  C   UNL A   1      40.574  32.355  35.900  1.00  0.00     0.074 A 
ATOM     65  C   UNL A   1      41.481  32.183  37.018  1.00  0.00     0.031 C 
ATOM     66  C   UNL A   1      39.602  33.298  35.844  1.00  0.00     0.037 A 
BRANCH  53  67
ATOM     67  C   UNL A   1      36.397  33.287  30.561  1.00  0.00     0.057 A 
ATOM     68  C   UNL A   1      35.048  33.007  30.810  1.00  0.00     0.134 A 
ATOM     69  C   UNL A   1      36.691  34.130  29.480  1.00  0.00     0.134 A 
ATOM     70  F   UNL A   1      34.695  32.199  31.821  1.00  0.00    -0.206 F 
ATOM     71  C   UNL A   1      34.031  33.541  30.015  1.00  0.00     0.040 A 
ATOM     72  C   UNL A   1      35.682  34.687  28.691  1.00  0.00     0.040 A 
ATOM     73  F   UNL A   1      37.962  34.443  29.188  1.00  0.00    -0.206 F 
ATOM     74  C   UNL A   1      34.347  34.388  28.954  1.00  0.00     0.006 A 
ENDBRANCH  53  67
BRANCH  54  75
ATOM     75  C   UNL A   1      43.782  28.935  35.655  1.00  0.00     0.057 A 
ATOM     76  C   UNL A   1      45.112  29.346  35.499  1.00  0.00     0.134 A 
ATOM     77  C   UNL A   1      43.523  27.904  36.563  1.00  0.00     0.134 A 
ATOM     78  F   UNL A   1      45.421  30.326  34.637  1.00  0.00    -0.206 F 
ATOM     79  C   UNL A   1      46.147  28.749  36.217  1.00  0.00     0.040 A 
ATOM     80  C   UNL A   1      44.547  27.315  37.307  1.00  0.00     0.040 A 
ATOM     81  F   UNL A   1      42.268  27.481  36.766  1.00  0.00    -0.206 F 
ATOM     82  C   UNL A   1      45.864  27.736  37.131  1.00  0.00     0.006 A 
ENDBRANCH  54  75
BRANCH  66  83
ATOM     83  C   UNL A   1      39.478  34.210  37.030  1.00  0.00     0.057 A 
ATOM     84  C   UNL A   1      40.029  35.497  37.009  1.00  0.00     0.134 A 
ATOM     85  C   UNL A   1      38.808  33.813  38.195  1.00  0.00     0.134 A 
ATOM     86  F   UNL A   1      40.686  35.939  35.926  1.00  0.00    -0.206 F 
ATOM     87  C   UNL A   1      39.917  36.357  38.102  1.00  0.00     0.040 A 
ATOM     88  C   UNL A   1      38.665  34.673  39.285  1.00  0.00     0.040 A 
ATOM     89  F   UNL A   1      38.239  32.599  38.272  1.00  0.00    -0.206 F 
ATOM     90  C   UNL A   1      39.225  35.949  39.241  1.00  0.00     0.006 A 
ENDBRANCH  66  83
ENDBRANCH  40  41
ENDBRANCH  33  35
ENDBRANCH  32  33
ENDBRANCH  31  32
ENDBRANCH  30  31
ENDBRANCH  29  30
ENDBRANCH  28  29
ENDBRANCH   1  28
TORSDOF 20
ENDMDL
MODEL 3
REMARK VINA RESULT:     -10.3      2.909      8.425
REMARK SMILES Cc1cc2c(=O)c3ccccc3oc2c(C(=O)OCCOCCOCCOCCOC(=O)c2ccc(-c3c4nc(c(-c5c(F)cccc5F)c5ccc([nH]5)c(-c5c(F)cccc5F)c5nc(c(-c6c(F)cccc6F)c6ccc3[nH]6)C=C5)C=C4)cc2)c1C
REMARK SMILES IDX 25 1 24 2 23 3 22 4 21 5 20 6 19 7 18 8 16 9 17 10 15 11
REMARK SMILES IDX 1 12 2 13 3 14 87 15 4 16 88 17 5 18 14 19 6 20 7 21 13 22
REMARK SMILES IDX 8 23 12 24 9 25 11 26 10 27 26 28 27 29 28 30 29 31 30 32
REMARK SMILES IDX 31 33 32 34 33 35 34 36 86 37 35 38 85 39 36 40 37 41 38 42
REMARK SMILES IDX 79 43 39 44 84 45 78 46 80 47 40 48 83 49 77 50 76 51 41 53
REMARK SMILES IDX 67 54 50 55 66 56 51 57 54 58 65 59 81 60 52 61 53 62 64 64
REMARK SMILES IDX 82 65 55 66 42 67 43 68 48 69 44 70 45 71 47 72 49 73 46 74
REMARK SMILES IDX 68 75 69 76 74 77 70 78 71 79 73 80 75 81 72 82 56 83 57 84
REMARK SMILES IDX 62 85 58 86 59 87 61 88 63 89 60 90
REMARK H PARENT 80 52 54 63
REMARK Flexibility Score: inf
ROOT
ATOM      1  C   UNL A   1      42.492  19.625  26.639  1.00  0.00     0.188 C 
ENDROOT
BRANCH   1   2
ATOM      2  O   UNL A   1      41.207  19.871  26.093  1.00  0.00    -0.377 OA
BRANCH   2   3
ATOM      3  C   UNL A   1      40.346  20.751  26.807  1.00  0.00     0.188 C 
BRANCH   3   4
ATOM      4  C   UNL A   1      39.594  21.922  26.128  1.00  0.00     0.188 C 
BRANCH   4   5
ATOM      5  O   UNL A   1      38.292  21.607  25.634  1.00  0.00    -0.376 OA
BRANCH   5   6
ATOM      6  C   UNL A   1      37.508  22.694  25.158  1.00  0.00     0.202 C 
BRANCH   6   7
ATOM      7  C   UNL A   1      36.742  23.388  26.283  1.00  0.00     0.261 C 
BRANCH   7   8
ATOM      8  O   UNL A   1      35.461  23.864  25.851  1.00  0.00    -0.460 OA
BRANCH   8   9
ATOM      9  C   UNL A   1      34.374  23.243  26.358  1.00  0.00     0.342 C 
ATOM     10  O   UNL A   1      34.253  22.843  27.502  1.00  0.00    -0.246 OA
BRANCH   9  11
ATOM     11  C   UNL A   1      33.296  23.207  25.327  1.00  0.00     0.106 A 
ATOM     12  C   UNL A   1      30.517  25.344  23.727  1.00  0.00     0.044 C 
ATOM     13  C   UNL A   1      31.491  24.236  24.035  1.00  0.00    -0.046 A 
ATOM     14  C   UNL A   1      31.434  23.078  23.246  1.00  0.00     0.019 A 
ATOM     15  C   UNL A   1      32.416  24.307  25.104  1.00  0.00    -0.030 A 
ATOM     16  C   UNL A   1      32.249  21.981  23.528  1.00  0.00     0.067 A 
ATOM     17  C   UNL A   1      32.397  25.485  26.051  1.00  0.00     0.046 C 
ATOM     18  C   UNL A   1      32.116  20.750  22.734  1.00  0.00     0.200 A 
ATOM     19  C   UNL A   1      33.163  22.022  24.576  1.00  0.00     0.153 A 
ATOM     20  O   UNL A   1      31.411  20.702  21.735  1.00  0.00    -0.288 OA
ATOM     21  C   UNL A   1      32.841  19.572  23.221  1.00  0.00     0.065 A 
ATOM     22  O   UNL A   1      33.891  20.917  24.962  1.00  0.00    -0.455 OA
ATOM     23  C   UNL A   1      32.685  18.328  22.601  1.00  0.00     0.016 A 
ATOM     24  C   UNL A   1      33.654  19.715  24.340  1.00  0.00     0.138 A 
ATOM     25  C   UNL A   1      33.332  17.211  23.127  1.00  0.00     0.001 A 
ATOM     26  C   UNL A   1      34.289  18.591  24.873  1.00  0.00     0.048 A 
ATOM     27  C   UNL A   1      34.123  17.340  24.271  1.00  0.00     0.004 A 
ENDBRANCH   9  11
ENDBRANCH   8   9
ENDBRANCH   7   8
ENDBRANCH   6   7
ENDBRANCH   5   6
ENDBRANCH   4   5
ENDBRANCH   3   4
ENDBRANCH   2   3
ENDBRANCH   1   2
BRANCH   1  28
ATOM     28  C   UNL A   1      43.431  18.937  25.632  1.00  0.00     0.188 C 
BRANCH  28  29
ATOM     29  O   UNL A   1      43.859  19.826  24.604  1.00  0.00    -0.376 OA
BRANCH  29  30
ATOM     30  C   UNL A   1      44.349  21.099  25.008  1.00  0.00     0.202 C 
BRANCH  30  31
ATOM     31  C   UNL A   1      43.805  22.369  24.331  1.00  0.00     0.261 C 
BRANCH  31  32
ATOM     32  O   UNL A   1      43.418  23.455  25.186  1.00  0.00    -0.460 OA
BRANCH  32  33
ATOM     33  C   UNL A   1      44.251  24.505  25.343  1.00  0.00     0.338 C 
ATOM     34  O   UNL A   1      45.173  24.839  24.622  1.00  0.00    -0.246 OA
BRANCH  33  35
ATOM     35  C   UNL A   1      43.695  25.301  26.461  1.00  0.00     0.060 A 
ATOM     36  C   UNL A   1      42.594  24.825  27.178  1.00  0.00     0.016 A 
ATOM     37  C   UNL A   1      44.216  26.575  26.727  1.00  0.00     0.016 A 
ATOM     38  C   UNL A   1      42.016  25.619  28.170  1.00  0.00     0.010 A 
ATOM     39  C   UNL A   1      43.624  27.376  27.709  1.00  0.00     0.010 A 
ATOM     40  C   UNL A   1      42.530  26.897  28.446  1.00  0.00    -0.014 A 
BRANCH  40  41
ATOM     41  C   UNL A   1      42.026  27.650  29.618  1.00  0.00     0.031 A 
ATOM     42  C   UNL A   1      42.676  27.566  30.965  1.00  0.00     0.074 A 
ATOM     43  C   UNL A   1      40.945  28.432  29.436  1.00  0.00     0.049 A 
ATOM     44  N   UNL A   1      42.389  28.228  32.057  1.00  0.00    -0.248 NA
ATOM     45  C   UNL A   1      43.789  26.618  31.107  1.00  0.00     0.031 C 
ATOM     46  C   UNL A   1      40.221  28.576  28.171  1.00  0.00     0.029 A 
ATOM     47  N   UNL A   1      40.271  29.247  30.305  1.00  0.00    -0.354 N 
ATOM     48  C   UNL A   1      43.298  27.800  33.015  1.00  0.00     0.074 A 
ATOM     49  C   UNL A   1      44.119  26.784  32.383  1.00  0.00     0.031 C 
ATOM     50  C   UNL A   1      39.206  29.436  28.344  1.00  0.00     0.029 A 
ATOM     51  C   UNL A   1      39.200  29.888  29.732  1.00  0.00     0.049 A 
ATOM     52  H   UNL A   1      40.529  29.363  31.248  1.00  0.00     0.167 HD
ATOM     53  C   UNL A   1      43.440  28.228  34.294  1.00  0.00     0.037 A 
ATOM     54  C   UNL A   1      38.311  30.742  30.266  1.00  0.00     0.037 A 
ATOM     55  C   UNL A   1      42.598  29.216  34.923  1.00  0.00     0.049 A 
ATOM     56  C   UNL A   1      38.450  31.141  31.707  1.00  0.00     0.074 A 
ATOM     57  C   UNL A   1      42.693  29.751  36.198  1.00  0.00     0.029 A 
ATOM     58  N   UNL A   1      41.489  29.804  34.332  1.00  0.00    -0.354 N 
ATOM     59  N   UNL A   1      39.368  30.798  32.575  1.00  0.00    -0.248 NA
ATOM     60  C   UNL A   1      37.427  32.052  32.238  1.00  0.00     0.031 C 
ATOM     61  C   UNL A   1      41.613  30.618  36.395  1.00  0.00     0.029 A 
ATOM     62  C   UNL A   1      40.869  30.662  35.228  1.00  0.00     0.049 A 
ATOM     63  H   UNL A   1      41.185  29.636  33.411  1.00  0.00     0.167 HD
ATOM     64  C   UNL A   1      39.047  31.461  33.750  1.00  0.00     0.074 A 
ATOM     65  C   UNL A   1      37.860  32.247  33.475  1.00  0.00     0.031 C 
ATOM     66  C   UNL A   1      39.677  31.423  34.950  1.00  0.00     0.037 A 
BRANCH  53  67
ATOM     67  C   UNL A   1      44.549  27.626  35.108  1.00  0.00     0.057 A 
ATOM     68  C   UNL A   1      44.320  26.516  35.931  1.00  0.00     0.134 A 
ATOM     69  C   UNL A   1      45.834  28.184  35.124  1.00  0.00     0.134 A 
ATOM     70  F   UNL A   1      43.110  25.938  35.974  1.00  0.00    -0.206 F 
ATOM     71  C   UNL A   1      45.327  25.983  36.738  1.00  0.00     0.040 A 
ATOM     72  C   UNL A   1      46.856  27.648  35.911  1.00  0.00     0.040 A 
ATOM     73  F   UNL A   1      46.123  29.246  34.357  1.00  0.00    -0.206 F 
ATOM     74  C   UNL A   1      46.602  26.547  36.726  1.00  0.00     0.006 A 
ENDBRANCH  53  67
BRANCH  54  75
ATOM     75  C   UNL A   1      37.218  31.289  29.429  1.00  0.00     0.057 A 
ATOM     76  C   UNL A   1      37.316  32.556  28.840  1.00  0.00     0.134 A 
ATOM     77  C   UNL A   1      36.054  30.551  29.191  1.00  0.00     0.134 A 
ATOM     78  F   UNL A   1      38.406  33.312  29.038  1.00  0.00    -0.206 F 
ATOM     79  C   UNL A   1      36.291  33.072  28.048  1.00  0.00     0.040 A 
ATOM     80  C   UNL A   1      35.031  31.046  28.379  1.00  0.00     0.040 A 
ATOM     81  F   UNL A   1      35.912  29.326  29.715  1.00  0.00    -0.206 F 
ATOM     82  C   UNL A   1      35.148  32.312  27.809  1.00  0.00     0.006 A 
ENDBRANCH  54  75
BRANCH  66  83
ATOM     83  C   UNL A   1      39.086  32.259  36.048  1.00  0.00     0.057 A 
ATOM     84  C   UNL A   1      38.160  31.716  36.948  1.00  0.00     0.134 A 
ATOM     85  C   UNL A   1      39.437  33.605  36.216  1.00  0.00     0.134 A 
ATOM     86  F   UNL A   1      37.778  30.434  36.841  1.00  0.00    -0.206 F 
ATOM     87  C   UNL A   1      37.608  32.480  37.976  1.00  0.00     0.040 A 
ATOM     88  C   UNL A   1      38.912  34.373  37.257  1.00  0.00     0.040 A 
ATOM     89  F   UNL A   1      40.334  34.181  35.400  1.00  0.00    -0.206 F 
ATOM     90  C   UNL A   1      37.990  33.811  38.138  1.00  0.00     0.006 A 
ENDBRANCH  66  83
ENDBRANCH  40  41
ENDBRANCH  33  35
ENDBRANCH  32  33
ENDBRANCH  31  32
ENDBRANCH  30  31
ENDBRANCH  29  30
ENDBRANCH  28  29
ENDBRANCH   1  28
TORSDOF 20
ENDMDL
