MODEL 1
REMARK VINA RESULT:     -10.5      0.000      0.000
REMARK SMILES COc1ccc(S(=O)(=O)N(Cc2ccccc2)c2ccccc2C(=O)OCCOCCOCCOCCOC(=O)c2ccc(-c3c4nc(c(-c5c(F)cccc5F)c5ccc([nH]5)c(-c5c(F)cccc5F)c5nc(c(-c6c(F)cccc6F)c6ccc3[nH]6)C=C5)C=C4)cc2)cc1
REMARK SMILES IDX 31 1 30 2 29 3 28 4 27 5 26 6 24 7 25 8 23 9 18 10 19 11
REMARK SMILES IDX 20 12 22 13 21 14 10 15 7 16 8 17 9 18 6 19 3 20 4 21 96 22
REMARK SMILES IDX 5 23 95 24 2 25 1 26 11 27 12 28 13 29 17 30 14 31 16 32
REMARK SMILES IDX 15 33 32 34 33 35 34 36 35 37 36 38 37 39 38 40 39 41 40 42
REMARK SMILES IDX 41 43 42 44 94 45 43 46 93 47 44 48 45 49 46 50 87 51 47 52
REMARK SMILES IDX 92 53 86 54 88 55 48 56 91 57 85 58 84 59 49 61 75 62 58 63
REMARK SMILES IDX 74 64 59 65 62 66 73 67 89 68 60 69 61 70 72 72 90 73 63 74
REMARK SMILES IDX 50 75 51 76 56 77 52 78 53 79 55 80 57 81 54 82 76 83 77 84
REMARK SMILES IDX 82 85 78 86 79 87 81 88 83 89 80 90 64 91 65 92 70 93 66 94
REMARK SMILES IDX 67 95 69 96 71 97 68 98
REMARK H PARENT 88 60 62 71
REMARK Flexibility Score: inf
ROOT
ATOM      1  C   UNL A   1      34.224  18.617  24.349  1.00  0.00     0.188 C 
ENDROOT
BRANCH   1   2
ATOM      2  C   UNL A   1      33.112  18.566  25.411  1.00  0.00     0.188 C 
BRANCH   2   3
ATOM      3  O   UNL A   1      32.129  19.593  25.261  1.00  0.00    -0.376 OA
BRANCH   3   4
ATOM      4  C   UNL A   1      32.385  20.589  24.276  1.00  0.00     0.202 C 
BRANCH   4   5
ATOM      5  C   UNL A   1      31.722  21.927  24.606  1.00  0.00     0.261 C 
BRANCH   5   6
ATOM      6  O   UNL A   1      31.408  22.040  25.998  1.00  0.00    -0.460 OA
BRANCH   6   7
ATOM      7  C   UNL A   1      31.490  23.285  26.517  1.00  0.00     0.340 C 
ATOM      8  O   UNL A   1      30.677  23.798  27.272  1.00  0.00    -0.246 OA
BRANCH   7   9
ATOM      9  C   UNL A   1      32.850  23.828  26.279  1.00  0.00     0.084 A 
ATOM     10  C   UNL A   1      33.179  25.022  25.602  1.00  0.00     0.067 A 
ATOM     11  C   UNL A   1      34.554  25.191  25.294  1.00  0.00     0.028 A 
ATOM     12  C   UNL A   1      35.548  24.271  25.645  1.00  0.00     0.002 A 
ATOM     13  C   UNL A   1      33.869  22.906  26.644  1.00  0.00     0.018 A 
ATOM     14  C   UNL A   1      35.206  23.123  26.328  1.00  0.00     0.001 A 
BRANCH  10  15
ATOM     15  N   UNL A   1      32.212  26.025  25.090  1.00  0.00    -0.261 N 
BRANCH  15  16
ATOM     16  S   UNL A   1      31.272  25.662  23.678  1.00  0.00     0.264 S 
ATOM     17  O   UNL A   1      30.150  24.821  24.035  1.00  0.00    -0.201 OA
ATOM     18  O   UNL A   1      32.140  25.230  22.603  1.00  0.00    -0.201 OA
BRANCH  16  19
ATOM     19  C   UNL A   1      30.567  27.232  23.157  1.00  0.00     0.088 A 
ATOM     20  C   UNL A   1      29.528  29.724  22.403  1.00  0.00     0.118 A 
ATOM     21  C   UNL A   1      28.697  28.759  22.980  1.00  0.00     0.048 A 
ATOM     22  C   UNL A   1      30.891  29.469  22.272  1.00  0.00     0.048 A 
ATOM     23  C   UNL A   1      29.208  27.503  23.342  1.00  0.00     0.026 A 
ATOM     24  C   UNL A   1      31.415  28.241  22.683  1.00  0.00     0.026 A 
BRANCH  20  25
ATOM     25  O   UNL A   1      28.947  30.919  22.074  1.00  0.00    -0.497 OA
ATOM     26  C   UNL A   1      28.388  31.621  23.187  1.00  0.00     0.278 C 
ENDBRANCH  20  25
ENDBRANCH  16  19
ENDBRANCH  15  16
BRANCH  15  27
ATOM     27  C   UNL A   1      31.594  26.945  26.105  1.00  0.00     0.171 C 
BRANCH  27  28
ATOM     28  C   UNL A   1      32.336  28.199  26.558  1.00  0.00    -0.027 A 
ATOM     29  C   UNL A   1      33.674  28.208  26.985  1.00  0.00     0.005 A 
ATOM     30  C   UNL A   1      31.674  29.437  26.488  1.00  0.00     0.005 A 
ATOM     31  C   UNL A   1      34.321  29.388  27.356  1.00  0.00     0.000 A 
ATOM     32  C   UNL A   1      32.324  30.624  26.843  1.00  0.00     0.000 A 
ATOM     33  C   UNL A   1      33.646  30.599  27.282  1.00  0.00     0.000 A 
ENDBRANCH  27  28
ENDBRANCH  15  27
ENDBRANCH  10  15
ENDBRANCH   7   9
ENDBRANCH   6   7
ENDBRANCH   5   6
ENDBRANCH   4   5
ENDBRANCH   3   4
ENDBRANCH   2   3
ENDBRANCH   1   2
BRANCH   1  34
ATOM     34  O   UNL A   1      35.402  19.334  24.691  1.00  0.00    -0.377 OA
BRANCH  34  35
ATOM     35  C   UNL A   1      36.544  18.522  24.920  1.00  0.00     0.188 C 
BRANCH  35  36
ATOM     36  C   UNL A   1      37.868  19.302  24.898  1.00  0.00     0.188 C 
BRANCH  36  37
ATOM     37  O   UNL A   1      37.906  20.713  24.749  1.00  0.00    -0.376 OA
BRANCH  37  38
ATOM     38  C   UNL A   1      38.138  21.586  25.841  1.00  0.00     0.202 C 
BRANCH  38  39
ATOM     39  C   UNL A   1      39.523  22.198  26.126  1.00  0.00     0.261 C 
BRANCH  39  40
ATOM     40  O   UNL A   1      39.586  23.609  26.343  1.00  0.00    -0.460 OA
BRANCH  40  41
ATOM     41  C   UNL A   1      40.757  24.078  26.818  1.00  0.00     0.338 C 
ATOM     42  O   UNL A   1      41.879  23.677  26.562  1.00  0.00    -0.246 OA
BRANCH  41  43
ATOM     43  C   UNL A   1      40.469  25.286  27.617  1.00  0.00     0.060 A 
ATOM     44  C   UNL A   1      41.330  26.382  27.490  1.00  0.00     0.016 A 
ATOM     45  C   UNL A   1      39.379  25.339  28.492  1.00  0.00     0.016 A 
ATOM     46  C   UNL A   1      41.133  27.518  28.270  1.00  0.00     0.010 A 
ATOM     47  C   UNL A   1      39.197  26.469  29.297  1.00  0.00     0.010 A 
ATOM     48  C   UNL A   1      40.101  27.543  29.217  1.00  0.00    -0.014 A 
BRANCH  48  49
ATOM     49  C   UNL A   1      40.144  28.581  30.273  1.00  0.00     0.031 A 
ATOM     50  C   UNL A   1      39.160  29.719  30.185  1.00  0.00     0.074 A 
ATOM     51  C   UNL A   1      40.973  28.482  31.326  1.00  0.00     0.049 A 
ATOM     52  N   UNL A   1      38.966  30.715  31.009  1.00  0.00    -0.248 NA
ATOM     53  C   UNL A   1      38.271  29.729  29.011  1.00  0.00     0.031 C 
ATOM     54  C   UNL A   1      41.947  27.415  31.548  1.00  0.00     0.029 A 
ATOM     55  N   UNL A   1      41.127  29.308  32.410  1.00  0.00    -0.354 N 
ATOM     56  C   UNL A   1      37.926  31.457  30.464  1.00  0.00     0.074 A 
ATOM     57  C   UNL A   1      37.561  30.828  29.215  1.00  0.00     0.031 C 
ATOM     58  C   UNL A   1      42.618  27.668  32.686  1.00  0.00     0.029 A 
ATOM     59  C   UNL A   1      42.126  28.915  33.265  1.00  0.00     0.049 A 
ATOM     60  H   UNL A   1      40.573  30.108  32.560  1.00  0.00     0.167 HD
ATOM     61  C   UNL A   1      37.314  32.553  30.969  1.00  0.00     0.037 A 
ATOM     62  C   UNL A   1      42.597  29.510  34.378  1.00  0.00     0.037 A 
ATOM     63  C   UNL A   1      37.668  33.177  32.215  1.00  0.00     0.049 A 
ATOM     64  C   UNL A   1      41.946  30.766  34.881  1.00  0.00     0.074 A 
ATOM     65  C   UNL A   1      37.073  34.261  32.837  1.00  0.00     0.029 A 
ATOM     66  N   UNL A   1      38.718  32.776  33.024  1.00  0.00    -0.354 N 
ATOM     67  N   UNL A   1      40.948  31.444  34.371  1.00  0.00    -0.248 NA
ATOM     68  C   UNL A   1      42.477  31.322  36.133  1.00  0.00     0.031 C 
ATOM     69  C   UNL A   1      37.794  34.544  34.002  1.00  0.00     0.029 A 
ATOM     70  C   UNL A   1      38.807  33.607  34.129  1.00  0.00     0.049 A 
ATOM     71  H   UNL A   1      39.314  32.013  32.842  1.00  0.00     0.167 HD
ATOM     72  C   UNL A   1      40.716  32.493  35.249  1.00  0.00     0.074 A 
ATOM     73  C   UNL A   1      41.674  32.357  36.327  1.00  0.00     0.031 C 
ATOM     74  C   UNL A   1      39.781  33.473  35.179  1.00  0.00     0.037 A 
BRANCH  61  75
ATOM     75  C   UNL A   1      36.197  33.153  30.168  1.00  0.00     0.057 A 
ATOM     76  C   UNL A   1      36.441  33.945  29.038  1.00  0.00     0.134 A 
ATOM     77  C   UNL A   1      34.863  32.897  30.504  1.00  0.00     0.134 A 
ATOM     78  F   UNL A   1      37.698  34.242  28.673  1.00  0.00    -0.206 F 
ATOM     79  C   UNL A   1      35.395  34.468  28.276  1.00  0.00     0.040 A 
ATOM     80  C   UNL A   1      33.809  33.396  29.738  1.00  0.00     0.040 A 
ATOM     81  F   UNL A   1      34.563  32.148  31.576  1.00  0.00    -0.206 F 
ATOM     82  C   UNL A   1      34.074  34.186  28.620  1.00  0.00     0.006 A 
ENDBRANCH  61  75
BRANCH  62  83
ATOM     83  C   UNL A   1      43.772  28.950  35.083  1.00  0.00     0.057 A 
ATOM     84  C   UNL A   1      43.634  28.083  36.171  1.00  0.00     0.134 A 
ATOM     85  C   UNL A   1      45.067  29.327  34.711  1.00  0.00     0.134 A 
ATOM     86  F   UNL A   1      42.415  27.731  36.603  1.00  0.00    -0.206 F 
ATOM     87  C   UNL A   1      44.748  27.604  36.863  1.00  0.00     0.040 A 
ATOM     88  C   UNL A   1      46.189  28.835  35.377  1.00  0.00     0.040 A 
ATOM     89  F   UNL A   1      45.254  30.207  33.718  1.00  0.00    -0.206 F 
ATOM     90  C   UNL A   1      46.031  27.973  36.460  1.00  0.00     0.006 A 
ENDBRANCH  62  83
BRANCH  74  91
ATOM     91  C   UNL A   1      39.745  34.454  36.312  1.00  0.00     0.057 A 
ATOM     92  C   UNL A   1      40.449  35.663  36.268  1.00  0.00     0.134 A 
ATOM     93  C   UNL A   1      38.998  34.179  37.465  1.00  0.00     0.134 A 
ATOM     94  F   UNL A   1      41.195  35.977  35.196  1.00  0.00    -0.206 F 
ATOM     95  C   UNL A   1      40.442  36.549  37.346  1.00  0.00     0.040 A 
ATOM     96  C   UNL A   1      38.961  35.069  38.538  1.00  0.00     0.040 A 
ATOM     97  F   UNL A   1      38.294  33.042  37.566  1.00  0.00    -0.206 F 
ATOM     98  C   UNL A   1      39.694  36.253  38.484  1.00  0.00     0.006 A 
ENDBRANCH  74  91
ENDBRANCH  48  49
ENDBRANCH  41  43
ENDBRANCH  40  41
ENDBRANCH  39  40
ENDBRANCH  38  39
ENDBRANCH  37  38
ENDBRANCH  36  37
ENDBRANCH  35  36
ENDBRANCH  34  35
ENDBRANCH   1  34
TORSDOF 26
ENDMDL
MODEL 2
REMARK VINA RESULT:     -10.0      5.429      9.049
REMARK SMILES COc1ccc(S(=O)(=O)N(Cc2ccccc2)c2ccccc2C(=O)OCCOCCOCCOCCOC(=O)c2ccc(-c3c4nc(c(-c5c(F)cccc5F)c5ccc([nH]5)c(-c5c(F)cccc5F)c5nc(c(-c6c(F)cccc6F)c6ccc3[nH]6)C=C5)C=C4)cc2)cc1
REMARK SMILES IDX 31 1 30 2 29 3 28 4 27 5 26 6 24 7 25 8 23 9 18 10 19 11
REMARK SMILES IDX 20 12 22 13 21 14 10 15 7 16 8 17 9 18 6 19 3 20 4 21 96 22
REMARK SMILES IDX 5 23 95 24 2 25 1 26 11 27 12 28 13 29 17 30 14 31 16 32
REMARK SMILES IDX 15 33 32 34 33 35 34 36 35 37 36 38 37 39 38 40 39 41 40 42
REMARK SMILES IDX 41 43 42 44 94 45 43 46 93 47 44 48 45 49 46 50 87 51 47 52
REMARK SMILES IDX 92 53 86 54 88 55 48 56 91 57 85 58 84 59 49 61 75 62 58 63
REMARK SMILES IDX 74 64 59 65 62 66 73 67 89 68 60 69 61 70 72 72 90 73 63 74
REMARK SMILES IDX 50 75 51 76 56 77 52 78 53 79 55 80 57 81 54 82 76 83 77 84
REMARK SMILES IDX 82 85 78 86 79 87 81 88 83 89 80 90 64 91 65 92 70 93 66 94
REMARK SMILES IDX 67 95 69 96 71 97 68 98
REMARK H PARENT 88 60 62 71
REMARK Flexibility Score: inf
ROOT
ATOM      1  C   UNL A   1      38.365  23.166  26.168  1.00  0.00     0.188 C 
ENDROOT
BRANCH   1   2
ATOM      2  C   UNL A   1      36.984  22.669  25.707  1.00  0.00     0.188 C 
BRANCH   2   3
ATOM      3  O   UNL A   1      36.373  23.506  24.722  1.00  0.00    -0.376 OA
BRANCH   3   4
ATOM      4  C   UNL A   1      36.016  22.892  23.488  1.00  0.00     0.202 C 
BRANCH   4   5
ATOM      5  C   UNL A   1      34.658  22.190  23.551  1.00  0.00     0.261 C 
BRANCH   5   6
ATOM      6  O   UNL A   1      33.719  22.914  24.352  1.00  0.00    -0.460 OA
BRANCH   6   7
ATOM      7  C   UNL A   1      32.688  23.476  23.681  1.00  0.00     0.340 C 
ATOM      8  O   UNL A   1      32.508  23.421  22.474  1.00  0.00    -0.246 OA
BRANCH   7   9
ATOM      9  C   UNL A   1      31.653  23.912  24.650  1.00  0.00     0.084 A 
ATOM     10  C   UNL A   1      31.276  25.240  24.947  1.00  0.00     0.067 A 
ATOM     11  C   UNL A   1      30.440  25.399  26.082  1.00  0.00     0.028 A 
ATOM     12  C   UNL A   1      29.979  24.334  26.863  1.00  0.00     0.002 A 
ATOM     13  C   UNL A   1      31.167  22.835  25.440  1.00  0.00     0.018 A 
ATOM     14  C   UNL A   1      30.340  23.043  26.539  1.00  0.00     0.001 A 
BRANCH  10  15
ATOM     15  N   UNL A   1      31.774  26.458  24.259  1.00  0.00    -0.261 N 
BRANCH  15  16
ATOM     16  S   UNL A   1      33.399  26.993  24.542  1.00  0.00     0.264 S 
ATOM     17  O   UNL A   1      34.026  27.350  23.287  1.00  0.00    -0.201 OA
ATOM     18  O   UNL A   1      34.084  26.061  25.412  1.00  0.00    -0.201 OA
BRANCH  16  19
ATOM     19  C   UNL A   1      33.243  28.526  25.469  1.00  0.00     0.088 A 
ATOM     20  C   UNL A   1      33.012  30.867  26.993  1.00  0.00     0.118 A 
ATOM     21  C   UNL A   1      31.964  30.461  26.163  1.00  0.00     0.048 A 
ATOM     22  C   UNL A   1      34.144  30.064  27.117  1.00  0.00     0.048 A 
ATOM     23  C   UNL A   1      32.081  29.300  25.383  1.00  0.00     0.026 A 
ATOM     24  C   UNL A   1      34.242  28.879  26.385  1.00  0.00     0.026 A 
BRANCH  20  25
ATOM     25  O   UNL A   1      32.817  32.015  27.714  1.00  0.00    -0.497 OA
ATOM     26  C   UNL A   1      34.020  32.723  28.019  1.00  0.00     0.278 C 
ENDBRANCH  20  25
ENDBRANCH  16  19
ENDBRANCH  15  16
BRANCH  15  27
ATOM     27  C   UNL A   1      31.176  26.766  22.916  1.00  0.00     0.171 C 
BRANCH  27  28
ATOM     28  C   UNL A   1      30.083  27.823  22.785  1.00  0.00    -0.027 A 
ATOM     29  C   UNL A   1      28.767  27.653  23.243  1.00  0.00     0.005 A 
ATOM     30  C   UNL A   1      30.416  29.073  22.234  1.00  0.00     0.005 A 
ATOM     31  C   UNL A   1      27.812  28.664  23.133  1.00  0.00     0.000 A 
ATOM     32  C   UNL A   1      29.466  30.095  22.137  1.00  0.00     0.000 A 
ATOM     33  C   UNL A   1      28.162  29.889  22.582  1.00  0.00     0.000 A 
ENDBRANCH  27  28
ENDBRANCH  15  27
ENDBRANCH  10  15
ENDBRANCH   7   9
ENDBRANCH   6   7
ENDBRANCH   5   6
ENDBRANCH   4   5
ENDBRANCH   3   4
ENDBRANCH   2   3
ENDBRANCH   1   2
BRANCH   1  34
ATOM     34  O   UNL A   1      39.319  22.172  26.516  1.00  0.00    -0.377 OA
BRANCH  34  35
ATOM     35  C   UNL A   1      40.392  22.638  27.320  1.00  0.00     0.188 C 
BRANCH  35  36
ATOM     36  C   UNL A   1      41.489  21.587  27.551  1.00  0.00     0.188 C 
BRANCH  36  37
ATOM     37  O   UNL A   1      41.292  20.216  27.242  1.00  0.00    -0.376 OA
BRANCH  37  38
ATOM     38  C   UNL A   1      41.683  19.652  26.003  1.00  0.00     0.202 C 
BRANCH  38  39
ATOM     39  C   UNL A   1      42.767  18.562  25.899  1.00  0.00     0.261 C 
BRANCH  39  40
ATOM     40  O   UNL A   1      44.114  18.990  25.695  1.00  0.00    -0.460 OA
BRANCH  40  41
ATOM     41  C   UNL A   1      44.359  19.621  24.528  1.00  0.00     0.338 C 
ATOM     42  O   UNL A   1      44.152  19.207  23.400  1.00  0.00    -0.246 OA
BRANCH  41  43
ATOM     43  C   UNL A   1      44.803  20.994  24.841  1.00  0.00     0.060 A 
ATOM     44  C   UNL A   1      45.301  21.252  26.123  1.00  0.00     0.016 A 
ATOM     45  C   UNL A   1      44.718  22.021  23.894  1.00  0.00     0.016 A 
ATOM     46  C   UNL A   1      45.671  22.545  26.481  1.00  0.00     0.010 A 
ATOM     47  C   UNL A   1      45.063  23.326  24.262  1.00  0.00     0.010 A 
ATOM     48  C   UNL A   1      45.500  23.596  25.571  1.00  0.00    -0.014 A 
BRANCH  48  49
ATOM     49  C   UNL A   1      45.541  24.984  26.087  1.00  0.00     0.031 A 
ATOM     50  C   UNL A   1      46.870  25.692  26.104  1.00  0.00     0.074 A 
ATOM     51  C   UNL A   1      44.423  25.632  26.458  1.00  0.00     0.049 A 
ATOM     52  N   UNL A   1      47.154  26.919  26.458  1.00  0.00    -0.248 NA
ATOM     53  C   UNL A   1      48.036  24.913  25.652  1.00  0.00     0.031 C 
ATOM     54  C   UNL A   1      43.072  25.072  26.457  1.00  0.00     0.029 A 
ATOM     55  N   UNL A   1      44.256  26.914  26.916  1.00  0.00    -0.354 N 
ATOM     56  C   UNL A   1      48.521  27.062  26.256  1.00  0.00     0.074 A 
ATOM     57  C   UNL A   1      49.021  25.786  25.796  1.00  0.00     0.031 C 
ATOM     58  C   UNL A   1      42.217  26.001  26.922  1.00  0.00     0.029 A 
ATOM     59  C   UNL A   1      42.961  27.212  27.258  1.00  0.00     0.049 A 
ATOM     60  H   UNL A   1      44.995  27.559  26.992  1.00  0.00     0.167 HD
ATOM     61  C   UNL A   1      49.289  28.164  26.419  1.00  0.00     0.037 A 
ATOM     62  C   UNL A   1      42.444  28.332  27.798  1.00  0.00     0.037 A 
ATOM     63  C   UNL A   1      48.795  29.437  26.867  1.00  0.00     0.049 A 
ATOM     64  C   UNL A   1      43.331  29.520  28.034  1.00  0.00     0.074 A 
ATOM     65  C   UNL A   1      49.484  30.628  27.014  1.00  0.00     0.029 A 
ATOM     66  N   UNL A   1      47.486  29.681  27.250  1.00  0.00    -0.354 N 
ATOM     67  N   UNL A   1      44.616  29.651  27.817  1.00  0.00    -0.248 NA
ATOM     68  C   UNL A   1      42.682  30.725  28.570  1.00  0.00     0.031 C 
ATOM     69  C   UNL A   1      48.601  31.582  27.530  1.00  0.00     0.029 A 
ATOM     70  C   UNL A   1      47.352  30.998  27.659  1.00  0.00     0.049 A 
ATOM     71  H   UNL A   1      46.758  29.018  27.233  1.00  0.00     0.167 HD
ATOM     72  C   UNL A   1      44.927  30.958  28.167  1.00  0.00     0.074 A 
ATOM     73  C   UNL A   1      43.694  31.579  28.606  1.00  0.00     0.031 C 
ATOM     74  C   UNL A   1      46.124  31.593  28.115  1.00  0.00     0.037 A 
BRANCH  61  75
ATOM     75  C   UNL A   1      50.752  28.039  26.113  1.00  0.00     0.057 A 
ATOM     76  C   UNL A   1      51.705  27.855  27.123  1.00  0.00     0.134 A 
ATOM     77  C   UNL A   1      51.207  28.056  24.789  1.00  0.00     0.134 A 
ATOM     78  F   UNL A   1      51.336  27.847  28.414  1.00  0.00    -0.206 F 
ATOM     79  C   UNL A   1      53.060  27.702  26.828  1.00  0.00     0.040 A 
ATOM     80  C   UNL A   1      52.556  27.883  24.480  1.00  0.00     0.040 A 
ATOM     81  F   UNL A   1      50.345  28.232  23.776  1.00  0.00    -0.206 F 
ATOM     82  C   UNL A   1      53.488  27.706  25.501  1.00  0.00     0.006 A 
ENDBRANCH  61  75
BRANCH  62  83
ATOM     83  C   UNL A   1      41.017  28.383  28.189  1.00  0.00     0.057 A 
ATOM     84  C   UNL A   1      40.034  28.880  27.328  1.00  0.00     0.134 A 
ATOM     85  C   UNL A   1      40.619  27.983  29.470  1.00  0.00     0.134 A 
ATOM     86  F   UNL A   1      40.368  29.326  26.110  1.00  0.00    -0.206 F 
ATOM     87  C   UNL A   1      38.699  28.974  27.728  1.00  0.00     0.040 A 
ATOM     88  C   UNL A   1      39.285  28.046  29.872  1.00  0.00     0.040 A 
ATOM     89  F   UNL A   1      41.530  27.560  30.357  1.00  0.00    -0.206 F 
ATOM     90  C   UNL A   1      38.321  28.547  29.001  1.00  0.00     0.006 A 
ENDBRANCH  62  83
BRANCH  74  91
ATOM     91  C   UNL A   1      46.141  33.035  28.523  1.00  0.00     0.057 A 
ATOM     92  C   UNL A   1      45.900  34.066  27.607  1.00  0.00     0.134 A 
ATOM     93  C   UNL A   1      46.411  33.396  29.849  1.00  0.00     0.134 A 
ATOM     94  F   UNL A   1      45.651  33.786  26.318  1.00  0.00    -0.206 F 
ATOM     95  C   UNL A   1      45.961  35.407  27.988  1.00  0.00     0.040 A 
ATOM     96  C   UNL A   1      46.448  34.732  30.248  1.00  0.00     0.040 A 
ATOM     97  F   UNL A   1      46.642  32.455  30.777  1.00  0.00    -0.206 F 
ATOM     98  C   UNL A   1      46.233  35.742  29.313  1.00  0.00     0.006 A 
ENDBRANCH  74  91
ENDBRANCH  48  49
ENDBRANCH  41  43
ENDBRANCH  40  41
ENDBRANCH  39  40
ENDBRANCH  38  39
ENDBRANCH  37  38
ENDBRANCH  36  37
ENDBRANCH  35  36
ENDBRANCH  34  35
ENDBRANCH   1  34
TORSDOF 26
ENDMDL
MODEL 3
REMARK VINA RESULT:      -9.7      1.570      5.886
REMARK SMILES COc1ccc(S(=O)(=O)N(Cc2ccccc2)c2ccccc2C(=O)OCCOCCOCCOCCOC(=O)c2ccc(-c3c4nc(c(-c5c(F)cccc5F)c5ccc([nH]5)c(-c5c(F)cccc5F)c5nc(c(-c6c(F)cccc6F)c6ccc3[nH]6)C=C5)C=C4)cc2)cc1
REMARK SMILES IDX 31 1 30 2 29 3 28 4 27 5 26 6 24 7 25 8 23 9 18 10 19 11
REMARK SMILES IDX 20 12 22 13 21 14 10 15 7 16 8 17 9 18 6 19 3 20 4 21 96 22
REMARK SMILES IDX 5 23 95 24 2 25 1 26 11 27 12 28 13 29 17 30 14 31 16 32
REMARK SMILES IDX 15 33 32 34 33 35 34 36 35 37 36 38 37 39 38 40 39 41 40 42
REMARK SMILES IDX 41 43 42 44 94 45 43 46 93 47 44 48 45 49 46 50 87 51 47 52
REMARK SMILES IDX 92 53 86 54 88 55 48 56 91 57 85 58 84 59 49 61 75 62 58 63
REMARK SMILES IDX 74 64 59 65 62 66 73 67 89 68 60 69 61 70 72 72 90 73 63 74
REMARK SMILES IDX 50 75 51 76 56 77 52 78 53 79 55 80 57 81 54 82 76 83 77 84
REMARK SMILES IDX 82 85 78 86 79 87 81 88 83 89 80 90 64 91 65 92 70 93 66 94
REMARK SMILES IDX 67 95 69 96 71 97 68 98
REMARK H PARENT 88 60 62 71
REMARK Flexibility Score: inf
ROOT
ATOM      1  C   UNL A   1      33.748  18.176  24.053  1.00  0.00     0.188 C 
ENDROOT
BRANCH   1   2
ATOM      2  C   UNL A   1      32.650  18.317  25.121  1.00  0.00     0.188 C 
BRANCH   2   3
ATOM      3  O   UNL A   1      31.916  19.541  25.031  1.00  0.00    -0.376 OA
BRANCH   3   4
ATOM      4  C   UNL A   1      32.511  20.593  24.278  1.00  0.00     0.202 C 
BRANCH   4   5
ATOM      5  C   UNL A   1      31.898  21.959  24.589  1.00  0.00     0.261 C 
BRANCH   5   6
ATOM      6  O   UNL A   1      31.414  22.034  25.935  1.00  0.00    -0.460 OA
BRANCH   6   7
ATOM      7  C   UNL A   1      31.506  23.248  26.523  1.00  0.00     0.340 C 
ATOM      8  O   UNL A   1      30.701  23.722  27.310  1.00  0.00    -0.246 OA
BRANCH   7   9
ATOM      9  C   UNL A   1      32.867  23.796  26.305  1.00  0.00     0.084 A 
ATOM     10  C   UNL A   1      33.199  25.010  25.665  1.00  0.00     0.067 A 
ATOM     11  C   UNL A   1      34.575  25.187  25.367  1.00  0.00     0.028 A 
ATOM     12  C   UNL A   1      35.567  24.257  25.693  1.00  0.00     0.002 A 
ATOM     13  C   UNL A   1      33.884  22.864  26.646  1.00  0.00     0.018 A 
ATOM     14  C   UNL A   1      35.222  23.090  26.341  1.00  0.00     0.001 A 
BRANCH  10  15
ATOM     15  N   UNL A   1      32.234  26.029  25.180  1.00  0.00    -0.261 N 
BRANCH  15  16
ATOM     16  S   UNL A   1      31.269  25.692  23.779  1.00  0.00     0.264 S 
ATOM     17  O   UNL A   1      30.136  24.870  24.146  1.00  0.00    -0.201 OA
ATOM     18  O   UNL A   1      32.115  25.251  22.690  1.00  0.00    -0.201 OA
BRANCH  16  19
ATOM     19  C   UNL A   1      30.587  27.278  23.277  1.00  0.00     0.088 A 
ATOM     20  C   UNL A   1      29.464  29.706  22.437  1.00  0.00     0.118 A 
ATOM     21  C   UNL A   1      30.827  29.459  22.254  1.00  0.00     0.048 A 
ATOM     22  C   UNL A   1      28.650  28.710  22.973  1.00  0.00     0.048 A 
ATOM     23  C   UNL A   1      31.398  28.253  22.688  1.00  0.00     0.026 A 
ATOM     24  C   UNL A   1      29.204  27.486  23.356  1.00  0.00     0.026 A 
BRANCH  20  25
ATOM     25  O   UNL A   1      28.990  30.909  21.989  1.00  0.00    -0.497 OA
ATOM     26  C   UNL A   1      27.922  31.443  22.774  1.00  0.00     0.278 C 
ENDBRANCH  20  25
ENDBRANCH  16  19
ENDBRANCH  15  16
BRANCH  15  27
ATOM     27  C   UNL A   1      31.641  26.942  26.216  1.00  0.00     0.171 C 
BRANCH  27  28
ATOM     28  C   UNL A   1      32.286  28.293  26.509  1.00  0.00    -0.027 A 
ATOM     29  C   UNL A   1      31.708  29.529  26.175  1.00  0.00     0.005 A 
ATOM     30  C   UNL A   1      33.502  28.321  27.214  1.00  0.00     0.005 A 
ATOM     31  C   UNL A   1      32.321  30.741  26.497  1.00  0.00     0.000 A 
ATOM     32  C   UNL A   1      34.111  29.534  27.554  1.00  0.00     0.000 A 
ATOM     33  C   UNL A   1      33.523  30.744  27.191  1.00  0.00     0.000 A 
ENDBRANCH  27  28
ENDBRANCH  15  27
ENDBRANCH  10  15
ENDBRANCH   7   9
ENDBRANCH   6   7
ENDBRANCH   5   6
ENDBRANCH   4   5
ENDBRANCH   3   4
ENDBRANCH   2   3
ENDBRANCH   1   2
BRANCH   1  34
ATOM     34  O   UNL A   1      35.000  18.783  24.340  1.00  0.00    -0.377 OA
BRANCH  34  35
ATOM     35  C   UNL A   1      35.926  17.941  25.010  1.00  0.00     0.188 C 
BRANCH  35  36
ATOM     36  C   UNL A   1      37.365  18.480  25.003  1.00  0.00     0.188 C 
BRANCH  36  37
ATOM     37  O   UNL A   1      37.670  19.802  24.584  1.00  0.00    -0.376 OA
BRANCH  37  38
ATOM     38  C   UNL A   1      37.785  20.880  25.495  1.00  0.00     0.202 C 
BRANCH  38  39
ATOM     39  C   UNL A   1      39.146  21.362  26.034  1.00  0.00     0.261 C 
BRANCH  39  40
ATOM     40  O   UNL A   1      39.533  22.704  25.737  1.00  0.00    -0.460 OA
BRANCH  40  41
ATOM     41  C   UNL A   1      40.735  23.087  26.211  1.00  0.00     0.338 C 
ATOM     42  O   UNL A   1      41.811  22.538  26.043  1.00  0.00    -0.246 OA
BRANCH  41  43
ATOM     43  C   UNL A   1      40.566  24.396  26.872  1.00  0.00     0.060 A 
ATOM     44  C   UNL A   1      41.508  25.397  26.608  1.00  0.00     0.016 A 
ATOM     45  C   UNL A   1      39.505  24.636  27.753  1.00  0.00     0.016 A 
ATOM     46  C   UNL A   1      41.422  26.624  27.257  1.00  0.00     0.010 A 
ATOM     47  C   UNL A   1      39.434  25.860  28.427  1.00  0.00     0.010 A 
ATOM     48  C   UNL A   1      40.420  26.841  28.212  1.00  0.00    -0.014 A 
BRANCH  48  49
ATOM     49  C   UNL A   1      40.572  27.983  29.142  1.00  0.00     0.031 A 
ATOM     50  C   UNL A   1      41.819  28.046  29.985  1.00  0.00     0.074 A 
ATOM     51  C   UNL A   1      39.673  28.981  29.187  1.00  0.00     0.049 A 
ATOM     52  N   UNL A   1      42.206  28.965  30.831  1.00  0.00    -0.248 NA
ATOM     53  C   UNL A   1      42.762  26.922  29.848  1.00  0.00     0.031 C 
ATOM     54  C   UNL A   1      38.443  29.058  28.400  1.00  0.00     0.029 A 
ATOM     55  N   UNL A   1      39.661  30.126  29.941  1.00  0.00    -0.354 N 
ATOM     56  C   UNL A   1      43.437  28.541  31.312  1.00  0.00     0.074 A 
ATOM     57  C   UNL A   1      43.715  27.259  30.703  1.00  0.00     0.031 C 
ATOM     58  C   UNL A   1      37.782  30.180  28.735  1.00  0.00     0.029 A 
ATOM     59  C   UNL A   1      38.537  30.892  29.762  1.00  0.00     0.049 A 
ATOM     60  H   UNL A   1      40.391  30.375  30.554  1.00  0.00     0.167 HD
ATOM     61  C   UNL A   1      44.274  29.172  32.168  1.00  0.00     0.037 A 
ATOM     62  C   UNL A   1      38.158  32.030  30.375  1.00  0.00     0.037 A 
ATOM     63  C   UNL A   1      44.006  30.450  32.768  1.00  0.00     0.049 A 
ATOM     64  C   UNL A   1      39.074  32.676  31.374  1.00  0.00     0.074 A 
ATOM     65  C   UNL A   1      44.815  31.196  33.607  1.00  0.00     0.029 A 
ATOM     66  N   UNL A   1      42.833  31.168  32.598  1.00  0.00    -0.354 N 
ATOM     67  N   UNL A   1      40.246  32.278  31.803  1.00  0.00    -0.248 NA
ATOM     68  C   UNL A   1      38.617  33.946  31.956  1.00  0.00     0.031 C 
ATOM     69  C   UNL A   1      44.111  32.345  33.983  1.00  0.00     0.029 A 
ATOM     70  C   UNL A   1      42.885  32.337  33.339  1.00  0.00     0.049 A 
ATOM     71  H   UNL A   1      42.076  30.889  32.034  1.00  0.00     0.167 HD
ATOM     72  C   UNL A   1      40.679  33.258  32.685  1.00  0.00     0.074 A 
ATOM     73  C   UNL A   1      39.644  34.271  32.726  1.00  0.00     0.031 C 
ATOM     74  C   UNL A   1      41.837  33.322  33.388  1.00  0.00     0.037 A 
BRANCH  61  75
ATOM     75  C   UNL A   1      45.562  28.484  32.511  1.00  0.00     0.057 A 
ATOM     76  C   UNL A   1      45.632  27.502  33.508  1.00  0.00     0.134 A 
ATOM     77  C   UNL A   1      46.734  28.773  31.803  1.00  0.00     0.134 A 
ATOM     78  F   UNL A   1      44.547  27.191  34.235  1.00  0.00    -0.206 F 
ATOM     79  C   UNL A   1      46.826  26.839  33.795  1.00  0.00     0.040 A 
ATOM     80  C   UNL A   1      47.928  28.102  32.066  1.00  0.00     0.040 A 
ATOM     81  F   UNL A   1      46.734  29.705  30.838  1.00  0.00    -0.206 F 
ATOM     82  C   UNL A   1      47.977  27.132  33.066  1.00  0.00     0.006 A 
ENDBRANCH  61  75
BRANCH  62  83
ATOM     83  C   UNL A   1      36.832  32.624  30.093  1.00  0.00     0.057 A 
ATOM     84  C   UNL A   1      35.696  32.275  30.831  1.00  0.00     0.134 A 
ATOM     85  C   UNL A   1      36.667  33.518  29.029  1.00  0.00     0.134 A 
ATOM     86  F   UNL A   1      35.787  31.383  31.827  1.00  0.00    -0.206 F 
ATOM     87  C   UNL A   1      34.440  32.801  30.521  1.00  0.00     0.040 A 
ATOM     88  C   UNL A   1      35.424  34.071  28.726  1.00  0.00     0.040 A 
ATOM     89  F   UNL A   1      37.710  33.836  28.249  1.00  0.00    -0.206 F 
ATOM     90  C   UNL A   1      34.304  33.709  29.472  1.00  0.00     0.006 A 
ENDBRANCH  62  83
BRANCH  74  91
ATOM     91  C   UNL A   1      42.045  34.540  34.237  1.00  0.00     0.057 A 
ATOM     92  C   UNL A   1      42.629  35.706  33.728  1.00  0.00     0.134 A 
ATOM     93  C   UNL A   1      41.661  34.540  35.584  1.00  0.00     0.134 A 
ATOM     94  F   UNL A   1      43.032  35.762  32.449  1.00  0.00    -0.206 F 
ATOM     95  C   UNL A   1      42.857  36.819  34.539  1.00  0.00     0.040 A 
ATOM     96  C   UNL A   1      41.859  35.656  36.398  1.00  0.00     0.040 A 
ATOM     97  F   UNL A   1      41.088  33.457  36.130  1.00  0.00    -0.206 F 
ATOM     98  C   UNL A   1      42.469  36.795  35.878  1.00  0.00     0.006 A 
ENDBRANCH  74  91
ENDBRANCH  48  49
ENDBRANCH  41  43
ENDBRANCH  40  41
ENDBRANCH  39  40
ENDBRANCH  38  39
ENDBRANCH  37  38
ENDBRANCH  36  37
ENDBRANCH  35  36
ENDBRANCH  34  35
ENDBRANCH   1  34
TORSDOF 26
ENDMDL
