MODEL 1
REMARK VINA RESULT:      -7.9      0.000      0.000
REMARK SMILES Cc1ccc(S(=O)(=O)n2cc(C(=O)C(=O)N[C@@H](Cc3c[nH]c4ccccc34)C(=O)NCC(=O)OCCOCCOCCOCCOC(=O)c3ccc(-c4c5nc(c(-c6c(F)cccc6F)c6ccc([nH]6)c(-c6c(F)cccc6F)c6nc(c(-c7c(F)cccc7F)c7ccc4[nH]7)C=C6)C=C5)cc3)c3ccccc32)cc1
REMARK SMILES IDX 38 1 37 2 36 3 35 4 34 5 32 6 33 7 31 8 30 9 28 10 29 11
REMARK SMILES IDX 17 13 16 14 14 15 15 16 12 18 13 19 11 20 9 21 10 22 108 23
REMARK SMILES IDX 103 24 107 25 104 26 106 27 105 28 6 29 7 30 8 31 5 32 1 33
REMARK SMILES IDX 2 34 3 35 110 36 4 37 109 38 18 39 19 40 20 41 27 42 21 43
REMARK SMILES IDX 22 44 26 45 23 47 25 48 24 49 39 50 40 51 41 52 42 53 43 54
REMARK SMILES IDX 44 55 45 56 46 57 47 58 48 59 49 60 50 61 102 62 51 63
REMARK SMILES IDX 101 64 52 65 53 66 54 67 95 68 55 69 100 70 94 71 96 72
REMARK SMILES IDX 56 73 99 74 93 75 92 76 57 78 83 79 66 80 82 81 67 82 70 83
REMARK SMILES IDX 81 84 97 85 68 86 69 87 80 89 98 90 71 91 58 92 59 93 64 94
REMARK SMILES IDX 60 95 61 96 63 97 65 98 62 99 84 100 85 101 90 102 86 103
REMARK SMILES IDX 87 104 89 105 91 106 88 107 72 108 73 109 78 110 74 111
REMARK SMILES IDX 75 112 77 113 79 114 76 115
REMARK H PARENT 30 12 16 17 21 46 96 77 70 88
REMARK Flexibility Score: inf
ROOT
ATOM      1  C   UNL A   1      42.024  38.864  27.285  1.00  0.00     0.188 C 
ENDROOT
BRANCH   1   2
ATOM      2  O   UNL A   1      41.251  39.756  26.338  1.00  0.00    -0.376 OA
BRANCH   2   3
ATOM      3  C   UNL A   1      41.588  41.026  25.407  1.00  0.00     0.202 C 
BRANCH   3   4
ATOM      4  C   UNL A   1      43.023  42.124  24.964  1.00  0.00     0.261 C 
BRANCH   4   5
ATOM      5  O   UNL A   1      44.633  41.813  24.394  1.00  0.00    -0.462 OA
BRANCH   5   6
ATOM      6  C   UNL A   1      45.947  41.282  24.564  1.00  0.00     0.325 C 
ATOM      7  O   UNL A   1      46.574  40.557  23.773  1.00  0.00    -0.250 OA
BRANCH   6   8
ATOM      8  C   UNL A   1      46.932  41.913  25.713  1.00  0.00     0.238 C 
BRANCH   8   9
ATOM      9  N   UNL A   1      46.679  43.372  26.233  1.00  0.00    -0.343 N 
ATOM     10  C   UNL A   1      46.066  43.995  27.314  1.00  0.00     0.243 C 
ATOM     11  O   UNL A   1      45.552  45.107  27.089  1.00  0.00    -0.273 OA
ATOM     12  H   UNL A   1      47.067  44.036  25.618  1.00  0.00     0.164 HD
BRANCH  10  13
ATOM     13  C   UNL A   1      46.131  43.516  28.820  1.00  0.00     0.176 C 
BRANCH  13  14
ATOM     14  N   UNL A   1      47.349  43.875  29.604  1.00  0.00    -0.337 N 
ATOM     15  C   UNL A   1      48.661  43.392  29.667  1.00  0.00     0.293 C 
ATOM     16  O   UNL A   1      49.446  43.898  30.469  1.00  0.00    -0.265 OA
ATOM     17  H   UNL A   1      47.192  44.626  30.222  1.00  0.00     0.164 HD
BRANCH  15  18
ATOM     18  C   UNL A   1      49.193  42.252  28.772  1.00  0.00     0.252 C 
ATOM     19  O   UNL A   1      50.091  42.561  27.990  1.00  0.00    -0.283 OA
BRANCH  18  20
ATOM     20  C   UNL A   1      48.559  40.895  28.706  1.00  0.00     0.054 A 
ATOM     21  N   UNL A   1      47.208  39.050  28.596  1.00  0.00    -0.240 N 
ATOM     22  C   UNL A   1      47.315  40.357  29.109  1.00  0.00     0.117 A 
ATOM     23  C   UNL A   1      48.342  38.842  27.790  1.00  0.00     0.065 A 
ATOM     24  C   UNL A   1      49.287  39.768  28.214  1.00  0.00     0.012 A 
ATOM     25  C   UNL A   1      48.699  37.773  26.944  1.00  0.00     0.028 A 
ATOM     26  C   UNL A   1      50.652  39.481  28.002  1.00  0.00     0.011 A 
ATOM     27  C   UNL A   1      50.052  37.483  26.789  1.00  0.00     0.002 A 
ATOM     28  C   UNL A   1      51.018  38.296  27.360  1.00  0.00     0.001 A 
BRANCH  21  29
ATOM     29  S   UNL A   1      46.740  37.563  29.421  1.00  0.00     0.268 S 
ATOM     30  O   UNL A   1      46.152  36.766  28.360  1.00  0.00    -0.201 OA
ATOM     31  O   UNL A   1      45.909  38.100  30.500  1.00  0.00    -0.201 OA
BRANCH  29  32
ATOM     32  C   UNL A   1      47.709  36.424  30.360  1.00  0.00     0.088 A 
ATOM     33  C   UNL A   1      50.128  33.108  31.776  1.00  0.00     0.044 C 
ATOM     34  C   UNL A   1      49.323  34.292  31.314  1.00  0.00    -0.051 A 
ATOM     35  C   UNL A   1      49.061  34.393  29.958  1.00  0.00     0.005 A 
ATOM     36  C   UNL A   1      48.789  35.272  32.182  1.00  0.00     0.005 A 
ATOM     37  C   UNL A   1      48.286  35.445  29.499  1.00  0.00     0.022 A 
ATOM     38  C   UNL A   1      47.974  36.345  31.715  1.00  0.00     0.022 A 
ENDBRANCH  29  32
ENDBRANCH  21  29
ENDBRANCH  18  20
ENDBRANCH  15  18
ENDBRANCH  13  14
BRANCH  13  39
ATOM     39  C   UNL A   1      44.773  44.032  29.444  1.00  0.00     0.072 C 
BRANCH  39  40
ATOM     40  C   UNL A   1      44.319  43.147  30.588  1.00  0.00    -0.020 A 
ATOM     41  C   UNL A   1      43.837  41.849  30.494  1.00  0.00     0.087 A 
ATOM     42  C   UNL A   1      43.926  43.648  31.864  1.00  0.00     0.003 A 
ATOM     43  N   UNL A   1      43.032  41.623  31.586  1.00  0.00    -0.361 N 
ATOM     44  C   UNL A   1      42.992  42.750  32.377  1.00  0.00     0.046 A 
ATOM     45  C   UNL A   1      44.085  44.908  32.466  1.00  0.00     0.010 A 
ATOM     46  H   UNL A   1      42.554  40.783  31.774  1.00  0.00     0.166 HD
ATOM     47  C   UNL A   1      42.133  43.093  33.423  1.00  0.00     0.026 A 
ATOM     48  C   UNL A   1      43.184  45.298  33.452  1.00  0.00     0.001 A 
ATOM     49  C   UNL A   1      42.230  44.398  33.922  1.00  0.00     0.002 A 
ENDBRANCH  39  40
ENDBRANCH  13  39
ENDBRANCH  10  13
ENDBRANCH   8   9
ENDBRANCH   6   8
ENDBRANCH   5   6
ENDBRANCH   4   5
ENDBRANCH   3   4
ENDBRANCH   2   3
ENDBRANCH   1   2
BRANCH   1  50
ATOM     50  C   UNL A   1      42.340  37.361  26.925  1.00  0.00     0.188 C 
BRANCH  50  51
ATOM     51  O   UNL A   1      42.393  36.595  28.101  1.00  0.00    -0.377 OA
BRANCH  51  52
ATOM     52  C   UNL A   1      41.453  35.527  28.115  1.00  0.00     0.188 C 
BRANCH  52  53
ATOM     53  C   UNL A   1      40.986  35.008  29.497  1.00  0.00     0.188 C 
BRANCH  53  54
ATOM     54  O   UNL A   1      39.620  34.592  29.422  1.00  0.00    -0.376 OA
BRANCH  54  55
ATOM     55  C   UNL A   1      38.868  34.335  30.590  1.00  0.00     0.202 C 
BRANCH  55  56
ATOM     56  C   UNL A   1      37.413  33.902  30.395  1.00  0.00     0.261 C 
BRANCH  56  57
ATOM     57  O   UNL A   1      36.819  33.616  31.673  1.00  0.00    -0.460 OA
BRANCH  57  58
ATOM     58  C   UNL A   1      35.970  32.561  31.773  1.00  0.00     0.338 C 
ATOM     59  O   UNL A   1      34.769  32.583  31.579  1.00  0.00    -0.246 OA
BRANCH  58  60
ATOM     60  C   UNL A   1      36.717  31.450  32.449  1.00  0.00     0.060 A 
ATOM     61  C   UNL A   1      37.309  31.648  33.696  1.00  0.00     0.016 A 
ATOM     62  C   UNL A   1      37.154  30.375  31.673  1.00  0.00     0.016 A 
ATOM     63  C   UNL A   1      38.484  30.938  34.008  1.00  0.00     0.010 A 
ATOM     64  C   UNL A   1      38.424  29.864  31.896  1.00  0.00     0.010 A 
ATOM     65  C   UNL A   1      39.199  30.318  32.973  1.00  0.00    -0.014 A 
BRANCH  65  66
ATOM     66  C   UNL A   1      40.758  30.092  32.827  1.00  0.00     0.031 A 
ATOM     67  C   UNL A   1      41.275  31.580  32.978  1.00  0.00     0.074 A 
ATOM     68  C   UNL A   1      41.454  28.858  32.397  1.00  0.00     0.049 A 
ATOM     69  N   UNL A   1      41.933  32.305  32.108  1.00  0.00    -0.248 NA
ATOM     70  C   UNL A   1      40.710  32.445  34.032  1.00  0.00     0.031 C 
ATOM     71  C   UNL A   1      42.663  28.140  32.811  1.00  0.00     0.029 A 
ATOM     72  N   UNL A   1      41.420  28.083  31.121  1.00  0.00    -0.354 N 
ATOM     73  C   UNL A   1      42.163  33.546  32.656  1.00  0.00     0.074 A 
ATOM     74  C   UNL A   1      41.185  33.646  33.707  1.00  0.00     0.031 C 
ATOM     75  C   UNL A   1      43.265  27.490  31.746  1.00  0.00     0.029 A 
ATOM     76  C   UNL A   1      42.576  27.655  30.526  1.00  0.00     0.049 A 
ATOM     77  H   UNL A   1      40.553  27.877  30.702  1.00  0.00     0.167 HD
ATOM     78  C   UNL A   1      43.258  34.317  32.359  1.00  0.00     0.037 A 
ATOM     79  C   UNL A   1      42.936  27.571  29.201  1.00  0.00     0.037 A 
ATOM     80  C   UNL A   1      44.241  33.647  31.483  1.00  0.00     0.049 A 
ATOM     81  C   UNL A   1      43.886  28.646  28.567  1.00  0.00     0.074 A 
ATOM     82  C   UNL A   1      45.546  33.242  31.723  1.00  0.00     0.029 A 
ATOM     83  N   UNL A   1      43.920  33.107  30.223  1.00  0.00    -0.354 N 
ATOM     84  N   UNL A   1      44.274  29.782  29.092  1.00  0.00    -0.248 NA
ATOM     85  C   UNL A   1      44.414  28.517  27.200  1.00  0.00     0.031 C 
ATOM     86  C   UNL A   1      46.041  32.575  30.590  1.00  0.00     0.029 A 
ATOM     87  C   UNL A   1      45.021  32.455  29.670  1.00  0.00     0.049 A 
ATOM     88  H   UNL A   1      43.038  33.179  29.792  1.00  0.00     0.167 HD
ATOM     89  C   UNL A   1      44.856  30.599  28.132  1.00  0.00     0.074 A 
ATOM     90  C   UNL A   1      45.041  29.693  27.016  1.00  0.00     0.031 C 
ATOM     91  C   UNL A   1      45.115  31.947  28.300  1.00  0.00     0.037 A 
BRANCH  78  92
ATOM     92  C   UNL A   1      43.590  35.515  33.280  1.00  0.00     0.057 A 
ATOM     93  C   UNL A   1      44.024  35.373  34.611  1.00  0.00     0.134 A 
ATOM     94  C   UNL A   1      43.385  36.860  32.917  1.00  0.00     0.134 A 
ATOM     95  F   UNL A   1      44.586  34.248  35.061  1.00  0.00    -0.206 F 
ATOM     96  C   UNL A   1      43.959  36.410  35.558  1.00  0.00     0.040 A 
ATOM     97  C   UNL A   1      43.271  37.904  33.852  1.00  0.00     0.040 A 
ATOM     98  F   UNL A   1      43.311  37.219  31.625  1.00  0.00    -0.206 F 
ATOM     99  C   UNL A   1      43.510  37.667  35.195  1.00  0.00     0.006 A 
ENDBRANCH  78  92
BRANCH  79 100
ATOM    100  C   UNL A   1      41.894  26.868  28.367  1.00  0.00     0.057 A 
ATOM    101  C   UNL A   1      41.952  25.466  28.377  1.00  0.00     0.134 A 
ATOM    102  C   UNL A   1      40.712  27.428  27.877  1.00  0.00     0.134 A 
ATOM    103  F   UNL A   1      43.107  24.856  28.662  1.00  0.00    -0.206 F 
ATOM    104  C   UNL A   1      40.827  24.667  28.179  1.00  0.00     0.040 A 
ATOM    105  C   UNL A   1      39.559  26.641  27.693  1.00  0.00     0.040 A 
ATOM    106  F   UNL A   1      40.584  28.758  27.751  1.00  0.00    -0.206 F 
ATOM    107  C   UNL A   1      39.603  25.263  27.906  1.00  0.00     0.006 A 
ENDBRANCH  79 100
BRANCH  91 108
ATOM    108  C   UNL A   1      45.767  32.898  27.269  1.00  0.00     0.057 A 
ATOM    109  C   UNL A   1      47.142  33.013  27.021  1.00  0.00     0.134 A 
ATOM    110  C   UNL A   1      44.979  33.755  26.447  1.00  0.00     0.134 A 
ATOM    111  F   UNL A   1      48.019  32.136  27.522  1.00  0.00    -0.206 F 
ATOM    112  C   UNL A   1      47.690  34.003  26.181  1.00  0.00     0.040 A 
ATOM    113  C   UNL A   1      45.510  34.729  25.591  1.00  0.00     0.040 A 
ATOM    114  F   UNL A   1      43.642  33.675  26.397  1.00  0.00    -0.206 F 
ATOM    115  C   UNL A   1      46.876  34.884  25.482  1.00  0.00     0.006 A 
ENDBRANCH  91 108
ENDBRANCH  65  66
ENDBRANCH  58  60
ENDBRANCH  57  58
ENDBRANCH  56  57
ENDBRANCH  55  56
ENDBRANCH  54  55
ENDBRANCH  53  54
ENDBRANCH  52  53
ENDBRANCH  51  52
ENDBRANCH  50  51
ENDBRANCH   1  50
TORSDOF 29
ENDMDL
MODEL 2
REMARK VINA RESULT:      -7.5      4.247     12.815
REMARK SMILES Cc1ccc(S(=O)(=O)n2cc(C(=O)C(=O)N[C@@H](Cc3c[nH]c4ccccc34)C(=O)NCC(=O)OCCOCCOCCOCCOC(=O)c3ccc(-c4c5nc(c(-c6c(F)cccc6F)c6ccc([nH]6)c(-c6c(F)cccc6F)c6nc(c(-c7c(F)cccc7F)c7ccc4[nH]7)C=C6)C=C5)cc3)c3ccccc32)cc1
REMARK SMILES IDX 38 1 37 2 36 3 35 4 34 5 32 6 33 7 31 8 30 9 28 10 29 11
REMARK SMILES IDX 17 13 16 14 14 15 15 16 12 18 13 19 11 20 9 21 10 22 108 23
REMARK SMILES IDX 103 24 107 25 104 26 106 27 105 28 6 29 7 30 8 31 5 32 1 33
REMARK SMILES IDX 2 34 3 35 110 36 4 37 109 38 18 39 19 40 20 41 27 42 21 43
REMARK SMILES IDX 22 44 26 45 23 47 25 48 24 49 39 50 40 51 41 52 42 53 43 54
REMARK SMILES IDX 44 55 45 56 46 57 47 58 48 59 49 60 50 61 102 62 51 63
REMARK SMILES IDX 101 64 52 65 53 66 54 67 95 68 55 69 100 70 94 71 96 72
REMARK SMILES IDX 56 73 99 74 93 75 92 76 57 78 83 79 66 80 82 81 67 82 70 83
REMARK SMILES IDX 81 84 97 85 68 86 69 87 80 89 98 90 71 91 58 92 59 93 64 94
REMARK SMILES IDX 60 95 61 96 63 97 65 98 62 99 84 100 85 101 90 102 86 103
REMARK SMILES IDX 87 104 89 105 91 106 88 107 72 108 73 109 78 110 74 111
REMARK SMILES IDX 75 112 77 113 79 114 76 115
REMARK H PARENT 30 12 16 17 21 46 96 77 70 88
REMARK Flexibility Score: inf
ROOT
ATOM      1  C   UNL A   1      47.618  36.683  28.854  1.00  0.00     0.188 C 
ENDROOT
BRANCH   1   2
ATOM      2  O   UNL A   1      48.313  35.489  28.237  1.00  0.00    -0.376 OA
BRANCH   2   3
ATOM      3  C   UNL A   1      47.863  34.043  27.687  1.00  0.00     0.202 C 
BRANCH   3   4
ATOM      4  C   UNL A   1      47.395  32.360  28.327  1.00  0.00     0.261 C 
BRANCH   4   5
ATOM      5  O   UNL A   1      47.220  30.804  27.577  1.00  0.00    -0.462 OA
BRANCH   5   6
ATOM      6  C   UNL A   1      47.764  29.612  27.011  1.00  0.00     0.325 C 
ATOM      7  O   UNL A   1      48.870  29.102  27.251  1.00  0.00    -0.250 OA
BRANCH   6   8
ATOM      8  C   UNL A   1      46.776  28.566  26.225  1.00  0.00     0.238 C 
BRANCH   8   9
ATOM      9  N   UNL A   1      47.156  27.044  26.160  1.00  0.00    -0.343 N 
ATOM     10  C   UNL A   1      46.536  25.812  26.341  1.00  0.00     0.243 C 
ATOM     11  O   UNL A   1      47.252  24.898  26.789  1.00  0.00    -0.273 OA
ATOM     12  H   UNL A   1      48.104  26.929  25.921  1.00  0.00     0.164 HD
BRANCH  10  13
ATOM     13  C   UNL A   1      45.082  25.425  25.855  1.00  0.00     0.176 C 
BRANCH  13  14
ATOM     14  N   UNL A   1      44.323  26.445  25.073  1.00  0.00    -0.337 N 
ATOM     15  C   UNL A   1      43.108  27.119  25.246  1.00  0.00     0.293 C 
ATOM     16  O   UNL A   1      42.732  27.902  24.373  1.00  0.00    -0.265 OA
ATOM     17  H   UNL A   1      44.784  26.701  24.242  1.00  0.00     0.164 HD
BRANCH  15  18
ATOM     18  C   UNL A   1      42.205  26.944  26.485  1.00  0.00     0.252 C 
ATOM     19  O   UNL A   1      41.056  26.566  26.260  1.00  0.00    -0.283 OA
BRANCH  18  20
ATOM     20  C   UNL A   1      42.611  27.371  27.865  1.00  0.00     0.054 A 
ATOM     21  N   UNL A   1      43.577  28.207  29.763  1.00  0.00    -0.240 N 
ATOM     22  C   UNL A   1      43.843  27.654  28.496  1.00  0.00     0.117 A 
ATOM     23  C   UNL A   1      42.180  28.360  29.849  1.00  0.00     0.065 A 
ATOM     24  C   UNL A   1      41.643  27.488  28.910  1.00  0.00     0.012 A 
ATOM     25  C   UNL A   1      41.368  28.966  30.828  1.00  0.00     0.028 A 
ATOM     26  C   UNL A   1      40.329  27.014  29.107  1.00  0.00     0.011 A 
ATOM     27  C   UNL A   1      40.093  28.449  31.033  1.00  0.00     0.002 A 
ATOM     28  C   UNL A   1      39.599  27.443  30.218  1.00  0.00     0.001 A 
BRANCH  21  29
ATOM     29  S   UNL A   1      44.260  27.782  31.333  1.00  0.00     0.268 S 
ATOM     30  O   UNL A   1      45.608  27.357  31.004  1.00  0.00    -0.201 OA
ATOM     31  O   UNL A   1      43.268  26.816  31.809  1.00  0.00    -0.201 OA
BRANCH  29  32
ATOM     32  C   UNL A   1      44.433  28.745  32.803  1.00  0.00     0.088 A 
ATOM     33  C   UNL A   1      45.801  30.688  36.437  1.00  0.00     0.044 C 
ATOM     34  C   UNL A   1      45.304  30.064  35.162  1.00  0.00    -0.051 A 
ATOM     35  C   UNL A   1      46.215  29.337  34.412  1.00  0.00     0.005 A 
ATOM     36  C   UNL A   1      43.965  30.139  34.713  1.00  0.00     0.005 A 
ATOM     37  C   UNL A   1      45.785  28.710  33.254  1.00  0.00     0.022 A 
ATOM     38  C   UNL A   1      43.516  29.479  33.532  1.00  0.00     0.022 A 
ENDBRANCH  29  32
ENDBRANCH  21  29
ENDBRANCH  18  20
ENDBRANCH  15  18
ENDBRANCH  13  14
BRANCH  13  39
ATOM     39  C   UNL A   1      45.282  24.044  25.113  1.00  0.00     0.072 C 
BRANCH  39  40
ATOM     40  C   UNL A   1      44.067  23.151  25.268  1.00  0.00    -0.020 A 
ATOM     41  C   UNL A   1      43.001  23.342  26.136  1.00  0.00     0.087 A 
ATOM     42  C   UNL A   1      44.034  21.786  24.859  1.00  0.00     0.003 A 
ATOM     43  N   UNL A   1      42.445  22.110  26.391  1.00  0.00    -0.361 N 
ATOM     44  C   UNL A   1      43.132  21.137  25.701  1.00  0.00     0.046 A 
ATOM     45  C   UNL A   1      44.895  21.030  24.045  1.00  0.00     0.010 A 
ATOM     46  H   UNL A   1      41.672  21.948  26.980  1.00  0.00     0.166 HD
ATOM     47  C   UNL A   1      43.114  19.747  25.836  1.00  0.00     0.026 A 
ATOM     48  C   UNL A   1      44.949  19.651  24.225  1.00  0.00     0.001 A 
ATOM     49  C   UNL A   1      44.067  19.027  25.104  1.00  0.00     0.002 A 
ENDBRANCH  39  40
ENDBRANCH  13  39
ENDBRANCH  10  13
ENDBRANCH   8   9
ENDBRANCH   6   8
ENDBRANCH   5   6
ENDBRANCH   4   5
ENDBRANCH   3   4
ENDBRANCH   2   3
ENDBRANCH   1   2
BRANCH   1  50
ATOM     50  C   UNL A   1      46.307  37.289  28.220  1.00  0.00     0.188 C 
BRANCH  50  51
ATOM     51  O   UNL A   1      46.034  38.538  28.802  1.00  0.00    -0.377 OA
BRANCH  51  52
ATOM     52  C   UNL A   1      45.786  39.559  27.843  1.00  0.00     0.188 C 
BRANCH  52  53
ATOM     53  C   UNL A   1      44.312  39.971  27.608  1.00  0.00     0.188 C 
BRANCH  53  54
ATOM     54  O   UNL A   1      44.055  41.230  28.236  1.00  0.00    -0.376 OA
BRANCH  54  55
ATOM     55  C   UNL A   1      43.323  41.310  29.442  1.00  0.00     0.202 C 
BRANCH  55  56
ATOM     56  C   UNL A   1      43.705  40.325  30.550  1.00  0.00     0.261 C 
BRANCH  56  57
ATOM     57  O   UNL A   1      43.693  41.000  31.821  1.00  0.00    -0.460 OA
BRANCH  57  58
ATOM     58  C   UNL A   1      44.879  41.270  32.423  1.00  0.00     0.338 C 
ATOM     59  O   UNL A   1      45.790  41.929  31.956  1.00  0.00    -0.246 OA
BRANCH  58  60
ATOM     60  C   UNL A   1      44.985  40.375  33.623  1.00  0.00     0.060 A 
ATOM     61  C   UNL A   1      46.121  39.594  33.826  1.00  0.00     0.016 A 
ATOM     62  C   UNL A   1      43.813  40.028  34.298  1.00  0.00     0.016 A 
ATOM     63  C   UNL A   1      45.983  38.355  34.479  1.00  0.00     0.010 A 
ATOM     64  C   UNL A   1      43.653  38.718  34.725  1.00  0.00     0.010 A 
ATOM     65  C   UNL A   1      44.703  37.795  34.612  1.00  0.00    -0.014 A 
BRANCH  65  66
ATOM     66  C   UNL A   1      44.270  36.274  34.614  1.00  0.00     0.031 A 
ATOM     67  C   UNL A   1      43.904  36.083  33.086  1.00  0.00     0.074 A 
ATOM     68  C   UNL A   1      44.030  35.406  35.788  1.00  0.00     0.049 A 
ATOM     69  N   UNL A   1      42.749  35.761  32.560  1.00  0.00    -0.248 NA
ATOM     70  C   UNL A   1      44.795  36.636  32.047  1.00  0.00     0.031 C 
ATOM     71  C   UNL A   1      44.330  34.015  36.141  1.00  0.00     0.029 A 
ATOM     72  N   UNL A   1      43.045  35.485  36.908  1.00  0.00    -0.354 N 
ATOM     73  C   UNL A   1      42.885  35.722  31.191  1.00  0.00     0.074 A 
ATOM     74  C   UNL A   1      44.068  36.503  30.940  1.00  0.00     0.031 C 
ATOM     75  C   UNL A   1      43.364  33.476  36.974  1.00  0.00     0.029 A 
ATOM     76  C   UNL A   1      42.335  34.382  37.300  1.00  0.00     0.049 A 
ATOM     77  H   UNL A   1      42.903  36.343  37.368  1.00  0.00     0.167 HD
ATOM     78  C   UNL A   1      42.154  34.894  30.378  1.00  0.00     0.037 A 
ATOM     79  C   UNL A   1      41.031  34.246  37.719  1.00  0.00     0.037 A 
ATOM     80  C   UNL A   1      41.284  33.951  31.111  1.00  0.00     0.049 A 
ATOM     81  C   UNL A   1      39.938  33.682  36.747  1.00  0.00     0.074 A 
ATOM     82  C   UNL A   1      41.317  32.568  31.205  1.00  0.00     0.029 A 
ATOM     83  N   UNL A   1      40.317  34.356  32.051  1.00  0.00    -0.354 N 
ATOM     84  N   UNL A   1      40.045  33.472  35.457  1.00  0.00    -0.248 NA
ATOM     85  C   UNL A   1      38.569  33.382  37.194  1.00  0.00     0.031 C 
ATOM     86  C   UNL A   1      40.315  32.140  32.093  1.00  0.00     0.029 A 
ATOM     87  C   UNL A   1      39.717  33.250  32.650  1.00  0.00     0.049 A 
ATOM     88  H   UNL A   1      40.095  35.293  32.257  1.00  0.00     0.167 HD
ATOM     89  C   UNL A   1      38.798  33.260  34.884  1.00  0.00     0.074 A 
ATOM     90  C   UNL A   1      37.946  33.073  36.042  1.00  0.00     0.031 C 
ATOM     91  C   UNL A   1      38.544  33.282  33.525  1.00  0.00     0.037 A 
BRANCH  78  92
ATOM     92  C   UNL A   1      42.629  34.682  28.920  1.00  0.00     0.057 A 
ATOM     93  C   UNL A   1      43.614  33.747  28.553  1.00  0.00     0.134 A 
ATOM     94  C   UNL A   1      42.207  35.479  27.839  1.00  0.00     0.134 A 
ATOM     95  F   UNL A   1      43.914  32.692  29.316  1.00  0.00    -0.206 F 
ATOM     96  C   UNL A   1      44.318  33.805  27.338  1.00  0.00     0.040 A 
ATOM     97  C   UNL A   1      42.923  35.586  26.633  1.00  0.00     0.040 A 
ATOM     98  F   UNL A   1      41.058  36.171  27.902  1.00  0.00    -0.206 F 
ATOM     99  C   UNL A   1      44.022  34.778  26.399  1.00  0.00     0.006 A 
ENDBRANCH  78  92
BRANCH  79 100
ATOM    100  C   UNL A   1      40.671  35.233  38.802  1.00  0.00     0.057 A 
ATOM    101  C   UNL A   1      39.978  36.377  38.378  1.00  0.00     0.134 A 
ATOM    102  C   UNL A   1      40.650  34.980  40.176  1.00  0.00     0.134 A 
ATOM    103  F   UNL A   1      40.096  36.785  37.110  1.00  0.00    -0.206 F 
ATOM    104  C   UNL A   1      39.097  37.071  39.205  1.00  0.00     0.040 A 
ATOM    105  C   UNL A   1      39.751  35.656  41.024  1.00  0.00     0.040 A 
ATOM    106  F   UNL A   1      41.346  33.957  40.696  1.00  0.00    -0.206 F 
ATOM    107  C   UNL A   1      38.927  36.662  40.521  1.00  0.00     0.006 A 
ENDBRANCH  79 100
BRANCH  91 108
ATOM    108  C   UNL A   1      37.179  33.044  32.837  1.00  0.00     0.057 A 
ATOM    109  C   UNL A   1      36.657  31.796  32.469  1.00  0.00     0.134 A 
ATOM    110  C   UNL A   1      36.306  34.127  32.526  1.00  0.00     0.134 A 
ATOM    111  F   UNL A   1      37.219  30.654  32.882  1.00  0.00    -0.206 F 
ATOM    112  C   UNL A   1      35.480  31.651  31.708  1.00  0.00     0.040 A 
ATOM    113  C   UNL A   1      35.122  33.995  31.788  1.00  0.00     0.040 A 
ATOM    114  F   UNL A   1      36.531  35.378  32.950  1.00  0.00    -0.206 F 
ATOM    115  C   UNL A   1      34.721  32.753  31.341  1.00  0.00     0.006 A 
ENDBRANCH  91 108
ENDBRANCH  65  66
ENDBRANCH  58  60
ENDBRANCH  57  58
ENDBRANCH  56  57
ENDBRANCH  55  56
ENDBRANCH  54  55
ENDBRANCH  53  54
ENDBRANCH  52  53
ENDBRANCH  51  52
ENDBRANCH  50  51
ENDBRANCH   1  50
TORSDOF 29
ENDMDL
MODEL 3
REMARK VINA RESULT:      -7.4      3.882     10.398
REMARK SMILES Cc1ccc(S(=O)(=O)n2cc(C(=O)C(=O)N[C@@H](Cc3c[nH]c4ccccc34)C(=O)NCC(=O)OCCOCCOCCOCCOC(=O)c3ccc(-c4c5nc(c(-c6c(F)cccc6F)c6ccc([nH]6)c(-c6c(F)cccc6F)c6nc(c(-c7c(F)cccc7F)c7ccc4[nH]7)C=C6)C=C5)cc3)c3ccccc32)cc1
REMARK SMILES IDX 38 1 37 2 36 3 35 4 34 5 32 6 33 7 31 8 30 9 28 10 29 11
REMARK SMILES IDX 17 13 16 14 14 15 15 16 12 18 13 19 11 20 9 21 10 22 108 23
REMARK SMILES IDX 103 24 107 25 104 26 106 27 105 28 6 29 7 30 8 31 5 32 1 33
REMARK SMILES IDX 2 34 3 35 110 36 4 37 109 38 18 39 19 40 20 41 27 42 21 43
REMARK SMILES IDX 22 44 26 45 23 47 25 48 24 49 39 50 40 51 41 52 42 53 43 54
REMARK SMILES IDX 44 55 45 56 46 57 47 58 48 59 49 60 50 61 102 62 51 63
REMARK SMILES IDX 101 64 52 65 53 66 54 67 95 68 55 69 100 70 94 71 96 72
REMARK SMILES IDX 56 73 99 74 93 75 92 76 57 78 83 79 66 80 82 81 67 82 70 83
REMARK SMILES IDX 81 84 97 85 68 86 69 87 80 89 98 90 71 91 58 92 59 93 64 94
REMARK SMILES IDX 60 95 61 96 63 97 65 98 62 99 84 100 85 101 90 102 86 103
REMARK SMILES IDX 87 104 89 105 91 106 88 107 72 108 73 109 78 110 74 111
REMARK SMILES IDX 75 112 77 113 79 114 76 115
REMARK H PARENT 30 12 16 17 21 46 96 77 70 88
REMARK Flexibility Score: inf
ROOT
ATOM      1  C   UNL A   1      46.863  38.586  37.130  1.00  0.00     0.188 C 
ENDROOT
BRANCH   1   2
ATOM      2  O   UNL A   1      47.126  37.687  38.319  1.00  0.00    -0.376 OA
BRANCH   2   3
ATOM      3  C   UNL A   1      46.308  36.550  39.116  1.00  0.00     0.202 C 
BRANCH   3   4
ATOM      4  C   UNL A   1      44.660  35.690  39.072  1.00  0.00     0.261 C 
BRANCH   4   5
ATOM      5  O   UNL A   1      43.068  36.183  38.583  1.00  0.00    -0.462 OA
BRANCH   5   6
ATOM      6  C   UNL A   1      41.659  36.267  38.789  1.00  0.00     0.325 C 
ATOM      7  O   UNL A   1      40.898  37.179  38.424  1.00  0.00    -0.250 OA
BRANCH   6   8
ATOM      8  C   UNL A   1      40.824  34.927  39.230  1.00  0.00     0.238 C 
BRANCH   8   9
ATOM      9  N   UNL A   1      40.480  33.839  38.152  1.00  0.00    -0.343 N 
ATOM     10  C   UNL A   1      39.526  33.626  37.163  1.00  0.00     0.243 C 
ATOM     11  O   UNL A   1      39.219  32.440  36.942  1.00  0.00    -0.273 OA
ATOM     12  H   UNL A   1      41.124  33.095  38.186  1.00  0.00     0.164 HD
BRANCH  10  13
ATOM     13  C   UNL A   1      38.950  34.721  36.178  1.00  0.00     0.176 C 
BRANCH  13  14
ATOM     14  N   UNL A   1      39.839  35.867  35.829  1.00  0.00    -0.337 N 
ATOM     15  C   UNL A   1      41.048  36.005  35.134  1.00  0.00     0.293 C 
ATOM     16  O   UNL A   1      41.560  37.121  35.045  1.00  0.00    -0.265 OA
ATOM     17  H   UNL A   1      39.496  36.727  36.166  1.00  0.00     0.164 HD
BRANCH  15  18
ATOM     18  C   UNL A   1      41.781  34.826  34.459  1.00  0.00     0.252 C 
ATOM     19  O   UNL A   1      41.646  34.742  33.238  1.00  0.00    -0.283 OA
BRANCH  18  20
ATOM     20  C   UNL A   1      42.467  33.736  35.226  1.00  0.00     0.054 A 
ATOM     21  N   UNL A   1      43.558  32.382  36.715  1.00  0.00    -0.240 N 
ATOM     22  C   UNL A   1      43.458  33.702  36.234  1.00  0.00     0.117 A 
ATOM     23  C   UNL A   1      42.546  31.644  36.072  1.00  0.00     0.065 A 
ATOM     24  C   UNL A   1      42.219  32.361  34.928  1.00  0.00     0.012 A 
ATOM     25  C   UNL A   1      42.105  30.318  36.252  1.00  0.00     0.028 A 
ATOM     26  C   UNL A   1      41.662  31.665  33.835  1.00  0.00     0.011 A 
ATOM     27  C   UNL A   1      41.603  29.639  35.145  1.00  0.00     0.002 A 
ATOM     28  C   UNL A   1      41.437  30.290  33.933  1.00  0.00     0.001 A 
BRANCH  21  29
ATOM     29  S   UNL A   1      44.995  31.392  36.967  1.00  0.00     0.268 S 
ATOM     30  O   UNL A   1      44.723  30.728  38.229  1.00  0.00    -0.201 OA
ATOM     31  O   UNL A   1      46.046  32.407  36.869  1.00  0.00    -0.201 OA
BRANCH  29  32
ATOM     32  C   UNL A   1      45.719  30.147  35.946  1.00  0.00     0.088 A 
ATOM     33  C   UNL A   1      47.572  27.859  32.754  1.00  0.00     0.044 C 
ATOM     34  C   UNL A   1      46.963  28.625  33.897  1.00  0.00    -0.051 A 
ATOM     35  C   UNL A   1      46.865  30.000  33.759  1.00  0.00     0.005 A 
ATOM     36  C   UNL A   1      46.454  28.024  35.071  1.00  0.00     0.005 A 
ATOM     37  C   UNL A   1      46.269  30.737  34.771  1.00  0.00     0.022 A 
ATOM     38  C   UNL A   1      45.824  28.777  36.105  1.00  0.00     0.022 A 
ENDBRANCH  29  32
ENDBRANCH  21  29
ENDBRANCH  18  20
ENDBRANCH  15  18
ENDBRANCH  13  14
BRANCH  13  39
ATOM     39  C   UNL A   1      38.437  33.887  34.937  1.00  0.00     0.072 C 
BRANCH  39  40
ATOM     40  C   UNL A   1      36.987  34.199  34.623  1.00  0.00    -0.020 A 
ATOM     41  C   UNL A   1      35.894  33.994  35.454  1.00  0.00     0.087 A 
ATOM     42  C   UNL A   1      36.483  34.353  33.299  1.00  0.00     0.003 A 
ATOM     43  N   UNL A   1      34.784  33.849  34.654  1.00  0.00    -0.361 N 
ATOM     44  C   UNL A   1      35.146  33.961  33.330  1.00  0.00     0.046 A 
ATOM     45  C   UNL A   1      37.130  34.522  32.063  1.00  0.00     0.010 A 
ATOM     46  H   UNL A   1      33.868  33.689  34.980  1.00  0.00     0.166 HD
ATOM     47  C   UNL A   1      34.442  33.636  32.168  1.00  0.00     0.026 A 
ATOM     48  C   UNL A   1      36.473  34.125  30.902  1.00  0.00     0.001 A 
ATOM     49  C   UNL A   1      35.150  33.694  30.961  1.00  0.00     0.002 A 
ENDBRANCH  39  40
ENDBRANCH  13  39
ENDBRANCH  10  13
ENDBRANCH   8   9
ENDBRANCH   6   8
ENDBRANCH   5   6
ENDBRANCH   4   5
ENDBRANCH   3   4
ENDBRANCH   2   3
ENDBRANCH   1   2
BRANCH   1  50
ATOM     50  C   UNL A   1      45.395  38.880  36.633  1.00  0.00     0.188 C 
BRANCH  50  51
ATOM     51  O   UNL A   1      44.957  40.109  37.156  1.00  0.00    -0.377 OA
BRANCH  51  52
ATOM     52  C   UNL A   1      45.280  41.216  36.324  1.00  0.00     0.188 C 
BRANCH  52  53
ATOM     53  C   UNL A   1      44.120  41.884  35.547  1.00  0.00     0.188 C 
BRANCH  53  54
ATOM     54  O   UNL A   1      44.058  41.356  34.220  1.00  0.00    -0.376 OA
BRANCH  54  55
ATOM     55  C   UNL A   1      45.011  41.721  33.242  1.00  0.00     0.202 C 
BRANCH  55  56
ATOM     56  C   UNL A   1      45.635  40.586  32.426  1.00  0.00     0.261 C 
BRANCH  56  57
ATOM     57  O   UNL A   1      44.957  40.471  31.162  1.00  0.00    -0.460 OA
BRANCH  57  58
ATOM     58  C   UNL A   1      45.293  39.447  30.337  1.00  0.00     0.338 C 
ATOM     59  O   UNL A   1      46.228  39.427  29.558  1.00  0.00    -0.246 OA
BRANCH  58  60
ATOM     60  C   UNL A   1      44.147  38.478  30.338  1.00  0.00     0.060 A 
ATOM     61  C   UNL A   1      44.136  37.393  31.213  1.00  0.00     0.016 A 
ATOM     62  C   UNL A   1      43.314  38.434  29.218  1.00  0.00     0.016 A 
ATOM     63  C   UNL A   1      43.503  36.204  30.808  1.00  0.00     0.010 A 
ATOM     64  C   UNL A   1      42.903  37.198  28.741  1.00  0.00     0.010 A 
ATOM     65  C   UNL A   1      43.196  36.024  29.451  1.00  0.00    -0.014 A 
BRANCH  65  66
ATOM     66  C   UNL A   1      43.171  34.693  28.596  1.00  0.00     0.031 A 
ATOM     67  C   UNL A   1      41.959  33.940  29.282  1.00  0.00     0.074 A 
ATOM     68  C   UNL A   1      44.188  34.223  27.630  1.00  0.00     0.049 A 
ATOM     69  N   UNL A   1      41.967  32.793  29.913  1.00  0.00    -0.248 NA
ATOM     70  C   UNL A   1      40.724  34.683  29.601  1.00  0.00     0.031 C 
ATOM     71  C   UNL A   1      44.162  33.574  26.315  1.00  0.00     0.029 A 
ATOM     72  N   UNL A   1      45.629  33.862  27.788  1.00  0.00    -0.354 N 
ATOM     73  C   UNL A   1      40.693  32.530  30.362  1.00  0.00     0.074 A 
ATOM     74  C   UNL A   1      40.055  33.820  30.362  1.00  0.00     0.031 C 
ATOM     75  C   UNL A   1      45.252  32.739  26.132  1.00  0.00     0.029 A 
ATOM     76  C   UNL A   1      46.133  32.717  27.233  1.00  0.00     0.049 A 
ATOM     77  H   UNL A   1      46.223  34.456  28.300  1.00  0.00     0.167 HD
ATOM     78  C   UNL A   1      40.183  31.264  30.505  1.00  0.00     0.037 A 
ATOM     79  C   UNL A   1      47.067  31.820  27.698  1.00  0.00     0.037 A 
ATOM     80  C   UNL A   1      41.083  30.198  30.018  1.00  0.00     0.049 A 
ATOM     81  C   UNL A   1      46.618  30.444  28.299  1.00  0.00     0.074 A 
ATOM     82  C   UNL A   1      40.950  29.307  28.963  1.00  0.00     0.029 A 
ATOM     83  N   UNL A   1      42.404  30.028  30.473  1.00  0.00    -0.354 N 
ATOM     84  N   UNL A   1      45.402  30.063  28.609  1.00  0.00    -0.248 NA
ATOM     85  C   UNL A   1      47.582  29.397  28.671  1.00  0.00     0.031 C 
ATOM     86  C   UNL A   1      42.120  28.536  28.858  1.00  0.00     0.029 A 
ATOM     87  C   UNL A   1      43.042  29.007  29.769  1.00  0.00     0.049 A 
ATOM     88  H   UNL A   1      42.822  30.558  31.189  1.00  0.00     0.167 HD
ATOM     89  C   UNL A   1      45.425  28.915  29.389  1.00  0.00     0.074 A 
ATOM     90  C   UNL A   1      46.801  28.476  29.264  1.00  0.00     0.031 C 
ATOM     91  C   UNL A   1      44.344  28.425  30.097  1.00  0.00     0.037 A 
BRANCH  78  92
ATOM     92  C   UNL A   1      38.654  31.099  30.675  1.00  0.00     0.057 A 
ATOM     93  C   UNL A   1      38.022  30.980  31.926  1.00  0.00     0.134 A 
ATOM     94  C   UNL A   1      37.762  30.937  29.598  1.00  0.00     0.134 A 
ATOM     95  F   UNL A   1      38.588  31.415  33.055  1.00  0.00    -0.206 F 
ATOM     96  C   UNL A   1      36.728  30.456  32.090  1.00  0.00     0.040 A 
ATOM     97  C   UNL A   1      36.481  30.372  29.734  1.00  0.00     0.040 A 
ATOM     98  F   UNL A   1      38.092  31.350  28.364  1.00  0.00    -0.206 F 
ATOM     99  C   UNL A   1      35.977  30.079  30.990  1.00  0.00     0.006 A 
ENDBRANCH  78  92
BRANCH  79 100
ATOM    100  C   UNL A   1      48.328  32.500  28.174  1.00  0.00     0.057 A 
ATOM    101  C   UNL A   1      48.487  32.582  29.565  1.00  0.00     0.134 A 
ATOM    102  C   UNL A   1      49.473  32.742  27.411  1.00  0.00     0.134 A 
ATOM    103  F   UNL A   1      47.409  32.538  30.354  1.00  0.00    -0.206 F 
ATOM    104  C   UNL A   1      49.739  32.626  30.176  1.00  0.00     0.040 A 
ATOM    105  C   UNL A   1      50.748  32.768  28.008  1.00  0.00     0.040 A 
ATOM    106  F   UNL A   1      49.413  32.766  26.071  1.00  0.00    -0.206 F 
ATOM    107  C   UNL A   1      50.883  32.646  29.391  1.00  0.00     0.006 A 
ENDBRANCH  79 100
BRANCH  91 108
ATOM    108  C   UNL A   1      44.314  27.149  30.972  1.00  0.00     0.057 A 
ATOM    109  C   UNL A   1      44.039  27.109  32.346  1.00  0.00     0.134 A 
ATOM    110  C   UNL A   1      44.561  25.861  30.415  1.00  0.00     0.134 A 
ATOM    111  F   UNL A   1      43.561  28.176  32.995  1.00  0.00    -0.206 F 
ATOM    112  C   UNL A   1      44.176  25.940  33.122  1.00  0.00     0.040 A 
ATOM    113  C   UNL A   1      44.679  24.687  31.171  1.00  0.00     0.040 A 
ATOM    114  F   UNL A   1      44.668  25.656  29.095  1.00  0.00    -0.206 F 
ATOM    115  C   UNL A   1      44.523  24.728  32.541  1.00  0.00     0.006 A 
ENDBRANCH  91 108
ENDBRANCH  65  66
ENDBRANCH  58  60
ENDBRANCH  57  58
ENDBRANCH  56  57
ENDBRANCH  55  56
ENDBRANCH  54  55
ENDBRANCH  53  54
ENDBRANCH  52  53
ENDBRANCH  51  52
ENDBRANCH  50  51
ENDBRANCH   1  50
TORSDOF 29
ENDMDL
