MODEL 1
REMARK VINA RESULT:     -10.4      0.000      0.000
REMARK SMILES CC1(C)[C@H](C(=O)Nc2cccc3[nH]ccc23)[C@H]1C(=O)OCCOCCOCCOCCOC(=O)c1ccc(-c2c3nc(c(-c4c(F)cccc4F)c4ccc([nH]4)c(-c4c(F)cccc4F)c4nc(c(-c5c(F)cccc5F)c5ccc2[nH]5)C=C4)C=C3)cc1
REMARK SMILES IDX 26 1 25 2 24 3 23 4 22 5 21 6 20 7 18 8 19 9 17 10 1 11 2 12
REMARK SMILES IDX 3 13 4 14 5 15 6 16 7 17 8 19 9 20 16 21 10 22 12 23 15 24
REMARK SMILES IDX 11 25 13 26 14 27 27 29 28 30 29 31 30 32 31 33 32 34 33 35
REMARK SMILES IDX 34 36 35 37 36 38 88 39 37 40 87 41 38 42 39 43 40 44 81 45
REMARK SMILES IDX 41 46 86 47 80 48 82 49 42 50 85 51 79 52 78 53 43 55 69 56
REMARK SMILES IDX 52 57 68 58 53 59 56 60 67 61 83 62 54 63 55 64 66 66 84 67
REMARK SMILES IDX 57 68 44 69 45 70 50 71 46 72 47 73 49 74 51 75 48 76 70 77
REMARK SMILES IDX 71 78 76 79 72 80 73 81 75 82 77 83 74 84 58 85 59 86 64 87
REMARK SMILES IDX 60 88 61 89 63 90 65 91 62 92
REMARK H PARENT 7 18 13 28 82 54 56 65
REMARK Flexibility Score: inf
ROOT
ATOM      1  O   UNL A   1      34.710  21.675  26.220  1.00  0.00    -0.377 OA
ENDROOT
BRANCH   1   2
ATOM      2  C   UNL A   1      33.533  20.911  26.006  1.00  0.00     0.188 C 
BRANCH   2   3
ATOM      3  C   UNL A   1      32.429  21.497  25.109  1.00  0.00     0.188 C 
BRANCH   3   4
ATOM      4  O   UNL A   1      32.274  20.803  23.876  1.00  0.00    -0.376 OA
BRANCH   4   5
ATOM      5  C   UNL A   1      32.118  21.614  22.720  1.00  0.00     0.202 C 
BRANCH   5   6
ATOM      6  C   UNL A   1      32.177  23.135  22.935  1.00  0.00     0.261 C 
BRANCH   6   7
ATOM      7  O   UNL A   1      33.246  23.772  22.228  1.00  0.00    -0.463 OA
BRANCH   7   8
ATOM      8  C   UNL A   1      33.296  25.125  22.212  1.00  0.00     0.310 C 
ATOM      9  O   UNL A   1      33.556  25.827  21.257  1.00  0.00    -0.252 OA
BRANCH   8  10
ATOM     10  C   UNL A   1      32.857  25.689  23.513  1.00  0.00     0.118 C 
ATOM     11  C   UNL A   1      34.976  24.864  24.853  1.00  0.00     0.013 C 
ATOM     12  C   UNL A   1      33.645  25.581  24.822  1.00  0.00    -0.009 C 
ATOM     13  C   UNL A   1      32.875  25.380  26.103  1.00  0.00     0.013 C 
ATOM     14  C   UNL A   1      33.580  26.898  24.050  1.00  0.00     0.100 C 
BRANCH  14  15
ATOM     15  C   UNL A   1      32.873  28.150  24.466  1.00  0.00     0.228 C 
ATOM     16  O   UNL A   1      33.393  28.859  25.320  1.00  0.00    -0.274 OA
ATOM     17  N   UNL A   1      31.862  28.607  23.652  1.00  0.00    -0.325 N 
ATOM     18  H   UNL A   1      32.101  29.290  22.984  1.00  0.00     0.169 HD
BRANCH  17  19
ATOM     19  C   UNL A   1      30.518  28.189  23.687  1.00  0.00     0.050 A 
ATOM     20  C   UNL A   1      30.119  27.065  24.419  1.00  0.00     0.027 A 
ATOM     21  C   UNL A   1      29.525  28.919  22.993  1.00  0.00     0.023 A 
ATOM     22  C   UNL A   1      28.818  26.573  24.351  1.00  0.00     0.004 A 
ATOM     23  C   UNL A   1      28.225  28.406  22.946  1.00  0.00     0.047 A 
ATOM     24  C   UNL A   1      29.510  30.133  22.242  1.00  0.00     0.030 A 
ATOM     25  C   UNL A   1      27.851  27.219  23.583  1.00  0.00     0.027 A 
ATOM     26  N   UNL A   1      27.468  29.270  22.187  1.00  0.00    -0.361 N 
ATOM     27  C   UNL A   1      28.229  30.332  21.781  1.00  0.00     0.083 A 
ATOM     28  H   UNL A   1      26.516  29.143  21.969  1.00  0.00     0.166 HD
ENDBRANCH  17  19
ENDBRANCH  14  15
ENDBRANCH   8  10
ENDBRANCH   7   8
ENDBRANCH   6   7
ENDBRANCH   5   6
ENDBRANCH   4   5
ENDBRANCH   3   4
ENDBRANCH   2   3
ENDBRANCH   1   2
BRANCH   1  29
ATOM     29  C   UNL A   1      35.951  21.199  25.705  1.00  0.00     0.188 C 
BRANCH  29  30
ATOM     30  C   UNL A   1      37.132  22.166  25.470  1.00  0.00     0.188 C 
BRANCH  30  31
ATOM     31  O   UNL A   1      38.424  21.588  25.603  1.00  0.00    -0.376 OA
BRANCH  31  32
ATOM     32  C   UNL A   1      38.557  20.237  25.181  1.00  0.00     0.202 C 
BRANCH  32  33
ATOM     33  C   UNL A   1      39.539  19.406  26.013  1.00  0.00     0.261 C 
BRANCH  33  34
ATOM     34  O   UNL A   1      40.809  19.163  25.384  1.00  0.00    -0.460 OA
BRANCH  34  35
ATOM     35  C   UNL A   1      41.903  19.156  26.175  1.00  0.00     0.338 C 
ATOM     36  O   UNL A   1      42.644  18.222  26.416  1.00  0.00    -0.246 OA
BRANCH  35  37
ATOM     37  C   UNL A   1      42.156  20.547  26.588  1.00  0.00     0.060 A 
ATOM     38  C   UNL A   1      42.259  21.538  25.605  1.00  0.00     0.016 A 
ATOM     39  C   UNL A   1      42.289  20.861  27.941  1.00  0.00     0.016 A 
ATOM     40  C   UNL A   1      42.521  22.856  25.979  1.00  0.00     0.010 A 
ATOM     41  C   UNL A   1      42.571  22.175  28.312  1.00  0.00     0.010 A 
ATOM     42  C   UNL A   1      42.714  23.172  27.331  1.00  0.00    -0.014 A 
BRANCH  42  43
ATOM     43  C   UNL A   1      43.236  24.502  27.719  1.00  0.00     0.031 A 
ATOM     44  C   UNL A   1      42.254  25.565  28.120  1.00  0.00     0.074 A 
ATOM     45  C   UNL A   1      44.552  24.766  27.696  1.00  0.00     0.049 A 
ATOM     46  N   UNL A   1      42.466  26.819  28.421  1.00  0.00    -0.248 NA
ATOM     47  C   UNL A   1      40.841  25.157  28.184  1.00  0.00     0.031 C 
ATOM     48  C   UNL A   1      45.604  23.810  27.356  1.00  0.00     0.029 A 
ATOM     49  N   UNL A   1      45.226  25.935  27.951  1.00  0.00    -0.354 N 
ATOM     50  C   UNL A   1      41.216  27.350  28.713  1.00  0.00     0.074 A 
ATOM     51  C   UNL A   1      40.248  26.292  28.525  1.00  0.00     0.031 C 
ATOM     52  C   UNL A   1      46.793  24.436  27.408  1.00  0.00     0.029 A 
ATOM     53  C   UNL A   1      46.581  25.842  27.751  1.00  0.00     0.049 A 
ATOM     54  H   UNL A   1      44.780  26.760  28.250  1.00  0.00     0.167 HD
ATOM     55  C   UNL A   1      40.904  28.607  29.107  1.00  0.00     0.037 A 
ATOM     56  C   UNL A   1      47.533  26.793  27.812  1.00  0.00     0.037 A 
ATOM     57  C   UNL A   1      41.863  29.664  29.278  1.00  0.00     0.049 A 
ATOM     58  C   UNL A   1      47.147  28.208  28.159  1.00  0.00     0.074 A 
ATOM     59  C   UNL A   1      41.648  30.965  29.696  1.00  0.00     0.029 A 
ATOM     60  N   UNL A   1      43.220  29.543  29.023  1.00  0.00    -0.354 N 
ATOM     61  N   UNL A   1      45.969  28.693  28.466  1.00  0.00    -0.248 NA
ATOM     62  C   UNL A   1      48.227  29.207  28.160  1.00  0.00     0.031 C 
ATOM     63  C   UNL A   1      42.869  31.645  29.649  1.00  0.00     0.029 A 
ATOM     64  C   UNL A   1      43.851  30.756  29.243  1.00  0.00     0.049 A 
ATOM     65  H   UNL A   1      43.669  28.716  28.731  1.00  0.00     0.167 HD
ATOM     66  C   UNL A   1      46.167  30.047  28.714  1.00  0.00     0.074 A 
ATOM     67  C   UNL A   1      47.581  30.302  28.536  1.00  0.00     0.031 C 
ATOM     68  C   UNL A   1      45.260  30.993  29.057  1.00  0.00     0.037 A 
BRANCH  55  69
ATOM     69  C   UNL A   1      39.456  28.906  29.352  1.00  0.00     0.057 A 
ATOM     70  C   UNL A   1      38.622  29.390  28.337  1.00  0.00     0.134 A 
ATOM     71  C   UNL A   1      38.888  28.697  30.613  1.00  0.00     0.134 A 
ATOM     72  F   UNL A   1      39.111  29.629  27.110  1.00  0.00    -0.206 F 
ATOM     73  C   UNL A   1      37.276  29.674  28.573  1.00  0.00     0.040 A 
ATOM     74  C   UNL A   1      37.538  28.956  30.857  1.00  0.00     0.040 A 
ATOM     75  F   UNL A   1      39.634  28.235  31.629  1.00  0.00    -0.206 F 
ATOM     76  C   UNL A   1      36.730  29.452  29.836  1.00  0.00     0.006 A 
ENDBRANCH  55  69
BRANCH  56  77
ATOM     77  C   UNL A   1      48.946  26.452  27.511  1.00  0.00     0.057 A 
ATOM     78  C   UNL A   1      49.466  26.593  26.220  1.00  0.00     0.134 A 
ATOM     79  C   UNL A   1      49.799  25.947  28.500  1.00  0.00     0.134 A 
ATOM     80  F   UNL A   1      48.688  27.045  25.226  1.00  0.00    -0.206 F 
ATOM     81  C   UNL A   1      50.780  26.234  25.919  1.00  0.00     0.040 A 
ATOM     82  C   UNL A   1      51.122  25.605  28.219  1.00  0.00     0.040 A 
ATOM     83  F   UNL A   1      49.358  25.783  29.756  1.00  0.00    -0.206 F 
ATOM     84  C   UNL A   1      51.614  25.743  26.922  1.00  0.00     0.006 A 
ENDBRANCH  56  77
BRANCH  68  85
ATOM     85  C   UNL A   1      45.768  32.388  29.278  1.00  0.00     0.057 A 
ATOM     86  C   UNL A   1      46.258  32.803  30.522  1.00  0.00     0.134 A 
ATOM     87  C   UNL A   1      45.815  33.308  28.222  1.00  0.00     0.134 A 
ATOM     88  F   UNL A   1      46.231  31.973  31.575  1.00  0.00    -0.206 F 
ATOM     89  C   UNL A   1      46.761  34.091  30.713  1.00  0.00     0.040 A 
ATOM     90  C   UNL A   1      46.337  34.591  28.396  1.00  0.00     0.040 A 
ATOM     91  F   UNL A   1      45.370  32.970  27.004  1.00  0.00    -0.206 F 
ATOM     92  C   UNL A   1      46.808  34.987  29.647  1.00  0.00     0.006 A 
ENDBRANCH  68  85
ENDBRANCH  42  43
ENDBRANCH  35  37
ENDBRANCH  34  35
ENDBRANCH  33  34
ENDBRANCH  32  33
ENDBRANCH  31  32
ENDBRANCH  30  31
ENDBRANCH  29  30
ENDBRANCH   1  29
TORSDOF 22
ENDMDL
MODEL 2
REMARK VINA RESULT:     -10.4      1.028      5.982
REMARK SMILES CC1(C)[C@H](C(=O)Nc2cccc3[nH]ccc23)[C@H]1C(=O)OCCOCCOCCOCCOC(=O)c1ccc(-c2c3nc(c(-c4c(F)cccc4F)c4ccc([nH]4)c(-c4c(F)cccc4F)c4nc(c(-c5c(F)cccc5F)c5ccc2[nH]5)C=C4)C=C3)cc1
REMARK SMILES IDX 26 1 25 2 24 3 23 4 22 5 21 6 20 7 18 8 19 9 17 10 1 11 2 12
REMARK SMILES IDX 3 13 4 14 5 15 6 16 7 17 8 19 9 20 16 21 10 22 12 23 15 24
REMARK SMILES IDX 11 25 13 26 14 27 27 29 28 30 29 31 30 32 31 33 32 34 33 35
REMARK SMILES IDX 34 36 35 37 36 38 88 39 37 40 87 41 38 42 39 43 40 44 81 45
REMARK SMILES IDX 41 46 86 47 80 48 82 49 42 50 85 51 79 52 78 53 43 55 69 56
REMARK SMILES IDX 52 57 68 58 53 59 56 60 67 61 83 62 54 63 55 64 66 66 84 67
REMARK SMILES IDX 57 68 44 69 45 70 50 71 46 72 47 73 49 74 51 75 48 76 70 77
REMARK SMILES IDX 71 78 76 79 72 80 73 81 75 82 77 83 74 84 58 85 59 86 64 87
REMARK SMILES IDX 60 88 61 89 63 90 65 91 62 92
REMARK H PARENT 7 18 13 28 82 54 56 65
REMARK Flexibility Score: inf
ROOT
ATOM      1  O   UNL A   1      34.911  21.102  25.311  1.00  0.00    -0.377 OA
ENDROOT
BRANCH   1   2
ATOM      2  C   UNL A   1      33.950  20.231  24.733  1.00  0.00     0.188 C 
BRANCH   2   3
ATOM      3  C   UNL A   1      32.561  20.795  24.387  1.00  0.00     0.188 C 
BRANCH   3   4
ATOM      4  O   UNL A   1      32.155  20.519  23.052  1.00  0.00    -0.376 OA
BRANCH   4   5
ATOM      5  C   UNL A   1      31.902  21.651  22.231  1.00  0.00     0.202 C 
BRANCH   5   6
ATOM      6  C   UNL A   1      32.333  23.015  22.791  1.00  0.00     0.261 C 
BRANCH   6   7
ATOM      7  O   UNL A   1      33.234  23.727  21.936  1.00  0.00    -0.463 OA
BRANCH   7   8
ATOM      8  C   UNL A   1      33.364  25.064  22.101  1.00  0.00     0.310 C 
ATOM      9  O   UNL A   1      33.652  25.873  21.244  1.00  0.00    -0.252 OA
BRANCH   8  10
ATOM     10  C   UNL A   1      32.975  25.471  23.475  1.00  0.00     0.118 C 
ATOM     11  C   UNL A   1      35.164  24.543  24.621  1.00  0.00     0.013 C 
ATOM     12  C   UNL A   1      33.823  25.233  24.728  1.00  0.00    -0.009 C 
ATOM     13  C   UNL A   1      33.115  24.875  26.011  1.00  0.00     0.013 C 
ATOM     14  C   UNL A   1      33.704  26.626  24.112  1.00  0.00     0.100 C 
BRANCH  14  15
ATOM     15  C   UNL A   1      32.998  27.809  24.697  1.00  0.00     0.228 C 
ATOM     16  O   UNL A   1      33.517  28.392  25.643  1.00  0.00    -0.274 OA
ATOM     17  N   UNL A   1      31.990  28.378  23.952  1.00  0.00    -0.325 N 
ATOM     18  H   UNL A   1      32.233  29.146  23.386  1.00  0.00     0.169 HD
BRANCH  17  19
ATOM     19  C   UNL A   1      30.646  27.962  23.925  1.00  0.00     0.050 A 
ATOM     20  C   UNL A   1      30.221  26.810  24.598  1.00  0.00     0.027 A 
ATOM     21  C   UNL A   1      29.678  28.721  23.228  1.00  0.00     0.023 A 
ATOM     22  C   UNL A   1      28.922  26.325  24.467  1.00  0.00     0.004 A 
ATOM     23  C   UNL A   1      28.379  28.214  23.117  1.00  0.00     0.047 A 
ATOM     24  C   UNL A   1      29.689  29.964  22.526  1.00  0.00     0.030 A 
ATOM     25  C   UNL A   1      27.983  27.003  23.694  1.00  0.00     0.027 A 
ATOM     26  N   UNL A   1      27.649  29.109  22.368  1.00  0.00    -0.361 N 
ATOM     27  C   UNL A   1      28.424  30.184  22.030  1.00  0.00     0.083 A 
ATOM     28  H   UNL A   1      26.705  28.993  22.113  1.00  0.00     0.166 HD
ENDBRANCH  17  19
ENDBRANCH  14  15
ENDBRANCH   8  10
ENDBRANCH   7   8
ENDBRANCH   6   7
ENDBRANCH   5   6
ENDBRANCH   4   5
ENDBRANCH   3   4
ENDBRANCH   2   3
ENDBRANCH   1   2
BRANCH   1  29
ATOM     29  C   UNL A   1      36.282  20.711  25.326  1.00  0.00     0.188 C 
BRANCH  29  30
ATOM     30  C   UNL A   1      37.406  21.771  25.319  1.00  0.00     0.188 C 
BRANCH  30  31
ATOM     31  O   UNL A   1      38.704  21.280  25.620  1.00  0.00    -0.376 OA
BRANCH  31  32
ATOM     32  C   UNL A   1      38.949  19.913  25.312  1.00  0.00     0.202 C 
BRANCH  32  33
ATOM     33  C   UNL A   1      40.029  19.252  26.174  1.00  0.00     0.261 C 
BRANCH  33  34
ATOM     34  O   UNL A   1      41.291  19.052  25.514  1.00  0.00    -0.460 OA
BRANCH  34  35
ATOM     35  C   UNL A   1      42.410  19.334  26.215  1.00  0.00     0.338 C 
ATOM     36  O   UNL A   1      43.336  18.589  26.474  1.00  0.00    -0.246 OA
BRANCH  35  37
ATOM     37  C   UNL A   1      42.405  20.781  26.488  1.00  0.00     0.060 A 
ATOM     38  C   UNL A   1      42.219  21.672  25.425  1.00  0.00     0.016 A 
ATOM     39  C   UNL A   1      42.581  21.247  27.792  1.00  0.00     0.016 A 
ATOM     40  C   UNL A   1      42.235  23.046  25.664  1.00  0.00     0.010 A 
ATOM     41  C   UNL A   1      42.616  22.621  28.027  1.00  0.00     0.010 A 
ATOM     42  C   UNL A   1      42.469  23.525  26.960  1.00  0.00    -0.014 A 
BRANCH  42  43
ATOM     43  C   UNL A   1      42.736  24.963  27.187  1.00  0.00     0.031 A 
ATOM     44  C   UNL A   1      44.079  25.511  26.797  1.00  0.00     0.074 A 
ATOM     45  C   UNL A   1      41.812  25.762  27.746  1.00  0.00     0.049 A 
ATOM     46  N   UNL A   1      44.568  26.711  26.970  1.00  0.00    -0.248 NA
ATOM     47  C   UNL A   1      44.994  24.574  26.126  1.00  0.00     0.031 C 
ATOM     48  C   UNL A   1      40.464  25.356  28.137  1.00  0.00     0.029 A 
ATOM     49  N   UNL A   1      41.882  27.088  28.096  1.00  0.00    -0.354 N 
ATOM     50  C   UNL A   1      45.846  26.675  26.428  1.00  0.00     0.074 A 
ATOM     51  C   UNL A   1      46.068  25.329  25.946  1.00  0.00     0.031 C 
ATOM     52  C   UNL A   1      39.837  26.410  28.690  1.00  0.00     0.029 A 
ATOM     53  C   UNL A   1      40.751  27.550  28.722  1.00  0.00     0.049 A 
ATOM     54  H   UNL A   1      42.668  27.652  27.915  1.00  0.00     0.167 HD
ATOM     55  C   UNL A   1      46.752  27.677  26.335  1.00  0.00     0.037 A 
ATOM     56  C   UNL A   1      40.500  28.750  29.280  1.00  0.00     0.037 A 
ATOM     57  C   UNL A   1      46.538  29.010  26.828  1.00  0.00     0.049 A 
ATOM     58  C   UNL A   1      41.560  29.820  29.249  1.00  0.00     0.074 A 
ATOM     59  C   UNL A   1      47.386  30.100  26.762  1.00  0.00     0.029 A 
ATOM     60  N   UNL A   1      45.397  29.428  27.495  1.00  0.00    -0.354 N 
ATOM     61  N   UNL A   1      42.752  29.789  28.706  1.00  0.00    -0.248 NA
ATOM     62  C   UNL A   1      41.239  31.090  29.919  1.00  0.00     0.031 C 
ATOM     63  C   UNL A   1      46.777  31.167  27.431  1.00  0.00     0.029 A 
ATOM     64  C   UNL A   1      45.532  30.753  27.875  1.00  0.00     0.049 A 
ATOM     65  H   UNL A   1      44.607  28.867  27.671  1.00  0.00     0.167 HD
ATOM     66  C   UNL A   1      43.316  31.036  28.950  1.00  0.00     0.074 A 
ATOM     67  C   UNL A   1      42.329  31.806  29.679  1.00  0.00     0.031 C 
ATOM     68  C   UNL A   1      44.541  31.502  28.605  1.00  0.00     0.037 A 
BRANCH  55  69
ATOM     69  C   UNL A   1      48.068  27.350  25.698  1.00  0.00     0.057 A 
ATOM     70  C   UNL A   1      49.177  26.956  26.457  1.00  0.00     0.134 A 
ATOM     71  C   UNL A   1      48.225  27.421  24.309  1.00  0.00     0.134 A 
ATOM     72  F   UNL A   1      49.096  26.887  27.794  1.00  0.00    -0.206 F 
ATOM     73  C   UNL A   1      50.402  26.661  25.858  1.00  0.00     0.040 A 
ATOM     74  C   UNL A   1      49.439  27.107  23.696  1.00  0.00     0.040 A 
ATOM     75  F   UNL A   1      47.201  27.794  23.526  1.00  0.00    -0.206 F 
ATOM     76  C   UNL A   1      50.533  26.732  24.473  1.00  0.00     0.006 A 
ENDBRANCH  55  69
BRANCH  56  77
ATOM     77  C   UNL A   1      39.195  29.004  29.942  1.00  0.00     0.057 A 
ATOM     78  C   UNL A   1      39.011  28.737  31.303  1.00  0.00     0.134 A 
ATOM     79  C   UNL A   1      38.096  29.488  29.223  1.00  0.00     0.134 A 
ATOM     80  F   UNL A   1      40.020  28.245  32.036  1.00  0.00    -0.206 F 
ATOM     81  C   UNL A   1      37.777  28.931  31.924  1.00  0.00     0.040 A 
ATOM     82  C   UNL A   1      36.861  29.709  29.836  1.00  0.00     0.040 A 
ATOM     83  F   UNL A   1      38.207  29.758  27.914  1.00  0.00    -0.206 F 
ATOM     84  C   UNL A   1      36.698  29.423  31.191  1.00  0.00     0.006 A 
ENDBRANCH  56  77
BRANCH  68  85
ATOM     85  C   UNL A   1      44.877  32.912  28.994  1.00  0.00     0.057 A 
ATOM     86  C   UNL A   1      45.575  33.202  30.173  1.00  0.00     0.134 A 
ATOM     87  C   UNL A   1      44.543  33.984  28.157  1.00  0.00     0.134 A 
ATOM     88  F   UNL A   1      45.914  32.221  31.022  1.00  0.00    -0.206 F 
ATOM     89  C   UNL A   1      45.915  34.513  30.514  1.00  0.00     0.040 A 
ATOM     90  C   UNL A   1      44.898  35.296  28.476  1.00  0.00     0.040 A 
ATOM     91  F   UNL A   1      43.883  33.773  27.009  1.00  0.00    -0.206 F 
ATOM     92  C   UNL A   1      45.583  35.563  29.660  1.00  0.00     0.006 A 
ENDBRANCH  68  85
ENDBRANCH  42  43
ENDBRANCH  35  37
ENDBRANCH  34  35
ENDBRANCH  33  34
ENDBRANCH  32  33
ENDBRANCH  31  32
ENDBRANCH  30  31
ENDBRANCH  29  30
ENDBRANCH   1  29
TORSDOF 22
ENDMDL
MODEL 3
REMARK VINA RESULT:     -10.3      3.925      7.930
REMARK SMILES CC1(C)[C@H](C(=O)Nc2cccc3[nH]ccc23)[C@H]1C(=O)OCCOCCOCCOCCOC(=O)c1ccc(-c2c3nc(c(-c4c(F)cccc4F)c4ccc([nH]4)c(-c4c(F)cccc4F)c4nc(c(-c5c(F)cccc5F)c5ccc2[nH]5)C=C4)C=C3)cc1
REMARK SMILES IDX 26 1 25 2 24 3 23 4 22 5 21 6 20 7 18 8 19 9 17 10 1 11 2 12
REMARK SMILES IDX 3 13 4 14 5 15 6 16 7 17 8 19 9 20 16 21 10 22 12 23 15 24
REMARK SMILES IDX 11 25 13 26 14 27 27 29 28 30 29 31 30 32 31 33 32 34 33 35
REMARK SMILES IDX 34 36 35 37 36 38 88 39 37 40 87 41 38 42 39 43 40 44 81 45
REMARK SMILES IDX 41 46 86 47 80 48 82 49 42 50 85 51 79 52 78 53 43 55 69 56
REMARK SMILES IDX 52 57 68 58 53 59 56 60 67 61 83 62 54 63 55 64 66 66 84 67
REMARK SMILES IDX 57 68 44 69 45 70 50 71 46 72 47 73 49 74 51 75 48 76 70 77
REMARK SMILES IDX 71 78 76 79 72 80 73 81 75 82 77 83 74 84 58 85 59 86 64 87
REMARK SMILES IDX 60 88 61 89 63 90 65 91 62 92
REMARK H PARENT 7 18 13 28 82 54 56 65
REMARK Flexibility Score: inf
ROOT
ATOM      1  O   UNL A   1      41.366  19.583  26.281  1.00  0.00    -0.377 OA
ENDROOT
BRANCH   1   2
ATOM      2  C   UNL A   1      40.445  20.628  26.557  1.00  0.00     0.188 C 
BRANCH   2   3
ATOM      3  C   UNL A   1      39.096  20.634  25.818  1.00  0.00     0.188 C 
BRANCH   3   4
ATOM      4  O   UNL A   1      38.493  21.920  25.750  1.00  0.00    -0.376 OA
BRANCH   4   5
ATOM      5  C   UNL A   1      37.111  21.943  25.421  1.00  0.00     0.202 C 
BRANCH   5   6
ATOM      6  C   UNL A   1      36.760  22.225  23.951  1.00  0.00     0.261 C 
BRANCH   6   7
ATOM      7  O   UNL A   1      36.060  23.458  23.756  1.00  0.00    -0.463 OA
BRANCH   7   8
ATOM      8  C   UNL A   1      34.806  23.418  23.247  1.00  0.00     0.310 C 
ATOM      9  O   UNL A   1      34.504  23.387  22.073  1.00  0.00    -0.252 OA
BRANCH   8  10
ATOM     10  C   UNL A   1      33.797  23.281  24.327  1.00  0.00     0.118 C 
ATOM     11  C   UNL A   1      34.973  24.988  25.962  1.00  0.00     0.013 C 
ATOM     12  C   UNL A   1      33.845  24.027  25.665  1.00  0.00    -0.009 C 
ATOM     13  C   UNL A   1      33.396  23.295  26.905  1.00  0.00     0.013 C 
ATOM     14  C   UNL A   1      32.853  24.430  24.574  1.00  0.00     0.100 C 
BRANCH  14  15
ATOM     15  C   UNL A   1      31.366  24.268  24.607  1.00  0.00     0.228 C 
ATOM     16  O   UNL A   1      30.893  23.162  24.368  1.00  0.00    -0.274 OA
ATOM     17  N   UNL A   1      30.633  25.260  25.218  1.00  0.00    -0.325 N 
ATOM     18  H   UNL A   1      30.396  25.122  26.163  1.00  0.00     0.169 HD
BRANCH  17  19
ATOM     19  C   UNL A   1      30.193  26.453  24.614  1.00  0.00     0.050 A 
ATOM     20  C   UNL A   1      28.958  26.532  23.960  1.00  0.00     0.027 A 
ATOM     21  C   UNL A   1      30.989  27.620  24.677  1.00  0.00     0.023 A 
ATOM     22  C   UNL A   1      28.578  27.669  23.252  1.00  0.00     0.004 A 
ATOM     23  C   UNL A   1      30.581  28.751  23.961  1.00  0.00     0.047 A 
ATOM     24  C   UNL A   1      32.219  27.966  25.313  1.00  0.00     0.030 A 
ATOM     25  C   UNL A   1      29.401  28.792  23.212  1.00  0.00     0.027 A 
ATOM     26  N   UNL A   1      31.534  29.726  24.151  1.00  0.00    -0.361 N 
ATOM     27  C   UNL A   1      32.514  29.270  24.990  1.00  0.00     0.083 A 
ATOM     28  H   UNL A   1      31.513  30.621  23.743  1.00  0.00     0.166 HD
ENDBRANCH  17  19
ENDBRANCH  14  15
ENDBRANCH   8  10
ENDBRANCH   7   8
ENDBRANCH   6   7
ENDBRANCH   5   6
ENDBRANCH   4   5
ENDBRANCH   3   4
ENDBRANCH   2   3
ENDBRANCH   1   2
BRANCH   1  29
ATOM     29  C   UNL A   1      42.579  19.888  25.598  1.00  0.00     0.188 C 
BRANCH  29  30
ATOM     30  C   UNL A   1      43.761  18.894  25.606  1.00  0.00     0.188 C 
BRANCH  30  31
ATOM     31  O   UNL A   1      45.043  19.475  25.407  1.00  0.00    -0.376 OA
BRANCH  31  32
ATOM     32  C   UNL A   1      45.069  20.736  24.752  1.00  0.00     0.202 C 
BRANCH  32  33
ATOM     33  C   UNL A   1      45.516  21.903  25.638  1.00  0.00     0.261 C 
BRANCH  33  34
ATOM     34  O   UNL A   1      44.445  22.646  26.245  1.00  0.00    -0.460 OA
BRANCH  34  35
ATOM     35  C   UNL A   1      43.776  23.521  25.465  1.00  0.00     0.338 C 
ATOM     36  O   UNL A   1      43.556  23.440  24.271  1.00  0.00    -0.246 OA
BRANCH  35  37
ATOM     37  C   UNL A   1      43.197  24.546  26.350  1.00  0.00     0.060 A 
ATOM     38  C   UNL A   1      43.747  25.833  26.349  1.00  0.00     0.016 A 
ATOM     39  C   UNL A   1      42.115  24.229  27.173  1.00  0.00     0.016 A 
ATOM     40  C   UNL A   1      43.224  26.808  27.199  1.00  0.00     0.010 A 
ATOM     41  C   UNL A   1      41.606  25.199  28.035  1.00  0.00     0.010 A 
ATOM     42  C   UNL A   1      42.176  26.484  28.070  1.00  0.00    -0.014 A 
BRANCH  42  43
ATOM     43  C   UNL A   1      41.780  27.424  29.143  1.00  0.00     0.031 A 
ATOM     44  C   UNL A   1      42.530  27.379  30.444  1.00  0.00     0.074 A 
ATOM     45  C   UNL A   1      40.764  28.285  28.973  1.00  0.00     0.049 A 
ATOM     46  N   UNL A   1      42.316  28.044  31.548  1.00  0.00    -0.248 NA
ATOM     47  C   UNL A   1      43.673  26.454  30.506  1.00  0.00     0.031 C 
ATOM     48  C   UNL A   1      39.982  28.444  27.749  1.00  0.00     0.029 A 
ATOM     49  N   UNL A   1      40.205  29.180  29.852  1.00  0.00    -0.354 N 
ATOM     50  C   UNL A   1      43.297  27.621  32.436  1.00  0.00     0.074 A 
ATOM     51  C   UNL A   1      44.089  26.622  31.752  1.00  0.00     0.031 C 
ATOM     52  C   UNL A   1      39.032  29.373  27.959  1.00  0.00     0.029 A 
ATOM     53  C   UNL A   1      39.118  29.844  29.341  1.00  0.00     0.049 A 
ATOM     54  H   UNL A   1      40.551  29.331  30.761  1.00  0.00     0.167 HD
ATOM     55  C   UNL A   1      43.519  28.032  33.706  1.00  0.00     0.037 A 
ATOM     56  C   UNL A   1      38.275  30.712  29.934  1.00  0.00     0.037 A 
ATOM     57  C   UNL A   1      42.723  29.013  34.391  1.00  0.00     0.049 A 
ATOM     58  C   UNL A   1      38.487  31.082  31.379  1.00  0.00     0.074 A 
ATOM     59  C   UNL A   1      42.882  29.512  35.671  1.00  0.00     0.029 A 
ATOM     60  N   UNL A   1      41.604  29.631  33.856  1.00  0.00    -0.354 N 
ATOM     61  N   UNL A   1      39.436  30.703  32.200  1.00  0.00    -0.248 NA
ATOM     62  C   UNL A   1      37.503  31.995  31.980  1.00  0.00     0.031 C 
ATOM     63  C   UNL A   1      41.831  30.399  35.928  1.00  0.00     0.029 A 
ATOM     64  C   UNL A   1      41.043  30.484  34.791  1.00  0.00     0.049 A 
ATOM     65  H   UNL A   1      41.260  29.486  32.944  1.00  0.00     0.167 HD
ATOM     66  C   UNL A   1      39.175  31.344  33.406  1.00  0.00     0.074 A 
ATOM     67  C   UNL A   1      37.988  32.147  33.204  1.00  0.00     0.031 C 
ATOM     68  C   UNL A   1      39.857  31.273  34.575  1.00  0.00     0.037 A 
BRANCH  55  69
ATOM     69  C   UNL A   1      44.660  27.395  34.440  1.00  0.00     0.057 A 
ATOM     70  C   UNL A   1      44.491  26.225  35.192  1.00  0.00     0.134 A 
ATOM     71  C   UNL A   1      45.943  27.950  34.384  1.00  0.00     0.134 A 
ATOM     72  F   UNL A   1      43.281  25.655  35.299  1.00  0.00    -0.206 F 
ATOM     73  C   UNL A   1      45.555  25.641  35.879  1.00  0.00     0.040 A 
ATOM     74  C   UNL A   1      47.021  27.363  35.049  1.00  0.00     0.040 A 
ATOM     75  F   UNL A   1      46.171  29.071  33.682  1.00  0.00    -0.206 F 
ATOM     76  C   UNL A   1      46.826  26.208  35.805  1.00  0.00     0.006 A 
ENDBRANCH  55  69
BRANCH  56  77
ATOM     77  C   UNL A   1      37.132  31.276  29.174  1.00  0.00     0.057 A 
ATOM     78  C   UNL A   1      37.162  32.586  28.687  1.00  0.00     0.134 A 
ATOM     79  C   UNL A   1      35.971  30.527  28.944  1.00  0.00     0.134 A 
ATOM     80  F   UNL A   1      38.236  33.360  28.900  1.00  0.00    -0.206 F 
ATOM     81  C   UNL A   1      36.074  33.139  28.009  1.00  0.00     0.040 A 
ATOM     82  C   UNL A   1      34.884  31.059  28.248  1.00  0.00     0.040 A 
ATOM     83  F   UNL A   1      35.877  29.266  29.391  1.00  0.00    -0.206 F 
ATOM     84  C   UNL A   1      34.933  32.372  27.783  1.00  0.00     0.006 A 
ENDBRANCH  56  77
BRANCH  68  85
ATOM     85  C   UNL A   1      39.347  32.096  35.722  1.00  0.00     0.057 A 
ATOM     86  C   UNL A   1      39.756  33.421  35.915  1.00  0.00     0.134 A 
ATOM     87  C   UNL A   1      38.398  31.574  36.611  1.00  0.00     0.134 A 
ATOM     88  F   UNL A   1      40.669  33.975  35.105  1.00  0.00    -0.206 F 
ATOM     89  C   UNL A   1      39.252  34.193  36.964  1.00  0.00     0.040 A 
ATOM     90  C   UNL A   1      37.871  32.343  37.649  1.00  0.00     0.040 A 
ATOM     91  F   UNL A   1      37.958  30.314  36.475  1.00  0.00    -0.206 F 
ATOM     92  C   UNL A   1      38.302  33.656  37.830  1.00  0.00     0.006 A 
ENDBRANCH  68  85
ENDBRANCH  42  43
ENDBRANCH  35  37
ENDBRANCH  34  35
ENDBRANCH  33  34
ENDBRANCH  32  33
ENDBRANCH  31  32
ENDBRANCH  30  31
ENDBRANCH  29  30
ENDBRANCH   1  29
TORSDOF 22
ENDMDL
