MODEL 1
REMARK VINA RESULT:      -7.2      0.000      0.000
REMARK SMILES Cc1c(CC(=O)N[C@H](CO)C(=O)OCCOCCOCCOCCOC(=O)c2ccc(-c3c4nc(c(-c5c(F)cccc5F)c5ccc([nH]5)c(-c5c(F)cccc5F)c5nc(c(-c6c(F)cccc6F)c6ccc3[nH]6)C=C5)C=C4)cc2)cc(-c2ccc(S(C)(=O)=O)cc2)n1-c1cccc(F)c1
REMARK SMILES IDX 17 1 16 2 15 3 14 4 13 5 11 6 12 7 8 8 7 9 5 10 6 11 4 13
REMARK SMILES IDX 3 14 1 15 2 16 94 17 82 18 83 19 95 20 96 21 101 22 97 23
REMARK SMILES IDX 99 24 98 25 100 26 84 27 85 28 93 29 86 30 92 31 87 32 88 33
REMARK SMILES IDX 89 34 90 35 91 36 9 37 10 38 18 40 19 41 20 42 21 43 22 44
REMARK SMILES IDX 23 45 24 46 25 47 26 48 27 49 28 50 29 51 81 52 30 53 80 54
REMARK SMILES IDX 31 55 32 56 33 57 74 58 34 59 79 60 73 61 75 62 35 63 78 64
REMARK SMILES IDX 72 65 71 66 36 68 62 69 45 70 61 71 46 72 49 73 60 74 76 75
REMARK SMILES IDX 47 76 48 77 59 79 77 80 50 81 37 82 38 83 43 84 39 85 40 86
REMARK SMILES IDX 42 87 44 88 41 89 63 90 64 91 69 92 65 93 66 94 68 95 70 96
REMARK SMILES IDX 67 97 51 98 52 99 57 100 53 101 54 102 56 103 58 104 55 105
REMARK H PARENT 7 12 10 39 75 67 49 78
REMARK Flexibility Score: inf
ROOT
ATOM      1  C   UNL A   1      36.723  34.940  32.068  1.00  0.00     0.188 C 
ENDROOT
BRANCH   1   2
ATOM      2  O   UNL A   1      36.947  33.858  31.167  1.00  0.00    -0.376 OA
BRANCH   2   3
ATOM      3  C   UNL A   1      35.834  33.074  30.738  1.00  0.00     0.202 C 
BRANCH   3   4
ATOM      4  C   UNL A   1      35.867  31.549  30.938  1.00  0.00     0.261 C 
BRANCH   4   5
ATOM      5  O   UNL A   1      37.190  30.979  30.948  1.00  0.00    -0.462 OA
BRANCH   5   6
ATOM      6  C   UNL A   1      37.333  29.770  31.540  1.00  0.00     0.331 C 
ATOM      7  O   UNL A   1      36.665  29.389  32.497  1.00  0.00    -0.250 OA
BRANCH   6   8
ATOM      8  C   UNL A   1      38.422  28.884  30.905  1.00  0.00     0.218 C 
BRANCH   8   9
ATOM      9  N   UNL A   1      38.244  28.987  29.452  1.00  0.00    -0.341 N 
ATOM     10  C   UNL A   1      39.179  29.156  28.480  1.00  0.00     0.225 C 
ATOM     11  O   UNL A   1      38.798  29.152  27.307  1.00  0.00    -0.275 OA
ATOM     12  H   UNL A   1      37.314  28.924  29.136  1.00  0.00     0.164 HD
BRANCH  10  13
ATOM     13  C   UNL A   1      40.643  29.356  28.841  1.00  0.00     0.137 C 
BRANCH  13  14
ATOM     14  C   UNL A   1      41.487  28.136  28.589  1.00  0.00    -0.017 A 
ATOM     15  C   UNL A   1      43.841  29.114  29.045  1.00  0.00     0.065 C 
ATOM     16  C   UNL A   1      42.867  28.026  28.710  1.00  0.00     0.024 A 
ATOM     17  N   UNL A   1      43.238  26.732  28.365  1.00  0.00    -0.313 N 
ATOM     18  C   UNL A   1      41.019  26.881  28.115  1.00  0.00     0.033 A 
ATOM     19  C   UNL A   1      42.099  26.025  27.976  1.00  0.00     0.053 A 
BRANCH  17  20
ATOM     20  C   UNL A   1      44.562  26.220  28.380  1.00  0.00     0.049 A 
ATOM     21  C   UNL A   1      45.102  25.721  29.575  1.00  0.00     0.027 A 
ATOM     22  C   UNL A   1      45.331  26.260  27.214  1.00  0.00     0.065 A 
ATOM     23  C   UNL A   1      46.419  25.261  29.601  1.00  0.00     0.005 A 
ATOM     24  C   UNL A   1      46.646  25.814  27.265  1.00  0.00     0.125 A 
ATOM     25  C   UNL A   1      47.194  25.316  28.444  1.00  0.00     0.039 A 
ATOM     26  F   UNL A   1      47.405  25.879  26.164  1.00  0.00    -0.207 F 
ENDBRANCH  17  20
BRANCH  19  27
ATOM     27  C   UNL A   1      42.087  24.616  27.558  1.00  0.00    -0.001 A 
ATOM     28  C   UNL A   1      41.931  24.263  26.207  1.00  0.00     0.011 A 
ATOM     29  C   UNL A   1      42.200  23.601  28.517  1.00  0.00     0.011 A 
ATOM     30  C   UNL A   1      41.840  22.920  25.826  1.00  0.00     0.021 A 
ATOM     31  C   UNL A   1      42.110  22.257  28.145  1.00  0.00     0.021 A 
ATOM     32  C   UNL A   1      41.913  21.925  26.802  1.00  0.00     0.067 A 
BRANCH  32  33
ATOM     33  S   UNL A   1      41.797  20.219  26.313  1.00  0.00     0.175 S 
ATOM     34  C   UNL A   1      42.271  19.312  27.761  1.00  0.00     0.163 C 
ATOM     35  O   UNL A   1      40.398  19.952  26.044  1.00  0.00    -0.224 OA
ATOM     36  O   UNL A   1      42.810  19.981  25.301  1.00  0.00    -0.224 OA
ENDBRANCH  32  33
ENDBRANCH  19  27
ENDBRANCH  13  14
ENDBRANCH  10  13
ENDBRANCH   8   9
BRANCH   8  37
ATOM     37  C   UNL A   1      38.516  27.426  31.398  1.00  0.00     0.193 C 
BRANCH  37  38
ATOM     38  O   UNL A   1      38.291  27.276  32.800  1.00  0.00    -0.394 OA
ATOM     39  H   UNL A   1      38.660  28.040  33.270  1.00  0.00     0.210 HD
ENDBRANCH  37  38
ENDBRANCH   8  37
ENDBRANCH   6   8
ENDBRANCH   5   6
ENDBRANCH   4   5
ENDBRANCH   3   4
ENDBRANCH   2   3
ENDBRANCH   1   2
BRANCH   1  40
ATOM     40  C   UNL A   1      35.508  34.871  33.016  1.00  0.00     0.188 C 
BRANCH  40  41
ATOM     41  O   UNL A   1      35.872  34.431  34.314  1.00  0.00    -0.377 OA
BRANCH  41  42
ATOM     42  C   UNL A   1      36.247  33.068  34.524  1.00  0.00     0.188 C 
BRANCH  42  43
ATOM     43  C   UNL A   1      37.660  32.793  35.055  1.00  0.00     0.188 C 
BRANCH  43  44
ATOM     44  O   UNL A   1      38.166  31.598  34.477  1.00  0.00    -0.376 OA
BRANCH  44  45
ATOM     45  C   UNL A   1      39.572  31.334  34.548  1.00  0.00     0.202 C 
BRANCH  45  46
ATOM     46  C   UNL A   1      40.142  29.994  33.996  1.00  0.00     0.261 C 
BRANCH  46  47
ATOM     47  O   UNL A   1      40.653  28.863  34.852  1.00  0.00    -0.460 OA
BRANCH  47  48
ATOM     48  C   UNL A   1      41.315  27.703  34.496  1.00  0.00     0.338 C 
ATOM     49  O   UNL A   1      41.238  27.216  33.380  1.00  0.00    -0.246 OA
BRANCH  48  50
ATOM     50  C   UNL A   1      42.222  27.086  35.651  1.00  0.00     0.060 A 
ATOM     51  C   UNL A   1      42.561  25.723  35.926  1.00  0.00     0.016 A 
ATOM     52  C   UNL A   1      42.942  27.901  36.462  1.00  0.00     0.016 A 
ATOM     53  C   UNL A   1      43.642  25.204  36.956  1.00  0.00     0.010 A 
ATOM     54  C   UNL A   1      43.941  27.340  37.389  1.00  0.00     0.010 A 
ATOM     55  C   UNL A   1      44.430  26.018  37.805  1.00  0.00    -0.014 A 
BRANCH  55  56
ATOM     56  C   UNL A   1      46.164  25.784  38.362  1.00  0.00     0.031 A 
ATOM     57  C   UNL A   1      46.009  24.429  38.998  1.00  0.00     0.074 A 
ATOM     58  C   UNL A   1      47.624  26.101  38.163  1.00  0.00     0.049 A 
ATOM     59  N   UNL A   1      45.221  23.640  38.317  1.00  0.00    -0.248 NA
ATOM     60  C   UNL A   1      47.046  23.642  39.631  1.00  0.00     0.031 C 
ATOM     61  C   UNL A   1      48.300  27.219  37.421  1.00  0.00     0.029 A 
ATOM     62  N   UNL A   1      48.945  25.367  38.504  1.00  0.00    -0.354 N 
ATOM     63  C   UNL A   1      46.170  23.018  37.570  1.00  0.00     0.074 A 
ATOM     64  C   UNL A   1      47.126  22.695  38.674  1.00  0.00     0.031 C 
ATOM     65  C   UNL A   1      49.670  27.111  37.347  1.00  0.00     0.029 A 
ATOM     66  C   UNL A   1      50.224  25.891  38.012  1.00  0.00     0.049 A 
ATOM     67  H   UNL A   1      48.926  24.548  39.049  1.00  0.00     0.167 HD
ATOM     68  C   UNL A   1      46.438  23.205  36.211  1.00  0.00     0.037 A 
ATOM     69  C   UNL A   1      51.658  25.657  38.025  1.00  0.00     0.037 A 
ATOM     70  C   UNL A   1      47.296  22.185  35.752  1.00  0.00     0.049 A 
ATOM     71  C   UNL A   1      51.339  24.439  37.123  1.00  0.00     0.074 A 
ATOM     72  C   UNL A   1      47.711  20.969  36.230  1.00  0.00     0.029 A 
ATOM     73  N   UNL A   1      47.981  22.379  34.586  1.00  0.00    -0.354 N 
ATOM     74  N   UNL A   1      51.552  24.444  35.840  1.00  0.00    -0.248 NA
ATOM     75  C   UNL A   1      51.100  23.122  37.760  1.00  0.00     0.031 C 
ATOM     76  C   UNL A   1      49.064  20.951  35.814  1.00  0.00     0.029 A 
ATOM     77  C   UNL A   1      49.251  22.004  34.902  1.00  0.00     0.049 A 
ATOM     78  H   UNL A   1      47.639  22.709  33.724  1.00  0.00     0.167 HD
ATOM     79  C   UNL A   1      51.193  23.167  35.489  1.00  0.00     0.074 A 
ATOM     80  C   UNL A   1      51.294  22.369  36.678  1.00  0.00     0.031 C 
ATOM     81  C   UNL A   1      50.276  22.948  34.524  1.00  0.00     0.037 A 
BRANCH  68  82
ATOM     82  C   UNL A   1      45.889  24.226  35.056  1.00  0.00     0.057 A 
ATOM     83  C   UNL A   1      46.085  25.634  34.896  1.00  0.00     0.134 A 
ATOM     84  C   UNL A   1      45.031  23.715  34.073  1.00  0.00     0.134 A 
ATOM     85  F   UNL A   1      46.914  26.331  35.654  1.00  0.00    -0.206 F 
ATOM     86  C   UNL A   1      45.370  26.462  34.003  1.00  0.00     0.040 A 
ATOM     87  C   UNL A   1      44.377  24.514  33.109  1.00  0.00     0.040 A 
ATOM     88  F   UNL A   1      44.797  22.399  34.015  1.00  0.00    -0.206 F 
ATOM     89  C   UNL A   1      44.498  25.898  33.103  1.00  0.00     0.006 A 
ENDBRANCH  68  82
BRANCH  69  90
ATOM     90  C   UNL A   1      53.296  25.097  38.179  1.00  0.00     0.057 A 
ATOM     91  C   UNL A   1      54.256  25.605  37.245  1.00  0.00     0.134 A 
ATOM     92  C   UNL A   1      53.974  24.098  38.979  1.00  0.00     0.134 A 
ATOM     93  F   UNL A   1      53.870  26.437  36.280  1.00  0.00    -0.206 F 
ATOM     94  C   UNL A   1      55.656  25.221  37.225  1.00  0.00     0.040 A 
ATOM     95  C   UNL A   1      55.350  23.752  39.007  1.00  0.00     0.040 A 
ATOM     96  F   UNL A   1      53.355  23.224  39.774  1.00  0.00    -0.206 F 
ATOM     97  C   UNL A   1      56.218  24.326  38.126  1.00  0.00     0.006 A 
ENDBRANCH  69  90
BRANCH  81  98
ATOM     98  C   UNL A   1      50.151  24.127  33.592  1.00  0.00     0.057 A 
ATOM     99  C   UNL A   1      49.351  25.208  33.958  1.00  0.00     0.134 A 
ATOM    100  C   UNL A   1      50.601  24.110  32.260  1.00  0.00     0.134 A 
ATOM    101  F   UNL A   1      48.820  25.258  35.188  1.00  0.00    -0.206 F 
ATOM    102  C   UNL A   1      49.040  26.234  33.058  1.00  0.00     0.040 A 
ATOM    103  C   UNL A   1      50.318  25.136  31.350  1.00  0.00     0.040 A 
ATOM    104  F   UNL A   1      51.276  23.051  31.802  1.00  0.00    -0.206 F 
ATOM    105  C   UNL A   1      49.527  26.205  31.752  1.00  0.00     0.006 A 
ENDBRANCH  81  98
ENDBRANCH  55  56
ENDBRANCH  48  50
ENDBRANCH  47  48
ENDBRANCH  46  47
ENDBRANCH  45  46
ENDBRANCH  44  45
ENDBRANCH  43  44
ENDBRANCH  42  43
ENDBRANCH  41  42
ENDBRANCH  40  41
ENDBRANCH   1  40
TORSDOF 28
ENDMDL
MODEL 2
REMARK VINA RESULT:      -7.0      5.059      9.939
REMARK SMILES Cc1c(CC(=O)N[C@H](CO)C(=O)OCCOCCOCCOCCOC(=O)c2ccc(-c3c4nc(c(-c5c(F)cccc5F)c5ccc([nH]5)c(-c5c(F)cccc5F)c5nc(c(-c6c(F)cccc6F)c6ccc3[nH]6)C=C5)C=C4)cc2)cc(-c2ccc(S(C)(=O)=O)cc2)n1-c1cccc(F)c1
REMARK SMILES IDX 17 1 16 2 15 3 14 4 13 5 11 6 12 7 8 8 7 9 5 10 6 11 4 13
REMARK SMILES IDX 3 14 1 15 2 16 94 17 82 18 83 19 95 20 96 21 101 22 97 23
REMARK SMILES IDX 99 24 98 25 100 26 84 27 85 28 93 29 86 30 92 31 87 32 88 33
REMARK SMILES IDX 89 34 90 35 91 36 9 37 10 38 18 40 19 41 20 42 21 43 22 44
REMARK SMILES IDX 23 45 24 46 25 47 26 48 27 49 28 50 29 51 81 52 30 53 80 54
REMARK SMILES IDX 31 55 32 56 33 57 74 58 34 59 79 60 73 61 75 62 35 63 78 64
REMARK SMILES IDX 72 65 71 66 36 68 62 69 45 70 61 71 46 72 49 73 60 74 76 75
REMARK SMILES IDX 47 76 48 77 59 79 77 80 50 81 37 82 38 83 43 84 39 85 40 86
REMARK SMILES IDX 42 87 44 88 41 89 63 90 64 91 69 92 65 93 66 94 68 95 70 96
REMARK SMILES IDX 67 97 51 98 52 99 57 100 53 101 54 102 56 103 58 104 55 105
REMARK H PARENT 7 12 10 39 75 67 49 78
REMARK Flexibility Score: inf
ROOT
ATOM      1  C   UNL A   1      49.388  31.229  27.782  1.00  0.00     0.188 C 
ENDROOT
BRANCH   1   2
ATOM      2  O   UNL A   1      49.986  31.713  26.581  1.00  0.00    -0.376 OA
BRANCH   2   3
ATOM      3  C   UNL A   1      49.737  33.059  26.179  1.00  0.00     0.202 C 
BRANCH   3   4
ATOM      4  C   UNL A   1      48.492  33.788  26.717  1.00  0.00     0.261 C 
BRANCH   4   5
ATOM      5  O   UNL A   1      47.389  33.841  25.792  1.00  0.00    -0.462 OA
BRANCH   5   6
ATOM      6  C   UNL A   1      46.202  34.274  26.278  1.00  0.00     0.331 C 
ATOM      7  O   UNL A   1      45.989  35.425  26.650  1.00  0.00    -0.250 OA
BRANCH   6   8
ATOM      8  C   UNL A   1      45.108  33.189  26.325  1.00  0.00     0.218 C 
BRANCH   8   9
ATOM      9  N   UNL A   1      45.667  32.010  25.655  1.00  0.00    -0.341 N 
ATOM     10  C   UNL A   1      45.882  30.760  26.148  1.00  0.00     0.225 C 
ATOM     11  O   UNL A   1      46.308  29.901  25.373  1.00  0.00    -0.275 OA
ATOM     12  H   UNL A   1      45.922  32.141  24.714  1.00  0.00     0.164 HD
BRANCH  10  13
ATOM     13  C   UNL A   1      45.613  30.450  27.612  1.00  0.00     0.137 C 
BRANCH  13  14
ATOM     14  C   UNL A   1      44.386  29.605  27.823  1.00  0.00    -0.017 A 
ATOM     15  C   UNL A   1      42.882  31.296  29.080  1.00  0.00     0.065 C 
ATOM     16  C   UNL A   1      43.194  29.984  28.429  1.00  0.00     0.024 A 
ATOM     17  N   UNL A   1      42.334  28.892  28.433  1.00  0.00    -0.313 N 
ATOM     18  C   UNL A   1      44.253  28.230  27.491  1.00  0.00     0.033 A 
ATOM     19  C   UNL A   1      42.994  27.798  27.871  1.00  0.00     0.053 A 
BRANCH  17  20
ATOM     20  C   UNL A   1      41.011  28.884  28.947  1.00  0.00     0.049 A 
ATOM     21  C   UNL A   1      40.765  28.374  30.230  1.00  0.00     0.027 A 
ATOM     22  C   UNL A   1      39.959  29.342  28.149  1.00  0.00     0.065 A 
ATOM     23  C   UNL A   1      39.458  28.322  30.716  1.00  0.00     0.005 A 
ATOM     24  C   UNL A   1      38.663  29.266  28.645  1.00  0.00     0.125 A 
ATOM     25  C   UNL A   1      38.404  28.764  29.917  1.00  0.00     0.039 A 
ATOM     26  F   UNL A   1      37.641  29.671  27.879  1.00  0.00    -0.207 F 
ENDBRANCH  17  20
BRANCH  19  27
ATOM     27  C   UNL A   1      42.401  26.465  27.684  1.00  0.00    -0.001 A 
ATOM     28  C   UNL A   1      42.574  25.455  28.645  1.00  0.00     0.011 A 
ATOM     29  C   UNL A   1      41.678  26.179  26.518  1.00  0.00     0.011 A 
ATOM     30  C   UNL A   1      42.075  24.167  28.424  1.00  0.00     0.021 A 
ATOM     31  C   UNL A   1      41.176  24.894  26.290  1.00  0.00     0.021 A 
ATOM     32  C   UNL A   1      41.394  23.891  27.237  1.00  0.00     0.067 A 
BRANCH  32  33
ATOM     33  S   UNL A   1      40.762  22.252  26.961  1.00  0.00     0.175 S 
ATOM     34  C   UNL A   1      41.972  21.482  25.917  1.00  0.00     0.163 C 
ATOM     35  O   UNL A   1      40.768  21.576  28.244  1.00  0.00    -0.224 OA
ATOM     36  O   UNL A   1      39.539  22.375  26.189  1.00  0.00    -0.224 OA
ENDBRANCH  32  33
ENDBRANCH  19  27
ENDBRANCH  13  14
ENDBRANCH  10  13
ENDBRANCH   8   9
BRANCH   8  37
ATOM     37  C   UNL A   1      43.713  33.577  25.797  1.00  0.00     0.193 C 
BRANCH  37  38
ATOM     38  O   UNL A   1      43.660  34.875  25.204  1.00  0.00    -0.394 OA
ATOM     39  H   UNL A   1      44.372  34.961  24.551  1.00  0.00     0.210 HD
ENDBRANCH  37  38
ENDBRANCH   8  37
ENDBRANCH   6   8
ENDBRANCH   5   6
ENDBRANCH   4   5
ENDBRANCH   3   4
ENDBRANCH   2   3
ENDBRANCH   1   2
BRANCH   1  40
ATOM     40  C   UNL A   1      49.542  29.735  28.132  1.00  0.00     0.188 C 
BRANCH  40  41
ATOM     41  O   UNL A   1      50.008  28.977  27.027  1.00  0.00    -0.377 OA
BRANCH  41  42
ATOM     42  C   UNL A   1      49.074  28.294  26.189  1.00  0.00     0.188 C 
BRANCH  42  43
ATOM     43  C   UNL A   1      49.513  26.958  25.577  1.00  0.00     0.188 C 
BRANCH  43  44
ATOM     44  O   UNL A   1      50.497  26.352  26.402  1.00  0.00    -0.376 OA
BRANCH  44  45
ATOM     45  C   UNL A   1      50.146  25.191  27.163  1.00  0.00     0.202 C 
BRANCH  45  46
ATOM     46  C   UNL A   1      48.666  24.959  27.592  1.00  0.00     0.261 C 
BRANCH  46  47
ATOM     47  O   UNL A   1      47.941  25.770  28.636  1.00  0.00    -0.460 OA
BRANCH  47  48
ATOM     48  C   UNL A   1      48.087  25.791  30.011  1.00  0.00     0.338 C 
ATOM     49  O   UNL A   1      49.176  25.732  30.559  1.00  0.00    -0.246 OA
BRANCH  48  50
ATOM     50  C   UNL A   1      46.720  25.948  30.813  1.00  0.00     0.060 A 
ATOM     51  C   UNL A   1      46.391  25.574  32.155  1.00  0.00     0.016 A 
ATOM     52  C   UNL A   1      45.695  26.660  30.281  1.00  0.00     0.016 A 
ATOM     53  C   UNL A   1      45.083  25.959  32.953  1.00  0.00     0.010 A 
ATOM     54  C   UNL A   1      44.512  26.989  31.096  1.00  0.00     0.010 A 
ATOM     55  C   UNL A   1      44.000  26.717  32.446  1.00  0.00    -0.014 A 
BRANCH  55  56
ATOM     56  C   UNL A   1      42.918  27.924  33.308  1.00  0.00     0.031 A 
ATOM     57  C   UNL A   1      42.693  27.148  34.577  1.00  0.00     0.074 A 
ATOM     58  C   UNL A   1      42.502  29.361  33.495  1.00  0.00     0.049 A 
ATOM     59  N   UNL A   1      43.767  26.526  34.986  1.00  0.00    -0.248 NA
ATOM     60  C   UNL A   1      41.914  27.565  35.724  1.00  0.00     0.031 C 
ATOM     61  C   UNL A   1      42.686  30.565  32.617  1.00  0.00     0.029 A 
ATOM     62  N   UNL A   1      41.874  30.160  34.665  1.00  0.00    -0.354 N 
ATOM     63  C   UNL A   1      44.236  27.484  35.828  1.00  0.00     0.074 A 
ATOM     64  C   UNL A   1      42.959  27.766  36.555  1.00  0.00     0.031 C 
ATOM     65  C   UNL A   1      42.280  31.753  33.181  1.00  0.00     0.029 A 
ATOM     66  C   UNL A   1      41.742  31.617  34.571  1.00  0.00     0.049 A 
ATOM     67  H   UNL A   1      41.564  29.689  35.472  1.00  0.00     0.167 HD
ATOM     68  C   UNL A   1      45.330  28.329  35.627  1.00  0.00     0.037 A 
ATOM     69  C   UNL A   1      41.263  32.789  35.283  1.00  0.00     0.037 A 
ATOM     70  C   UNL A   1      45.657  28.978  36.834  1.00  0.00     0.049 A 
ATOM     71  C   UNL A   1      42.460  32.546  36.234  1.00  0.00     0.074 A 
ATOM     72  C   UNL A   1      45.338  28.801  38.156  1.00  0.00     0.029 A 
ATOM     73  N   UNL A   1      46.423  30.107  36.786  1.00  0.00    -0.354 N 
ATOM     74  N   UNL A   1      43.545  33.262  36.190  1.00  0.00    -0.248 NA
ATOM     75  C   UNL A   1      42.256  31.707  37.439  1.00  0.00     0.031 C 
ATOM     76  C   UNL A   1      45.229  30.140  38.601  1.00  0.00     0.029 A 
ATOM     77  C   UNL A   1      45.759  30.973  37.600  1.00  0.00     0.049 A 
ATOM     78  H   UNL A   1      47.257  30.259  36.285  1.00  0.00     0.167 HD
ATOM     79  C   UNL A   1      44.271  32.739  37.230  1.00  0.00     0.074 A 
ATOM     80  C   UNL A   1      43.330  32.112  38.115  1.00  0.00     0.031 C 
ATOM     81  C   UNL A   1      45.526  32.281  37.036  1.00  0.00     0.037 A 
BRANCH  68  82
ATOM     82  C   UNL A   1      46.354  28.616  34.382  1.00  0.00     0.057 A 
ATOM     83  C   UNL A   1      46.132  29.281  33.135  1.00  0.00     0.134 A 
ATOM     84  C   UNL A   1      47.653  28.097  34.460  1.00  0.00     0.134 A 
ATOM     85  F   UNL A   1      45.008  29.921  32.856  1.00  0.00    -0.206 F 
ATOM     86  C   UNL A   1      47.012  29.263  32.031  1.00  0.00     0.040 A 
ATOM     87  C   UNL A   1      48.584  28.150  33.399  1.00  0.00     0.040 A 
ATOM     88  F   UNL A   1      48.067  27.512  35.589  1.00  0.00    -0.206 F 
ATOM     89  C   UNL A   1      48.251  28.682  32.160  1.00  0.00     0.006 A 
ENDBRANCH  68  82
BRANCH  69  90
ATOM     90  C   UNL A   1      40.651  33.989  36.382  1.00  0.00     0.057 A 
ATOM     91  C   UNL A   1      39.509  33.637  37.171  1.00  0.00     0.134 A 
ATOM     92  C   UNL A   1      40.935  35.384  36.648  1.00  0.00     0.134 A 
ATOM     93  F   UNL A   1      38.932  32.447  37.014  1.00  0.00    -0.206 F 
ATOM     94  C   UNL A   1      38.865  34.531  38.116  1.00  0.00     0.040 A 
ATOM     95  C   UNL A   1      40.350  36.252  37.607  1.00  0.00     0.040 A 
ATOM     96  F   UNL A   1      41.755  36.139  35.916  1.00  0.00    -0.206 F 
ATOM     97  C   UNL A   1      39.303  35.824  38.369  1.00  0.00     0.006 A 
ENDBRANCH  69  90
BRANCH  81  98
ATOM     98  C   UNL A   1      46.159  32.887  35.809  1.00  0.00     0.057 A 
ATOM     99  C   UNL A   1      45.844  32.376  34.552  1.00  0.00     0.134 A 
ATOM    100  C   UNL A   1      47.239  33.786  35.861  1.00  0.00     0.134 A 
ATOM    101  F   UNL A   1      44.877  31.456  34.430  1.00  0.00    -0.206 F 
ATOM    102  C   UNL A   1      46.543  32.762  33.402  1.00  0.00     0.040 A 
ATOM    103  C   UNL A   1      47.939  34.200  34.721  1.00  0.00     0.040 A 
ATOM    104  F   UNL A   1      47.675  34.231  37.044  1.00  0.00    -0.206 F 
ATOM    105  C   UNL A   1      47.589  33.679  33.482  1.00  0.00     0.006 A 
ENDBRANCH  81  98
ENDBRANCH  55  56
ENDBRANCH  48  50
ENDBRANCH  47  48
ENDBRANCH  46  47
ENDBRANCH  45  46
ENDBRANCH  44  45
ENDBRANCH  43  44
ENDBRANCH  42  43
ENDBRANCH  41  42
ENDBRANCH  40  41
ENDBRANCH   1  40
TORSDOF 28
ENDMDL
MODEL 3
REMARK VINA RESULT:      -6.6      7.267     13.733
REMARK SMILES Cc1c(CC(=O)N[C@H](CO)C(=O)OCCOCCOCCOCCOC(=O)c2ccc(-c3c4nc(c(-c5c(F)cccc5F)c5ccc([nH]5)c(-c5c(F)cccc5F)c5nc(c(-c6c(F)cccc6F)c6ccc3[nH]6)C=C5)C=C4)cc2)cc(-c2ccc(S(C)(=O)=O)cc2)n1-c1cccc(F)c1
REMARK SMILES IDX 17 1 16 2 15 3 14 4 13 5 11 6 12 7 8 8 7 9 5 10 6 11 4 13
REMARK SMILES IDX 3 14 1 15 2 16 94 17 82 18 83 19 95 20 96 21 101 22 97 23
REMARK SMILES IDX 99 24 98 25 100 26 84 27 85 28 93 29 86 30 92 31 87 32 88 33
REMARK SMILES IDX 89 34 90 35 91 36 9 37 10 38 18 40 19 41 20 42 21 43 22 44
REMARK SMILES IDX 23 45 24 46 25 47 26 48 27 49 28 50 29 51 81 52 30 53 80 54
REMARK SMILES IDX 31 55 32 56 33 57 74 58 34 59 79 60 73 61 75 62 35 63 78 64
REMARK SMILES IDX 72 65 71 66 36 68 62 69 45 70 61 71 46 72 49 73 60 74 76 75
REMARK SMILES IDX 47 76 48 77 59 79 77 80 50 81 37 82 38 83 43 84 39 85 40 86
REMARK SMILES IDX 42 87 44 88 41 89 63 90 64 91 69 92 65 93 66 94 68 95 70 96
REMARK SMILES IDX 67 97 51 98 52 99 57 100 53 101 54 102 56 103 58 104 55 105
REMARK H PARENT 7 12 10 39 75 67 49 78
REMARK Flexibility Score: inf
ROOT
ATOM      1  C   UNL A   1      42.554  26.719  36.442  1.00  0.00     0.188 C 
ENDROOT
BRANCH   1   2
ATOM      2  O   UNL A   1      42.353  25.321  36.243  1.00  0.00    -0.376 OA
BRANCH   2   3
ATOM      3  C   UNL A   1      43.047  24.668  35.181  1.00  0.00     0.202 C 
BRANCH   3   4
ATOM      4  C   UNL A   1      44.362  23.927  35.485  1.00  0.00     0.261 C 
BRANCH   4   5
ATOM      5  O   UNL A   1      45.390  24.755  36.062  1.00  0.00    -0.462 OA
BRANCH   5   6
ATOM      6  C   UNL A   1      45.894  25.741  35.282  1.00  0.00     0.331 C 
ATOM      7  O   UNL A   1      46.202  25.595  34.102  1.00  0.00    -0.250 OA
BRANCH   6   8
ATOM      8  C   UNL A   1      46.050  27.094  36.002  1.00  0.00     0.218 C 
BRANCH   8   9
ATOM      9  N   UNL A   1      46.320  28.089  34.959  1.00  0.00    -0.341 N 
ATOM     10  C   UNL A   1      45.940  29.394  34.894  1.00  0.00     0.225 C 
ATOM     11  O   UNL A   1      46.341  30.064  33.939  1.00  0.00    -0.275 OA
ATOM     12  H   UNL A   1      46.853  27.767  34.197  1.00  0.00     0.164 HD
BRANCH  10  13
ATOM     13  C   UNL A   1      45.039  29.991  35.964  1.00  0.00     0.137 C 
BRANCH  13  14
ATOM     14  C   UNL A   1      44.016  30.946  35.412  1.00  0.00    -0.017 A 
ATOM     15  C   UNL A   1      44.378  32.961  36.996  1.00  0.00     0.065 C 
ATOM     16  C   UNL A   1      43.754  32.242  35.840  1.00  0.00     0.024 A 
ATOM     17  N   UNL A   1      42.720  32.761  35.070  1.00  0.00    -0.313 N 
ATOM     18  C   UNL A   1      43.080  30.662  34.382  1.00  0.00     0.033 A 
ATOM     19  C   UNL A   1      42.285  31.777  34.179  1.00  0.00     0.053 A 
BRANCH  17  20
ATOM     20  C   UNL A   1      42.177  34.067  35.187  1.00  0.00     0.049 A 
ATOM     21  C   UNL A   1      42.767  35.131  34.491  1.00  0.00     0.027 A 
ATOM     22  C   UNL A   1      41.086  34.286  36.033  1.00  0.00     0.065 A 
ATOM     23  C   UNL A   1      42.262  36.423  34.644  1.00  0.00     0.005 A 
ATOM     24  C   UNL A   1      40.609  35.583  36.185  1.00  0.00     0.125 A 
ATOM     25  C   UNL A   1      41.184  36.649  35.500  1.00  0.00     0.039 A 
ATOM     26  F   UNL A   1      39.586  35.813  37.018  1.00  0.00    -0.207 F 
ENDBRANCH  17  20
BRANCH  19  27
ATOM     27  C   UNL A   1      41.215  31.957  33.187  1.00  0.00    -0.001 A 
ATOM     28  C   UNL A   1      39.896  31.561  33.465  1.00  0.00     0.011 A 
ATOM     29  C   UNL A   1      41.511  32.501  31.930  1.00  0.00     0.011 A 
ATOM     30  C   UNL A   1      38.900  31.661  32.488  1.00  0.00     0.021 A 
ATOM     31  C   UNL A   1      40.521  32.605  30.949  1.00  0.00     0.021 A 
ATOM     32  C   UNL A   1      39.224  32.167  31.229  1.00  0.00     0.067 A 
BRANCH  32  33
ATOM     33  S   UNL A   1      37.955  32.292  29.990  1.00  0.00     0.175 S 
ATOM     34  C   UNL A   1      38.313  33.808  29.142  1.00  0.00     0.163 C 
ATOM     35  O   UNL A   1      38.157  31.193  29.067  1.00  0.00    -0.224 OA
ATOM     36  O   UNL A   1      36.687  32.469  30.675  1.00  0.00    -0.224 OA
ENDBRANCH  32  33
ENDBRANCH  19  27
ENDBRANCH  13  14
ENDBRANCH  10  13
ENDBRANCH   8   9
BRANCH   8  37
ATOM     37  C   UNL A   1      47.056  27.155  37.168  1.00  0.00     0.193 C 
BRANCH  37  38
ATOM     38  O   UNL A   1      47.532  25.876  37.587  1.00  0.00    -0.394 OA
ATOM     39  H   UNL A   1      48.426  25.733  37.237  1.00  0.00     0.210 HD
ENDBRANCH  37  38
ENDBRANCH   8  37
ENDBRANCH   6   8
ENDBRANCH   5   6
ENDBRANCH   4   5
ENDBRANCH   3   4
ENDBRANCH   2   3
ENDBRANCH   1   2
BRANCH   1  40
ATOM     40  C   UNL A   1      41.669  27.710  35.659  1.00  0.00     0.188 C 
BRANCH  40  41
ATOM     41  O   UNL A   1      40.975  27.076  34.596  1.00  0.00    -0.377 OA
BRANCH  41  42
ATOM     42  C   UNL A   1      40.501  27.852  33.494  1.00  0.00     0.188 C 
BRANCH  42  43
ATOM     43  C   UNL A   1      41.531  28.320  32.459  1.00  0.00     0.188 C 
BRANCH  43  44
ATOM     44  O   UNL A   1      40.864  28.814  31.306  1.00  0.00    -0.376 OA
BRANCH  44  45
ATOM     45  C   UNL A   1      41.591  28.926  30.078  1.00  0.00     0.202 C 
BRANCH  45  46
ATOM     46  C   UNL A   1      42.244  27.663  29.441  1.00  0.00     0.261 C 
BRANCH  46  47
ATOM     47  O   UNL A   1      42.691  27.561  28.005  1.00  0.00    -0.460 OA
BRANCH  47  48
ATOM     48  C   UNL A   1      43.900  27.891  27.421  1.00  0.00     0.338 C 
ATOM     49  O   UNL A   1      44.524  27.116  26.715  1.00  0.00    -0.246 OA
BRANCH  48  50
ATOM     50  C   UNL A   1      44.381  29.383  27.707  1.00  0.00     0.060 A 
ATOM     51  C   UNL A   1      43.893  30.623  27.186  1.00  0.00     0.016 A 
ATOM     52  C   UNL A   1      45.288  29.631  28.683  1.00  0.00     0.016 A 
ATOM     53  C   UNL A   1      44.274  32.075  27.681  1.00  0.00     0.010 A 
ATOM     54  C   UNL A   1      45.581  31.015  29.097  1.00  0.00     0.010 A 
ATOM     55  C   UNL A   1      45.198  32.379  28.709  1.00  0.00    -0.014 A 
BRANCH  55  56
ATOM     56  C   UNL A   1      45.160  33.738  29.944  1.00  0.00     0.031 A 
ATOM     57  C   UNL A   1      46.642  33.871  30.169  1.00  0.00     0.074 A 
ATOM     58  C   UNL A   1      44.439  34.939  30.501  1.00  0.00     0.049 A 
ATOM     59  N   UNL A   1      47.333  33.744  29.067  1.00  0.00    -0.248 NA
ATOM     60  C   UNL A   1      47.307  34.812  31.045  1.00  0.00     0.031 C 
ATOM     61  C   UNL A   1      43.007  35.376  30.379  1.00  0.00     0.029 A 
ATOM     62  N   UNL A   1      44.888  36.210  31.264  1.00  0.00    -0.354 N 
ATOM     63  C   UNL A   1      47.413  35.059  28.736  1.00  0.00     0.074 A 
ATOM     64  C   UNL A   1      47.832  35.585  30.072  1.00  0.00     0.031 C 
ATOM     65  C   UNL A   1      42.737  36.610  30.923  1.00  0.00     0.029 A 
ATOM     66  C   UNL A   1      43.929  37.288  31.523  1.00  0.00     0.049 A 
ATOM     67  H   UNL A   1      45.819  36.295  31.574  1.00  0.00     0.167 HD
ATOM     68  C   UNL A   1      46.726  35.721  27.715  1.00  0.00     0.037 A 
ATOM     69  C   UNL A   1      43.785  38.592  32.148  1.00  0.00     0.037 A 
ATOM     70  C   UNL A   1      47.286  36.999  27.517  1.00  0.00     0.049 A 
ATOM     71  C   UNL A   1      44.675  39.104  30.989  1.00  0.00     0.074 A 
ATOM     72  C   UNL A   1      48.446  37.626  27.892  1.00  0.00     0.029 A 
ATOM     73  N   UNL A   1      46.552  37.942  26.856  1.00  0.00    -0.354 N 
ATOM     74  N   UNL A   1      44.192  39.758  29.973  1.00  0.00    -0.248 NA
ATOM     75  C   UNL A   1      46.144  39.153  31.183  1.00  0.00     0.031 C 
ATOM     76  C   UNL A   1      47.985  38.940  28.148  1.00  0.00     0.029 A 
ATOM     77  C   UNL A   1      46.679  39.046  27.642  1.00  0.00     0.049 A 
ATOM     78  H   UNL A   1      46.053  37.847  26.013  1.00  0.00     0.167 HD
ATOM     79  C   UNL A   1      45.328  40.055  29.262  1.00  0.00     0.074 A 
ATOM     80  C   UNL A   1      46.422  39.996  30.190  1.00  0.00     0.031 C 
ATOM     81  C   UNL A   1      45.438  39.711  27.962  1.00  0.00     0.037 A 
BRANCH  68  82
ATOM     82  C   UNL A   1      45.553  35.303  26.653  1.00  0.00     0.057 A 
ATOM     83  C   UNL A   1      44.135  35.224  26.824  1.00  0.00     0.134 A 
ATOM     84  C   UNL A   1      45.937  34.880  25.373  1.00  0.00     0.134 A 
ATOM     85  F   UNL A   1      43.523  35.642  27.919  1.00  0.00    -0.206 F 
ATOM     86  C   UNL A   1      43.234  34.621  25.919  1.00  0.00     0.040 A 
ATOM     87  C   UNL A   1      45.038  34.359  24.416  1.00  0.00     0.040 A 
ATOM     88  F   UNL A   1      47.220  34.962  25.005  1.00  0.00    -0.206 F 
ATOM     89  C   UNL A   1      43.691  34.173  24.702  1.00  0.00     0.006 A 
ENDBRANCH  68  82
BRANCH  69  90
ATOM     90  C   UNL A   1      43.935  40.139  32.928  1.00  0.00     0.057 A 
ATOM     91  C   UNL A   1      44.667  40.187  34.158  1.00  0.00     0.134 A 
ATOM     92  C   UNL A   1      43.381  41.460  32.713  1.00  0.00     0.134 A 
ATOM     93  F   UNL A   1      45.163  39.068  34.682  1.00  0.00    -0.206 F 
ATOM     94  C   UNL A   1      44.862  41.392  34.943  1.00  0.00     0.040 A 
ATOM     95  C   UNL A   1      43.609  42.657  33.441  1.00  0.00     0.040 A 
ATOM     96  F   UNL A   1      42.434  41.743  31.819  1.00  0.00    -0.206 F 
ATOM     97  C   UNL A   1      44.371  42.637  34.571  1.00  0.00     0.006 A 
ENDBRANCH  69  90
BRANCH  81  98
ATOM     98  C   UNL A   1      44.088  39.513  27.319  1.00  0.00     0.057 A 
ATOM     99  C   UNL A   1      43.525  40.547  26.574  1.00  0.00     0.134 A 
ATOM    100  C   UNL A   1      43.241  38.430  27.619  1.00  0.00     0.134 A 
ATOM    101  F   UNL A   1      44.244  41.648  26.312  1.00  0.00    -0.206 F 
ATOM    102  C   UNL A   1      42.201  40.496  26.123  1.00  0.00     0.040 A 
ATOM    103  C   UNL A   1      41.921  38.350  27.161  1.00  0.00     0.040 A 
ATOM    104  F   UNL A   1      43.673  37.454  28.424  1.00  0.00    -0.206 F 
ATOM    105  C   UNL A   1      41.396  39.394  26.410  1.00  0.00     0.006 A 
ENDBRANCH  81  98
ENDBRANCH  55  56
ENDBRANCH  48  50
ENDBRANCH  47  48
ENDBRANCH  46  47
ENDBRANCH  45  46
ENDBRANCH  44  45
ENDBRANCH  43  44
ENDBRANCH  42  43
ENDBRANCH  41  42
ENDBRANCH  40  41
ENDBRANCH   1  40
TORSDOF 28
ENDMDL
