MODEL 1
REMARK VINA RESULT:      -7.4      0.000      0.000
REMARK SMILES O=C(OCCOCCOCCOCCOC(=O)c1nccnc1C(=O)N1CCC(Cc2ccccc2)CC1)c1ccc(-c2c3nc(c(-c4c(F)cccc4F)c4ccc([nH]4)c(-c4c(F)cccc4F)c4nc(c(-c5c(F)cccc5F)c5ccc2[nH]5)C=C4)C=C3)cc1
REMARK SMILES IDX 10 1 9 2 8 3 7 4 6 5 5 6 4 7 3 8 2 9 1 10 39 11 40 12 92 13
REMARK SMILES IDX 41 14 91 15 42 16 43 17 44 18 85 19 45 20 90 21 84 22 86 23
REMARK SMILES IDX 46 24 89 25 83 26 82 27 47 29 73 30 56 31 72 32 57 33 60 34
REMARK SMILES IDX 71 35 87 36 58 37 59 38 70 40 88 41 61 42 48 43 49 44 54 45
REMARK SMILES IDX 50 46 51 47 53 48 55 49 52 50 74 51 75 52 80 53 76 54 77 55
REMARK SMILES IDX 79 56 81 57 78 58 62 59 63 60 68 61 64 62 65 63 67 64 69 65
REMARK SMILES IDX 66 66 11 67 12 68 13 69 14 70 15 71 16 72 17 73 18 74 19 75
REMARK SMILES IDX 23 76 20 77 22 78 21 79 24 80 25 81 26 82 27 83 38 84 28 85
REMARK SMILES IDX 37 86 29 87 30 88 31 89 32 90 36 91 33 92 35 93 34 94
REMARK H PARENT 86 28 60 39
REMARK Flexibility Score: inf
ROOT
ATOM      1  C   UNL A   1      44.476  24.864  31.998  1.00  0.00     0.188 C 
ENDROOT
BRANCH   1   2
ATOM      2  O   UNL A   1      45.764  24.616  32.539  1.00  0.00    -0.377 OA
BRANCH   2   3
ATOM      3  C   UNL A   1      45.941  25.030  33.886  1.00  0.00     0.188 C 
BRANCH   3   4
ATOM      4  C   UNL A   1      45.392  24.088  34.961  1.00  0.00     0.188 C 
BRANCH   4   5
ATOM      5  O   UNL A   1      46.240  23.902  36.101  1.00  0.00    -0.376 OA
BRANCH   5   6
ATOM      6  C   UNL A   1      45.658  23.093  37.132  1.00  0.00     0.202 C 
BRANCH   6   7
ATOM      7  C   UNL A   1      45.631  23.805  38.490  1.00  0.00     0.261 C 
BRANCH   7   8
ATOM      8  O   UNL A   1      44.646  24.860  38.474  1.00  0.00    -0.460 OA
BRANCH   8   9
ATOM      9  C   UNL A   1      44.835  26.179  38.241  1.00  0.00     0.338 C 
ATOM     10  O   UNL A   1      45.623  26.816  38.933  1.00  0.00    -0.246 OA
BRANCH   9  11
ATOM     11  C   UNL A   1      44.182  26.878  37.106  1.00  0.00     0.060 A 
ATOM     12  C   UNL A   1      44.852  27.718  36.218  1.00  0.00     0.016 A 
ATOM     13  C   UNL A   1      42.833  26.590  36.868  1.00  0.00     0.016 A 
ATOM     14  C   UNL A   1      44.171  28.369  35.195  1.00  0.00     0.010 A 
ATOM     15  C   UNL A   1      42.155  27.213  35.818  1.00  0.00     0.010 A 
ATOM     16  C   UNL A   1      42.808  28.154  35.006  1.00  0.00    -0.014 A 
BRANCH  16  17
ATOM     17  C   UNL A   1      42.025  29.023  34.095  1.00  0.00     0.031 A 
ATOM     18  C   UNL A   1      41.491  30.311  34.646  1.00  0.00     0.074 A 
ATOM     19  C   UNL A   1      41.828  28.729  32.798  1.00  0.00     0.049 A 
ATOM     20  N   UNL A   1      40.513  31.062  34.216  1.00  0.00    -0.248 NA
ATOM     21  C   UNL A   1      42.138  30.802  35.873  1.00  0.00     0.031 C 
ATOM     22  C   UNL A   1      42.421  27.607  32.074  1.00  0.00     0.029 A 
ATOM     23  N   UNL A   1      41.065  29.372  31.857  1.00  0.00    -0.354 N 
ATOM     24  C   UNL A   1      40.361  32.053  35.177  1.00  0.00     0.074 A 
ATOM     25  C   UNL A   1      41.367  31.830  36.190  1.00  0.00     0.031 C 
ATOM     26  C   UNL A   1      42.017  27.654  30.794  1.00  0.00     0.029 A 
ATOM     27  C   UNL A   1      41.049  28.736  30.641  1.00  0.00     0.049 A 
ATOM     28  H   UNL A   1      40.576  30.207  32.037  1.00  0.00     0.167 HD
ATOM     29  C   UNL A   1      39.433  33.037  35.215  1.00  0.00     0.037 A 
ATOM     30  C   UNL A   1      40.285  28.960  29.554  1.00  0.00     0.037 A 
ATOM     31  C   UNL A   1      38.496  33.283  34.152  1.00  0.00     0.049 A 
ATOM     32  C   UNL A   1      39.231  30.033  29.614  1.00  0.00     0.074 A 
ATOM     33  C   UNL A   1      37.479  34.216  34.087  1.00  0.00     0.029 A 
ATOM     34  N   UNL A   1      38.493  32.596  32.945  1.00  0.00    -0.354 N 
ATOM     35  N   UNL A   1      38.958  30.872  30.585  1.00  0.00    -0.248 NA
ATOM     36  C   UNL A   1      38.348  30.163  28.446  1.00  0.00     0.031 C 
ATOM     37  C   UNL A   1      36.838  34.071  32.851  1.00  0.00     0.029 A 
ATOM     38  C   UNL A   1      37.485  33.078  32.130  1.00  0.00     0.049 A 
ATOM     39  H   UNL A   1      39.117  31.874  32.703  1.00  0.00     0.167 HD
ATOM     40  C   UNL A   1      37.877  31.626  30.150  1.00  0.00     0.074 A 
ATOM     41  C   UNL A   1      37.556  31.161  28.816  1.00  0.00     0.031 C 
ATOM     42  C   UNL A   1      37.201  32.607  30.799  1.00  0.00     0.037 A 
BRANCH  29  43
ATOM     43  C   UNL A   1      39.329  33.827  36.485  1.00  0.00     0.057 A 
ATOM     44  C   UNL A   1      38.630  33.373  37.610  1.00  0.00     0.134 A 
ATOM     45  C   UNL A   1      39.912  35.100  36.558  1.00  0.00     0.134 A 
ATOM     46  F   UNL A   1      38.026  32.175  37.597  1.00  0.00    -0.206 F 
ATOM     47  C   UNL A   1      38.479  34.173  38.745  1.00  0.00     0.040 A 
ATOM     48  C   UNL A   1      39.793  35.896  37.697  1.00  0.00     0.040 A 
ATOM     49  F   UNL A   1      40.594  35.598  35.516  1.00  0.00    -0.206 F 
ATOM     50  C   UNL A   1      39.063  35.437  38.791  1.00  0.00     0.006 A 
ENDBRANCH  29  43
BRANCH  30  51
ATOM     51  C   UNL A   1      40.436  28.092  28.359  1.00  0.00     0.057 A 
ATOM     52  C   UNL A   1      41.212  28.492  27.267  1.00  0.00     0.134 A 
ATOM     53  C   UNL A   1      39.833  26.828  28.292  1.00  0.00     0.134 A 
ATOM     54  F   UNL A   1      41.795  29.699  27.260  1.00  0.00    -0.206 F 
ATOM     55  C   UNL A   1      41.387  27.667  26.153  1.00  0.00     0.040 A 
ATOM     56  C   UNL A   1      40.023  25.982  27.199  1.00  0.00     0.040 A 
ATOM     57  F   UNL A   1      39.075  26.385  29.305  1.00  0.00    -0.206 F 
ATOM     58  C   UNL A   1      40.801  26.402  26.124  1.00  0.00     0.006 A 
ENDBRANCH  30  51
BRANCH  42  59
ATOM     59  C   UNL A   1      36.071  33.269  30.072  1.00  0.00     0.057 A 
ATOM     60  C   UNL A   1      34.735  33.025  30.411  1.00  0.00     0.134 A 
ATOM     61  C   UNL A   1      36.328  34.234  29.089  1.00  0.00     0.134 A 
ATOM     62  F   UNL A   1      34.425  32.107  31.339  1.00  0.00    -0.206 F 
ATOM     63  C   UNL A   1      33.691  33.721  29.797  1.00  0.00     0.040 A 
ATOM     64  C   UNL A   1      35.296  34.948  28.483  1.00  0.00     0.040 A 
ATOM     65  F   UNL A   1      37.589  34.517  28.728  1.00  0.00    -0.206 F 
ATOM     66  C   UNL A   1      33.972  34.692  28.838  1.00  0.00     0.006 A 
ENDBRANCH  42  59
ENDBRANCH  16  17
ENDBRANCH   9  11
ENDBRANCH   8   9
ENDBRANCH   7   8
ENDBRANCH   6   7
ENDBRANCH   5   6
ENDBRANCH   4   5
ENDBRANCH   3   4
ENDBRANCH   2   3
ENDBRANCH   1   2
BRANCH   1  67
ATOM     67  C   UNL A   1      44.287  24.657  30.493  1.00  0.00     0.188 C 
BRANCH  67  68
ATOM     68  O   UNL A   1      45.049  25.461  29.595  1.00  0.00    -0.376 OA
BRANCH  68  69
ATOM     69  C   UNL A   1      44.271  26.148  28.590  1.00  0.00     0.202 C 
BRANCH  69  70
ATOM     70  C   UNL A   1      44.231  25.531  27.178  1.00  0.00     0.261 C 
BRANCH  70  71
ATOM     71  O   UNL A   1      45.420  24.782  26.854  1.00  0.00    -0.458 OA
BRANCH  71  72
ATOM     72  C   UNL A   1      46.285  25.259  25.910  1.00  0.00     0.359 C 
ATOM     73  O   UNL A   1      46.007  25.474  24.746  1.00  0.00    -0.244 OA
BRANCH  72  74
ATOM     74  C   UNL A   1      47.519  25.662  26.662  1.00  0.00     0.179 A 
ATOM     75  N   UNL A   1      48.271  24.593  27.109  1.00  0.00    -0.245 NA
ATOM     76  C   UNL A   1      47.753  26.952  27.132  1.00  0.00     0.161 A 
ATOM     77  C   UNL A   1      49.241  24.855  28.009  1.00  0.00     0.132 A 
ATOM     78  N   UNL A   1      48.737  27.189  28.064  1.00  0.00    -0.247 NA
ATOM     79  C   UNL A   1      49.463  26.128  28.484  1.00  0.00     0.132 A 
BRANCH  76  80
ATOM     80  C   UNL A   1      47.128  28.206  26.618  1.00  0.00     0.274 C 
ATOM     81  O   UNL A   1      47.471  28.585  25.495  1.00  0.00    -0.267 OA
ATOM     82  N   UNL A   1      46.195  28.933  27.372  1.00  0.00    -0.337 N 
ATOM     83  C   UNL A   1      45.095  29.512  26.600  1.00  0.00     0.120 C 
ATOM     84  C   UNL A   1      46.661  29.708  28.519  1.00  0.00     0.120 C 
ATOM     85  C   UNL A   1      44.895  30.998  26.861  1.00  0.00     0.025 C 
ATOM     86  C   UNL A   1      45.571  30.502  29.252  1.00  0.00     0.025 C 
ATOM     87  C   UNL A   1      44.543  31.208  28.336  1.00  0.00    -0.003 C 
BRANCH  87  88
ATOM     88  C   UNL A   1      44.384  32.708  28.671  1.00  0.00     0.039 C 
BRANCH  88  89
ATOM     89  C   UNL A   1      43.616  33.023  29.937  1.00  0.00    -0.048 A 
ATOM     90  C   UNL A   1      42.358  32.442  30.157  1.00  0.00     0.004 A 
ATOM     91  C   UNL A   1      44.080  33.972  30.861  1.00  0.00     0.004 A 
ATOM     92  C   UNL A   1      41.599  32.782  31.281  1.00  0.00     0.000 A 
ATOM     93  C   UNL A   1      43.324  34.305  31.988  1.00  0.00     0.000 A 
ATOM     94  C   UNL A   1      42.084  33.710  32.198  1.00  0.00     0.000 A 
ENDBRANCH  88  89
ENDBRANCH  87  88
ENDBRANCH  76  80
ENDBRANCH  72  74
ENDBRANCH  71  72
ENDBRANCH  70  71
ENDBRANCH  69  70
ENDBRANCH  68  69
ENDBRANCH  67  68
ENDBRANCH   1  67
TORSDOF 23
ENDMDL
MODEL 2
REMARK VINA RESULT:      -7.3      7.187     14.725
REMARK SMILES O=C(OCCOCCOCCOCCOC(=O)c1nccnc1C(=O)N1CCC(Cc2ccccc2)CC1)c1ccc(-c2c3nc(c(-c4c(F)cccc4F)c4ccc([nH]4)c(-c4c(F)cccc4F)c4nc(c(-c5c(F)cccc5F)c5ccc2[nH]5)C=C4)C=C3)cc1
REMARK SMILES IDX 10 1 9 2 8 3 7 4 6 5 5 6 4 7 3 8 2 9 1 10 39 11 40 12 92 13
REMARK SMILES IDX 41 14 91 15 42 16 43 17 44 18 85 19 45 20 90 21 84 22 86 23
REMARK SMILES IDX 46 24 89 25 83 26 82 27 47 29 73 30 56 31 72 32 57 33 60 34
REMARK SMILES IDX 71 35 87 36 58 37 59 38 70 40 88 41 61 42 48 43 49 44 54 45
REMARK SMILES IDX 50 46 51 47 53 48 55 49 52 50 74 51 75 52 80 53 76 54 77 55
REMARK SMILES IDX 79 56 81 57 78 58 62 59 63 60 68 61 64 62 65 63 67 64 69 65
REMARK SMILES IDX 66 66 11 67 12 68 13 69 14 70 15 71 16 72 17 73 18 74 19 75
REMARK SMILES IDX 23 76 20 77 22 78 21 79 24 80 25 81 26 82 27 83 38 84 28 85
REMARK SMILES IDX 37 86 29 87 30 88 31 89 32 90 36 91 33 92 35 93 34 94
REMARK H PARENT 86 28 60 39
REMARK Flexibility Score: inf
ROOT
ATOM      1  C   UNL A   1      40.882  25.530  27.555  1.00  0.00     0.188 C 
ENDROOT
BRANCH   1   2
ATOM      2  O   UNL A   1      41.804  26.303  26.802  1.00  0.00    -0.377 OA
BRANCH   2   3
ATOM      3  C   UNL A   1      43.091  25.722  26.647  1.00  0.00     0.188 C 
BRANCH   3   4
ATOM      4  C   UNL A   1      44.091  26.510  25.796  1.00  0.00     0.188 C 
BRANCH   4   5
ATOM      5  O   UNL A   1      45.033  25.714  25.067  1.00  0.00    -0.376 OA
BRANCH   5   6
ATOM      6  C   UNL A   1      46.357  26.264  25.037  1.00  0.00     0.202 C 
BRANCH   6   7
ATOM      7  C   UNL A   1      46.361  27.768  24.741  1.00  0.00     0.261 C 
BRANCH   7   8
ATOM      8  O   UNL A   1      47.335  28.432  25.574  1.00  0.00    -0.460 OA
BRANCH   8   9
ATOM      9  C   UNL A   1      48.605  28.053  25.843  1.00  0.00     0.338 C 
ATOM     10  O   UNL A   1      49.493  28.262  25.022  1.00  0.00    -0.246 OA
BRANCH   9  11
ATOM     11  C   UNL A   1      48.990  27.465  27.151  1.00  0.00     0.060 A 
ATOM     12  C   UNL A   1      49.334  26.127  27.332  1.00  0.00     0.016 A 
ATOM     13  C   UNL A   1      49.102  28.340  28.237  1.00  0.00     0.016 A 
ATOM     14  C   UNL A   1      49.652  25.633  28.594  1.00  0.00     0.010 A 
ATOM     15  C   UNL A   1      49.458  27.855  29.498  1.00  0.00     0.010 A 
ATOM     16  C   UNL A   1      49.681  26.483  29.696  1.00  0.00    -0.014 A 
BRANCH  16  17
ATOM     17  C   UNL A   1      49.765  25.933  31.071  1.00  0.00     0.031 A 
ATOM     18  C   UNL A   1      51.130  25.704  31.649  1.00  0.00     0.074 A 
ATOM     19  C   UNL A   1      48.681  25.688  31.826  1.00  0.00     0.049 A 
ATOM     20  N   UNL A   1      51.501  24.932  32.634  1.00  0.00    -0.248 NA
ATOM     21  C   UNL A   1      52.232  26.433  31.000  1.00  0.00     0.031 C 
ATOM     22  C   UNL A   1      47.301  26.014  31.475  1.00  0.00     0.029 A 
ATOM     23  N   UNL A   1      48.584  25.106  33.064  1.00  0.00    -0.354 N 
ATOM     24  C   UNL A   1      52.888  25.002  32.653  1.00  0.00     0.074 A 
ATOM     25  C   UNL A   1      53.289  25.917  31.608  1.00  0.00     0.031 C 
ATOM     26  C   UNL A   1      46.496  25.648  32.485  1.00  0.00     0.029 A 
ATOM     27  C   UNL A   1      47.291  24.959  33.499  1.00  0.00     0.049 A 
ATOM     28  H   UNL A   1      49.366  24.821  33.590  1.00  0.00     0.167 HD
ATOM     29  C   UNL A   1      53.743  24.326  33.455  1.00  0.00     0.037 A 
ATOM     30  C   UNL A   1      46.802  24.280  34.555  1.00  0.00     0.037 A 
ATOM     31  C   UNL A   1      53.312  23.484  34.538  1.00  0.00     0.049 A 
ATOM     32  C   UNL A   1      47.752  23.502  35.424  1.00  0.00     0.074 A 
ATOM     33  C   UNL A   1      54.073  22.711  35.395  1.00  0.00     0.029 A 
ATOM     34  N   UNL A   1      51.988  23.337  34.929  1.00  0.00    -0.354 N 
ATOM     35  N   UNL A   1      49.060  23.419  35.352  1.00  0.00    -0.248 NA
ATOM     36  C   UNL A   1      47.159  22.687  36.494  1.00  0.00     0.031 C 
ATOM     37  C   UNL A   1      53.204  22.069  36.285  1.00  0.00     0.029 A 
ATOM     38  C   UNL A   1      51.908  22.478  36.010  1.00  0.00     0.049 A 
ATOM     39  H   UNL A   1      51.219  23.780  34.502  1.00  0.00     0.167 HD
ATOM     40  C   UNL A   1      49.446  22.547  36.361  1.00  0.00     0.074 A 
ATOM     41  C   UNL A   1      48.236  22.143  37.047  1.00  0.00     0.031 C 
ATOM     42  C   UNL A   1      50.689  22.109  36.683  1.00  0.00     0.037 A 
BRANCH  29  43
ATOM     43  C   UNL A   1      55.200  24.393  33.108  1.00  0.00     0.057 A 
ATOM     44  C   UNL A   1      55.813  23.502  32.219  1.00  0.00     0.134 A 
ATOM     45  C   UNL A   1      56.015  25.352  33.725  1.00  0.00     0.134 A 
ATOM     46  F   UNL A   1      55.096  22.542  31.615  1.00  0.00    -0.206 F 
ATOM     47  C   UNL A   1      57.189  23.538  31.987  1.00  0.00     0.040 A 
ATOM     48  C   UNL A   1      57.387  25.416  33.478  1.00  0.00     0.040 A 
ATOM     49  F   UNL A   1      55.494  26.235  34.590  1.00  0.00    -0.206 F 
ATOM     50  C   UNL A   1      57.980  24.497  32.616  1.00  0.00     0.006 A 
ENDBRANCH  29  43
BRANCH  30  51
ATOM     51  C   UNL A   1      45.335  24.241  34.786  1.00  0.00     0.057 A 
ATOM     52  C   UNL A   1      44.537  23.248  34.209  1.00  0.00     0.134 A 
ATOM     53  C   UNL A   1      44.700  25.177  35.614  1.00  0.00     0.134 A 
ATOM     54  F   UNL A   1      45.081  22.338  33.388  1.00  0.00    -0.206 F 
ATOM     55  C   UNL A   1      43.162  23.184  34.449  1.00  0.00     0.040 A 
ATOM     56  C   UNL A   1      43.333  25.108  35.887  1.00  0.00     0.040 A 
ATOM     57  F   UNL A   1      45.408  26.155  36.197  1.00  0.00    -0.206 F 
ATOM     58  C   UNL A   1      42.560  24.109  35.301  1.00  0.00     0.006 A 
ENDBRANCH  30  51
BRANCH  42  59
ATOM     59  C   UNL A   1      50.814  21.170  37.845  1.00  0.00     0.057 A 
ATOM     60  C   UNL A   1      50.913  21.637  39.161  1.00  0.00     0.134 A 
ATOM     61  C   UNL A   1      50.734  19.785  37.649  1.00  0.00     0.134 A 
ATOM     62  F   UNL A   1      51.000  22.952  39.411  1.00  0.00    -0.206 F 
ATOM     63  C   UNL A   1      50.928  20.757  40.244  1.00  0.00     0.040 A 
ATOM     64  C   UNL A   1      50.730  18.898  38.724  1.00  0.00     0.040 A 
ATOM     65  F   UNL A   1      50.629  19.278  36.411  1.00  0.00    -0.206 F 
ATOM     66  C   UNL A   1      50.825  19.384  40.027  1.00  0.00     0.006 A 
ENDBRANCH  42  59
ENDBRANCH  16  17
ENDBRANCH   9  11
ENDBRANCH   8   9
ENDBRANCH   7   8
ENDBRANCH   6   7
ENDBRANCH   5   6
ENDBRANCH   4   5
ENDBRANCH   3   4
ENDBRANCH   2   3
ENDBRANCH   1   2
BRANCH   1  67
ATOM     67  C   UNL A   1      40.131  24.413  26.826  1.00  0.00     0.188 C 
BRANCH  67  68
ATOM     68  O   UNL A   1      38.727  24.288  27.035  1.00  0.00    -0.376 OA
BRANCH  68  69
ATOM     69  C   UNL A   1      37.987  23.789  25.900  1.00  0.00     0.202 C 
BRANCH  69  70
ATOM     70  C   UNL A   1      36.495  23.465  26.109  1.00  0.00     0.261 C 
BRANCH  70  71
ATOM     71  O   UNL A   1      36.108  22.195  25.546  1.00  0.00    -0.458 OA
BRANCH  71  72
ATOM     72  C   UNL A   1      35.557  22.147  24.297  1.00  0.00     0.359 C 
ATOM     73  O   UNL A   1      36.018  22.676  23.304  1.00  0.00    -0.244 OA
BRANCH  72  74
ATOM     74  C   UNL A   1      34.445  21.143  24.386  1.00  0.00     0.179 A 
ATOM     75  N   UNL A   1      34.824  19.943  24.956  1.00  0.00    -0.245 NA
ATOM     76  C   UNL A   1      33.234  21.266  23.709  1.00  0.00     0.161 A 
ATOM     77  C   UNL A   1      33.971  18.906  24.834  1.00  0.00     0.132 A 
ATOM     78  N   UNL A   1      32.389  20.187  23.583  1.00  0.00    -0.247 NA
ATOM     79  C   UNL A   1      32.780  19.024  24.153  1.00  0.00     0.132 A 
BRANCH  76  80
ATOM     80  C   UNL A   1      32.637  22.533  23.191  1.00  0.00     0.274 C 
ATOM     81  O   UNL A   1      32.889  22.836  22.023  1.00  0.00    -0.267 OA
ATOM     82  N   UNL A   1      31.829  23.353  23.992  1.00  0.00    -0.337 N 
ATOM     83  C   UNL A   1      30.694  23.965  23.301  1.00  0.00     0.120 C 
ATOM     84  C   UNL A   1      32.452  24.149  25.047  1.00  0.00     0.120 C 
ATOM     85  C   UNL A   1      30.610  25.472  23.501  1.00  0.00     0.025 C 
ATOM     86  C   UNL A   1      31.489  25.045  25.839  1.00  0.00     0.025 C 
ATOM     87  C   UNL A   1      30.420  25.772  24.990  1.00  0.00    -0.003 C 
BRANCH  87  88
ATOM     88  C   UNL A   1      30.384  27.293  25.259  1.00  0.00     0.039 C 
BRANCH  88  89
ATOM     89  C   UNL A   1      31.660  27.896  25.810  1.00  0.00    -0.048 A 
ATOM     90  C   UNL A   1      31.696  28.376  27.128  1.00  0.00     0.004 A 
ATOM     91  C   UNL A   1      32.791  28.088  25.002  1.00  0.00     0.004 A 
ATOM     92  C   UNL A   1      32.839  29.007  27.629  1.00  0.00     0.000 A 
ATOM     93  C   UNL A   1      33.935  28.713  25.506  1.00  0.00     0.000 A 
ATOM     94  C   UNL A   1      33.960  29.171  26.819  1.00  0.00     0.000 A 
ENDBRANCH  88  89
ENDBRANCH  87  88
ENDBRANCH  76  80
ENDBRANCH  72  74
ENDBRANCH  71  72
ENDBRANCH  70  71
ENDBRANCH  69  70
ENDBRANCH  68  69
ENDBRANCH  67  68
ENDBRANCH   1  67
TORSDOF 23
ENDMDL
MODEL 3
REMARK VINA RESULT:      -7.1     12.681     18.461
REMARK SMILES O=C(OCCOCCOCCOCCOC(=O)c1nccnc1C(=O)N1CCC(Cc2ccccc2)CC1)c1ccc(-c2c3nc(c(-c4c(F)cccc4F)c4ccc([nH]4)c(-c4c(F)cccc4F)c4nc(c(-c5c(F)cccc5F)c5ccc2[nH]5)C=C4)C=C3)cc1
REMARK SMILES IDX 10 1 9 2 8 3 7 4 6 5 5 6 4 7 3 8 2 9 1 10 39 11 40 12 92 13
REMARK SMILES IDX 41 14 91 15 42 16 43 17 44 18 85 19 45 20 90 21 84 22 86 23
REMARK SMILES IDX 46 24 89 25 83 26 82 27 47 29 73 30 56 31 72 32 57 33 60 34
REMARK SMILES IDX 71 35 87 36 58 37 59 38 70 40 88 41 61 42 48 43 49 44 54 45
REMARK SMILES IDX 50 46 51 47 53 48 55 49 52 50 74 51 75 52 80 53 76 54 77 55
REMARK SMILES IDX 79 56 81 57 78 58 62 59 63 60 68 61 64 62 65 63 67 64 69 65
REMARK SMILES IDX 66 66 11 67 12 68 13 69 14 70 15 71 16 72 17 73 18 74 19 75
REMARK SMILES IDX 23 76 20 77 22 78 21 79 24 80 25 81 26 82 27 83 38 84 28 85
REMARK SMILES IDX 37 86 29 87 30 88 31 89 32 90 36 91 33 92 35 93 34 94
REMARK H PARENT 86 28 60 39
REMARK Flexibility Score: inf
ROOT
ATOM      1  C   UNL A   1      41.973  35.809  33.954  1.00  0.00     0.188 C 
ENDROOT
BRANCH   1   2
ATOM      2  O   UNL A   1      43.081  35.916  33.074  1.00  0.00    -0.377 OA
BRANCH   2   3
ATOM      3  C   UNL A   1      43.472  37.245  32.758  1.00  0.00     0.188 C 
BRANCH   3   4
ATOM      4  C   UNL A   1      43.319  38.279  33.876  1.00  0.00     0.188 C 
BRANCH   4   5
ATOM      5  O   UNL A   1      42.732  39.524  33.479  1.00  0.00    -0.376 OA
BRANCH   5   6
ATOM      6  C   UNL A   1      43.428  40.180  32.411  1.00  0.00     0.202 C 
BRANCH   6   7
ATOM      7  C   UNL A   1      42.586  41.276  31.748  1.00  0.00     0.261 C 
BRANCH   7   8
ATOM      8  O   UNL A   1      43.335  41.896  30.681  1.00  0.00    -0.460 OA
BRANCH   8   9
ATOM      9  C   UNL A   1      43.579  43.212  30.482  1.00  0.00     0.338 C 
ATOM     10  O   UNL A   1      43.038  44.049  31.198  1.00  0.00    -0.246 OA
BRANCH   9  11
ATOM     11  C   UNL A   1      44.560  43.685  29.474  1.00  0.00     0.060 A 
ATOM     12  C   UNL A   1      44.772  45.027  29.164  1.00  0.00     0.016 A 
ATOM     13  C   UNL A   1      45.381  42.722  28.878  1.00  0.00     0.016 A 
ATOM     14  C   UNL A   1      45.685  45.401  28.182  1.00  0.00     0.010 A 
ATOM     15  C   UNL A   1      46.325  43.096  27.919  1.00  0.00     0.010 A 
ATOM     16  C   UNL A   1      46.443  44.438  27.522  1.00  0.00    -0.014 A 
BRANCH  16  17
ATOM     17  C   UNL A   1      47.223  44.791  26.312  1.00  0.00     0.031 A 
ATOM     18  C   UNL A   1      46.523  44.732  24.987  1.00  0.00     0.074 A 
ATOM     19  C   UNL A   1      48.500  45.208  26.363  1.00  0.00     0.049 A 
ATOM     20  N   UNL A   1      47.018  44.635  23.783  1.00  0.00    -0.248 NA
ATOM     21  C   UNL A   1      45.052  44.759  25.037  1.00  0.00     0.031 C 
ATOM     22  C   UNL A   1      49.264  45.479  27.578  1.00  0.00     0.029 A 
ATOM     23  N   UNL A   1      49.377  45.484  25.345  1.00  0.00    -0.354 N 
ATOM     24  C   UNL A   1      45.921  44.483  22.945  1.00  0.00     0.074 A 
ATOM     25  C   UNL A   1      44.736  44.538  23.771  1.00  0.00     0.031 C 
ATOM     26  C   UNL A   1      50.490  45.905  27.235  1.00  0.00     0.029 A 
ATOM     27  C   UNL A   1      50.632  45.824  25.784  1.00  0.00     0.049 A 
ATOM     28  H   UNL A   1      49.131  45.441  24.394  1.00  0.00     0.167 HD
ATOM     29  C   UNL A   1      45.920  44.280  21.608  1.00  0.00     0.037 A 
ATOM     30  C   UNL A   1      51.780  45.978  25.096  1.00  0.00     0.037 A 
ATOM     31  C   UNL A   1      47.110  44.311  20.802  1.00  0.00     0.049 A 
ATOM     32  C   UNL A   1      51.781  45.717  23.613  1.00  0.00     0.074 A 
ATOM     33  C   UNL A   1      47.250  44.077  19.447  1.00  0.00     0.029 A 
ATOM     34  N   UNL A   1      48.371  44.631  21.289  1.00  0.00    -0.354 N 
ATOM     35  N   UNL A   1      50.777  45.403  22.828  1.00  0.00    -0.248 NA
ATOM     36  C   UNL A   1      53.079  45.788  22.926  1.00  0.00     0.031 C 
ATOM     37  C   UNL A   1      48.603  44.223  19.121  1.00  0.00     0.029 A 
ATOM     38  C   UNL A   1      49.297  44.591  20.264  1.00  0.00     0.049 A 
ATOM     39  H   UNL A   1      48.575  44.854  22.226  1.00  0.00     0.167 HD
ATOM     40  C   UNL A   1      51.319  45.239  21.560  1.00  0.00     0.074 A 
ATOM     41  C   UNL A   1      52.738  45.508  21.675  1.00  0.00     0.031 C 
ATOM     42  C   UNL A   1      50.701  44.883  20.406  1.00  0.00     0.037 A 
BRANCH  29  43
ATOM     43  C   UNL A   1      44.613  43.901  20.977  1.00  0.00     0.057 A 
ATOM     44  C   UNL A   1      43.953  44.711  20.047  1.00  0.00     0.134 A 
ATOM     45  C   UNL A   1      43.983  42.707  21.356  1.00  0.00     0.134 A 
ATOM     46  F   UNL A   1      44.487  45.880  19.662  1.00  0.00    -0.206 F 
ATOM     47  C   UNL A   1      42.694  44.368  19.547  1.00  0.00     0.040 A 
ATOM     48  C   UNL A   1      42.739  42.340  20.842  1.00  0.00     0.040 A 
ATOM     49  F   UNL A   1      44.559  41.884  22.245  1.00  0.00    -0.206 F 
ATOM     50  C   UNL A   1      42.085  43.179  19.943  1.00  0.00     0.006 A 
ENDBRANCH  29  43
BRANCH  30  51
ATOM     51  C   UNL A   1      53.032  46.313  25.821  1.00  0.00     0.057 A 
ATOM     52  C   UNL A   1      53.890  45.311  26.285  1.00  0.00     0.134 A 
ATOM     53  C   UNL A   1      53.415  47.643  26.043  1.00  0.00     0.134 A 
ATOM     54  F   UNL A   1      53.568  44.020  26.125  1.00  0.00    -0.206 F 
ATOM     55  C   UNL A   1      55.086  45.618  26.939  1.00  0.00     0.040 A 
ATOM     56  C   UNL A   1      54.621  47.965  26.668  1.00  0.00     0.040 A 
ATOM     57  F   UNL A   1      52.636  48.651  25.625  1.00  0.00    -0.206 F 
ATOM     58  C   UNL A   1      55.459  46.949  27.120  1.00  0.00     0.006 A 
ENDBRANCH  30  51
BRANCH  42  59
ATOM     59  C   UNL A   1      51.541  44.796  19.168  1.00  0.00     0.057 A 
ATOM     60  C   UNL A   1      52.121  43.590  18.756  1.00  0.00     0.134 A 
ATOM     61  C   UNL A   1      51.685  45.909  18.330  1.00  0.00     0.134 A 
ATOM     62  F   UNL A   1      52.023  42.492  19.519  1.00  0.00    -0.206 F 
ATOM     63  C   UNL A   1      52.817  43.496  17.549  1.00  0.00     0.040 A 
ATOM     64  C   UNL A   1      52.363  45.822  17.114  1.00  0.00     0.040 A 
ATOM     65  F   UNL A   1      51.144  47.089  18.667  1.00  0.00    -0.206 F 
ATOM     66  C   UNL A   1      52.929  44.610  16.721  1.00  0.00     0.006 A 
ENDBRANCH  42  59
ENDBRANCH  16  17
ENDBRANCH   9  11
ENDBRANCH   8   9
ENDBRANCH   7   8
ENDBRANCH   6   7
ENDBRANCH   5   6
ENDBRANCH   4   5
ENDBRANCH   3   4
ENDBRANCH   2   3
ENDBRANCH   1   2
BRANCH   1  67
ATOM     67  C   UNL A   1      41.074  34.578  33.814  1.00  0.00     0.188 C 
BRANCH  67  68
ATOM     68  O   UNL A   1      39.995  34.625  32.883  1.00  0.00    -0.376 OA
BRANCH  68  69
ATOM     69  C   UNL A   1      39.001  33.592  33.056  1.00  0.00     0.202 C 
BRANCH  69  70
ATOM     70  C   UNL A   1      37.595  34.027  33.515  1.00  0.00     0.261 C 
BRANCH  70  71
ATOM     71  O   UNL A   1      36.728  34.385  32.420  1.00  0.00    -0.458 OA
BRANCH  71  72
ATOM     72  C   UNL A   1      35.709  33.549  32.061  1.00  0.00     0.359 C 
ATOM     73  O   UNL A   1      35.479  32.465  32.561  1.00  0.00    -0.244 OA
BRANCH  72  74
ATOM     74  C   UNL A   1      34.845  34.346  31.128  1.00  0.00     0.179 A 
ATOM     75  N   UNL A   1      34.168  35.380  31.744  1.00  0.00    -0.245 NA
ATOM     76  C   UNL A   1      34.508  33.932  29.841  1.00  0.00     0.161 A 
ATOM     77  C   UNL A   1      33.179  35.973  31.044  1.00  0.00     0.132 A 
ATOM     78  N   UNL A   1      33.483  34.542  29.156  1.00  0.00    -0.247 NA
ATOM     79  C   UNL A   1      32.837  35.555  29.778  1.00  0.00     0.132 A 
BRANCH  76  80
ATOM     80  C   UNL A   1      35.256  32.945  29.007  1.00  0.00     0.274 C 
ATOM     81  O   UNL A   1      36.381  33.274  28.622  1.00  0.00    -0.267 OA
ATOM     82  N   UNL A   1      34.711  31.700  28.664  1.00  0.00    -0.337 N 
ATOM     83  C   UNL A   1      35.664  30.589  28.661  1.00  0.00     0.120 C 
ATOM     84  C   UNL A   1      33.645  31.643  27.668  1.00  0.00     0.120 C 
ATOM     85  C   UNL A   1      35.638  29.780  27.372  1.00  0.00     0.025 C 
ATOM     86  C   UNL A   1      33.145  30.231  27.330  1.00  0.00     0.025 C 
ATOM     87  C   UNL A   1      34.251  29.158  27.195  1.00  0.00    -0.003 C 
BRANCH  87  88
ATOM     88  C   UNL A   1      34.150  28.369  25.871  1.00  0.00     0.039 C 
BRANCH  88  89
ATOM     89  C   UNL A   1      33.396  27.057  25.939  1.00  0.00    -0.048 A 
ATOM     90  C   UNL A   1      32.027  27.051  26.244  1.00  0.00     0.004 A 
ATOM     91  C   UNL A   1      34.053  25.824  25.811  1.00  0.00     0.004 A 
ATOM     92  C   UNL A   1      31.331  25.847  26.390  1.00  0.00     0.000 A 
ATOM     93  C   UNL A   1      33.356  24.621  25.949  1.00  0.00     0.000 A 
ATOM     94  C   UNL A   1      31.995  24.632  26.238  1.00  0.00     0.000 A 
ENDBRANCH  88  89
ENDBRANCH  87  88
ENDBRANCH  76  80
ENDBRANCH  72  74
ENDBRANCH  71  72
ENDBRANCH  70  71
ENDBRANCH  69  70
ENDBRANCH  68  69
ENDBRANCH  67  68
ENDBRANCH   1  67
TORSDOF 23
ENDMDL
