MODEL 1
REMARK VINA RESULT:      -9.3      0.000      0.000
REMARK SMILES COc1cc2c(CC(=O)OCCOCCOCCOCCOC(=O)c3ccc(-c4c5nc(c(-c6c(F)cccc6F)c6ccc([nH]6)c(-c6c(F)cccc6F)c6nc(c(-c7c(F)cccc7F)c7ccc4[nH]7)C=C6)C=C5)cc3)c(C)n(C(=O)c3ccc(Cl)cc3)c2cc1Cl
REMARK SMILES IDX 15 1 14 2 13 3 12 4 11 5 10 6 8 7 9 8 7 9 6 10 3 11 4 12
REMARK SMILES IDX 93 13 5 14 92 15 94 16 91 17 79 18 81 19 80 20 2 21 1 22
REMARK SMILES IDX 82 23 83 24 84 25 85 26 90 27 86 28 89 29 87 30 88 31 16 32
REMARK SMILES IDX 17 33 18 34 19 35 20 36 21 37 22 38 23 39 24 40 25 41 26 42
REMARK SMILES IDX 78 43 27 44 77 45 28 46 29 47 30 48 71 49 31 50 76 51 70 52
REMARK SMILES IDX 72 53 32 54 75 55 69 56 68 57 33 59 59 60 42 61 58 62 43 63
REMARK SMILES IDX 46 64 57 65 73 66 44 67 45 68 56 70 74 71 47 72 34 73 35 74
REMARK SMILES IDX 40 75 36 76 37 77 39 78 41 79 38 80 60 81 61 82 66 83 62 84
REMARK SMILES IDX 63 85 65 86 67 87 64 88 48 89 49 90 54 91 50 92 51 93 53 94
REMARK SMILES IDX 55 95 52 96
REMARK H PARENT 72 58 46 69
REMARK Flexibility Score: inf
ROOT
ATOM      1  C   UNL A   1      34.063  28.762  27.055  1.00  0.00     0.188 C 
ENDROOT
BRANCH   1   2
ATOM      2  C   UNL A   1      32.819  28.827  26.169  1.00  0.00     0.188 C 
BRANCH   2   3
ATOM      3  O   UNL A   1      32.981  29.567  24.972  1.00  0.00    -0.376 OA
BRANCH   3   4
ATOM      4  C   UNL A   1      32.556  28.927  23.777  1.00  0.00     0.202 C 
BRANCH   4   5
ATOM      5  C   UNL A   1      33.503  27.896  23.133  1.00  0.00     0.261 C 
BRANCH   5   6
ATOM      6  O   UNL A   1      33.084  27.337  21.868  1.00  0.00    -0.463 OA
BRANCH   6   7
ATOM      7  C   UNL A   1      33.098  25.993  21.727  1.00  0.00     0.310 C 
ATOM      8  O   UNL A   1      32.287  25.383  21.034  1.00  0.00    -0.252 OA
BRANCH   7   9
ATOM      9  C   UNL A   1      34.271  25.283  22.401  1.00  0.00     0.160 C 
BRANCH   9  10
ATOM     10  C   UNL A   1      34.010  24.193  23.428  1.00  0.00    -0.008 A 
ATOM     11  C   UNL A   1      30.629  24.467  25.285  1.00  0.00     0.138 A 
ATOM     12  C   UNL A   1      31.703  24.884  24.477  1.00  0.00     0.058 A 
ATOM     13  C   UNL A   1      30.789  23.320  26.048  1.00  0.00     0.085 A 
ATOM     14  C   UNL A   1      32.873  24.096  24.298  1.00  0.00     0.008 A 
ATOM     15  C   UNL A   1      31.974  22.574  25.957  1.00  0.00     0.051 A 
ATOM     16  Cl  UNL A   1      29.641  22.728  27.201  1.00  0.00    -0.080 Cl
ATOM     17  C   UNL A   1      33.008  22.936  25.063  1.00  0.00     0.058 A 
ATOM     18  C   UNL A   1      34.868  23.155  23.783  1.00  0.00     0.028 A 
ATOM     19  N   UNL A   1      34.251  22.350  24.759  1.00  0.00    -0.280 N 
ATOM     20  C   UNL A   1      36.231  22.903  23.216  1.00  0.00     0.065 C 
BRANCH  11  21
ATOM     21  O   UNL A   1      29.551  25.308  25.210  1.00  0.00    -0.495 OA
ATOM     22  C   UNL A   1      29.775  26.687  24.938  1.00  0.00     0.278 C 
ENDBRANCH  11  21
BRANCH  19  23
ATOM     23  C   UNL A   1      34.782  21.161  25.354  1.00  0.00     0.262 C 
ATOM     24  O   UNL A   1      35.722  21.244  26.141  1.00  0.00    -0.268 OA
BRANCH  23  25
ATOM     25  C   UNL A   1      34.283  19.797  25.105  1.00  0.00     0.040 A 
ATOM     26  C   UNL A   1      32.957  19.479  25.423  1.00  0.00     0.015 A 
ATOM     27  C   UNL A   1      35.158  18.822  24.611  1.00  0.00     0.015 A 
ATOM     28  C   UNL A   1      32.525  18.155  25.308  1.00  0.00     0.021 A 
ATOM     29  C   UNL A   1      34.716  17.501  24.496  1.00  0.00     0.021 A 
ATOM     30  C   UNL A   1      33.408  17.171  24.858  1.00  0.00     0.041 A 
ATOM     31  Cl  UNL A   1      32.887  15.533  24.771  1.00  0.00    -0.084 Cl
ENDBRANCH  23  25
ENDBRANCH  19  23
ENDBRANCH   9  10
ENDBRANCH   7   9
ENDBRANCH   6   7
ENDBRANCH   5   6
ENDBRANCH   4   5
ENDBRANCH   3   4
ENDBRANCH   2   3
ENDBRANCH   1   2
BRANCH   1  32
ATOM     32  O   UNL A   1      35.025  29.797  27.062  1.00  0.00    -0.377 OA
BRANCH  32  33
ATOM     33  C   UNL A   1      34.914  30.806  28.047  1.00  0.00     0.188 C 
BRANCH  33  34
ATOM     34  C   UNL A   1      34.314  32.150  27.619  1.00  0.00     0.188 C 
BRANCH  34  35
ATOM     35  O   UNL A   1      35.148  33.259  27.876  1.00  0.00    -0.376 OA
BRANCH  35  36
ATOM     36  C   UNL A   1      34.697  34.326  28.694  1.00  0.00     0.202 C 
BRANCH  36  37
ATOM     37  C   UNL A   1      34.286  34.209  30.178  1.00  0.00     0.261 C 
BRANCH  37  38
ATOM     38  O   UNL A   1      34.636  32.989  30.825  1.00  0.00    -0.460 OA
BRANCH  38  39
ATOM     39  C   UNL A   1      35.264  32.983  32.030  1.00  0.00     0.338 C 
ATOM     40  O   UNL A   1      34.781  32.911  33.121  1.00  0.00    -0.246 OA
BRANCH  39  41
ATOM     41  C   UNL A   1      36.686  32.734  31.655  1.00  0.00     0.060 A 
ATOM     42  C   UNL A   1      36.992  31.900  30.576  1.00  0.00     0.016 A 
ATOM     43  C   UNL A   1      37.637  32.997  32.652  1.00  0.00     0.016 A 
ATOM     44  C   UNL A   1      38.182  31.180  30.607  1.00  0.00     0.010 A 
ATOM     45  C   UNL A   1      38.831  32.274  32.675  1.00  0.00     0.010 A 
ATOM     46  C   UNL A   1      39.077  31.317  31.690  1.00  0.00    -0.014 A 
BRANCH  46  47
ATOM     47  C   UNL A   1      40.354  30.596  31.589  1.00  0.00     0.031 A 
ATOM     48  C   UNL A   1      41.353  31.372  30.810  1.00  0.00     0.074 A 
ATOM     49  C   UNL A   1      40.742  29.458  32.206  1.00  0.00     0.049 A 
ATOM     50  N   UNL A   1      41.941  31.047  29.707  1.00  0.00    -0.248 NA
ATOM     51  C   UNL A   1      41.606  32.753  31.259  1.00  0.00     0.031 C 
ATOM     52  C   UNL A   1      40.025  28.713  33.240  1.00  0.00     0.029 A 
ATOM     53  N   UNL A   1      41.931  28.772  32.093  1.00  0.00    -0.354 N 
ATOM     54  C   UNL A   1      42.772  32.120  29.412  1.00  0.00     0.074 A 
ATOM     55  C   UNL A   1      42.412  33.196  30.298  1.00  0.00     0.031 C 
ATOM     56  C   UNL A   1      40.866  27.812  33.801  1.00  0.00     0.029 A 
ATOM     57  C   UNL A   1      42.138  27.829  33.091  1.00  0.00     0.049 A 
ATOM     58  H   UNL A   1      42.577  28.936  31.369  1.00  0.00     0.167 HD
ATOM     59  C   UNL A   1      43.883  31.974  28.650  1.00  0.00     0.037 A 
ATOM     60  C   UNL A   1      43.268  27.125  33.357  1.00  0.00     0.037 A 
ATOM     61  C   UNL A   1      43.888  30.748  27.905  1.00  0.00     0.049 A 
ATOM     62  C   UNL A   1      44.143  27.126  32.164  1.00  0.00     0.074 A 
ATOM     63  C   UNL A   1      43.329  30.271  26.743  1.00  0.00     0.029 A 
ATOM     64  N   UNL A   1      44.381  29.676  28.593  1.00  0.00    -0.354 N 
ATOM     65  N   UNL A   1      43.893  26.454  31.077  1.00  0.00    -0.248 NA
ATOM     66  C   UNL A   1      45.238  28.086  32.065  1.00  0.00     0.031 C 
ATOM     67  C   UNL A   1      43.369  28.847  26.832  1.00  0.00     0.029 A 
ATOM     68  C   UNL A   1      43.940  28.498  28.052  1.00  0.00     0.049 A 
ATOM     69  H   UNL A   1      44.975  29.742  29.374  1.00  0.00     0.167 HD
ATOM     70  C   UNL A   1      44.486  27.194  30.076  1.00  0.00     0.074 A 
ATOM     71  C   UNL A   1      45.447  28.056  30.746  1.00  0.00     0.031 C 
ATOM     72  C   UNL A   1      43.904  27.294  28.849  1.00  0.00     0.037 A 
BRANCH  59  73
ATOM     73  C   UNL A   1      45.165  32.702  28.951  1.00  0.00     0.057 A 
ATOM     74  C   UNL A   1      45.585  33.847  28.242  1.00  0.00     0.134 A 
ATOM     75  C   UNL A   1      45.835  32.457  30.159  1.00  0.00     0.134 A 
ATOM     76  F   UNL A   1      44.945  34.280  27.147  1.00  0.00    -0.206 F 
ATOM     77  C   UNL A   1      46.619  34.673  28.683  1.00  0.00     0.040 A 
ATOM     78  C   UNL A   1      46.835  33.311  30.639  1.00  0.00     0.040 A 
ATOM     79  F   UNL A   1      45.486  31.423  30.939  1.00  0.00    -0.206 F 
ATOM     80  C   UNL A   1      47.231  34.421  29.899  1.00  0.00     0.006 A 
ENDBRANCH  59  73
BRANCH  60  81
ATOM     81  C   UNL A   1      43.720  26.506  34.626  1.00  0.00     0.057 A 
ATOM     82  C   UNL A   1      44.161  27.294  35.702  1.00  0.00     0.134 A 
ATOM     83  C   UNL A   1      43.960  25.127  34.736  1.00  0.00     0.134 A 
ATOM     84  F   UNL A   1      44.060  28.631  35.662  1.00  0.00    -0.206 F 
ATOM     85  C   UNL A   1      44.799  26.748  36.820  1.00  0.00     0.040 A 
ATOM     86  C   UNL A   1      44.607  24.568  35.846  1.00  0.00     0.040 A 
ATOM     87  F   UNL A   1      43.620  24.292  33.744  1.00  0.00    -0.206 F 
ATOM     88  C   UNL A   1      45.034  25.381  36.891  1.00  0.00     0.006 A 
ENDBRANCH  60  81
BRANCH  72  89
ATOM     89  C   UNL A   1      43.014  26.169  28.427  1.00  0.00     0.057 A 
ATOM     90  C   UNL A   1      43.580  25.102  27.718  1.00  0.00     0.134 A 
ATOM     91  C   UNL A   1      41.636  26.113  28.676  1.00  0.00     0.134 A 
ATOM     92  F   UNL A   1      44.888  25.107  27.417  1.00  0.00    -0.206 F 
ATOM     93  C   UNL A   1      42.815  24.018  27.287  1.00  0.00     0.040 A 
ATOM     94  C   UNL A   1      40.873  25.007  28.295  1.00  0.00     0.040 A 
ATOM     95  F   UNL A   1      40.993  27.132  29.265  1.00  0.00    -0.206 F 
ATOM     96  C   UNL A   1      41.459  23.960  27.591  1.00  0.00     0.006 A 
ENDBRANCH  72  89
ENDBRANCH  46  47
ENDBRANCH  39  41
ENDBRANCH  38  39
ENDBRANCH  37  38
ENDBRANCH  36  37
ENDBRANCH  35  36
ENDBRANCH  34  35
ENDBRANCH  33  34
ENDBRANCH  32  33
ENDBRANCH   1  32
TORSDOF 24
ENDMDL
MODEL 2
REMARK VINA RESULT:      -9.1      2.420      6.062
REMARK SMILES COc1cc2c(CC(=O)OCCOCCOCCOCCOC(=O)c3ccc(-c4c5nc(c(-c6c(F)cccc6F)c6ccc([nH]6)c(-c6c(F)cccc6F)c6nc(c(-c7c(F)cccc7F)c7ccc4[nH]7)C=C6)C=C5)cc3)c(C)n(C(=O)c3ccc(Cl)cc3)c2cc1Cl
REMARK SMILES IDX 15 1 14 2 13 3 12 4 11 5 10 6 8 7 9 8 7 9 6 10 3 11 4 12
REMARK SMILES IDX 93 13 5 14 92 15 94 16 91 17 79 18 81 19 80 20 2 21 1 22
REMARK SMILES IDX 82 23 83 24 84 25 85 26 90 27 86 28 89 29 87 30 88 31 16 32
REMARK SMILES IDX 17 33 18 34 19 35 20 36 21 37 22 38 23 39 24 40 25 41 26 42
REMARK SMILES IDX 78 43 27 44 77 45 28 46 29 47 30 48 71 49 31 50 76 51 70 52
REMARK SMILES IDX 72 53 32 54 75 55 69 56 68 57 33 59 59 60 42 61 58 62 43 63
REMARK SMILES IDX 46 64 57 65 73 66 44 67 45 68 56 70 74 71 47 72 34 73 35 74
REMARK SMILES IDX 40 75 36 76 37 77 39 78 41 79 38 80 60 81 61 82 66 83 62 84
REMARK SMILES IDX 63 85 65 86 67 87 64 88 48 89 49 90 54 91 50 92 51 93 53 94
REMARK SMILES IDX 55 95 52 96
REMARK H PARENT 72 58 46 69
REMARK Flexibility Score: inf
ROOT
ATOM      1  C   UNL A   1      31.953  27.881  25.437  1.00  0.00     0.188 C 
ENDROOT
BRANCH   1   2
ATOM      2  C   UNL A   1      31.213  28.258  24.154  1.00  0.00     0.188 C 
BRANCH   2   3
ATOM      3  O   UNL A   1      32.039  28.751  23.114  1.00  0.00    -0.376 OA
BRANCH   3   4
ATOM      4  C   UNL A   1      33.426  28.466  23.227  1.00  0.00     0.202 C 
BRANCH   4   5
ATOM      5  C   UNL A   1      33.852  26.993  23.371  1.00  0.00     0.261 C 
BRANCH   5   6
ATOM      6  O   UNL A   1      34.034  26.251  22.146  1.00  0.00    -0.463 OA
BRANCH   6   7
ATOM      7  C   UNL A   1      33.081  25.361  21.790  1.00  0.00     0.310 C 
ATOM      8  O   UNL A   1      31.974  25.696  21.371  1.00  0.00    -0.252 OA
BRANCH   7   9
ATOM      9  C   UNL A   1      33.512  23.897  21.834  1.00  0.00     0.160 C 
BRANCH   9  10
ATOM     10  C   UNL A   1      34.172  23.337  23.084  1.00  0.00    -0.008 A 
ATOM     11  C   UNL A   1      31.896  23.183  26.207  1.00  0.00     0.138 A 
ATOM     12  C   UNL A   1      32.298  23.559  24.911  1.00  0.00     0.058 A 
ATOM     13  C   UNL A   1      32.840  22.610  27.046  1.00  0.00     0.085 A 
ATOM     14  C   UNL A   1      33.579  23.233  24.386  1.00  0.00     0.008 A 
ATOM     15  C   UNL A   1      34.140  22.362  26.578  1.00  0.00     0.051 A 
ATOM     16  Cl  UNL A   1      32.575  22.210  28.710  1.00  0.00    -0.080 Cl
ATOM     17  C   UNL A   1      34.509  22.641  25.242  1.00  0.00     0.058 A 
ATOM     18  C   UNL A   1      35.494  22.924  23.218  1.00  0.00     0.028 A 
ATOM     19  N   UNL A   1      35.709  22.456  24.529  1.00  0.00    -0.280 N 
ATOM     20  C   UNL A   1      36.541  22.945  22.146  1.00  0.00     0.065 C 
BRANCH  11  21
ATOM     21  O   UNL A   1      30.583  23.477  26.460  1.00  0.00    -0.495 OA
ATOM     22  C   UNL A   1      30.068  24.734  26.039  1.00  0.00     0.278 C 
ENDBRANCH  11  21
BRANCH  19  23
ATOM     23  C   UNL A   1      36.919  21.905  25.058  1.00  0.00     0.262 C 
ATOM     24  O   UNL A   1      37.176  20.717  24.877  1.00  0.00    -0.268 OA
BRANCH  23  25
ATOM     25  C   UNL A   1      37.927  22.661  25.824  1.00  0.00     0.040 A 
ATOM     26  C   UNL A   1      39.076  22.008  26.285  1.00  0.00     0.015 A 
ATOM     27  C   UNL A   1      37.692  24.006  26.132  1.00  0.00     0.015 A 
ATOM     28  C   UNL A   1      39.963  22.692  27.120  1.00  0.00     0.021 A 
ATOM     29  C   UNL A   1      38.587  24.685  26.964  1.00  0.00     0.021 A 
ATOM     30  C   UNL A   1      39.709  24.021  27.465  1.00  0.00     0.041 A 
ATOM     31  Cl  UNL A   1      40.776  24.841  28.537  1.00  0.00    -0.084 Cl
ENDBRANCH  23  25
ENDBRANCH  19  23
ENDBRANCH   9  10
ENDBRANCH   7   9
ENDBRANCH   6   7
ENDBRANCH   5   6
ENDBRANCH   4   5
ENDBRANCH   3   4
ENDBRANCH   2   3
ENDBRANCH   1   2
BRANCH   1  32
ATOM     32  O   UNL A   1      31.630  28.471  26.680  1.00  0.00    -0.377 OA
BRANCH  32  33
ATOM     33  C   UNL A   1      31.865  29.857  26.843  1.00  0.00     0.188 C 
BRANCH  33  34
ATOM     34  C   UNL A   1      33.312  30.348  26.724  1.00  0.00     0.188 C 
BRANCH  34  35
ATOM     35  O   UNL A   1      33.772  31.060  27.852  1.00  0.00    -0.376 OA
BRANCH  35  36
ATOM     36  C   UNL A   1      34.697  32.124  27.706  1.00  0.00     0.202 C 
BRANCH  36  37
ATOM     37  C   UNL A   1      35.161  33.073  28.832  1.00  0.00     0.261 C 
BRANCH  37  38
ATOM     38  O   UNL A   1      36.507  32.907  29.269  1.00  0.00    -0.460 OA
BRANCH  38  39
ATOM     39  C   UNL A   1      36.825  32.030  30.257  1.00  0.00     0.338 C 
ATOM     40  O   UNL A   1      36.156  31.676  31.182  1.00  0.00    -0.246 OA
BRANCH  39  41
ATOM     41  C   UNL A   1      38.046  31.363  29.720  1.00  0.00     0.060 A 
ATOM     42  C   UNL A   1      37.992  30.029  29.305  1.00  0.00     0.016 A 
ATOM     43  C   UNL A   1      39.269  31.962  30.056  1.00  0.00     0.016 A 
ATOM     44  C   UNL A   1      39.139  29.250  29.417  1.00  0.00     0.010 A 
ATOM     45  C   UNL A   1      40.416  31.175  30.164  1.00  0.00     0.010 A 
ATOM     46  C   UNL A   1      40.340  29.805  29.908  1.00  0.00    -0.014 A 
BRANCH  46  47
ATOM     47  C   UNL A   1      41.526  28.936  29.897  1.00  0.00     0.031 A 
ATOM     48  C   UNL A   1      41.998  28.646  31.275  1.00  0.00     0.074 A 
ATOM     49  C   UNL A   1      42.104  28.296  28.856  1.00  0.00     0.049 A 
ATOM     50  N   UNL A   1      43.137  28.933  31.812  1.00  0.00    -0.248 NA
ATOM     51  C   UNL A   1      40.999  28.095  32.209  1.00  0.00     0.031 C 
ATOM     52  C   UNL A   1      41.616  28.205  27.481  1.00  0.00     0.029 A 
ATOM     53  N   UNL A   1      43.228  27.501  28.844  1.00  0.00    -0.354 N 
ATOM     54  C   UNL A   1      43.058  28.441  33.109  1.00  0.00     0.074 A 
ATOM     55  C   UNL A   1      41.683  28.086  33.349  1.00  0.00     0.031 C 
ATOM     56  C   UNL A   1      42.313  27.247  26.825  1.00  0.00     0.029 A 
ATOM     57  C   UNL A   1      43.372  26.742  27.690  1.00  0.00     0.049 A 
ATOM     58  H   UNL A   1      43.873  27.473  29.587  1.00  0.00     0.167 HD
ATOM     59  C   UNL A   1      44.166  28.101  33.812  1.00  0.00     0.037 A 
ATOM     60  C   UNL A   1      44.263  25.745  27.448  1.00  0.00     0.037 A 
ATOM     61  C   UNL A   1      45.369  28.640  33.248  1.00  0.00     0.049 A 
ATOM     62  C   UNL A   1      45.397  25.857  28.392  1.00  0.00     0.074 A 
ATOM     63  C   UNL A   1      46.036  29.843  33.255  1.00  0.00     0.029 A 
ATOM     64  N   UNL A   1      45.920  27.872  32.262  1.00  0.00    -0.354 N 
ATOM     65  N   UNL A   1      46.307  26.785  28.330  1.00  0.00    -0.248 NA
ATOM     66  C   UNL A   1      45.417  25.044  29.604  1.00  0.00     0.031 C 
ATOM     67  C   UNL A   1      46.912  29.824  32.128  1.00  0.00     0.029 A 
ATOM     68  C   UNL A   1      46.744  28.615  31.460  1.00  0.00     0.049 A 
ATOM     69  H   UNL A   1      45.748  26.910  32.145  1.00  0.00     0.167 HD
ATOM     70  C   UNL A   1      46.714  26.949  29.638  1.00  0.00     0.074 A 
ATOM     71  C   UNL A   1      46.292  25.743  30.331  1.00  0.00     0.031 C 
ATOM     72  C   UNL A   1      47.040  28.184  30.113  1.00  0.00     0.037 A 
BRANCH  59  73
ATOM     73  C   UNL A   1      44.205  26.897  34.713  1.00  0.00     0.057 A 
ATOM     74  C   UNL A   1      44.120  26.985  36.119  1.00  0.00     0.134 A 
ATOM     75  C   UNL A   1      44.008  25.617  34.173  1.00  0.00     0.134 A 
ATOM     76  F   UNL A   1      44.150  28.161  36.761  1.00  0.00    -0.206 F 
ATOM     77  C   UNL A   1      43.888  25.876  36.934  1.00  0.00     0.040 A 
ATOM     78  C   UNL A   1      43.719  24.509  34.977  1.00  0.00     0.040 A 
ATOM     79  F   UNL A   1      44.020  25.425  32.846  1.00  0.00    -0.206 F 
ATOM     80  C   UNL A   1      43.660  24.636  36.361  1.00  0.00     0.006 A 
ENDBRANCH  59  73
BRANCH  60  81
ATOM     81  C   UNL A   1      44.175  24.609  26.501  1.00  0.00     0.057 A 
ATOM     82  C   UNL A   1      43.719  23.348  26.919  1.00  0.00     0.134 A 
ATOM     83  C   UNL A   1      44.761  24.657  25.226  1.00  0.00     0.134 A 
ATOM     84  F   UNL A   1      43.220  23.171  28.152  1.00  0.00    -0.206 F 
ATOM     85  C   UNL A   1      43.833  22.206  26.121  1.00  0.00     0.040 A 
ATOM     86  C   UNL A   1      44.892  23.519  24.420  1.00  0.00     0.040 A 
ATOM     87  F   UNL A   1      45.272  25.802  24.751  1.00  0.00    -0.206 F 
ATOM     88  C   UNL A   1      44.430  22.286  24.869  1.00  0.00     0.006 A 
ENDBRANCH  60  81
BRANCH  72  89
ATOM     89  C   UNL A   1      47.526  29.187  29.118  1.00  0.00     0.057 A 
ATOM     90  C   UNL A   1      46.593  30.053  28.535  1.00  0.00     0.134 A 
ATOM     91  C   UNL A   1      48.860  29.312  28.707  1.00  0.00     0.134 A 
ATOM     92  F   UNL A   1      45.293  29.966  28.859  1.00  0.00    -0.206 F 
ATOM     93  C   UNL A   1      46.968  31.014  27.595  1.00  0.00     0.040 A 
ATOM     94  C   UNL A   1      49.253  30.306  27.807  1.00  0.00     0.040 A 
ATOM     95  F   UNL A   1      49.805  28.465  29.140  1.00  0.00    -0.206 F 
ATOM     96  C   UNL A   1      48.306  31.153  27.241  1.00  0.00     0.006 A 
ENDBRANCH  72  89
ENDBRANCH  46  47
ENDBRANCH  39  41
ENDBRANCH  38  39
ENDBRANCH  37  38
ENDBRANCH  36  37
ENDBRANCH  35  36
ENDBRANCH  34  35
ENDBRANCH  33  34
ENDBRANCH  32  33
ENDBRANCH   1  32
TORSDOF 24
ENDMDL
MODEL 3
REMARK VINA RESULT:      -9.1      2.725      4.092
REMARK SMILES COc1cc2c(CC(=O)OCCOCCOCCOCCOC(=O)c3ccc(-c4c5nc(c(-c6c(F)cccc6F)c6ccc([nH]6)c(-c6c(F)cccc6F)c6nc(c(-c7c(F)cccc7F)c7ccc4[nH]7)C=C6)C=C5)cc3)c(C)n(C(=O)c3ccc(Cl)cc3)c2cc1Cl
REMARK SMILES IDX 15 1 14 2 13 3 12 4 11 5 10 6 8 7 9 8 7 9 6 10 3 11 4 12
REMARK SMILES IDX 93 13 5 14 92 15 94 16 91 17 79 18 81 19 80 20 2 21 1 22
REMARK SMILES IDX 82 23 83 24 84 25 85 26 90 27 86 28 89 29 87 30 88 31 16 32
REMARK SMILES IDX 17 33 18 34 19 35 20 36 21 37 22 38 23 39 24 40 25 41 26 42
REMARK SMILES IDX 78 43 27 44 77 45 28 46 29 47 30 48 71 49 31 50 76 51 70 52
REMARK SMILES IDX 72 53 32 54 75 55 69 56 68 57 33 59 59 60 42 61 58 62 43 63
REMARK SMILES IDX 46 64 57 65 73 66 44 67 45 68 56 70 74 71 47 72 34 73 35 74
REMARK SMILES IDX 40 75 36 76 37 77 39 78 41 79 38 80 60 81 61 82 66 83 62 84
REMARK SMILES IDX 63 85 65 86 67 87 64 88 48 89 49 90 54 91 50 92 51 93 53 94
REMARK SMILES IDX 55 95 52 96
REMARK H PARENT 72 58 46 69
REMARK Flexibility Score: inf
ROOT
ATOM      1  C   UNL A   1      34.171  29.086  27.332  1.00  0.00     0.188 C 
ENDROOT
BRANCH   1   2
ATOM      2  C   UNL A   1      32.782  29.064  26.695  1.00  0.00     0.188 C 
BRANCH   2   3
ATOM      3  O   UNL A   1      32.653  29.847  25.522  1.00  0.00    -0.376 OA
BRANCH   3   4
ATOM      4  C   UNL A   1      32.276  29.153  24.341  1.00  0.00     0.202 C 
BRANCH   4   5
ATOM      5  C   UNL A   1      33.313  28.217  23.691  1.00  0.00     0.261 C 
BRANCH   5   6
ATOM      6  O   UNL A   1      33.017  27.757  22.354  1.00  0.00    -0.463 OA
BRANCH   6   7
ATOM      7  C   UNL A   1      33.005  26.425  22.124  1.00  0.00     0.310 C 
ATOM      8  O   UNL A   1      32.179  25.877  21.398  1.00  0.00    -0.252 OA
BRANCH   7   9
ATOM      9  C   UNL A   1      34.168  25.651  22.743  1.00  0.00     0.160 C 
BRANCH   9  10
ATOM     10  C   UNL A   1      33.892  24.521  23.723  1.00  0.00    -0.008 A 
ATOM     11  C   UNL A   1      30.505  24.749  25.574  1.00  0.00     0.138 A 
ATOM     12  C   UNL A   1      31.587  25.189  24.789  1.00  0.00     0.058 A 
ATOM     13  C   UNL A   1      30.651  23.570  26.291  1.00  0.00     0.085 A 
ATOM     14  C   UNL A   1      32.750  24.399  24.583  1.00  0.00     0.008 A 
ATOM     15  C   UNL A   1      31.830  22.818  26.174  1.00  0.00     0.051 A 
ATOM     16  Cl  UNL A   1      29.492  22.942  27.413  1.00  0.00    -0.080 Cl
ATOM     17  C   UNL A   1      32.871  23.208  25.300  1.00  0.00     0.058 A 
ATOM     18  C   UNL A   1      34.739  23.463  24.039  1.00  0.00     0.028 A 
ATOM     19  N   UNL A   1      34.111  22.624  24.978  1.00  0.00    -0.280 N 
ATOM     20  C   UNL A   1      36.103  23.221  23.468  1.00  0.00     0.065 C 
BRANCH  11  21
ATOM     21  O   UNL A   1      29.435  25.603  25.529  1.00  0.00    -0.495 OA
ATOM     22  C   UNL A   1      29.184  26.325  24.329  1.00  0.00     0.278 C 
ENDBRANCH  11  21
BRANCH  19  23
ATOM     23  C   UNL A   1      34.629  21.407  25.526  1.00  0.00     0.262 C 
ATOM     24  O   UNL A   1      35.477  21.453  26.414  1.00  0.00    -0.268 OA
BRANCH  23  25
ATOM     25  C   UNL A   1      34.218  20.053  25.113  1.00  0.00     0.040 A 
ATOM     26  C   UNL A   1      32.884  19.658  25.271  1.00  0.00     0.015 A 
ATOM     27  C   UNL A   1      35.179  19.159  24.625  1.00  0.00     0.015 A 
ATOM     28  C   UNL A   1      32.525  18.335  25.002  1.00  0.00     0.021 A 
ATOM     29  C   UNL A   1      34.811  17.838  24.354  1.00  0.00     0.021 A 
ATOM     30  C   UNL A   1      33.491  17.429  24.556  1.00  0.00     0.041 A 
ATOM     31  Cl  UNL A   1      33.056  15.788  24.279  1.00  0.00    -0.084 Cl
ENDBRANCH  23  25
ENDBRANCH  19  23
ENDBRANCH   9  10
ENDBRANCH   7   9
ENDBRANCH   6   7
ENDBRANCH   5   6
ENDBRANCH   4   5
ENDBRANCH   3   4
ENDBRANCH   2   3
ENDBRANCH   1   2
BRANCH   1  32
ATOM     32  O   UNL A   1      35.022  30.209  27.218  1.00  0.00    -0.377 OA
BRANCH  32  33
ATOM     33  C   UNL A   1      34.876  31.255  28.159  1.00  0.00     0.188 C 
BRANCH  33  34
ATOM     34  C   UNL A   1      34.122  32.511  27.710  1.00  0.00     0.188 C 
BRANCH  34  35
ATOM     35  O   UNL A   1      34.884  33.697  27.786  1.00  0.00    -0.376 OA
BRANCH  35  36
ATOM     36  C   UNL A   1      34.344  34.863  28.385  1.00  0.00     0.202 C 
BRANCH  36  37
ATOM     37  C   UNL A   1      33.616  34.921  29.745  1.00  0.00     0.261 C 
BRANCH  37  38
ATOM     38  O   UNL A   1      33.790  33.787  30.590  1.00  0.00    -0.460 OA
BRANCH  38  39
ATOM     39  C   UNL A   1      34.190  33.924  31.882  1.00  0.00     0.338 C 
ATOM     40  O   UNL A   1      33.552  33.766  32.880  1.00  0.00    -0.246 OA
BRANCH  39  41
ATOM     41  C   UNL A   1      35.676  33.968  31.760  1.00  0.00     0.060 A 
ATOM     42  C   UNL A   1      36.363  32.902  31.170  1.00  0.00     0.016 A 
ATOM     43  C   UNL A   1      36.335  34.861  32.616  1.00  0.00     0.016 A 
ATOM     44  C   UNL A   1      37.658  32.627  31.597  1.00  0.00     0.010 A 
ATOM     45  C   UNL A   1      37.636  34.582  33.038  1.00  0.00     0.010 A 
ATOM     46  C   UNL A   1      38.276  33.429  32.581  1.00  0.00    -0.014 A 
BRANCH  46  47
ATOM     47  C   UNL A   1      39.680  33.127  32.897  1.00  0.00     0.031 A 
ATOM     48  C   UNL A   1      40.538  33.218  31.688  1.00  0.00     0.074 A 
ATOM     49  C   UNL A   1      40.261  32.935  34.102  1.00  0.00     0.049 A 
ATOM     50  N   UNL A   1      41.244  32.290  31.132  1.00  0.00    -0.248 NA
ATOM     51  C   UNL A   1      40.470  34.478  30.928  1.00  0.00     0.031 C 
ATOM     52  C   UNL A   1      39.656  33.107  35.422  1.00  0.00     0.029 A 
ATOM     53  N   UNL A   1      41.571  32.629  34.394  1.00  0.00    -0.354 N 
ATOM     54  C   UNL A   1      41.849  32.903  30.041  1.00  0.00     0.074 A 
ATOM     55  C   UNL A   1      41.221  34.187  29.869  1.00  0.00     0.031 C 
ATOM     56  C   UNL A   1      40.632  33.106  36.361  1.00  0.00     0.029 A 
ATOM     57  C   UNL A   1      41.912  32.815  35.728  1.00  0.00     0.049 A 
ATOM     58  H   UNL A   1      42.210  32.309  33.718  1.00  0.00     0.167 HD
ATOM     59  C   UNL A   1      43.009  32.439  29.515  1.00  0.00     0.037 A 
ATOM     60  C   UNL A   1      43.147  32.772  36.291  1.00  0.00     0.037 A 
ATOM     61  C   UNL A   1      43.314  31.102  29.933  1.00  0.00     0.049 A 
ATOM     62  C   UNL A   1      44.070  32.036  35.399  1.00  0.00     0.074 A 
ATOM     63  C   UNL A   1      42.936  29.826  29.588  1.00  0.00     0.029 A 
ATOM     64  N   UNL A   1      43.978  31.025  31.124  1.00  0.00    -0.354 N 
ATOM     65  N   UNL A   1      44.031  30.749  35.212  1.00  0.00    -0.248 NA
ATOM     66  C   UNL A   1      44.944  32.771  34.490  1.00  0.00     0.031 C 
ATOM     67  C   UNL A   1      43.267  28.994  30.699  1.00  0.00     0.029 A 
ATOM     68  C   UNL A   1      43.826  29.789  31.695  1.00  0.00     0.049 A 
ATOM     69  H   UNL A   1      44.499  31.761  31.519  1.00  0.00     0.167 HD
ATOM     70  C   UNL A   1      44.513  30.577  33.931  1.00  0.00     0.074 A 
ATOM     71  C   UNL A   1      45.232  31.801  33.619  1.00  0.00     0.031 C 
ATOM     72  C   UNL A   1      43.996  29.614  33.118  1.00  0.00     0.037 A 
BRANCH  59  73
ATOM     73  C   UNL A   1      44.089  33.361  29.020  1.00  0.00     0.057 A 
ATOM     74  C   UNL A   1      44.865  34.171  29.878  1.00  0.00     0.134 A 
ATOM     75  C   UNL A   1      44.583  33.216  27.714  1.00  0.00     0.134 A 
ATOM     76  F   UNL A   1      44.590  34.287  31.185  1.00  0.00    -0.206 F 
ATOM     77  C   UNL A   1      46.029  34.816  29.462  1.00  0.00     0.040 A 
ATOM     78  C   UNL A   1      45.781  33.812  27.304  1.00  0.00     0.040 A 
ATOM     79  F   UNL A   1      43.953  32.431  26.828  1.00  0.00    -0.206 F 
ATOM     80  C   UNL A   1      46.506  34.617  28.177  1.00  0.00     0.006 A 
ENDBRANCH  59  73
BRANCH  60  81
ATOM     81  C   UNL A   1      43.643  33.412  37.533  1.00  0.00     0.057 A 
ATOM     82  C   UNL A   1      43.484  32.791  38.783  1.00  0.00     0.134 A 
ATOM     83  C   UNL A   1      44.066  34.750  37.561  1.00  0.00     0.134 A 
ATOM     84  F   UNL A   1      43.003  31.543  38.875  1.00  0.00    -0.206 F 
ATOM     85  C   UNL A   1      43.733  33.456  39.987  1.00  0.00     0.040 A 
ATOM     86  C   UNL A   1      44.309  35.432  38.760  1.00  0.00     0.040 A 
ATOM     87  F   UNL A   1      44.203  35.448  36.425  1.00  0.00    -0.206 F 
ATOM     88  C   UNL A   1      44.138  34.785  39.980  1.00  0.00     0.006 A 
ENDBRANCH  60  81
BRANCH  72  89
ATOM     89  C   UNL A   1      43.388  28.421  33.782  1.00  0.00     0.057 A 
ATOM     90  C   UNL A   1      42.015  28.440  34.058  1.00  0.00     0.134 A 
ATOM     91  C   UNL A   1      44.103  27.280  34.170  1.00  0.00     0.134 A 
ATOM     92  F   UNL A   1      41.276  29.516  33.744  1.00  0.00    -0.206 F 
ATOM     93  C   UNL A   1      41.374  27.368  34.679  1.00  0.00     0.040 A 
ATOM     94  C   UNL A   1      43.461  26.180  34.743  1.00  0.00     0.040 A 
ATOM     95  F   UNL A   1      45.435  27.212  34.031  1.00  0.00    -0.206 F 
ATOM     96  C   UNL A   1      42.096  26.225  35.008  1.00  0.00     0.006 A 
ENDBRANCH  72  89
ENDBRANCH  46  47
ENDBRANCH  39  41
ENDBRANCH  38  39
ENDBRANCH  37  38
ENDBRANCH  36  37
ENDBRANCH  35  36
ENDBRANCH  34  35
ENDBRANCH  33  34
ENDBRANCH  32  33
ENDBRANCH   1  32
TORSDOF 24
ENDMDL
