MODEL 1
REMARK VINA RESULT:      -8.6      0.000      0.000
REMARK SMILES CCCCCCNC(=O)Oc1cccc(-c2ccc([C@@H](C)C(=O)OCCOCCOCCOCCOC(=O)c3ccc(-c4c5nc(c(-c6c(F)cccc6F)c6ccc([nH]6)c(-c6c(F)cccc6F)c6nc(c(-c7c(F)cccc7F)c7ccc4[nH]7)C=C6)C=C5)cc3)cc2C)c1
REMARK SMILES IDX 26 1 25 2 24 3 22 4 23 5 20 6 21 7 19 8 16 9 17 10 94 11
REMARK SMILES IDX 18 12 93 13 95 14 15 15 11 16 12 17 96 18 13 19 14 20 10 21
REMARK SMILES IDX 8 22 7 23 9 25 6 26 5 27 4 28 3 29 2 30 1 31 27 32 28 33
REMARK SMILES IDX 29 34 30 35 31 36 32 37 33 38 34 39 35 40 36 41 37 42 38 43
REMARK SMILES IDX 39 44 40 45 92 46 41 47 91 48 42 49 43 50 44 51 85 52 45 53
REMARK SMILES IDX 90 54 84 55 86 56 46 57 89 58 83 59 82 60 47 62 73 63 56 64
REMARK SMILES IDX 72 65 57 66 60 67 71 68 87 69 58 70 59 71 70 73 88 74 61 75
REMARK SMILES IDX 48 76 49 77 54 78 50 79 51 80 53 81 55 82 52 83 74 84 75 85
REMARK SMILES IDX 80 86 76 87 77 88 79 89 81 90 78 91 62 92 63 93 68 94 64 95
REMARK SMILES IDX 65 96 67 97 69 98 66 99
REMARK H PARENT 7 24 86 61 60 72
REMARK Flexibility Score: inf
ROOT
ATOM      1  C   UNL A   1      35.436  21.821  26.002  1.00  0.00     0.202 C 
ENDROOT
BRANCH   1   2
ATOM      2  C   UNL A   1      34.085  21.538  26.688  1.00  0.00     0.261 C 
BRANCH   2   3
ATOM      3  O   UNL A   1      33.376  20.347  26.286  1.00  0.00    -0.463 OA
BRANCH   3   4
ATOM      4  C   UNL A   1      33.342  20.090  24.958  1.00  0.00     0.313 C 
ATOM      5  O   UNL A   1      34.196  19.417  24.380  1.00  0.00    -0.252 OA
BRANCH   4   6
ATOM      6  C   UNL A   1      32.190  20.720  24.176  1.00  0.00     0.126 C 
ATOM      7  C   UNL A   1      32.153  20.095  22.787  1.00  0.00     0.025 C 
BRANCH   6   8
ATOM      8  C   UNL A   1      32.005  22.238  24.108  1.00  0.00    -0.034 A 
ATOM      9  C   UNL A   1      31.573  25.085  24.116  1.00  0.00    -0.015 A 
ATOM     10  C   UNL A   1      32.434  24.455  23.191  1.00  0.00     0.009 A 
ATOM     11  C   UNL A   1      30.917  24.259  25.053  1.00  0.00    -0.043 A 
ATOM     12  C   UNL A   1      32.645  23.062  23.181  1.00  0.00     0.005 A 
ATOM     13  C   UNL A   1      31.138  22.862  25.032  1.00  0.00     0.008 A 
ATOM     14  C   UNL A   1      30.004  24.793  26.130  1.00  0.00     0.045 C 
BRANCH   9  15
ATOM     15  C   UNL A   1      31.333  26.547  24.019  1.00  0.00    -0.014 A 
ATOM     16  C   UNL A   1      31.703  28.842  24.749  1.00  0.00     0.133 A 
ATOM     17  C   UNL A   1      30.668  29.299  23.937  1.00  0.00     0.047 A 
ATOM     18  C   UNL A   1      32.050  27.485  24.786  1.00  0.00     0.056 A 
ATOM     19  C   UNL A   1      29.976  28.392  23.142  1.00  0.00     0.004 A 
ATOM     20  C   UNL A   1      30.301  27.032  23.191  1.00  0.00     0.009 A 
BRANCH  16  21
ATOM     21  O   UNL A   1      32.246  29.785  25.648  1.00  0.00    -0.410 OA
BRANCH  21  22
ATOM     22  C   UNL A   1      32.367  29.476  26.993  1.00  0.00     0.412 C 
ATOM     23  N   UNL A   1      32.954  30.471  27.728  1.00  0.00    -0.321 N 
ATOM     24  H   UNL A   1      33.048  30.304  28.693  1.00  0.00     0.167 HD
ATOM     25  O   UNL A   1      32.010  28.430  27.523  1.00  0.00    -0.224 OA
BRANCH  23  26
ATOM     26  C   UNL A   1      33.455  31.744  27.242  1.00  0.00     0.119 C 
BRANCH  26  27
ATOM     27  C   UNL A   1      33.671  32.752  28.374  1.00  0.00     0.021 C 
BRANCH  27  28
ATOM     28  C   UNL A   1      33.311  34.203  28.032  1.00  0.00     0.002 C 
BRANCH  28  29
ATOM     29  C   UNL A   1      33.910  35.270  28.955  1.00  0.00    -0.000 C 
BRANCH  29  30
ATOM     30  C   UNL A   1      32.900  36.212  29.616  1.00  0.00    -0.003 C 
ATOM     31  C   UNL A   1      33.153  36.424  31.100  1.00  0.00     0.004 C 
ENDBRANCH  29  30
ENDBRANCH  28  29
ENDBRANCH  27  28
ENDBRANCH  26  27
ENDBRANCH  23  26
ENDBRANCH  21  22
ENDBRANCH  16  21
ENDBRANCH   9  15
ENDBRANCH   6   8
ENDBRANCH   4   6
ENDBRANCH   3   4
ENDBRANCH   2   3
ENDBRANCH   1   2
BRANCH   1  32
ATOM     32  O   UNL A   1      36.310  22.828  26.491  1.00  0.00    -0.376 OA
BRANCH  32  33
ATOM     33  C   UNL A   1      37.391  23.300  25.699  1.00  0.00     0.188 C 
BRANCH  33  34
ATOM     34  C   UNL A   1      38.523  24.132  26.316  1.00  0.00     0.188 C 
BRANCH  34  35
ATOM     35  O   UNL A   1      39.515  23.385  26.989  1.00  0.00    -0.377 OA
BRANCH  35  36
ATOM     36  C   UNL A   1      39.713  22.056  26.541  1.00  0.00     0.188 C 
BRANCH  36  37
ATOM     37  C   UNL A   1      41.148  21.658  26.145  1.00  0.00     0.188 C 
BRANCH  37  38
ATOM     38  O   UNL A   1      42.064  21.641  27.234  1.00  0.00    -0.376 OA
BRANCH  38  39
ATOM     39  C   UNL A   1      43.244  22.427  27.147  1.00  0.00     0.202 C 
BRANCH  39  40
ATOM     40  C   UNL A   1      43.103  23.942  26.932  1.00  0.00     0.261 C 
BRANCH  40  41
ATOM     41  O   UNL A   1      44.315  24.701  26.867  1.00  0.00    -0.460 OA
BRANCH  41  42
ATOM     42  C   UNL A   1      45.290  24.438  27.764  1.00  0.00     0.338 C 
ATOM     43  O   UNL A   1      46.311  23.813  27.584  1.00  0.00    -0.246 OA
BRANCH  42  44
ATOM     44  C   UNL A   1      44.997  25.250  28.969  1.00  0.00     0.060 A 
ATOM     45  C   UNL A   1      44.431  24.628  30.091  1.00  0.00     0.016 A 
ATOM     46  C   UNL A   1      45.286  26.615  28.988  1.00  0.00     0.016 A 
ATOM     47  C   UNL A   1      44.106  25.380  31.222  1.00  0.00     0.010 A 
ATOM     48  C   UNL A   1      44.934  27.372  30.107  1.00  0.00     0.010 A 
ATOM     49  C   UNL A   1      44.305  26.766  31.211  1.00  0.00    -0.014 A 
BRANCH  49  50
ATOM     50  C   UNL A   1      43.634  27.626  32.217  1.00  0.00     0.031 A 
ATOM     51  C   UNL A   1      42.340  28.281  31.817  1.00  0.00     0.074 A 
ATOM     52  C   UNL A   1      44.155  27.846  33.436  1.00  0.00     0.049 A 
ATOM     53  N   UNL A   1      41.643  29.200  32.433  1.00  0.00    -0.248 NA
ATOM     54  C   UNL A   1      41.759  27.841  30.536  1.00  0.00     0.031 C 
ATOM     55  C   UNL A   1      45.362  27.221  33.970  1.00  0.00     0.029 A 
ATOM     56  N   UNL A   1      43.737  28.686  34.439  1.00  0.00    -0.354 N 
ATOM     57  C   UNL A   1      40.560  29.465  31.604  1.00  0.00     0.074 A 
ATOM     58  C   UNL A   1      40.698  28.625  30.436  1.00  0.00     0.031 C 
ATOM     59  C   UNL A   1      45.607  27.724  35.194  1.00  0.00     0.029 A 
ATOM     60  C   UNL A   1      44.600  28.737  35.507  1.00  0.00     0.049 A 
ATOM     61  H   UNL A   1      42.899  29.202  34.398  1.00  0.00     0.167 HD
ATOM     62  C   UNL A   1      39.541  30.335  31.800  1.00  0.00     0.037 A 
ATOM     63  C   UNL A   1      44.596  29.543  36.590  1.00  0.00     0.037 A 
ATOM     64  C   UNL A   1      39.412  31.170  32.962  1.00  0.00     0.049 A 
ATOM     65  C   UNL A   1      43.499  30.569  36.746  1.00  0.00     0.074 A 
ATOM     66  C   UNL A   1      38.415  32.082  33.260  1.00  0.00     0.029 A 
ATOM     67  N   UNL A   1      40.314  31.200  34.014  1.00  0.00    -0.354 N 
ATOM     68  N   UNL A   1      42.478  30.815  35.962  1.00  0.00    -0.248 NA
ATOM     69  C   UNL A   1      43.558  31.434  37.935  1.00  0.00     0.031 C 
ATOM     70  C   UNL A   1      38.745  32.707  34.465  1.00  0.00     0.029 A 
ATOM     71  C   UNL A   1      39.908  32.132  34.953  1.00  0.00     0.049 A 
ATOM     72  H   UNL A   1      41.123  30.643  34.082  1.00  0.00     0.167 HD
ATOM     73  C   UNL A   1      41.748  31.823  36.585  1.00  0.00     0.074 A 
ATOM     74  C   UNL A   1      42.448  32.148  37.810  1.00  0.00     0.031 C 
ATOM     75  C   UNL A   1      40.599  32.418  36.185  1.00  0.00     0.037 A 
BRANCH  62  76
ATOM     76  C   UNL A   1      38.511  30.453  30.715  1.00  0.00     0.057 A 
ATOM     77  C   UNL A   1      37.444  29.555  30.601  1.00  0.00     0.134 A 
ATOM     78  C   UNL A   1      38.576  31.502  29.788  1.00  0.00     0.134 A 
ATOM     79  F   UNL A   1      37.331  28.518  31.446  1.00  0.00    -0.206 F 
ATOM     80  C   UNL A   1      36.488  29.682  29.590  1.00  0.00     0.040 A 
ATOM     81  C   UNL A   1      37.610  31.658  28.793  1.00  0.00     0.040 A 
ATOM     82  F   UNL A   1      39.572  32.399  29.842  1.00  0.00    -0.206 F 
ATOM     83  C   UNL A   1      36.566  30.742  28.689  1.00  0.00     0.006 A 
ENDBRANCH  62  76
BRANCH  63  84
ATOM     84  C   UNL A   1      45.678  29.441  37.604  1.00  0.00     0.057 A 
ATOM     85  C   UNL A   1      46.798  30.281  37.557  1.00  0.00     0.134 A 
ATOM     86  C   UNL A   1      45.639  28.479  38.621  1.00  0.00     0.134 A 
ATOM     87  F   UNL A   1      46.908  31.205  36.593  1.00  0.00    -0.206 F 
ATOM     88  C   UNL A   1      47.849  30.153  38.469  1.00  0.00     0.040 A 
ATOM     89  C   UNL A   1      46.669  28.360  39.557  1.00  0.00     0.040 A 
ATOM     90  F   UNL A   1      44.598  27.641  38.722  1.00  0.00    -0.206 F 
ATOM     91  C   UNL A   1      47.783  29.193  39.476  1.00  0.00     0.006 A 
ENDBRANCH  63  84
BRANCH  75  92
ATOM     92  C   UNL A   1      39.966  33.423  37.104  1.00  0.00     0.057 A 
ATOM     93  C   UNL A   1      38.989  33.069  38.042  1.00  0.00     0.134 A 
ATOM     94  C   UNL A   1      40.416  34.751  37.109  1.00  0.00     0.134 A 
ATOM     95  F   UNL A   1      38.508  31.818  38.084  1.00  0.00    -0.206 F 
ATOM     96  C   UNL A   1      38.478  34.003  38.947  1.00  0.00     0.040 A 
ATOM     97  C   UNL A   1      39.935  35.684  38.026  1.00  0.00     0.040 A 
ATOM     98  F   UNL A   1      41.361  35.152  36.243  1.00  0.00    -0.206 F 
ATOM     99  C   UNL A   1      38.960  35.311  38.948  1.00  0.00     0.006 A 
ENDBRANCH  75  92
ENDBRANCH  49  50
ENDBRANCH  42  44
ENDBRANCH  41  42
ENDBRANCH  40  41
ENDBRANCH  39  40
ENDBRANCH  38  39
ENDBRANCH  37  38
ENDBRANCH  36  37
ENDBRANCH  35  36
ENDBRANCH  34  35
ENDBRANCH  33  34
ENDBRANCH  32  33
ENDBRANCH   1  32
TORSDOF 29
ENDMDL
MODEL 2
REMARK VINA RESULT:      -8.6      3.046      8.516
REMARK SMILES CCCCCCNC(=O)Oc1cccc(-c2ccc([C@@H](C)C(=O)OCCOCCOCCOCCOC(=O)c3ccc(-c4c5nc(c(-c6c(F)cccc6F)c6ccc([nH]6)c(-c6c(F)cccc6F)c6nc(c(-c7c(F)cccc7F)c7ccc4[nH]7)C=C6)C=C5)cc3)cc2C)c1
REMARK SMILES IDX 26 1 25 2 24 3 22 4 23 5 20 6 21 7 19 8 16 9 17 10 94 11
REMARK SMILES IDX 18 12 93 13 95 14 15 15 11 16 12 17 96 18 13 19 14 20 10 21
REMARK SMILES IDX 8 22 7 23 9 25 6 26 5 27 4 28 3 29 2 30 1 31 27 32 28 33
REMARK SMILES IDX 29 34 30 35 31 36 32 37 33 38 34 39 35 40 36 41 37 42 38 43
REMARK SMILES IDX 39 44 40 45 92 46 41 47 91 48 42 49 43 50 44 51 85 52 45 53
REMARK SMILES IDX 90 54 84 55 86 56 46 57 89 58 83 59 82 60 47 62 73 63 56 64
REMARK SMILES IDX 72 65 57 66 60 67 71 68 87 69 58 70 59 71 70 73 88 74 61 75
REMARK SMILES IDX 48 76 49 77 54 78 50 79 51 80 53 81 55 82 52 83 74 84 75 85
REMARK SMILES IDX 80 86 76 87 77 88 79 89 81 90 78 91 62 92 63 93 68 94 64 95
REMARK SMILES IDX 65 96 67 97 69 98 66 99
REMARK H PARENT 7 24 86 61 60 72
REMARK Flexibility Score: inf
ROOT
ATOM      1  C   UNL A   1      30.962  28.191  22.887  1.00  0.00     0.202 C 
ENDROOT
BRANCH   1   2
ATOM      2  C   UNL A   1      29.707  27.595  23.554  1.00  0.00     0.261 C 
BRANCH   2   3
ATOM      3  O   UNL A   1      29.779  26.220  23.987  1.00  0.00    -0.463 OA
BRANCH   3   4
ATOM      4  C   UNL A   1      30.939  25.836  24.568  1.00  0.00     0.313 C 
ATOM      5  O   UNL A   1      31.344  26.298  25.634  1.00  0.00    -0.252 OA
BRANCH   4   6
ATOM      6  C   UNL A   1      31.768  24.804  23.803  1.00  0.00     0.126 C 
ATOM      7  C   UNL A   1      30.891  23.588  23.532  1.00  0.00     0.025 C 
BRANCH   6   8
ATOM      8  C   UNL A   1      33.164  24.390  24.276  1.00  0.00    -0.034 A 
ATOM      9  C   UNL A   1      35.721  23.542  25.291  1.00  0.00    -0.015 A 
ATOM     10  C   UNL A   1      35.572  24.127  24.015  1.00  0.00     0.009 A 
ATOM     11  C   UNL A   1      34.554  23.384  26.069  1.00  0.00    -0.043 A 
ATOM     12  C   UNL A   1      34.324  24.547  23.516  1.00  0.00     0.005 A 
ATOM     13  C   UNL A   1      33.307  23.810  25.555  1.00  0.00     0.008 A 
ATOM     14  C   UNL A   1      34.550  22.734  27.431  1.00  0.00     0.045 C 
BRANCH   9  15
ATOM     15  C   UNL A   1      37.077  23.195  25.788  1.00  0.00    -0.014 A 
ATOM     16  C   UNL A   1      39.204  23.778  26.823  1.00  0.00     0.133 A 
ATOM     17  C   UNL A   1      39.731  22.526  26.515  1.00  0.00     0.047 A 
ATOM     18  C   UNL A   1      37.887  24.114  26.482  1.00  0.00     0.056 A 
ATOM     19  C   UNL A   1      38.931  21.592  25.867  1.00  0.00     0.004 A 
ATOM     20  C   UNL A   1      37.622  21.928  25.502  1.00  0.00     0.009 A 
BRANCH  16  21
ATOM     21  O   UNL A   1      40.119  24.727  27.326  1.00  0.00    -0.410 OA
BRANCH  21  22
ATOM     22  C   UNL A   1      40.985  25.384  26.467  1.00  0.00     0.412 C 
ATOM     23  N   UNL A   1      41.301  26.651  26.879  1.00  0.00    -0.321 N 
ATOM     24  H   UNL A   1      41.926  27.153  26.308  1.00  0.00     0.167 HD
ATOM     25  O   UNL A   1      41.446  24.927  25.427  1.00  0.00    -0.224 OA
BRANCH  23  26
ATOM     26  C   UNL A   1      40.815  27.339  28.061  1.00  0.00     0.119 C 
BRANCH  26  27
ATOM     27  C   UNL A   1      40.070  28.631  27.716  1.00  0.00     0.021 C 
BRANCH  27  28
ATOM     28  C   UNL A   1      38.946  29.014  28.686  1.00  0.00     0.002 C 
BRANCH  28  29
ATOM     29  C   UNL A   1      38.458  27.895  29.612  1.00  0.00    -0.000 C 
BRANCH  29  30
ATOM     30  C   UNL A   1      39.088  27.872  31.007  1.00  0.00    -0.003 C 
ATOM     31  C   UNL A   1      38.067  27.778  32.130  1.00  0.00     0.004 C 
ENDBRANCH  29  30
ENDBRANCH  28  29
ENDBRANCH  27  28
ENDBRANCH  26  27
ENDBRANCH  23  26
ENDBRANCH  21  22
ENDBRANCH  16  21
ENDBRANCH   9  15
ENDBRANCH   6   8
ENDBRANCH   4   6
ENDBRANCH   3   4
ENDBRANCH   2   3
ENDBRANCH   1   2
BRANCH   1  32
ATOM     32  O   UNL A   1      31.902  28.948  23.637  1.00  0.00    -0.376 OA
BRANCH  32  33
ATOM     33  C   UNL A   1      31.533  29.547  24.872  1.00  0.00     0.188 C 
BRANCH  33  34
ATOM     34  C   UNL A   1      32.591  29.936  25.913  1.00  0.00     0.188 C 
BRANCH  34  35
ATOM     35  O   UNL A   1      32.136  30.798  26.935  1.00  0.00    -0.377 OA
BRANCH  35  36
ATOM     36  C   UNL A   1      32.886  31.983  27.138  1.00  0.00     0.188 C 
BRANCH  36  37
ATOM     37  C   UNL A   1      34.126  31.877  28.047  1.00  0.00     0.188 C 
BRANCH  37  38
ATOM     38  O   UNL A   1      35.187  32.752  27.681  1.00  0.00    -0.376 OA
BRANCH  38  39
ATOM     39  C   UNL A   1      35.504  33.839  28.538  1.00  0.00     0.202 C 
BRANCH  39  40
ATOM     40  C   UNL A   1      36.149  33.535  29.901  1.00  0.00     0.261 C 
BRANCH  40  41
ATOM     41  O   UNL A   1      37.147  32.509  29.928  1.00  0.00    -0.460 OA
BRANCH  41  42
ATOM     42  C   UNL A   1      36.898  31.384  30.632  1.00  0.00     0.338 C 
ATOM     43  O   UNL A   1      36.182  30.460  30.320  1.00  0.00    -0.246 OA
BRANCH  42  44
ATOM     44  C   UNL A   1      37.842  31.374  31.775  1.00  0.00     0.060 A 
ATOM     45  C   UNL A   1      39.209  31.575  31.533  1.00  0.00     0.016 A 
ATOM     46  C   UNL A   1      37.376  31.172  33.074  1.00  0.00     0.016 A 
ATOM     47  C   UNL A   1      40.123  31.527  32.589  1.00  0.00     0.010 A 
ATOM     48  C   UNL A   1      38.293  31.094  34.124  1.00  0.00     0.010 A 
ATOM     49  C   UNL A   1      39.673  31.229  33.880  1.00  0.00    -0.014 A 
BRANCH  49  50
ATOM     50  C   UNL A   1      40.633  30.801  34.927  1.00  0.00     0.031 A 
ATOM     51  C   UNL A   1      41.015  31.812  35.973  1.00  0.00     0.074 A 
ATOM     52  C   UNL A   1      41.171  29.570  34.949  1.00  0.00     0.049 A 
ATOM     53  N   UNL A   1      41.945  31.756  36.890  1.00  0.00    -0.248 NA
ATOM     54  C   UNL A   1      40.242  33.068  35.975  1.00  0.00     0.031 C 
ATOM     55  C   UNL A   1      40.835  28.479  34.038  1.00  0.00     0.029 A 
ATOM     56  N   UNL A   1      42.143  29.042  35.764  1.00  0.00    -0.354 N 
ATOM     57  C   UNL A   1      41.886  32.973  37.557  1.00  0.00     0.074 A 
ATOM     58  C   UNL A   1      40.843  33.755  36.933  1.00  0.00     0.031 C 
ATOM     59  C   UNL A   1      41.612  27.419  34.323  1.00  0.00     0.029 A 
ATOM     60  C   UNL A   1      42.530  27.773  35.406  1.00  0.00     0.049 A 
ATOM     61  H   UNL A   1      42.525  29.526  36.531  1.00  0.00     0.167 HD
ATOM     62  C   UNL A   1      42.638  33.402  38.598  1.00  0.00     0.037 A 
ATOM     63  C   UNL A   1      43.539  27.008  35.872  1.00  0.00     0.037 A 
ATOM     64  C   UNL A   1      43.677  32.622  39.212  1.00  0.00     0.049 A 
ATOM     65  C   UNL A   1      44.425  27.541  36.973  1.00  0.00     0.074 A 
ATOM     66  C   UNL A   1      44.494  32.961  40.275  1.00  0.00     0.029 A 
ATOM     67  N   UNL A   1      44.045  31.347  38.811  1.00  0.00    -0.354 N 
ATOM     68  N   UNL A   1      44.365  28.690  37.601  1.00  0.00    -0.248 NA
ATOM     69  C   UNL A   1      45.521  26.672  37.427  1.00  0.00     0.031 C 
ATOM     70  C   UNL A   1      45.397  31.915  40.479  1.00  0.00     0.029 A 
ATOM     71  C   UNL A   1      45.094  30.895  39.592  1.00  0.00     0.049 A 
ATOM     72  H   UNL A   1      43.624  30.840  38.079  1.00  0.00     0.167 HD
ATOM     73  C   UNL A   1      45.378  28.662  38.554  1.00  0.00     0.074 A 
ATOM     74  C   UNL A   1      46.043  27.383  38.417  1.00  0.00     0.031 C 
ATOM     75  C   UNL A   1      45.721  29.604  39.465  1.00  0.00     0.037 A 
BRANCH  62  76
ATOM     76  C   UNL A   1      42.390  34.791  39.108  1.00  0.00     0.057 A 
ATOM     77  C   UNL A   1      41.444  35.061  40.105  1.00  0.00     0.134 A 
ATOM     78  C   UNL A   1      43.131  35.872  38.612  1.00  0.00     0.134 A 
ATOM     79  F   UNL A   1      40.689  34.074  40.612  1.00  0.00    -0.206 F 
ATOM     80  C   UNL A   1      41.230  36.358  40.575  1.00  0.00     0.040 A 
ATOM     81  C   UNL A   1      42.948  37.168  39.096  1.00  0.00     0.040 A 
ATOM     82  F   UNL A   1      44.055  35.684  37.657  1.00  0.00    -0.206 F 
ATOM     83  C   UNL A   1      41.990  37.414  40.076  1.00  0.00     0.006 A 
ENDBRANCH  62  76
BRANCH  63  84
ATOM     84  C   UNL A   1      43.796  25.667  35.286  1.00  0.00     0.057 A 
ATOM     85  C   UNL A   1      44.791  25.475  34.319  1.00  0.00     0.134 A 
ATOM     86  C   UNL A   1      43.029  24.552  35.649  1.00  0.00     0.134 A 
ATOM     87  F   UNL A   1      45.541  26.507  33.909  1.00  0.00    -0.206 F 
ATOM     88  C   UNL A   1      44.998  24.231  33.718  1.00  0.00     0.040 A 
ATOM     89  C   UNL A   1      43.246  23.296  35.077  1.00  0.00     0.040 A 
ATOM     90  F   UNL A   1      42.058  24.665  36.566  1.00  0.00    -0.206 F 
ATOM     91  C   UNL A   1      44.227  23.135  34.102  1.00  0.00     0.006 A 
ENDBRANCH  63  84
BRANCH  75  92
ATOM     92  C   UNL A   1      46.807  29.274  40.448  1.00  0.00     0.057 A 
ATOM     93  C   UNL A   1      46.555  28.589  41.642  1.00  0.00     0.134 A 
ATOM     94  C   UNL A   1      48.144  29.568  40.142  1.00  0.00     0.134 A 
ATOM     95  F   UNL A   1      45.298  28.285  41.999  1.00  0.00    -0.206 F 
ATOM     96  C   UNL A   1      47.591  28.214  42.499  1.00  0.00     0.040 A 
ATOM     97  C   UNL A   1      49.189  29.174  40.976  1.00  0.00     0.040 A 
ATOM     98  F   UNL A   1      48.456  30.213  39.007  1.00  0.00    -0.206 F 
ATOM     99  C   UNL A   1      48.915  28.497  42.161  1.00  0.00     0.006 A 
ENDBRANCH  75  92
ENDBRANCH  49  50
ENDBRANCH  42  44
ENDBRANCH  41  42
ENDBRANCH  40  41
ENDBRANCH  39  40
ENDBRANCH  38  39
ENDBRANCH  37  38
ENDBRANCH  36  37
ENDBRANCH  35  36
ENDBRANCH  34  35
ENDBRANCH  33  34
ENDBRANCH  32  33
ENDBRANCH   1  32
TORSDOF 29
ENDMDL
MODEL 3
REMARK VINA RESULT:      -8.5      2.590      5.479
REMARK SMILES CCCCCCNC(=O)Oc1cccc(-c2ccc([C@@H](C)C(=O)OCCOCCOCCOCCOC(=O)c3ccc(-c4c5nc(c(-c6c(F)cccc6F)c6ccc([nH]6)c(-c6c(F)cccc6F)c6nc(c(-c7c(F)cccc7F)c7ccc4[nH]7)C=C6)C=C5)cc3)cc2C)c1
REMARK SMILES IDX 26 1 25 2 24 3 22 4 23 5 20 6 21 7 19 8 16 9 17 10 94 11
REMARK SMILES IDX 18 12 93 13 95 14 15 15 11 16 12 17 96 18 13 19 14 20 10 21
REMARK SMILES IDX 8 22 7 23 9 25 6 26 5 27 4 28 3 29 2 30 1 31 27 32 28 33
REMARK SMILES IDX 29 34 30 35 31 36 32 37 33 38 34 39 35 40 36 41 37 42 38 43
REMARK SMILES IDX 39 44 40 45 92 46 41 47 91 48 42 49 43 50 44 51 85 52 45 53
REMARK SMILES IDX 90 54 84 55 86 56 46 57 89 58 83 59 82 60 47 62 73 63 56 64
REMARK SMILES IDX 72 65 57 66 60 67 71 68 87 69 58 70 59 71 70 73 88 74 61 75
REMARK SMILES IDX 48 76 49 77 54 78 50 79 51 80 53 81 55 82 52 83 74 84 75 85
REMARK SMILES IDX 80 86 76 87 77 88 79 89 81 90 78 91 62 92 63 93 68 94 64 95
REMARK SMILES IDX 65 96 67 97 69 98 66 99
REMARK H PARENT 7 24 86 61 60 72
REMARK Flexibility Score: inf
ROOT
ATOM      1  C   UNL A   1      35.302  21.461  26.120  1.00  0.00     0.202 C 
ENDROOT
BRANCH   1   2
ATOM      2  C   UNL A   1      33.928  21.102  26.717  1.00  0.00     0.261 C 
BRANCH   2   3
ATOM      3  O   UNL A   1      33.296  19.895  26.242  1.00  0.00    -0.463 OA
BRANCH   3   4
ATOM      4  C   UNL A   1      33.317  19.695  24.905  1.00  0.00     0.313 C 
ATOM      5  O   UNL A   1      34.107  18.930  24.350  1.00  0.00    -0.252 OA
BRANCH   4   6
ATOM      6  C   UNL A   1      32.320  20.510  24.083  1.00  0.00     0.126 C 
ATOM      7  C   UNL A   1      32.245  19.910  22.684  1.00  0.00     0.025 C 
BRANCH   6   8
ATOM      8  C   UNL A   1      32.386  22.039  24.030  1.00  0.00    -0.034 A 
ATOM      9  C   UNL A   1      32.409  24.917  24.053  1.00  0.00    -0.015 A 
ATOM     10  C   UNL A   1      33.286  24.163  23.245  1.00  0.00     0.009 A 
ATOM     11  C   UNL A   1      31.502  24.203  24.864  1.00  0.00    -0.043 A 
ATOM     12  C   UNL A   1      33.276  22.754  23.227  1.00  0.00     0.005 A 
ATOM     13  C   UNL A   1      31.502  22.789  24.836  1.00  0.00     0.008 A 
ATOM     14  C   UNL A   1      30.537  24.870  25.812  1.00  0.00     0.045 C 
BRANCH   9  15
ATOM     15  C   UNL A   1      32.417  26.400  23.963  1.00  0.00    -0.014 A 
ATOM     16  C   UNL A   1      33.096  28.601  24.757  1.00  0.00     0.133 A 
ATOM     17  C   UNL A   1      32.215  29.224  23.875  1.00  0.00     0.047 A 
ATOM     18  C   UNL A   1      33.215  27.205  24.798  1.00  0.00     0.056 A 
ATOM     19  C   UNL A   1      31.450  28.444  23.015  1.00  0.00     0.004 A 
ATOM     20  C   UNL A   1      31.546  27.050  23.065  1.00  0.00     0.009 A 
BRANCH  16  21
ATOM     21  O   UNL A   1      33.712  29.439  25.711  1.00  0.00    -0.410 OA
BRANCH  21  22
ATOM     22  C   UNL A   1      33.168  29.570  26.979  1.00  0.00     0.412 C 
ATOM     23  N   UNL A   1      34.111  29.686  27.964  1.00  0.00    -0.321 N 
ATOM     24  H   UNL A   1      33.773  29.797  28.882  1.00  0.00     0.167 HD
ATOM     25  O   UNL A   1      31.972  29.578  27.248  1.00  0.00    -0.224 OA
BRANCH  23  26
ATOM     26  C   UNL A   1      35.555  29.662  27.809  1.00  0.00     0.119 C 
BRANCH  26  27
ATOM     27  C   UNL A   1      36.284  29.741  29.152  1.00  0.00     0.021 C 
BRANCH  27  28
ATOM     28  C   UNL A   1      37.720  29.203  29.146  1.00  0.00     0.002 C 
BRANCH  28  29
ATOM     29  C   UNL A   1      38.604  29.681  27.988  1.00  0.00    -0.000 C 
BRANCH  29  30
ATOM     30  C   UNL A   1      39.492  28.609  27.350  1.00  0.00    -0.003 C 
ATOM     31  C   UNL A   1      40.835  29.141  26.876  1.00  0.00     0.004 C 
ENDBRANCH  29  30
ENDBRANCH  28  29
ENDBRANCH  27  28
ENDBRANCH  26  27
ENDBRANCH  23  26
ENDBRANCH  21  22
ENDBRANCH  16  21
ENDBRANCH   9  15
ENDBRANCH   6   8
ENDBRANCH   4   6
ENDBRANCH   3   4
ENDBRANCH   2   3
ENDBRANCH   1   2
BRANCH   1  32
ATOM     32  O   UNL A   1      35.764  22.805  26.097  1.00  0.00    -0.376 OA
BRANCH  32  33
ATOM     33  C   UNL A   1      36.951  23.154  25.399  1.00  0.00     0.188 C 
BRANCH  33  34
ATOM     34  C   UNL A   1      38.329  23.022  26.061  1.00  0.00     0.188 C 
BRANCH  34  35
ATOM     35  O   UNL A   1      38.915  21.740  25.971  1.00  0.00    -0.377 OA
BRANCH  35  36
ATOM     36  C   UNL A   1      40.071  21.521  26.762  1.00  0.00     0.188 C 
BRANCH  36  37
ATOM     37  C   UNL A   1      41.294  20.907  26.055  1.00  0.00     0.188 C 
BRANCH  37  38
ATOM     38  O   UNL A   1      42.529  21.530  26.393  1.00  0.00    -0.376 OA
BRANCH  38  39
ATOM     39  C   UNL A   1      42.504  22.829  26.968  1.00  0.00     0.202 C 
BRANCH  39  40
ATOM     40  C   UNL A   1      43.711  23.755  26.741  1.00  0.00     0.261 C 
BRANCH  40  41
ATOM     41  O   UNL A   1      43.640  24.644  25.621  1.00  0.00    -0.460 OA
BRANCH  41  42
ATOM     42  C   UNL A   1      42.936  25.789  25.748  1.00  0.00     0.338 C 
ATOM     43  O   UNL A   1      42.190  26.291  24.939  1.00  0.00    -0.246 OA
BRANCH  42  44
ATOM     44  C   UNL A   1      43.064  26.218  27.161  1.00  0.00     0.060 A 
ATOM     45  C   UNL A   1      44.271  26.785  27.596  1.00  0.00     0.016 A 
ATOM     46  C   UNL A   1      41.995  26.066  28.045  1.00  0.00     0.016 A 
ATOM     47  C   UNL A   1      44.429  27.159  28.933  1.00  0.00     0.010 A 
ATOM     48  C   UNL A   1      42.164  26.411  29.387  1.00  0.00     0.010 A 
ATOM     49  C   UNL A   1      43.395  26.919  29.845  1.00  0.00    -0.014 A 
BRANCH  49  50
ATOM     50  C   UNL A   1      43.662  26.945  31.304  1.00  0.00     0.031 A 
ATOM     51  C   UNL A   1      43.403  28.235  32.033  1.00  0.00     0.074 A 
ATOM     52  C   UNL A   1      44.139  25.878  31.967  1.00  0.00     0.049 A 
ATOM     53  N   UNL A   1      43.705  28.579  33.258  1.00  0.00    -0.248 NA
ATOM     54  C   UNL A   1      42.715  29.288  31.265  1.00  0.00     0.031 C 
ATOM     55  C   UNL A   1      44.367  24.554  31.394  1.00  0.00     0.029 A 
ATOM     56  N   UNL A   1      44.543  25.755  33.275  1.00  0.00    -0.354 N 
ATOM     57  C   UNL A   1      43.269  29.890  33.397  1.00  0.00     0.074 A 
ATOM     58  C   UNL A   1      42.697  30.288  32.131  1.00  0.00     0.031 C 
ATOM     59  C   UNL A   1      44.901  23.759  32.339  1.00  0.00     0.029 A 
ATOM     60  C   UNL A   1      45.094  24.531  33.566  1.00  0.00     0.049 A 
ATOM     61  H   UNL A   1      44.445  26.475  33.939  1.00  0.00     0.167 HD
ATOM     62  C   UNL A   1      43.341  30.693  34.485  1.00  0.00     0.037 A 
ATOM     63  C   UNL A   1      45.721  24.103  34.682  1.00  0.00     0.037 A 
ATOM     64  C   UNL A   1      43.915  30.292  35.740  1.00  0.00     0.049 A 
ATOM     65  C   UNL A   1      45.871  25.044  35.854  1.00  0.00     0.074 A 
ATOM     66  C   UNL A   1      44.032  31.027  36.906  1.00  0.00     0.029 A 
ATOM     67  N   UNL A   1      44.473  29.048  35.989  1.00  0.00    -0.354 N 
ATOM     68  N   UNL A   1      45.457  26.281  35.981  1.00  0.00    -0.248 NA
ATOM     69  C   UNL A   1      46.581  24.530  37.035  1.00  0.00     0.031 C 
ATOM     70  C   UNL A   1      44.716  30.248  37.843  1.00  0.00     0.029 A 
ATOM     71  C   UNL A   1      44.958  29.003  37.284  1.00  0.00     0.049 A 
ATOM     72  H   UNL A   1      44.519  28.308  35.341  1.00  0.00     0.167 HD
ATOM     73  C   UNL A   1      45.809  26.674  37.268  1.00  0.00     0.074 A 
ATOM     74  C   UNL A   1      46.479  25.547  37.880  1.00  0.00     0.031 C 
ATOM     75  C   UNL A   1      45.590  27.859  37.890  1.00  0.00     0.037 A 
BRANCH  62  76
ATOM     76  C   UNL A   1      42.823  32.095  34.350  1.00  0.00     0.057 A 
ATOM     77  C   UNL A   1      43.630  33.147  33.900  1.00  0.00     0.134 A 
ATOM     78  C   UNL A   1      41.486  32.388  34.649  1.00  0.00     0.134 A 
ATOM     79  F   UNL A   1      44.924  32.938  33.612  1.00  0.00    -0.206 F 
ATOM     80  C   UNL A   1      43.131  34.445  33.772  1.00  0.00     0.040 A 
ATOM     81  C   UNL A   1      40.968  33.674  34.496  1.00  0.00     0.040 A 
ATOM     82  F   UNL A   1      40.657  31.426  35.083  1.00  0.00    -0.206 F 
ATOM     83  C   UNL A   1      41.794  34.709  34.062  1.00  0.00     0.006 A 
ENDBRANCH  62  76
BRANCH  63  84
ATOM     84  C   UNL A   1      46.285  22.729  34.746  1.00  0.00     0.057 A 
ATOM     85  C   UNL A   1      47.652  22.496  34.551  1.00  0.00     0.134 A 
ATOM     86  C   UNL A   1      45.467  21.613  34.964  1.00  0.00     0.134 A 
ATOM     87  F   UNL A   1      48.483  23.519  34.311  1.00  0.00    -0.206 F 
ATOM     88  C   UNL A   1      48.181  21.203  34.548  1.00  0.00     0.040 A 
ATOM     89  C   UNL A   1      45.989  20.318  34.994  1.00  0.00     0.040 A 
ATOM     90  F   UNL A   1      44.149  21.764  35.155  1.00  0.00    -0.206 F 
ATOM     91  C   UNL A   1      47.348  20.109  34.776  1.00  0.00     0.006 A 
ENDBRANCH  63  84
BRANCH  75  92
ATOM     92  C   UNL A   1      45.996  27.986  39.330  1.00  0.00     0.057 A 
ATOM     93  C   UNL A   1      45.264  27.401  40.369  1.00  0.00     0.134 A 
ATOM     94  C   UNL A   1      47.196  28.630  39.666  1.00  0.00     0.134 A 
ATOM     95  F   UNL A   1      44.103  26.778  40.117  1.00  0.00    -0.206 F 
ATOM     96  C   UNL A   1      45.708  27.457  41.692  1.00  0.00     0.040 A 
ATOM     97  C   UNL A   1      47.663  28.667  40.979  1.00  0.00     0.040 A 
ATOM     98  F   UNL A   1      47.952  29.201  38.715  1.00  0.00    -0.206 F 
ATOM     99  C   UNL A   1      46.916  28.081  41.998  1.00  0.00     0.006 A 
ENDBRANCH  75  92
ENDBRANCH  49  50
ENDBRANCH  42  44
ENDBRANCH  41  42
ENDBRANCH  40  41
ENDBRANCH  39  40
ENDBRANCH  38  39
ENDBRANCH  37  38
ENDBRANCH  36  37
ENDBRANCH  35  36
ENDBRANCH  34  35
ENDBRANCH  33  34
ENDBRANCH  32  33
ENDBRANCH   1  32
TORSDOF 29
ENDMDL
