MODEL 1
REMARK VINA RESULT:     -12.3      0.000      0.000
REMARK SMILES CC1(C)[C@H](O)CC[C@@]2(C)[C@@H]1CC[C@]1(C)Oc3oc(C(=O)OCCOCCOCCOCCOC(=O)c4ccc(-c5c6nc(c(-c7c(F)cccc7F)c7ccc([nH]7)c(-c7c(F)cccc7F)c7nc(c(-c8c(F)cccc8F)c8ccc5[nH]8)C=C7)C=C6)cc4)cc(=O)c3C[C@@H]21
REMARK SMILES IDX 28 1 27 2 26 3 25 4 24 5 23 6 22 7 21 8 19 9 20 10 18 11
REMARK SMILES IDX 1 12 2 13 4 14 10 15 3 16 6 17 8 18 11 19 7 20 95 21 9 22
REMARK SMILES IDX 12 23 13 24 94 25 15 26 14 27 93 28 16 29 91 30 17 31 90 32
REMARK SMILES IDX 92 33 5 34 29 36 30 37 31 38 32 39 33 40 34 41 35 42 36 43
REMARK SMILES IDX 37 44 89 45 38 46 88 47 39 48 40 49 41 50 82 51 42 52 87 53
REMARK SMILES IDX 81 54 83 55 43 56 86 57 80 58 79 59 44 61 70 62 53 63 69 64
REMARK SMILES IDX 54 65 57 66 68 67 84 68 55 69 56 70 67 72 85 73 58 74 45 75
REMARK SMILES IDX 46 76 51 77 47 78 48 79 50 80 52 81 49 82 71 83 72 84 77 85
REMARK SMILES IDX 73 86 74 87 76 88 78 89 75 90 59 91 60 92 65 93 61 94 62 95
REMARK SMILES IDX 64 96 66 97 63 98
REMARK H PARENT 5 35 83 60 57 71
REMARK Flexibility Score: inf
ROOT
ATOM      1  C   UNL A   1      41.213  20.182  27.509  1.00  0.00     0.188 C 
ENDROOT
BRANCH   1   2
ATOM      2  O   UNL A   1      40.437  21.353  27.681  1.00  0.00    -0.377 OA
BRANCH   2   3
ATOM      3  C   UNL A   1      40.001  22.049  26.518  1.00  0.00     0.188 C 
BRANCH   3   4
ATOM      4  C   UNL A   1      38.503  22.223  26.126  1.00  0.00     0.188 C 
BRANCH   4   5
ATOM      5  O   UNL A   1      38.096  21.425  25.025  1.00  0.00    -0.376 OA
BRANCH   5   6
ATOM      6  C   UNL A   1      36.798  21.543  24.480  1.00  0.00     0.202 C 
BRANCH   6   7
ATOM      7  C   UNL A   1      35.787  20.528  25.001  1.00  0.00     0.261 C 
BRANCH   7   8
ATOM      8  O   UNL A   1      34.840  21.077  25.908  1.00  0.00    -0.457 OA
BRANCH   8   9
ATOM      9  C   UNL A   1      33.521  20.737  25.793  1.00  0.00     0.374 C 
ATOM     10  O   UNL A   1      32.996  19.713  26.117  1.00  0.00    -0.242 OA
BRANCH   9  11
ATOM     11  C   UNL A   1      32.858  21.988  25.331  1.00  0.00     0.219 A 
ATOM     12  C   UNL A   1      30.908  27.243  25.865  1.00  0.00     0.014 C 
ATOM     13  C   UNL A   1      32.631  27.314  25.444  1.00  0.00    -0.006 C 
ATOM     14  C   UNL A   1      33.543  28.615  25.549  1.00  0.00     0.120 C 
ATOM     15  C   UNL A   1      32.570  27.997  23.676  1.00  0.00     0.004 C 
ATOM     16  C   UNL A   1      32.669  27.342  27.138  1.00  0.00     0.014 C 
ATOM     17  C   UNL A   1      32.498  29.766  25.514  1.00  0.00     0.033 C 
ATOM     18  C   UNL A   1      31.124  28.040  23.459  1.00  0.00    -0.022 C 
ATOM     19  C   UNL A   1      33.353  27.652  22.334  1.00  0.00     0.009 C 
ATOM     20  C   UNL A   1      31.097  29.383  24.631  1.00  0.00     0.010 C 
ATOM     21  C   UNL A   1      31.106  26.251  23.258  1.00  0.00     0.044 C 
ATOM     22  C   UNL A   1      30.467  28.680  22.231  1.00  0.00     0.012 C 
ATOM     23  C   UNL A   1      32.998  26.346  21.647  1.00  0.00     0.049 C 
ATOM     24  C   UNL A   1      32.536  25.490  22.794  1.00  0.00     0.113 C 
ATOM     25  C   UNL A   1      30.267  25.155  23.994  1.00  0.00     0.055 C 
ATOM     26  O   UNL A   1      32.231  24.113  22.395  1.00  0.00    -0.458 OA
ATOM     27  C   UNL A   1      33.843  25.351  23.689  1.00  0.00     0.057 C 
ATOM     28  C   UNL A   1      31.140  24.014  24.466  1.00  0.00     0.081 A 
ATOM     29  C   UNL A   1      32.003  23.430  23.611  1.00  0.00     0.292 A 
ATOM     30  C   UNL A   1      31.452  23.758  25.882  1.00  0.00     0.192 A 
ATOM     31  O   UNL A   1      32.947  22.459  24.020  1.00  0.00    -0.418 OA
ATOM     32  C   UNL A   1      32.060  22.516  26.249  1.00  0.00     0.107 A 
ATOM     33  O   UNL A   1      31.400  24.568  26.787  1.00  0.00    -0.289 OA
BRANCH  14  34
ATOM     34  O   UNL A   1      34.573  28.672  26.537  1.00  0.00    -0.393 OA
ATOM     35  H   UNL A   1      34.453  29.463  27.085  1.00  0.00     0.210 HD
ENDBRANCH  14  34
ENDBRANCH   9  11
ENDBRANCH   8   9
ENDBRANCH   7   8
ENDBRANCH   6   7
ENDBRANCH   5   6
ENDBRANCH   4   5
ENDBRANCH   3   4
ENDBRANCH   2   3
ENDBRANCH   1   2
BRANCH   1  36
ATOM     36  C   UNL A   1      41.125  19.558  26.100  1.00  0.00     0.188 C 
BRANCH  36  37
ATOM     37  O   UNL A   1      42.350  19.579  25.390  1.00  0.00    -0.376 OA
BRANCH  37  38
ATOM     38  C   UNL A   1      43.403  20.442  25.769  1.00  0.00     0.202 C 
BRANCH  38  39
ATOM     39  C   UNL A   1      43.769  21.707  24.978  1.00  0.00     0.261 C 
BRANCH  39  40
ATOM     40  O   UNL A   1      43.138  22.934  25.350  1.00  0.00    -0.460 OA
BRANCH  40  41
ATOM     41  C   UNL A   1      43.881  24.058  25.323  1.00  0.00     0.338 C 
ATOM     42  O   UNL A   1      44.821  24.314  24.597  1.00  0.00    -0.246 OA
BRANCH  41  43
ATOM     43  C   UNL A   1      43.214  25.011  26.232  1.00  0.00     0.060 A 
ATOM     44  C   UNL A   1      43.491  26.383  26.127  1.00  0.00     0.016 A 
ATOM     45  C   UNL A   1      42.276  24.541  27.151  1.00  0.00     0.016 A 
ATOM     46  C   UNL A   1      42.812  27.294  26.930  1.00  0.00     0.010 A 
ATOM     47  C   UNL A   1      41.645  25.447  28.002  1.00  0.00     0.010 A 
ATOM     48  C   UNL A   1      41.929  26.821  27.906  1.00  0.00    -0.014 A 
BRANCH  48  49
ATOM     49  C   UNL A   1      41.516  27.725  28.998  1.00  0.00     0.031 A 
ATOM     50  C   UNL A   1      42.267  27.622  30.295  1.00  0.00     0.074 A 
ATOM     51  C   UNL A   1      40.515  28.604  28.846  1.00  0.00     0.049 A 
ATOM     52  N   UNL A   1      42.058  28.238  31.428  1.00  0.00    -0.248 NA
ATOM     53  C   UNL A   1      43.412  26.694  30.313  1.00  0.00     0.031 C 
ATOM     54  C   UNL A   1      39.759  28.831  27.616  1.00  0.00     0.029 A 
ATOM     55  N   UNL A   1      39.953  29.465  29.754  1.00  0.00    -0.354 N 
ATOM     56  C   UNL A   1      43.045  27.777  32.288  1.00  0.00     0.074 A 
ATOM     57  C   UNL A   1      43.836  26.811  31.560  1.00  0.00     0.031 C 
ATOM     58  C   UNL A   1      38.811  29.755  27.855  1.00  0.00     0.029 A 
ATOM     59  C   UNL A   1      38.874  30.154  29.260  1.00  0.00     0.049 A 
ATOM     60  H   UNL A   1      40.291  29.577  30.671  1.00  0.00     0.167 HD
ATOM     61  C   UNL A   1      43.275  28.131  33.573  1.00  0.00     0.037 A 
ATOM     62  C   UNL A   1      38.021  30.983  29.892  1.00  0.00     0.037 A 
ATOM     63  C   UNL A   1      42.459  29.063  34.303  1.00  0.00     0.049 A 
ATOM     64  C   UNL A   1      38.223  31.262  31.361  1.00  0.00     0.074 A 
ATOM     65  C   UNL A   1      42.594  29.484  35.614  1.00  0.00     0.029 A 
ATOM     66  N   UNL A   1      41.344  29.702  33.787  1.00  0.00    -0.354 N 
ATOM     67  N   UNL A   1      39.169  30.842  32.166  1.00  0.00    -0.248 NA
ATOM     68  C   UNL A   1      37.231  32.133  32.008  1.00  0.00     0.031 C 
ATOM     69  C   UNL A   1      41.523  30.332  35.908  1.00  0.00     0.029 A 
ATOM     70  C   UNL A   1      40.760  30.493  34.762  1.00  0.00     0.049 A 
ATOM     71  H   UNL A   1      41.014  29.608  32.864  1.00  0.00     0.167 HD
ATOM     72  C   UNL A   1      38.908  31.426  33.401  1.00  0.00     0.074 A 
ATOM     73  C   UNL A   1      37.724  32.243  33.232  1.00  0.00     0.031 C 
ATOM     74  C   UNL A   1      39.585  31.304  34.570  1.00  0.00     0.037 A 
BRANCH  61  75
ATOM     75  C   UNL A   1      44.426  27.471  34.271  1.00  0.00     0.057 A 
ATOM     76  C   UNL A   1      44.265  26.223  34.884  1.00  0.00     0.134 A 
ATOM     77  C   UNL A   1      45.691  28.069  34.342  1.00  0.00     0.134 A 
ATOM     78  F   UNL A   1      43.082  25.592  34.850  1.00  0.00    -0.206 F 
ATOM     79  C   UNL A   1      45.320  25.596  35.549  1.00  0.00     0.040 A 
ATOM     80  C   UNL A   1      46.762  27.439  34.979  1.00  0.00     0.040 A 
ATOM     81  F   UNL A   1      45.918  29.254  33.754  1.00  0.00    -0.206 F 
ATOM     82  C   UNL A   1      46.575  26.201  35.591  1.00  0.00     0.006 A 
ENDBRANCH  61  75
BRANCH  62  83
ATOM     83  C   UNL A   1      36.876  31.592  29.166  1.00  0.00     0.057 A 
ATOM     84  C   UNL A   1      35.672  30.898  28.987  1.00  0.00     0.134 A 
ATOM     85  C   UNL A   1      36.934  32.911  28.700  1.00  0.00     0.134 A 
ATOM     86  F   UNL A   1      35.549  29.632  29.410  1.00  0.00    -0.206 F 
ATOM     87  C   UNL A   1      34.568  31.496  28.377  1.00  0.00     0.040 A 
ATOM     88  C   UNL A   1      35.827  33.531  28.116  1.00  0.00     0.040 A 
ATOM     89  F   UNL A   1      38.049  33.636  28.864  1.00  0.00    -0.206 F 
ATOM     90  C   UNL A   1      34.639  32.821  27.953  1.00  0.00     0.006 A 
ENDBRANCH  62  83
BRANCH  74  91
ATOM     91  C   UNL A   1      39.089  32.109  35.739  1.00  0.00     0.057 A 
ATOM     92  C   UNL A   1      39.501  33.437  35.910  1.00  0.00     0.134 A 
ATOM     93  C   UNL A   1      38.227  31.571  36.704  1.00  0.00     0.134 A 
ATOM     94  F   UNL A   1      40.338  34.011  35.032  1.00  0.00    -0.206 F 
ATOM     95  C   UNL A   1      39.073  34.202  36.996  1.00  0.00     0.040 A 
ATOM     96  C   UNL A   1      37.763  32.337  37.774  1.00  0.00     0.040 A 
ATOM     97  F   UNL A   1      37.785  30.309  36.593  1.00  0.00    -0.206 F 
ATOM     98  C   UNL A   1      38.191  33.654  37.926  1.00  0.00     0.006 A 
ENDBRANCH  74  91
ENDBRANCH  48  49
ENDBRANCH  41  43
ENDBRANCH  40  41
ENDBRANCH  39  40
ENDBRANCH  38  39
ENDBRANCH  37  38
ENDBRANCH  36  37
ENDBRANCH   1  36
TORSDOF 21
ENDMDL
MODEL 2
REMARK VINA RESULT:     -11.9      3.786      9.695
REMARK SMILES CC1(C)[C@H](O)CC[C@@]2(C)[C@@H]1CC[C@]1(C)Oc3oc(C(=O)OCCOCCOCCOCCOC(=O)c4ccc(-c5c6nc(c(-c7c(F)cccc7F)c7ccc([nH]7)c(-c7c(F)cccc7F)c7nc(c(-c8c(F)cccc8F)c8ccc5[nH]8)C=C7)C=C6)cc4)cc(=O)c3C[C@@H]21
REMARK SMILES IDX 28 1 27 2 26 3 25 4 24 5 23 6 22 7 21 8 19 9 20 10 18 11
REMARK SMILES IDX 1 12 2 13 4 14 10 15 3 16 6 17 8 18 11 19 7 20 95 21 9 22
REMARK SMILES IDX 12 23 13 24 94 25 15 26 14 27 93 28 16 29 91 30 17 31 90 32
REMARK SMILES IDX 92 33 5 34 29 36 30 37 31 38 32 39 33 40 34 41 35 42 36 43
REMARK SMILES IDX 37 44 89 45 38 46 88 47 39 48 40 49 41 50 82 51 42 52 87 53
REMARK SMILES IDX 81 54 83 55 43 56 86 57 80 58 79 59 44 61 70 62 53 63 69 64
REMARK SMILES IDX 54 65 57 66 68 67 84 68 55 69 56 70 67 72 85 73 58 74 45 75
REMARK SMILES IDX 46 76 51 77 47 78 48 79 50 80 52 81 49 82 71 83 72 84 77 85
REMARK SMILES IDX 73 86 74 87 76 88 78 89 75 90 59 91 60 92 65 93 61 94 62 95
REMARK SMILES IDX 64 96 66 97 63 98
REMARK H PARENT 5 35 83 60 57 71
REMARK Flexibility Score: inf
ROOT
ATOM      1  C   UNL A   1      35.463  33.287  28.257  1.00  0.00     0.188 C 
ENDROOT
BRANCH   1   2
ATOM      2  O   UNL A   1      35.283  32.142  27.445  1.00  0.00    -0.377 OA
BRANCH   2   3
ATOM      3  C   UNL A   1      34.169  31.297  27.712  1.00  0.00     0.188 C 
BRANCH   3   4
ATOM      4  C   UNL A   1      33.891  29.967  26.948  1.00  0.00     0.188 C 
BRANCH   4   5
ATOM      5  O   UNL A   1      32.677  29.330  27.316  1.00  0.00    -0.376 OA
BRANCH   5   6
ATOM      6  C   UNL A   1      31.814  28.787  26.339  1.00  0.00     0.202 C 
BRANCH   6   7
ATOM      7  C   UNL A   1      31.534  29.699  25.149  1.00  0.00     0.261 C 
BRANCH   7   8
ATOM      8  O   UNL A   1      32.129  29.255  23.937  1.00  0.00    -0.457 OA
BRANCH   8   9
ATOM      9  C   UNL A   1      31.347  28.685  22.972  1.00  0.00     0.374 C 
ATOM     10  O   UNL A   1      30.720  29.233  22.114  1.00  0.00    -0.242 OA
BRANCH   9  11
ATOM     11  C   UNL A   1      31.583  27.222  23.125  1.00  0.00     0.219 A 
ATOM     12  C   UNL A   1      34.705  22.543  23.384  1.00  0.00     0.014 C 
ATOM     13  C   UNL A   1      34.666  23.293  24.993  1.00  0.00    -0.006 C 
ATOM     14  C   UNL A   1      35.629  22.909  26.202  1.00  0.00     0.120 C 
ATOM     15  C   UNL A   1      33.615  22.055  25.971  1.00  0.00     0.004 C 
ATOM     16  C   UNL A   1      36.058  23.975  24.307  1.00  0.00     0.014 C 
ATOM     17  C   UNL A   1      36.095  21.475  25.822  1.00  0.00     0.033 C 
ATOM     18  C   UNL A   1      33.244  21.123  24.907  1.00  0.00    -0.022 C 
ATOM     19  C   UNL A   1      32.452  22.205  27.048  1.00  0.00     0.009 C 
ATOM     20  C   UNL A   1      34.951  20.608  24.912  1.00  0.00     0.010 C 
ATOM     21  C   UNL A   1      32.062  22.323  24.274  1.00  0.00     0.044 C 
ATOM     22  C   UNL A   1      32.515  19.796  25.153  1.00  0.00     0.012 C 
ATOM     23  C   UNL A   1      31.100  22.673  26.540  1.00  0.00     0.049 C 
ATOM     24  C   UNL A   1      31.471  23.492  25.334  1.00  0.00     0.113 C 
ATOM     25  C   UNL A   1      31.908  22.939  22.843  1.00  0.00     0.055 C 
ATOM     26  O   UNL A   1      30.320  24.154  24.714  1.00  0.00    -0.458 OA
ATOM     27  C   UNL A   1      32.315  24.687  25.957  1.00  0.00     0.057 C 
ATOM     28  C   UNL A   1      31.774  24.444  22.900  1.00  0.00     0.081 A 
ATOM     29  C   UNL A   1      30.881  25.008  23.738  1.00  0.00     0.292 A 
ATOM     30  C   UNL A   1      32.821  25.373  22.444  1.00  0.00     0.192 A 
ATOM     31  O   UNL A   1      30.804  26.405  23.946  1.00  0.00    -0.418 OA
ATOM     32  C   UNL A   1      32.504  26.760  22.291  1.00  0.00     0.107 A 
ATOM     33  O   UNL A   1      34.005  25.123  22.333  1.00  0.00    -0.289 OA
BRANCH  14  34
ATOM     34  O   UNL A   1      36.616  23.844  26.637  1.00  0.00    -0.393 OA
ATOM     35  H   UNL A   1      36.179  24.624  27.014  1.00  0.00     0.210 HD
ENDBRANCH  14  34
ENDBRANCH   9  11
ENDBRANCH   8   9
ENDBRANCH   7   8
ENDBRANCH   6   7
ENDBRANCH   5   6
ENDBRANCH   4   5
ENDBRANCH   3   4
ENDBRANCH   2   3
ENDBRANCH   1   2
BRANCH   1  36
ATOM     36  C   UNL A   1      34.224  34.202  28.357  1.00  0.00     0.188 C 
BRANCH  36  37
ATOM     37  O   UNL A   1      33.543  34.106  29.594  1.00  0.00    -0.376 OA
BRANCH  37  38
ATOM     38  C   UNL A   1      34.073  34.682  30.770  1.00  0.00     0.202 C 
BRANCH  38  39
ATOM     39  C   UNL A   1      34.307  33.879  32.059  1.00  0.00     0.261 C 
BRANCH  39  40
ATOM     40  O   UNL A   1      35.001  32.635  31.954  1.00  0.00    -0.460 OA
BRANCH  40  41
ATOM     41  C   UNL A   1      35.968  32.374  32.857  1.00  0.00     0.338 C 
ATOM     42  O   UNL A   1      35.948  32.586  34.053  1.00  0.00    -0.246 OA
BRANCH  41  43
ATOM     43  C   UNL A   1      37.001  31.602  32.138  1.00  0.00     0.060 A 
ATOM     44  C   UNL A   1      37.817  30.706  32.846  1.00  0.00     0.016 A 
ATOM     45  C   UNL A   1      37.118  31.734  30.755  1.00  0.00     0.016 A 
ATOM     46  C   UNL A   1      38.743  29.922  32.165  1.00  0.00     0.010 A 
ATOM     47  C   UNL A   1      38.092  30.997  30.082  1.00  0.00     0.010 A 
ATOM     48  C   UNL A   1      38.918  30.107  30.789  1.00  0.00    -0.014 A 
BRANCH  48  49
ATOM     49  C   UNL A   1      40.138  29.582  30.145  1.00  0.00     0.031 A 
ATOM     50  C   UNL A   1      41.288  30.532  29.973  1.00  0.00     0.074 A 
ATOM     51  C   UNL A   1      40.223  28.309  29.728  1.00  0.00     0.049 A 
ATOM     52  N   UNL A   1      42.434  30.350  29.374  1.00  0.00    -0.248 NA
ATOM     53  C   UNL A   1      41.118  31.873  30.561  1.00  0.00     0.031 C 
ATOM     54  C   UNL A   1      39.194  27.286  29.897  1.00  0.00     0.029 A 
ATOM     55  N   UNL A   1      41.232  27.668  29.057  1.00  0.00    -0.354 N 
ATOM     56  C   UNL A   1      43.121  31.548  29.516  1.00  0.00     0.074 A 
ATOM     57  C   UNL A   1      42.257  32.459  30.232  1.00  0.00     0.031 C 
ATOM     58  C   UNL A   1      39.616  26.147  29.318  1.00  0.00     0.029 A 
ATOM     59  C   UNL A   1      40.926  26.376  28.711  1.00  0.00     0.049 A 
ATOM     60  H   UNL A   1      42.094  28.095  28.843  1.00  0.00     0.167 HD
ATOM     61  C   UNL A   1      44.366  31.861  29.090  1.00  0.00     0.037 A 
ATOM     62  C   UNL A   1      41.619  25.500  27.959  1.00  0.00     0.037 A 
ATOM     63  C   UNL A   1      45.204  30.963  28.343  1.00  0.00     0.049 A 
ATOM     64  C   UNL A   1      42.951  25.919  27.385  1.00  0.00     0.074 A 
ATOM     65  C   UNL A   1      46.478  31.182  27.851  1.00  0.00     0.029 A 
ATOM     66  N   UNL A   1      44.841  29.680  27.966  1.00  0.00    -0.354 N 
ATOM     67  N   UNL A   1      43.607  27.044  27.539  1.00  0.00    -0.248 NA
ATOM     68  C   UNL A   1      43.637  24.940  26.529  1.00  0.00     0.031 C 
ATOM     69  C   UNL A   1      46.861  30.051  27.123  1.00  0.00     0.029 A 
ATOM     70  C   UNL A   1      45.854  29.104  27.219  1.00  0.00     0.049 A 
ATOM     71  H   UNL A   1      43.989  29.243  28.195  1.00  0.00     0.167 HD
ATOM     72  C   UNL A   1      44.796  26.893  26.833  1.00  0.00     0.074 A 
ATOM     73  C   UNL A   1      44.776  25.562  26.265  1.00  0.00     0.031 C 
ATOM     74  C   UNL A   1      45.816  27.772  26.669  1.00  0.00     0.037 A 
BRANCH  61  75
ATOM     75  C   UNL A   1      44.865  33.243  29.387  1.00  0.00     0.057 A 
ATOM     76  C   UNL A   1      45.584  33.504  30.560  1.00  0.00     0.134 A 
ATOM     77  C   UNL A   1      44.632  34.318  28.518  1.00  0.00     0.134 A 
ATOM     78  F   UNL A   1      45.847  32.519  31.432  1.00  0.00    -0.206 F 
ATOM     79  C   UNL A   1      46.048  34.785  30.861  1.00  0.00     0.040 A 
ATOM     80  C   UNL A   1      45.116  35.598  28.794  1.00  0.00     0.040 A 
ATOM     81  F   UNL A   1      43.970  34.130  27.366  1.00  0.00    -0.206 F 
ATOM     82  C   UNL A   1      45.820  35.835  29.974  1.00  0.00     0.006 A 
ENDBRANCH  61  75
BRANCH  62  83
ATOM     83  C   UNL A   1      41.071  24.150  27.665  1.00  0.00     0.057 A 
ATOM     84  C   UNL A   1      40.114  23.952  26.661  1.00  0.00     0.134 A 
ATOM     85  C   UNL A   1      41.547  23.015  28.332  1.00  0.00     0.134 A 
ATOM     86  F   UNL A   1      39.616  24.996  25.983  1.00  0.00    -0.206 F 
ATOM     87  C   UNL A   1      39.657  22.675  26.329  1.00  0.00     0.040 A 
ATOM     88  C   UNL A   1      41.121  21.731  27.989  1.00  0.00     0.040 A 
ATOM     89  F   UNL A   1      42.482  23.136  29.285  1.00  0.00    -0.206 F 
ATOM     90  C   UNL A   1      40.171  21.559  26.983  1.00  0.00     0.006 A 
ENDBRANCH  62  83
BRANCH  74  91
ATOM     91  C   UNL A   1      47.010  27.302  25.887  1.00  0.00     0.057 A 
ATOM     92  C   UNL A   1      48.072  26.657  26.534  1.00  0.00     0.134 A 
ATOM     93  C   UNL A   1      47.123  27.504  24.505  1.00  0.00     0.134 A 
ATOM     94  F   UNL A   1      48.036  26.444  27.858  1.00  0.00    -0.206 F 
ATOM     95  C   UNL A   1      49.201  26.227  25.837  1.00  0.00     0.040 A 
ATOM     96  C   UNL A   1      48.232  27.046  23.791  1.00  0.00     0.040 A 
ATOM     97  F   UNL A   1      46.137  28.105  23.822  1.00  0.00    -0.206 F 
ATOM     98  C   UNL A   1      49.278  26.411  24.458  1.00  0.00     0.006 A 
ENDBRANCH  74  91
ENDBRANCH  48  49
ENDBRANCH  41  43
ENDBRANCH  40  41
ENDBRANCH  39  40
ENDBRANCH  38  39
ENDBRANCH  37  38
ENDBRANCH  36  37
ENDBRANCH   1  36
TORSDOF 21
ENDMDL
MODEL 3
REMARK VINA RESULT:     -11.8      0.669      5.732
REMARK SMILES CC1(C)[C@H](O)CC[C@@]2(C)[C@@H]1CC[C@]1(C)Oc3oc(C(=O)OCCOCCOCCOCCOC(=O)c4ccc(-c5c6nc(c(-c7c(F)cccc7F)c7ccc([nH]7)c(-c7c(F)cccc7F)c7nc(c(-c8c(F)cccc8F)c8ccc5[nH]8)C=C7)C=C6)cc4)cc(=O)c3C[C@@H]21
REMARK SMILES IDX 28 1 27 2 26 3 25 4 24 5 23 6 22 7 21 8 19 9 20 10 18 11
REMARK SMILES IDX 1 12 2 13 4 14 10 15 3 16 6 17 8 18 11 19 7 20 95 21 9 22
REMARK SMILES IDX 12 23 13 24 94 25 15 26 14 27 93 28 16 29 91 30 17 31 90 32
REMARK SMILES IDX 92 33 5 34 29 36 30 37 31 38 32 39 33 40 34 41 35 42 36 43
REMARK SMILES IDX 37 44 89 45 38 46 88 47 39 48 40 49 41 50 82 51 42 52 87 53
REMARK SMILES IDX 81 54 83 55 43 56 86 57 80 58 79 59 44 61 70 62 53 63 69 64
REMARK SMILES IDX 54 65 57 66 68 67 84 68 55 69 56 70 67 72 85 73 58 74 45 75
REMARK SMILES IDX 46 76 51 77 47 78 48 79 50 80 52 81 49 82 71 83 72 84 77 85
REMARK SMILES IDX 73 86 74 87 76 88 78 89 75 90 59 91 60 92 65 93 61 94 62 95
REMARK SMILES IDX 64 96 66 97 63 98
REMARK H PARENT 5 35 83 60 57 71
REMARK Flexibility Score: inf
ROOT
ATOM      1  C   UNL A   1      41.452  21.446  27.372  1.00  0.00     0.188 C 
ENDROOT
BRANCH   1   2
ATOM      2  O   UNL A   1      40.040  21.363  27.339  1.00  0.00    -0.377 OA
BRANCH   2   3
ATOM      3  C   UNL A   1      39.387  21.490  26.081  1.00  0.00     0.188 C 
BRANCH   3   4
ATOM      4  C   UNL A   1      38.119  22.366  25.850  1.00  0.00     0.188 C 
BRANCH   4   5
ATOM      5  O   UNL A   1      37.541  22.222  24.561  1.00  0.00    -0.376 OA
BRANCH   5   6
ATOM      6  C   UNL A   1      36.193  21.832  24.405  1.00  0.00     0.202 C 
BRANCH   6   7
ATOM      7  C   UNL A   1      35.732  20.721  25.343  1.00  0.00     0.261 C 
BRANCH   7   8
ATOM      8  O   UNL A   1      34.595  21.066  26.122  1.00  0.00    -0.457 OA
BRANCH   8   9
ATOM      9  C   UNL A   1      33.350  20.695  25.696  1.00  0.00     0.374 C 
ATOM     10  O   UNL A   1      32.839  19.617  25.768  1.00  0.00    -0.242 OA
BRANCH   9  11
ATOM     11  C   UNL A   1      32.709  21.973  25.277  1.00  0.00     0.219 A 
ATOM     12  C   UNL A   1      30.936  27.274  25.961  1.00  0.00     0.014 C 
ATOM     13  C   UNL A   1      32.646  27.301  25.484  1.00  0.00    -0.006 C 
ATOM     14  C   UNL A   1      33.600  28.573  25.581  1.00  0.00     0.120 C 
ATOM     15  C   UNL A   1      32.548  28.016  23.731  1.00  0.00     0.004 C 
ATOM     16  C   UNL A   1      32.740  27.298  27.177  1.00  0.00     0.014 C 
ATOM     17  C   UNL A   1      32.589  29.754  25.598  1.00  0.00     0.033 C 
ATOM     18  C   UNL A   1      31.098  28.105  23.562  1.00  0.00    -0.022 C 
ATOM     19  C   UNL A   1      33.277  27.671  22.358  1.00  0.00     0.009 C 
ATOM     20  C   UNL A   1      31.149  29.428  24.756  1.00  0.00     0.010 C 
ATOM     21  C   UNL A   1      31.020  26.322  23.332  1.00  0.00     0.044 C 
ATOM     22  C   UNL A   1      30.421  28.786  22.366  1.00  0.00     0.012 C 
ATOM     23  C   UNL A   1      32.861  26.389  21.662  1.00  0.00     0.049 C 
ATOM     24  C   UNL A   1      32.411  25.527  22.809  1.00  0.00     0.113 C 
ATOM     25  C   UNL A   1      30.173  25.238  24.078  1.00  0.00     0.055 C 
ATOM     26  O   UNL A   1      32.052  24.167  22.398  1.00  0.00    -0.458 OA
ATOM     27  C   UNL A   1      33.741  25.334  23.658  1.00  0.00     0.057 C 
ATOM     28  C   UNL A   1      31.026  24.064  24.501  1.00  0.00     0.081 A 
ATOM     29  C   UNL A   1      31.843  23.469  23.609  1.00  0.00     0.292 A 
ATOM     30  C   UNL A   1      31.375  23.775  25.902  1.00  0.00     0.192 A 
ATOM     31  O   UNL A   1      32.770  22.464  23.972  1.00  0.00    -0.418 OA
ATOM     32  C   UNL A   1      31.957  22.509  26.229  1.00  0.00     0.107 A 
ATOM     33  O   UNL A   1      31.378  24.569  26.822  1.00  0.00    -0.289 OA
BRANCH  14  34
ATOM     34  O   UNL A   1      34.662  28.582  26.535  1.00  0.00    -0.393 OA
ATOM     35  H   UNL A   1      35.280  29.300  26.325  1.00  0.00     0.210 HD
ENDBRANCH  14  34
ENDBRANCH   9  11
ENDBRANCH   8   9
ENDBRANCH   7   8
ENDBRANCH   6   7
ENDBRANCH   5   6
ENDBRANCH   4   5
ENDBRANCH   3   4
ENDBRANCH   2   3
ENDBRANCH   1   2
BRANCH   1  36
ATOM     36  C   UNL A   1      42.146  21.058  26.049  1.00  0.00     0.188 C 
BRANCH  36  37
ATOM     37  O   UNL A   1      43.559  21.037  26.131  1.00  0.00    -0.376 OA
BRANCH  37  38
ATOM     38  C   UNL A   1      44.357  21.779  25.232  1.00  0.00     0.202 C 
BRANCH  38  39
ATOM     39  C   UNL A   1      43.786  22.885  24.330  1.00  0.00     0.261 C 
BRANCH  39  40
ATOM     40  O   UNL A   1      43.217  24.034  24.959  1.00  0.00    -0.460 OA
BRANCH  40  41
ATOM     41  C   UNL A   1      44.033  25.070  25.235  1.00  0.00     0.338 C 
ATOM     42  O   UNL A   1      45.039  25.407  24.642  1.00  0.00    -0.246 OA
BRANCH  41  43
ATOM     43  C   UNL A   1      43.365  25.845  26.300  1.00  0.00     0.060 A 
ATOM     44  C   UNL A   1      43.795  27.150  26.586  1.00  0.00     0.016 A 
ATOM     45  C   UNL A   1      42.278  25.289  26.974  1.00  0.00     0.016 A 
ATOM     46  C   UNL A   1      43.124  27.911  27.537  1.00  0.00     0.010 A 
ATOM     47  C   UNL A   1      41.647  26.028  27.974  1.00  0.00     0.010 A 
ATOM     48  C   UNL A   1      42.083  27.331  28.270  1.00  0.00    -0.014 A 
BRANCH  48  49
ATOM     49  C   UNL A   1      41.640  27.978  29.520  1.00  0.00     0.031 A 
ATOM     50  C   UNL A   1      40.444  28.883  29.439  1.00  0.00     0.074 A 
ATOM     51  C   UNL A   1      42.272  27.770  30.685  1.00  0.00     0.049 A 
ATOM     52  N   UNL A   1      39.901  29.629  30.364  1.00  0.00    -0.248 NA
ATOM     53  C   UNL A   1      39.770  28.954  28.130  1.00  0.00     0.031 C 
ATOM     54  C   UNL A   1      43.402  26.868  30.892  1.00  0.00     0.029 A 
ATOM     55  N   UNL A   1      42.052  28.327  31.919  1.00  0.00    -0.354 N 
ATOM     56  C   UNL A   1      38.822  30.252  29.751  1.00  0.00     0.074 A 
ATOM     57  C   UNL A   1      38.801  29.822  28.371  1.00  0.00     0.031 C 
ATOM     58  C   UNL A   1      43.795  26.953  32.176  1.00  0.00     0.029 A 
ATOM     59  C   UNL A   1      42.966  27.940  32.866  1.00  0.00     0.049 A 
ATOM     60  H   UNL A   1      41.309  28.946  32.106  1.00  0.00     0.167 HD
ATOM     61  C   UNL A   1      37.925  31.106  30.293  1.00  0.00     0.037 A 
ATOM     62  C   UNL A   1      43.125  28.368  34.133  1.00  0.00     0.037 A 
ATOM     63  C   UNL A   1      37.975  31.561  31.655  1.00  0.00     0.049 A 
ATOM     64  C   UNL A   1      42.188  29.420  34.674  1.00  0.00     0.074 A 
ATOM     65  C   UNL A   1      37.124  32.437  32.305  1.00  0.00     0.029 A 
ATOM     66  N   UNL A   1      38.946  31.188  32.572  1.00  0.00    -0.354 N 
ATOM     67  N   UNL A   1      41.156  29.991  34.100  1.00  0.00    -0.248 NA
ATOM     68  C   UNL A   1      42.443  29.887  36.045  1.00  0.00     0.031 C 
ATOM     69  C   UNL A   1      37.616  32.640  33.597  1.00  0.00     0.029 A 
ATOM     70  C   UNL A   1      38.733  31.840  33.775  1.00  0.00     0.049 A 
ATOM     71  H   UNL A   1      39.678  30.554  32.394  1.00  0.00     0.167 HD
ATOM     72  C   UNL A   1      40.619  30.853  35.050  1.00  0.00     0.074 A 
ATOM     73  C   UNL A   1      41.429  30.716  36.242  1.00  0.00     0.031 C 
ATOM     74  C   UNL A   1      39.550  31.683  34.952  1.00  0.00     0.037 A 
BRANCH  61  75
ATOM     75  C   UNL A   1      36.847  31.630  29.392  1.00  0.00     0.057 A 
ATOM     76  C   UNL A   1      35.720  30.852  29.102  1.00  0.00     0.134 A 
ATOM     77  C   UNL A   1      36.923  32.902  28.806  1.00  0.00     0.134 A 
ATOM     78  F   UNL A   1      35.581  29.628  29.633  1.00  0.00    -0.206 F 
ATOM     79  C   UNL A   1      34.711  31.316  28.257  1.00  0.00     0.040 A 
ATOM     80  C   UNL A   1      35.907  33.389  27.983  1.00  0.00     0.040 A 
ATOM     81  F   UNL A   1      37.966  33.708  29.063  1.00  0.00    -0.206 F 
ATOM     82  C   UNL A   1      34.799  32.591  27.700  1.00  0.00     0.006 A 
ENDBRANCH  61  75
BRANCH  62  83
ATOM     83  C   UNL A   1      44.227  27.842  34.980  1.00  0.00     0.057 A 
ATOM     84  C   UNL A   1      45.467  28.490  35.052  1.00  0.00     0.134 A 
ATOM     85  C   UNL A   1      44.040  26.719  35.795  1.00  0.00     0.134 A 
ATOM     86  F   UNL A   1      45.712  29.571  34.299  1.00  0.00    -0.206 F 
ATOM     87  C   UNL A   1      46.476  28.044  35.908  1.00  0.00     0.040 A 
ATOM     88  C   UNL A   1      45.029  26.281  36.677  1.00  0.00     0.040 A 
ATOM     89  F   UNL A   1      42.866  26.070  35.790  1.00  0.00    -0.206 F 
ATOM     90  C   UNL A   1      46.253  26.946  36.734  1.00  0.00     0.006 A 
ENDBRANCH  62  83
BRANCH  74  91
ATOM     91  C   UNL A   1      39.170  32.464  36.178  1.00  0.00     0.057 A 
ATOM     92  C   UNL A   1      39.739  33.720  36.424  1.00  0.00     0.134 A 
ATOM     93  C   UNL A   1      38.264  31.969  37.126  1.00  0.00     0.134 A 
ATOM     94  F   UNL A   1      40.625  34.247  35.566  1.00  0.00    -0.206 F 
ATOM     95  C   UNL A   1      39.419  34.458  37.564  1.00  0.00     0.040 A 
ATOM     96  C   UNL A   1      37.909  32.714  38.252  1.00  0.00     0.040 A 
ATOM     97  F   UNL A   1      37.674  30.778  36.946  1.00  0.00    -0.206 F 
ATOM     98  C   UNL A   1      38.492  33.959  38.477  1.00  0.00     0.006 A 
ENDBRANCH  74  91
ENDBRANCH  48  49
ENDBRANCH  41  43
ENDBRANCH  40  41
ENDBRANCH  39  40
ENDBRANCH  38  39
ENDBRANCH  37  38
ENDBRANCH  36  37
ENDBRANCH   1  36
TORSDOF 21
ENDMDL
