MODEL 1
REMARK VINA RESULT:      -8.5      0.000      0.000
REMARK SMILES C#CC[N@H+](CC(=O)OCCOCCOCCOCCOC(=O)c1ccc(-c2c3nc(c(-c4c(F)cccc4F)c4ccc([nH]4)c(-c4c(F)cccc4F)c4nc(c(-c5c(F)cccc5F)c5ccc2[nH]5)C=C4)C=C3)cc1)[C@H](C)[C@@H](C)O
REMARK SMILES IDX 13 1 12 2 11 3 10 4 9 5 8 6 6 7 7 8 5 9 4 10 3 12 2 13 1 14
REMARK SMILES IDX 77 15 78 16 79 17 80 18 81 19 14 21 15 22 16 23 17 24 18 25
REMARK SMILES IDX 19 26 20 27 21 28 22 29 23 30 24 31 76 32 25 33 75 34 26 35
REMARK SMILES IDX 27 36 28 37 69 38 29 39 74 40 68 41 70 42 30 43 73 44 67 45
REMARK SMILES IDX 66 46 31 48 57 49 40 50 56 51 41 52 44 53 55 54 71 55 42 56
REMARK SMILES IDX 43 57 54 59 72 60 45 61 32 62 33 63 38 64 34 65 35 66 37 67
REMARK SMILES IDX 39 68 36 69 58 70 59 71 64 72 60 73 61 74 63 75 65 76 62 77
REMARK SMILES IDX 46 78 47 79 52 80 48 81 49 82 51 83 53 84 50 85
REMARK H PARENT 4 11 81 20 70 47 44 58
REMARK Flexibility Score: inf
ROOT
ATOM      1  C   UNL A   1      34.242  34.394  28.801  1.00  0.00     0.188 C 
ENDROOT
BRANCH   1   2
ATOM      2  C   UNL A   1      34.264  33.080  28.002  1.00  0.00     0.188 C 
BRANCH   2   3
ATOM      3  O   UNL A   1      33.047  32.402  27.761  1.00  0.00    -0.376 OA
BRANCH   3   4
ATOM      4  C   UNL A   1      32.953  31.283  26.895  1.00  0.00     0.202 C 
BRANCH   4   5
ATOM      5  C   UNL A   1      33.137  29.809  27.296  1.00  0.00     0.261 C 
BRANCH   5   6
ATOM      6  O   UNL A   1      32.963  28.832  26.269  1.00  0.00    -0.459 OA
BRANCH   6   7
ATOM      7  C   UNL A   1      32.008  27.905  26.476  1.00  0.00     0.361 C 
ATOM      8  O   UNL A   1      31.413  27.775  27.546  1.00  0.00    -0.245 OA
BRANCH   7   9
ATOM      9  C   UNL A   1      31.636  27.029  25.286  1.00  0.00     0.387 C 
BRANCH   9  10
ATOM     10  N   UNL A   1      30.612  27.442  24.269  1.00  0.00    -0.311 N 
ATOM     11  H   UNL A   1      29.683  27.374  24.684  1.00  0.00     0.349 HD
BRANCH  10  12
ATOM     12  C   UNL A   1      30.687  28.867  23.901  1.00  0.00     0.354 C 
BRANCH  12  13
ATOM     13  C   UNL A   1      29.551  29.327  23.083  1.00  0.00    -0.047 C 
ATOM     14  C   UNL A   1      28.618  29.685  22.405  1.00  0.00     0.010 C 
ENDBRANCH  12  13
ENDBRANCH  10  12
BRANCH  10  15
ATOM     15  C   UNL A   1      30.670  26.485  23.106  1.00  0.00     0.210 C 
ATOM     16  C   UNL A   1      30.632  25.006  23.547  1.00  0.00     0.078 C 
BRANCH  15  17
ATOM     17  C   UNL A   1      31.782  26.706  22.013  1.00  0.00     0.169 C 
ATOM     18  C   UNL A   1      33.149  26.127  22.391  1.00  0.00     0.045 C 
BRANCH  17  19
ATOM     19  O   UNL A   1      31.420  26.108  20.764  1.00  0.00    -0.387 OA
ATOM     20  H   UNL A   1      31.103  26.795  20.156  1.00  0.00     0.211 HD
ENDBRANCH  17  19
ENDBRANCH  15  17
ENDBRANCH  10  15
ENDBRANCH   9  10
ENDBRANCH   7   9
ENDBRANCH   6   7
ENDBRANCH   5   6
ENDBRANCH   4   5
ENDBRANCH   3   4
ENDBRANCH   2   3
ENDBRANCH   1   2
BRANCH   1  21
ATOM     21  O   UNL A   1      33.297  34.484  29.844  1.00  0.00    -0.377 OA
BRANCH  21  22
ATOM     22  C   UNL A   1      33.189  35.675  30.606  1.00  0.00     0.188 C 
BRANCH  22  23
ATOM     23  C   UNL A   1      32.916  35.663  32.127  1.00  0.00     0.188 C 
BRANCH  23  24
ATOM     24  O   UNL A   1      34.037  35.883  32.958  1.00  0.00    -0.376 OA
BRANCH  24  25
ATOM     25  C   UNL A   1      35.100  34.945  32.954  1.00  0.00     0.202 C 
BRANCH  25  26
ATOM     26  C   UNL A   1      34.916  33.579  33.639  1.00  0.00     0.261 C 
BRANCH  26  27
ATOM     27  O   UNL A   1      35.806  32.528  33.240  1.00  0.00    -0.460 OA
BRANCH  27  28
ATOM     28  C   UNL A   1      35.643  32.012  32.005  1.00  0.00     0.338 C 
ATOM     29  O   UNL A   1      34.611  31.947  31.364  1.00  0.00    -0.246 OA
BRANCH  28  30
ATOM     30  C   UNL A   1      36.984  31.692  31.468  1.00  0.00     0.060 A 
ATOM     31  C   UNL A   1      37.249  31.929  30.111  1.00  0.00     0.016 A 
ATOM     32  C   UNL A   1      37.974  31.160  32.297  1.00  0.00     0.016 A 
ATOM     33  C   UNL A   1      38.492  31.599  29.572  1.00  0.00     0.010 A 
ATOM     34  C   UNL A   1      39.211  30.805  31.748  1.00  0.00     0.010 A 
ATOM     35  C   UNL A   1      39.463  30.990  30.376  1.00  0.00    -0.014 A 
BRANCH  35  36
ATOM     36  C   UNL A   1      40.661  30.381  29.748  1.00  0.00     0.031 A 
ATOM     37  C   UNL A   1      41.873  31.242  29.528  1.00  0.00     0.074 A 
ATOM     38  C   UNL A   1      40.685  29.082  29.400  1.00  0.00     0.049 A 
ATOM     39  N   UNL A   1      43.010  30.949  28.951  1.00  0.00    -0.248 NA
ATOM     40  C   UNL A   1      41.788  32.626  30.021  1.00  0.00     0.031 C 
ATOM     41  C   UNL A   1      39.593  28.133  29.603  1.00  0.00     0.029 A 
ATOM     42  N   UNL A   1      41.668  28.344  28.790  1.00  0.00    -0.354 N 
ATOM     43  C   UNL A   1      43.769  32.113  28.999  1.00  0.00     0.074 A 
ATOM     44  C   UNL A   1      42.950  33.125  29.631  1.00  0.00     0.031 C 
ATOM     45  C   UNL A   1      39.962  26.938  29.111  1.00  0.00     0.029 A 
ATOM     46  C   UNL A   1      41.298  27.050  28.526  1.00  0.00     0.049 A 
ATOM     47  H   UNL A   1      42.554  28.709  28.564  1.00  0.00     0.167 HD
ATOM     48  C   UNL A   1      45.034  32.318  28.562  1.00  0.00     0.037 A 
ATOM     49  C   UNL A   1      41.949  26.075  27.859  1.00  0.00     0.037 A 
ATOM     50  C   UNL A   1      45.841  31.308  27.927  1.00  0.00     0.049 A 
ATOM     51  C   UNL A   1      43.324  26.350  27.305  1.00  0.00     0.074 A 
ATOM     52  C   UNL A   1      47.142  31.410  27.467  1.00  0.00     0.029 A 
ATOM     53  N   UNL A   1      45.416  30.019  27.643  1.00  0.00    -0.354 N 
ATOM     54  N   UNL A   1      44.046  27.443  27.380  1.00  0.00    -0.248 NA
ATOM     55  C   UNL A   1      43.978  25.253  26.577  1.00  0.00     0.031 C 
ATOM     56  C   UNL A   1      47.478  30.207  26.839  1.00  0.00     0.029 A 
ATOM     57  C   UNL A   1      46.418  29.326  26.981  1.00  0.00     0.049 A 
ATOM     58  H   UNL A   1      44.535  29.649  27.879  1.00  0.00     0.167 HD
ATOM     59  C   UNL A   1      45.247  27.154  26.741  1.00  0.00     0.074 A 
ATOM     60  C   UNL A   1      45.160  25.779  26.296  1.00  0.00     0.031 C 
ATOM     61  C   UNL A   1      46.324  27.955  26.544  1.00  0.00     0.037 A 
BRANCH  48  62
ATOM     62  C   UNL A   1      45.605  33.699  28.716  1.00  0.00     0.057 A 
ATOM     63  C   UNL A   1      45.407  34.703  27.759  1.00  0.00     0.134 A 
ATOM     64  C   UNL A   1      46.351  34.036  29.853  1.00  0.00     0.134 A 
ATOM     65  F   UNL A   1      44.712  34.448  26.639  1.00  0.00    -0.206 F 
ATOM     66  C   UNL A   1      45.956  35.978  27.911  1.00  0.00     0.040 A 
ATOM     67  C   UNL A   1      46.875  35.317  30.034  1.00  0.00     0.040 A 
ATOM     68  F   UNL A   1      46.576  33.127  30.815  1.00  0.00    -0.206 F 
ATOM     69  C   UNL A   1      46.688  36.289  29.054  1.00  0.00     0.006 A 
ENDBRANCH  48  62
BRANCH  49  70
ATOM     70  C   UNL A   1      41.304  24.752  27.659  1.00  0.00     0.057 A 
ATOM     71  C   UNL A   1      41.704  23.628  28.390  1.00  0.00     0.134 A 
ATOM     72  C   UNL A   1      40.280  24.575  26.719  1.00  0.00     0.134 A 
ATOM     73  F   UNL A   1      42.696  23.725  29.288  1.00  0.00    -0.206 F 
ATOM     74  C   UNL A   1      41.127  22.374  28.182  1.00  0.00     0.040 A 
ATOM     75  C   UNL A   1      39.671  23.335  26.522  1.00  0.00     0.040 A 
ATOM     76  F   UNL A   1      39.848  25.611  25.984  1.00  0.00    -0.206 F 
ATOM     77  C   UNL A   1      40.101  22.228  27.250  1.00  0.00     0.006 A 
ENDBRANCH  49  70
BRANCH  61  78
ATOM     78  C   UNL A   1      47.521  27.355  25.857  1.00  0.00     0.057 A 
ATOM     79  C   UNL A   1      47.726  27.464  24.476  1.00  0.00     0.134 A 
ATOM     80  C   UNL A   1      48.507  26.691  26.601  1.00  0.00     0.134 A 
ATOM     81  F   UNL A   1      46.819  28.079  23.700  1.00  0.00    -0.206 F 
ATOM     82  C   UNL A   1      48.848  26.910  23.857  1.00  0.00     0.040 A 
ATOM     83  C   UNL A   1      49.651  26.165  25.999  1.00  0.00     0.040 A 
ATOM     84  F   UNL A   1      48.384  26.559  27.931  1.00  0.00    -0.206 F 
ATOM     85  C   UNL A   1      49.819  26.265  24.620  1.00  0.00     0.006 A 
ENDBRANCH  61  78
ENDBRANCH  35  36
ENDBRANCH  28  30
ENDBRANCH  27  28
ENDBRANCH  26  27
ENDBRANCH  25  26
ENDBRANCH  24  25
ENDBRANCH  23  24
ENDBRANCH  22  23
ENDBRANCH  21  22
ENDBRANCH   1  21
TORSDOF 26
ENDMDL
MODEL 2
REMARK VINA RESULT:      -8.4      1.504      2.189
REMARK SMILES C#CC[N@H+](CC(=O)OCCOCCOCCOCCOC(=O)c1ccc(-c2c3nc(c(-c4c(F)cccc4F)c4ccc([nH]4)c(-c4c(F)cccc4F)c4nc(c(-c5c(F)cccc5F)c5ccc2[nH]5)C=C4)C=C3)cc1)[C@H](C)[C@@H](C)O
REMARK SMILES IDX 13 1 12 2 11 3 10 4 9 5 8 6 6 7 7 8 5 9 4 10 3 12 2 13 1 14
REMARK SMILES IDX 77 15 78 16 79 17 80 18 81 19 14 21 15 22 16 23 17 24 18 25
REMARK SMILES IDX 19 26 20 27 21 28 22 29 23 30 24 31 76 32 25 33 75 34 26 35
REMARK SMILES IDX 27 36 28 37 69 38 29 39 74 40 68 41 70 42 30 43 73 44 67 45
REMARK SMILES IDX 66 46 31 48 57 49 40 50 56 51 41 52 44 53 55 54 71 55 42 56
REMARK SMILES IDX 43 57 54 59 72 60 45 61 32 62 33 63 38 64 34 65 35 66 37 67
REMARK SMILES IDX 39 68 36 69 58 70 59 71 64 72 60 73 61 74 63 75 65 76 62 77
REMARK SMILES IDX 46 78 47 79 52 80 48 81 49 82 51 83 53 84 50 85
REMARK H PARENT 4 11 81 20 70 47 44 58
REMARK Flexibility Score: inf
ROOT
ATOM      1  C   UNL A   1      34.268  33.427  28.546  1.00  0.00     0.188 C 
ENDROOT
BRANCH   1   2
ATOM      2  C   UNL A   1      34.033  31.981  28.077  1.00  0.00     0.188 C 
BRANCH   2   3
ATOM      3  O   UNL A   1      32.806  31.651  27.457  1.00  0.00    -0.376 OA
BRANCH   3   4
ATOM      4  C   UNL A   1      32.631  30.474  26.686  1.00  0.00     0.202 C 
BRANCH   4   5
ATOM      5  C   UNL A   1      32.309  29.072  27.233  1.00  0.00     0.261 C 
BRANCH   5   6
ATOM      6  O   UNL A   1      32.895  27.962  26.553  1.00  0.00    -0.459 OA
BRANCH   6   7
ATOM      7  C   UNL A   1      32.147  26.845  26.470  1.00  0.00     0.361 C 
ATOM      8  O   UNL A   1      31.047  26.726  27.009  1.00  0.00    -0.245 OA
BRANCH   7   9
ATOM      9  C   UNL A   1      32.702  25.714  25.612  1.00  0.00     0.387 C 
BRANCH   9  10
ATOM     10  N   UNL A   1      32.493  24.267  25.951  1.00  0.00    -0.311 N 
ATOM     11  H   UNL A   1      32.335  24.179  26.954  1.00  0.00     0.349 HD
BRANCH  10  12
ATOM     12  C   UNL A   1      31.253  23.702  25.388  1.00  0.00     0.354 C 
BRANCH  12  13
ATOM     13  C   UNL A   1      30.327  23.176  26.407  1.00  0.00    -0.047 C 
ATOM     14  C   UNL A   1      29.584  22.744  27.254  1.00  0.00     0.010 C 
ENDBRANCH  12  13
ENDBRANCH  10  12
BRANCH  10  15
ATOM     15  C   UNL A   1      33.747  23.502  25.611  1.00  0.00     0.210 C 
ATOM     16  C   UNL A   1      34.973  24.420  25.421  1.00  0.00     0.078 C 
BRANCH  15  17
ATOM     17  C   UNL A   1      33.677  22.429  24.460  1.00  0.00     0.169 C 
ATOM     18  C   UNL A   1      34.185  22.935  23.107  1.00  0.00     0.045 C 
BRANCH  17  19
ATOM     19  O   UNL A   1      34.451  21.267  24.775  1.00  0.00    -0.387 OA
ATOM     20  H   UNL A   1      35.165  21.508  25.385  1.00  0.00     0.211 HD
ENDBRANCH  17  19
ENDBRANCH  15  17
ENDBRANCH  10  15
ENDBRANCH   9  10
ENDBRANCH   7   9
ENDBRANCH   6   7
ENDBRANCH   5   6
ENDBRANCH   4   5
ENDBRANCH   3   4
ENDBRANCH   2   3
ENDBRANCH   1   2
BRANCH   1  21
ATOM     21  O   UNL A   1      33.554  33.846  29.688  1.00  0.00    -0.377 OA
BRANCH  21  22
ATOM     22  C   UNL A   1      33.640  35.191  30.127  1.00  0.00     0.188 C 
BRANCH  22  23
ATOM     23  C   UNL A   1      33.254  35.620  31.561  1.00  0.00     0.188 C 
BRANCH  23  24
ATOM     24  O   UNL A   1      34.329  35.948  32.418  1.00  0.00    -0.376 OA
BRANCH  24  25
ATOM     25  C   UNL A   1      35.390  35.023  32.586  1.00  0.00     0.202 C 
BRANCH  25  26
ATOM     26  C   UNL A   1      35.204  33.807  33.511  1.00  0.00     0.261 C 
BRANCH  26  27
ATOM     27  O   UNL A   1      36.087  32.696  33.306  1.00  0.00    -0.460 OA
BRANCH  27  28
ATOM     28  C   UNL A   1      35.862  31.914  32.230  1.00  0.00     0.338 C 
ATOM     29  O   UNL A   1      34.785  31.610  31.752  1.00  0.00    -0.246 OA
BRANCH  28  30
ATOM     30  C   UNL A   1      37.169  31.624  31.600  1.00  0.00     0.060 A 
ATOM     31  C   UNL A   1      37.264  31.616  30.201  1.00  0.00     0.016 A 
ATOM     32  C   UNL A   1      38.294  31.361  32.385  1.00  0.00     0.016 A 
ATOM     33  C   UNL A   1      38.475  31.307  29.583  1.00  0.00     0.010 A 
ATOM     34  C   UNL A   1      39.501  31.025  31.763  1.00  0.00     0.010 A 
ATOM     35  C   UNL A   1      39.587  30.962  30.360  1.00  0.00    -0.014 A 
BRANCH  35  36
ATOM     36  C   UNL A   1      40.778  30.359  29.712  1.00  0.00     0.031 A 
ATOM     37  C   UNL A   1      41.980  31.228  29.465  1.00  0.00     0.074 A 
ATOM     38  C   UNL A   1      40.805  29.059  29.369  1.00  0.00     0.049 A 
ATOM     39  N   UNL A   1      43.108  30.940  28.868  1.00  0.00    -0.248 NA
ATOM     40  C   UNL A   1      41.894  32.613  29.954  1.00  0.00     0.031 C 
ATOM     41  C   UNL A   1      39.724  28.103  29.596  1.00  0.00     0.029 A 
ATOM     42  N   UNL A   1      41.782  28.325  28.743  1.00  0.00    -0.354 N 
ATOM     43  C   UNL A   1      43.859  32.109  28.897  1.00  0.00     0.074 A 
ATOM     44  C   UNL A   1      43.045  33.118  29.540  1.00  0.00     0.031 C 
ATOM     45  C   UNL A   1      40.092  26.908  29.102  1.00  0.00     0.029 A 
ATOM     46  C   UNL A   1      41.415  27.027  28.491  1.00  0.00     0.049 A 
ATOM     47  H   UNL A   1      42.661  28.695  28.498  1.00  0.00     0.167 HD
ATOM     48  C   UNL A   1      45.114  32.321  28.436  1.00  0.00     0.037 A 
ATOM     49  C   UNL A   1      42.061  26.054  27.816  1.00  0.00     0.037 A 
ATOM     50  C   UNL A   1      45.916  31.315  27.789  1.00  0.00     0.049 A 
ATOM     51  C   UNL A   1      43.423  26.337  27.235  1.00  0.00     0.074 A 
ATOM     52  C   UNL A   1      47.207  31.423  27.305  1.00  0.00     0.029 A 
ATOM     53  N   UNL A   1      45.495  30.021  27.519  1.00  0.00    -0.354 N 
ATOM     54  N   UNL A   1      44.138  27.434  27.292  1.00  0.00    -0.248 NA
ATOM     55  C   UNL A   1      44.071  25.241  26.499  1.00  0.00     0.031 C 
ATOM     56  C   UNL A   1      47.541  30.220  26.675  1.00  0.00     0.029 A 
ATOM     57  C   UNL A   1      46.489  29.333  26.840  1.00  0.00     0.049 A 
ATOM     58  H   UNL A   1      44.621  29.646  27.773  1.00  0.00     0.167 HD
ATOM     59  C   UNL A   1      45.329  27.152  26.631  1.00  0.00     0.074 A 
ATOM     60  C   UNL A   1      45.244  25.774  26.194  1.00  0.00     0.031 C 
ATOM     61  C   UNL A   1      46.397  27.960  26.411  1.00  0.00     0.037 A 
BRANCH  48  62
ATOM     62  C   UNL A   1      45.678  33.707  28.573  1.00  0.00     0.057 A 
ATOM     63  C   UNL A   1      46.436  34.101  29.684  1.00  0.00     0.134 A 
ATOM     64  C   UNL A   1      45.476  34.659  27.565  1.00  0.00     0.134 A 
ATOM     65  F   UNL A   1      46.661  33.245  30.693  1.00  0.00    -0.206 F 
ATOM     66  C   UNL A   1      46.943  35.397  29.802  1.00  0.00     0.040 A 
ATOM     67  C   UNL A   1      46.007  35.947  27.655  1.00  0.00     0.040 A 
ATOM     68  F   UNL A   1      44.765  34.351  26.468  1.00  0.00    -0.206 F 
ATOM     69  C   UNL A   1      46.734  36.322  28.782  1.00  0.00     0.006 A 
ENDBRANCH  48  62
BRANCH  49  70
ATOM     70  C   UNL A   1      41.421  24.726  27.634  1.00  0.00     0.057 A 
ATOM     71  C   UNL A   1      41.841  23.608  28.364  1.00  0.00     0.134 A 
ATOM     72  C   UNL A   1      40.385  24.537  26.711  1.00  0.00     0.134 A 
ATOM     73  F   UNL A   1      42.847  23.717  29.246  1.00  0.00    -0.206 F 
ATOM     74  C   UNL A   1      41.269  22.349  28.172  1.00  0.00     0.040 A 
ATOM     75  C   UNL A   1      39.781  23.292  26.531  1.00  0.00     0.040 A 
ATOM     76  F   UNL A   1      39.934  25.565  25.977  1.00  0.00    -0.206 F 
ATOM     77  C   UNL A   1      40.229  22.191  27.257  1.00  0.00     0.006 A 
ENDBRANCH  49  70
BRANCH  61  78
ATOM     78  C   UNL A   1      47.585  27.364  25.705  1.00  0.00     0.057 A 
ATOM     79  C   UNL A   1      47.727  27.407  24.312  1.00  0.00     0.134 A 
ATOM     80  C   UNL A   1      48.625  26.776  26.438  1.00  0.00     0.134 A 
ATOM     81  F   UNL A   1      46.767  27.947  23.545  1.00  0.00    -0.206 F 
ATOM     82  C   UNL A   1      48.842  26.859  23.673  1.00  0.00     0.040 A 
ATOM     83  C   UNL A   1      49.761  26.258  25.814  1.00  0.00     0.040 A 
ATOM     84  F   UNL A   1      48.564  26.711  27.777  1.00  0.00    -0.206 F 
ATOM     85  C   UNL A   1      49.867  26.290  24.425  1.00  0.00     0.006 A 
ENDBRANCH  61  78
ENDBRANCH  35  36
ENDBRANCH  28  30
ENDBRANCH  27  28
ENDBRANCH  26  27
ENDBRANCH  25  26
ENDBRANCH  24  25
ENDBRANCH  23  24
ENDBRANCH  22  23
ENDBRANCH  21  22
ENDBRANCH   1  21
TORSDOF 26
ENDMDL
MODEL 3
REMARK VINA RESULT:      -8.3      1.504      6.639
REMARK SMILES C#CC[N@H+](CC(=O)OCCOCCOCCOCCOC(=O)c1ccc(-c2c3nc(c(-c4c(F)cccc4F)c4ccc([nH]4)c(-c4c(F)cccc4F)c4nc(c(-c5c(F)cccc5F)c5ccc2[nH]5)C=C4)C=C3)cc1)[C@H](C)[C@@H](C)O
REMARK SMILES IDX 13 1 12 2 11 3 10 4 9 5 8 6 6 7 7 8 5 9 4 10 3 12 2 13 1 14
REMARK SMILES IDX 77 15 78 16 79 17 80 18 81 19 14 21 15 22 16 23 17 24 18 25
REMARK SMILES IDX 19 26 20 27 21 28 22 29 23 30 24 31 76 32 25 33 75 34 26 35
REMARK SMILES IDX 27 36 28 37 69 38 29 39 74 40 68 41 70 42 30 43 73 44 67 45
REMARK SMILES IDX 66 46 31 48 57 49 40 50 56 51 41 52 44 53 55 54 71 55 42 56
REMARK SMILES IDX 43 57 54 59 72 60 45 61 32 62 33 63 38 64 34 65 35 66 37 67
REMARK SMILES IDX 39 68 36 69 58 70 59 71 64 72 60 73 61 74 63 75 65 76 62 77
REMARK SMILES IDX 46 78 47 79 52 80 48 81 49 82 51 83 53 84 50 85
REMARK H PARENT 4 11 81 20 70 47 44 58
REMARK Flexibility Score: inf
ROOT
ATOM      1  C   UNL A   1      32.852  36.506  29.391  1.00  0.00     0.188 C 
ENDROOT
BRANCH   1   2
ATOM      2  C   UNL A   1      33.674  35.389  28.728  1.00  0.00     0.188 C 
BRANCH   2   3
ATOM      3  O   UNL A   1      33.460  34.049  29.127  1.00  0.00    -0.376 OA
BRANCH   3   4
ATOM      4  C   UNL A   1      34.487  33.071  29.107  1.00  0.00     0.202 C 
BRANCH   4   5
ATOM      5  C   UNL A   1      35.018  32.341  27.862  1.00  0.00     0.261 C 
BRANCH   5   6
ATOM      6  O   UNL A   1      35.958  31.289  28.080  1.00  0.00    -0.459 OA
BRANCH   6   7
ATOM      7  C   UNL A   1      35.605  30.066  27.641  1.00  0.00     0.361 C 
ATOM      8  O   UNL A   1      36.417  29.173  27.400  1.00  0.00    -0.245 OA
BRANCH   7   9
ATOM      9  C   UNL A   1      34.111  29.797  27.498  1.00  0.00     0.387 C 
BRANCH   9  10
ATOM     10  N   UNL A   1      33.543  28.980  26.374  1.00  0.00    -0.311 N 
ATOM     11  H   UNL A   1      34.033  29.213  25.511  1.00  0.00     0.349 HD
BRANCH  10  12
ATOM     12  C   UNL A   1      33.804  27.536  26.503  1.00  0.00     0.354 C 
BRANCH  12  13
ATOM     13  C   UNL A   1      33.790  26.814  25.218  1.00  0.00    -0.047 C 
ATOM     14  C   UNL A   1      33.765  26.210  24.174  1.00  0.00     0.010 C 
ENDBRANCH  12  13
ENDBRANCH  10  12
BRANCH  10  15
ATOM     15  C   UNL A   1      32.091  29.346  26.194  1.00  0.00     0.210 C 
ATOM     16  C   UNL A   1      31.132  28.291  26.784  1.00  0.00     0.078 C 
BRANCH  15  17
ATOM     17  C   UNL A   1      31.608  29.792  24.762  1.00  0.00     0.169 C 
ATOM     18  C   UNL A   1      30.989  28.661  23.935  1.00  0.00     0.045 C 
BRANCH  17  19
ATOM     19  O   UNL A   1      30.621  30.826  24.838  1.00  0.00    -0.387 OA
ATOM     20  H   UNL A   1      30.011  30.747  24.088  1.00  0.00     0.211 HD
ENDBRANCH  17  19
ENDBRANCH  15  17
ENDBRANCH  10  15
ENDBRANCH   9  10
ENDBRANCH   7   9
ENDBRANCH   6   7
ENDBRANCH   5   6
ENDBRANCH   4   5
ENDBRANCH   3   4
ENDBRANCH   2   3
ENDBRANCH   1   2
BRANCH   1  21
ATOM     21  O   UNL A   1      33.358  37.036  30.596  1.00  0.00    -0.377 OA
BRANCH  21  22
ATOM     22  C   UNL A   1      32.927  36.511  31.840  1.00  0.00     0.188 C 
BRANCH  22  23
ATOM     23  C   UNL A   1      33.833  36.501  33.092  1.00  0.00     0.188 C 
BRANCH  23  24
ATOM     24  O   UNL A   1      35.135  35.982  32.908  1.00  0.00    -0.376 OA
BRANCH  24  25
ATOM     25  C   UNL A   1      35.304  34.768  32.196  1.00  0.00     0.202 C 
BRANCH  25  26
ATOM     26  C   UNL A   1      35.074  33.424  32.910  1.00  0.00     0.261 C 
BRANCH  26  27
ATOM     27  O   UNL A   1      35.839  32.304  32.445  1.00  0.00    -0.460 OA
BRANCH  27  28
ATOM     28  C   UNL A   1      36.862  31.887  33.219  1.00  0.00     0.338 C 
ATOM     29  O   UNL A   1      36.914  31.885  34.434  1.00  0.00    -0.246 OA
BRANCH  28  30
ATOM     30  C   UNL A   1      37.865  31.250  32.336  1.00  0.00     0.060 A 
ATOM     31  C   UNL A   1      39.069  30.793  32.893  1.00  0.00     0.016 A 
ATOM     32  C   UNL A   1      37.621  31.105  30.969  1.00  0.00     0.016 A 
ATOM     33  C   UNL A   1      40.047  30.225  32.077  1.00  0.00     0.010 A 
ATOM     34  C   UNL A   1      38.613  30.560  30.148  1.00  0.00     0.010 A 
ATOM     35  C   UNL A   1      39.844  30.150  30.693  1.00  0.00    -0.014 A 
BRANCH  35  36
ATOM     36  C   UNL A   1      40.982  29.819  29.801  1.00  0.00     0.031 A 
ATOM     37  C   UNL A   1      41.052  28.440  29.205  1.00  0.00     0.074 A 
ATOM     38  C   UNL A   1      41.926  30.730  29.503  1.00  0.00     0.049 A 
ATOM     39  N   UNL A   1      41.973  27.906  28.446  1.00  0.00    -0.248 NA
ATOM     40  C   UNL A   1      39.930  27.540  29.514  1.00  0.00     0.031 C 
ATOM     41  C   UNL A   1      41.947  32.111  29.979  1.00  0.00     0.029 A 
ATOM     42  N   UNL A   1      43.058  30.618  28.735  1.00  0.00    -0.354 N 
ATOM     43  C   UNL A   1      41.551  26.606  28.199  1.00  0.00     0.074 A 
ATOM     44  C   UNL A   1      40.308  26.421  28.916  1.00  0.00     0.031 C 
ATOM     45  C   UNL A   1      43.048  32.717  29.502  1.00  0.00     0.029 A 
ATOM     46  C   UNL A   1      43.826  31.755  28.722  1.00  0.00     0.049 A 
ATOM     47  H   UNL A   1      43.295  29.801  28.240  1.00  0.00     0.167 HD
ATOM     48  C   UNL A   1      42.142  25.653  27.439  1.00  0.00     0.037 A 
ATOM     49  C   UNL A   1      45.036  31.983  28.171  1.00  0.00     0.037 A 
ATOM     50  C   UNL A   1      43.384  25.840  26.734  1.00  0.00     0.049 A 
ATOM     51  C   UNL A   1      45.717  30.882  27.399  1.00  0.00     0.074 A 
ATOM     52  C   UNL A   1      44.054  24.945  25.920  1.00  0.00     0.029 A 
ATOM     53  N   UNL A   1      44.151  26.994  26.776  1.00  0.00    -0.354 N 
ATOM     54  N   UNL A   1      45.298  29.665  27.145  1.00  0.00    -0.248 NA
ATOM     55  C   UNL A   1      47.039  31.187  26.833  1.00  0.00     0.031 C 
ATOM     56  C   UNL A   1      45.264  25.529  25.530  1.00  0.00     0.029 A 
ATOM     57  C   UNL A   1      45.308  26.820  26.032  1.00  0.00     0.049 A 
ATOM     58  H   UNL A   1      43.910  27.816  27.260  1.00  0.00     0.167 HD
ATOM     59  C   UNL A   1      46.285  29.074  26.364  1.00  0.00     0.074 A 
ATOM     60  C   UNL A   1      47.318  30.072  26.176  1.00  0.00     0.031 C 
ATOM     61  C   UNL A   1      46.330  27.820  25.847  1.00  0.00     0.037 A 
BRANCH  48  62
ATOM     62  C   UNL A   1      41.474  24.309  27.368  1.00  0.00     0.057 A 
ATOM     63  C   UNL A   1      41.922  23.210  28.113  1.00  0.00     0.134 A 
ATOM     64  C   UNL A   1      40.349  24.117  26.554  1.00  0.00     0.134 A 
ATOM     65  F   UNL A   1      43.000  23.318  28.905  1.00  0.00    -0.206 F 
ATOM     66  C   UNL A   1      41.297  21.963  28.026  1.00  0.00     0.040 A 
ATOM     67  C   UNL A   1      39.695  22.886  26.486  1.00  0.00     0.040 A 
ATOM     68  F   UNL A   1      39.860  25.127  25.818  1.00  0.00    -0.206 F 
ATOM     69  C   UNL A   1      40.176  21.801  27.215  1.00  0.00     0.006 A 
ENDBRANCH  48  62
BRANCH  49  70
ATOM     70  C   UNL A   1      45.693  33.305  28.343  1.00  0.00     0.057 A 
ATOM     71  C   UNL A   1      46.506  33.576  29.449  1.00  0.00     0.134 A 
ATOM     72  C   UNL A   1      45.510  34.336  27.412  1.00  0.00     0.134 A 
ATOM     73  F   UNL A   1      46.701  32.639  30.389  1.00  0.00    -0.206 F 
ATOM     74  C   UNL A   1      47.098  34.827  29.635  1.00  0.00     0.040 A 
ATOM     75  C   UNL A   1      46.120  35.581  27.568  1.00  0.00     0.040 A 
ATOM     76  F   UNL A   1      44.742  34.144  26.329  1.00  0.00    -0.206 F 
ATOM     77  C   UNL A   1      46.911  35.832  28.687  1.00  0.00     0.006 A 
ENDBRANCH  49  70
BRANCH  61  78
ATOM     78  C   UNL A   1      47.512  27.465  24.986  1.00  0.00     0.057 A 
ATOM     79  C   UNL A   1      48.675  26.888  25.512  1.00  0.00     0.134 A 
ATOM     80  C   UNL A   1      47.465  27.666  23.600  1.00  0.00     0.134 A 
ATOM     81  F   UNL A   1      48.794  26.675  26.832  1.00  0.00    -0.206 F 
ATOM     82  C   UNL A   1      49.759  26.555  24.696  1.00  0.00     0.040 A 
ATOM     83  C   UNL A   1      48.527  27.303  22.770  1.00  0.00     0.040 A 
ATOM     84  F   UNL A   1      46.378  28.202  23.024  1.00  0.00    -0.206 F 
ATOM     85  C   UNL A   1      49.683  26.754  23.319  1.00  0.00     0.006 A 
ENDBRANCH  61  78
ENDBRANCH  35  36
ENDBRANCH  28  30
ENDBRANCH  27  28
ENDBRANCH  26  27
ENDBRANCH  25  26
ENDBRANCH  24  25
ENDBRANCH  23  24
ENDBRANCH  22  23
ENDBRANCH  21  22
ENDBRANCH   1  21
TORSDOF 26
ENDMDL
