MODEL 1
REMARK VINA RESULT:      -9.8      0.000      0.000
REMARK SMILES O=C(OCCOCCOCCOCCOC(=O)[C@H]1C[C@H]1c1ccc(C2CC2)cc1)c1ccc(-c2c3nc(c(-c4c(F)cccc4F)c4ccc([nH]4)c(-c4c(F)cccc4F)c4nc(c(-c5c(F)cccc5F)c5ccc2[nH]5)C=C4)C=C3)cc1
REMARK SMILES IDX 9 1 8 2 7 3 6 4 5 5 4 6 3 7 2 8 1 9 30 10 31 11 83 12 32 13
REMARK SMILES IDX 82 14 33 15 34 16 35 17 76 18 36 19 81 20 75 21 77 22 37 23
REMARK SMILES IDX 80 24 74 25 73 26 38 28 64 29 47 30 63 31 48 32 51 33 62 34
REMARK SMILES IDX 78 35 49 36 50 37 61 39 79 40 52 41 39 42 40 43 45 44 41 45
REMARK SMILES IDX 42 46 44 47 46 48 43 49 65 50 66 51 71 52 67 53 68 54 70 55
REMARK SMILES IDX 72 56 69 57 53 58 54 59 59 60 55 61 56 62 58 63 60 64 57 65
REMARK SMILES IDX 10 66 11 67 12 68 13 69 14 70 15 71 16 72 17 73 18 74 19 75
REMARK SMILES IDX 20 76 21 77 22 78 29 79 23 80 28 81 24 82 25 83 26 84 27 85
REMARK H PARENT 77 27 51 38
REMARK Flexibility Score: inf
ROOT
ATOM      1  O   UNL A   1      38.483  21.365  25.392  1.00  0.00    -0.377 OA
ENDROOT
BRANCH   1   2
ATOM      2  C   UNL A   1      39.257  22.073  26.359  1.00  0.00     0.188 C 
BRANCH   2   3
ATOM      3  C   UNL A   1      40.487  21.310  26.839  1.00  0.00     0.188 C 
BRANCH   3   4
ATOM      4  O   UNL A   1      41.231  20.867  25.706  1.00  0.00    -0.376 OA
BRANCH   4   5
ATOM      5  C   UNL A   1      42.578  20.498  25.986  1.00  0.00     0.202 C 
BRANCH   5   6
ATOM      6  C   UNL A   1      43.499  21.702  26.173  1.00  0.00     0.261 C 
BRANCH   6   7
ATOM      7  O   UNL A   1      43.184  22.767  25.263  1.00  0.00    -0.460 OA
BRANCH   7   8
ATOM      8  C   UNL A   1      43.542  24.070  25.372  1.00  0.00     0.338 C 
ATOM      9  O   UNL A   1      44.271  24.553  24.505  1.00  0.00    -0.246 OA
BRANCH   8  10
ATOM     10  C   UNL A   1      43.082  24.978  26.471  1.00  0.00     0.060 A 
ATOM     11  C   UNL A   1      42.117  24.658  27.427  1.00  0.00     0.016 A 
ATOM     12  C   UNL A   1      43.751  26.207  26.607  1.00  0.00     0.016 A 
ATOM     13  C   UNL A   1      41.796  25.523  28.465  1.00  0.00     0.010 A 
ATOM     14  C   UNL A   1      43.449  27.079  27.659  1.00  0.00     0.010 A 
ATOM     15  C   UNL A   1      42.461  26.736  28.587  1.00  0.00    -0.014 A 
BRANCH  15  16
ATOM     16  C   UNL A   1      42.004  27.667  29.631  1.00  0.00     0.031 A 
ATOM     17  C   UNL A   1      42.828  27.786  30.875  1.00  0.00     0.074 A 
ATOM     18  C   UNL A   1      40.955  28.475  29.399  1.00  0.00     0.049 A 
ATOM     19  N   UNL A   1      42.592  28.466  31.961  1.00  0.00    -0.248 NA
ATOM     20  C   UNL A   1      44.105  27.049  30.887  1.00  0.00     0.031 C 
ATOM     21  C   UNL A   1      40.188  28.526  28.151  1.00  0.00     0.029 A 
ATOM     22  N   UNL A   1      40.365  29.423  30.191  1.00  0.00    -0.354 N 
ATOM     23  C   UNL A   1      43.666  28.209  32.801  1.00  0.00     0.074 A 
ATOM     24  C   UNL A   1      44.567  27.329  32.095  1.00  0.00     0.031 C 
ATOM     25  C   UNL A   1      39.231  29.461  28.263  1.00  0.00     0.029 A 
ATOM     26  C   UNL A   1      39.271  30.019  29.610  1.00  0.00     0.049 A 
ATOM     27  H   UNL A   1      40.693  29.655  31.089  1.00  0.00     0.167 HD
ATOM     28  C   UNL A   1      43.860  28.660  34.060  1.00  0.00     0.037 A 
ATOM     29  C   UNL A   1      38.380  30.877  30.139  1.00  0.00     0.037 A 
ATOM     30  C   UNL A   1      42.946  29.541  34.730  1.00  0.00     0.049 A 
ATOM     31  C   UNL A   1      38.563  31.281  31.578  1.00  0.00     0.074 A 
ATOM     32  C   UNL A   1      42.998  30.029  36.021  1.00  0.00     0.029 A 
ATOM     33  N   UNL A   1      41.803  30.067  34.142  1.00  0.00    -0.354 N 
ATOM     34  N   UNL A   1      39.543  30.981  32.401  1.00  0.00    -0.248 NA
ATOM     35  C   UNL A   1      37.509  32.110  32.175  1.00  0.00     0.031 C 
ATOM     36  C   UNL A   1      41.862  30.819  36.227  1.00  0.00     0.029 A 
ATOM     37  C   UNL A   1      41.123  30.852  35.053  1.00  0.00     0.049 A 
ATOM     38  H   UNL A   1      41.518  29.905  33.213  1.00  0.00     0.167 HD
ATOM     39  C   UNL A   1      39.222  31.580  33.611  1.00  0.00     0.074 A 
ATOM     40  C   UNL A   1      37.973  32.288  33.404  1.00  0.00     0.031 C 
ATOM     41  C   UNL A   1      39.884  31.539  34.794  1.00  0.00     0.037 A 
BRANCH  28  42
ATOM     42  C   UNL A   1      45.052  28.134  34.797  1.00  0.00     0.057 A 
ATOM     43  C   UNL A   1      46.287  28.790  34.790  1.00  0.00     0.134 A 
ATOM     44  C   UNL A   1      44.961  26.927  35.503  1.00  0.00     0.134 A 
ATOM     45  F   UNL A   1      46.448  29.932  34.104  1.00  0.00    -0.206 F 
ATOM     46  C   UNL A   1      47.398  28.257  35.450  1.00  0.00     0.040 A 
ATOM     47  C   UNL A   1      46.059  26.394  36.180  1.00  0.00     0.040 A 
ATOM     48  F   UNL A   1      43.808  26.242  35.534  1.00  0.00    -0.206 F 
ATOM     49  C   UNL A   1      47.283  27.057  36.150  1.00  0.00     0.006 A 
ENDBRANCH  28  42
BRANCH  29  50
ATOM     50  C   UNL A   1      37.198  31.327  29.358  1.00  0.00     0.057 A 
ATOM     51  C   UNL A   1      36.080  30.504  29.174  1.00  0.00     0.134 A 
ATOM     52  C   UNL A   1      37.173  32.584  28.736  1.00  0.00     0.134 A 
ATOM     53  F   UNL A   1      36.047  29.279  29.719  1.00  0.00    -0.206 F 
ATOM     54  C   UNL A   1      34.995  30.904  28.389  1.00  0.00     0.040 A 
ATOM     55  C   UNL A   1      36.084  33.008  27.973  1.00  0.00     0.040 A 
ATOM     56  F   UNL A   1      38.212  33.422  28.862  1.00  0.00    -0.206 F 
ATOM     57  C   UNL A   1      34.994  32.162  27.790  1.00  0.00     0.006 A 
ENDBRANCH  29  50
BRANCH  41  58
ATOM     58  C   UNL A   1      39.264  32.281  35.935  1.00  0.00     0.057 A 
ATOM     59  C   UNL A   1      39.567  33.625  36.181  1.00  0.00     0.134 A 
ATOM     60  C   UNL A   1      38.314  31.662  36.756  1.00  0.00     0.134 A 
ATOM     61  F   UNL A   1      40.480  34.264  35.434  1.00  0.00    -0.206 F 
ATOM     62  C   UNL A   1      38.953  34.328  37.216  1.00  0.00     0.040 A 
ATOM     63  C   UNL A   1      37.677  32.362  37.780  1.00  0.00     0.040 A 
ATOM     64  F   UNL A   1      37.978  30.378  36.562  1.00  0.00    -0.206 F 
ATOM     65  C   UNL A   1      37.999  33.698  38.013  1.00  0.00     0.006 A 
ENDBRANCH  41  58
ENDBRANCH  15  16
ENDBRANCH   8  10
ENDBRANCH   7   8
ENDBRANCH   6   7
ENDBRANCH   5   6
ENDBRANCH   4   5
ENDBRANCH   3   4
ENDBRANCH   2   3
ENDBRANCH   1   2
BRANCH   1  66
ATOM     66  C   UNL A   1      37.383  22.045  24.794  1.00  0.00     0.188 C 
BRANCH  66  67
ATOM     67  C   UNL A   1      36.498  22.974  25.640  1.00  0.00     0.188 C 
BRANCH  67  68
ATOM     68  O   UNL A   1      35.311  22.405  26.179  1.00  0.00    -0.376 OA
BRANCH  68  69
ATOM     69  C   UNL A   1      34.440  23.355  26.799  1.00  0.00     0.202 C 
BRANCH  69  70
ATOM     70  C   UNL A   1      33.084  22.774  27.214  1.00  0.00     0.261 C 
BRANCH  70  71
ATOM     71  O   UNL A   1      31.995  23.345  26.470  1.00  0.00    -0.463 OA
BRANCH  71  72
ATOM     72  C   UNL A   1      31.359  22.573  25.567  1.00  0.00     0.309 C 
ATOM     73  O   UNL A   1      30.570  21.674  25.827  1.00  0.00    -0.252 OA
BRANCH  72  74
ATOM     74  C   UNL A   1      31.624  22.977  24.161  1.00  0.00     0.107 C 
ATOM     75  C   UNL A   1      32.990  23.083  23.533  1.00  0.00     0.025 C 
ATOM     76  C   UNL A   1      32.059  21.983  23.100  1.00  0.00     0.034 C 
BRANCH  76  77
ATOM     77  C   UNL A   1      32.518  20.576  23.384  1.00  0.00    -0.044 A 
ATOM     78  C   UNL A   1      33.566  20.335  24.286  1.00  0.00     0.004 A 
ATOM     79  C   UNL A   1      31.957  19.467  22.746  1.00  0.00     0.004 A 
ATOM     80  C   UNL A   1      34.043  19.043  24.524  1.00  0.00     0.004 A 
ATOM     81  C   UNL A   1      32.430  18.174  22.993  1.00  0.00     0.004 A 
ATOM     82  C   UNL A   1      33.499  17.930  23.869  1.00  0.00    -0.045 A 
BRANCH  82  83
ATOM     83  C   UNL A   1      34.109  16.563  24.094  1.00  0.00     0.019 C 
ATOM     84  C   UNL A   1      34.647  16.083  25.418  1.00  0.00     0.009 C 
ATOM     85  C   UNL A   1      33.318  15.584  24.935  1.00  0.00     0.009 C 
ENDBRANCH  82  83
ENDBRANCH  76  77
ENDBRANCH  72  74
ENDBRANCH  71  72
ENDBRANCH  70  71
ENDBRANCH  69  70
ENDBRANCH  68  69
ENDBRANCH  67  68
ENDBRANCH  66  67
ENDBRANCH   1  66
TORSDOF 22
ENDMDL
MODEL 2
REMARK VINA RESULT:      -9.6      1.588      7.096
REMARK SMILES O=C(OCCOCCOCCOCCOC(=O)[C@H]1C[C@H]1c1ccc(C2CC2)cc1)c1ccc(-c2c3nc(c(-c4c(F)cccc4F)c4ccc([nH]4)c(-c4c(F)cccc4F)c4nc(c(-c5c(F)cccc5F)c5ccc2[nH]5)C=C4)C=C3)cc1
REMARK SMILES IDX 9 1 8 2 7 3 6 4 5 5 4 6 3 7 2 8 1 9 30 10 31 11 83 12 32 13
REMARK SMILES IDX 82 14 33 15 34 16 35 17 76 18 36 19 81 20 75 21 77 22 37 23
REMARK SMILES IDX 80 24 74 25 73 26 38 28 64 29 47 30 63 31 48 32 51 33 62 34
REMARK SMILES IDX 78 35 49 36 50 37 61 39 79 40 52 41 39 42 40 43 45 44 41 45
REMARK SMILES IDX 42 46 44 47 46 48 43 49 65 50 66 51 71 52 67 53 68 54 70 55
REMARK SMILES IDX 72 56 69 57 53 58 54 59 59 60 55 61 56 62 58 63 60 64 57 65
REMARK SMILES IDX 10 66 11 67 12 68 13 69 14 70 15 71 16 72 17 73 18 74 19 75
REMARK SMILES IDX 20 76 21 77 22 78 29 79 23 80 28 81 24 82 25 83 26 84 27 85
REMARK H PARENT 77 27 51 38
REMARK Flexibility Score: inf
ROOT
ATOM      1  O   UNL A   1      40.041  21.378  27.335  1.00  0.00    -0.377 OA
ENDROOT
BRANCH   1   2
ATOM      2  C   UNL A   1      41.458  21.490  27.451  1.00  0.00     0.188 C 
BRANCH   2   3
ATOM      3  C   UNL A   1      42.202  21.249  26.143  1.00  0.00     0.188 C 
BRANCH   3   4
ATOM      4  O   UNL A   1      43.386  22.043  26.125  1.00  0.00    -0.376 OA
BRANCH   4   5
ATOM      5  C   UNL A   1      44.226  21.837  24.993  1.00  0.00     0.202 C 
BRANCH   5   6
ATOM      6  C   UNL A   1      44.799  23.137  24.432  1.00  0.00     0.261 C 
BRANCH   6   7
ATOM      7  O   UNL A   1      43.998  24.275  24.787  1.00  0.00    -0.460 OA
BRANCH   7   8
ATOM      8  C   UNL A   1      44.437  25.474  25.243  1.00  0.00     0.338 C 
ATOM      9  O   UNL A   1      45.341  26.040  24.629  1.00  0.00    -0.246 OA
BRANCH   8  10
ATOM     10  C   UNL A   1      43.868  26.177  26.437  1.00  0.00     0.060 A 
ATOM     11  C   UNL A   1      44.123  27.504  26.787  1.00  0.00     0.016 A 
ATOM     12  C   UNL A   1      42.925  25.471  27.204  1.00  0.00     0.016 A 
ATOM     13  C   UNL A   1      43.499  28.112  27.867  1.00  0.00     0.010 A 
ATOM     14  C   UNL A   1      42.275  26.078  28.285  1.00  0.00     0.010 A 
ATOM     15  C   UNL A   1      42.571  27.404  28.620  1.00  0.00    -0.014 A 
BRANCH  15  16
ATOM     16  C   UNL A   1      42.025  28.052  29.823  1.00  0.00     0.031 A 
ATOM     17  C   UNL A   1      40.735  28.800  29.694  1.00  0.00     0.074 A 
ATOM     18  C   UNL A   1      42.609  27.852  31.018  1.00  0.00     0.049 A 
ATOM     19  N   UNL A   1      40.103  29.517  30.580  1.00  0.00    -0.248 NA
ATOM     20  C   UNL A   1      40.054  28.709  28.390  1.00  0.00     0.031 C 
ATOM     21  C   UNL A   1      43.786  27.012  31.252  1.00  0.00     0.029 A 
ATOM     22  N   UNL A   1      42.282  28.321  32.262  1.00  0.00    -0.354 N 
ATOM     23  C   UNL A   1      38.974  29.998  29.931  1.00  0.00     0.074 A 
ATOM     24  C   UNL A   1      38.993  29.475  28.585  1.00  0.00     0.031 C 
ATOM     25  C   UNL A   1      44.080  27.024  32.563  1.00  0.00     0.029 A 
ATOM     26  C   UNL A   1      43.158  27.927  33.244  1.00  0.00     0.049 A 
ATOM     27  H   UNL A   1      41.494  28.885  32.435  1.00  0.00     0.167 HD
ATOM     28  C   UNL A   1      38.022  30.821  30.424  1.00  0.00     0.037 A 
ATOM     29  C   UNL A   1      43.229  28.305  34.534  1.00  0.00     0.037 A 
ATOM     30  C   UNL A   1      38.032  31.316  31.771  1.00  0.00     0.049 A 
ATOM     31  C   UNL A   1      42.216  29.304  35.028  1.00  0.00     0.074 A 
ATOM     32  C   UNL A   1      37.158  32.196  32.379  1.00  0.00     0.029 A 
ATOM     33  N   UNL A   1      38.978  30.961  32.723  1.00  0.00    -0.354 N 
ATOM     34  N   UNL A   1      41.186  29.817  34.394  1.00  0.00    -0.248 NA
ATOM     35  C   UNL A   1      42.390  29.804  36.397  1.00  0.00     0.031 C 
ATOM     36  C   UNL A   1      37.602  32.406  33.689  1.00  0.00     0.029 A 
ATOM     37  C   UNL A   1      38.729  31.627  33.907  1.00  0.00     0.049 A 
ATOM     38  H   UNL A   1      39.719  30.328  32.576  1.00  0.00     0.167 HD
ATOM     39  C   UNL A   1      40.592  30.701  35.284  1.00  0.00     0.074 A 
ATOM     40  C   UNL A   1      41.358  30.629  36.513  1.00  0.00     0.031 C 
ATOM     41  C   UNL A   1      39.523  31.515  35.105  1.00  0.00     0.037 A 
BRANCH  28  42
ATOM     42  C   UNL A   1      36.966  31.287  29.473  1.00  0.00     0.057 A 
ATOM     43  C   UNL A   1      35.892  30.476  29.088  1.00  0.00     0.134 A 
ATOM     44  C   UNL A   1      37.046  32.568  28.910  1.00  0.00     0.134 A 
ATOM     45  F   UNL A   1      35.777  29.228  29.564  1.00  0.00    -0.206 F 
ATOM     46  C   UNL A   1      34.940  30.918  28.165  1.00  0.00     0.040 A 
ATOM     47  C   UNL A   1      36.092  33.027  28.001  1.00  0.00     0.040 A 
ATOM     48  F   UNL A   1      38.059  33.388  29.227  1.00  0.00    -0.206 F 
ATOM     49  C   UNL A   1      35.038  32.199  27.622  1.00  0.00     0.006 A 
ENDBRANCH  28  42
BRANCH  29  50
ATOM     50  C   UNL A   1      44.331  27.828  35.409  1.00  0.00     0.057 A 
ATOM     51  C   UNL A   1      45.562  28.493  35.470  1.00  0.00     0.134 A 
ATOM     52  C   UNL A   1      44.196  26.666  36.181  1.00  0.00     0.134 A 
ATOM     53  F   UNL A   1      45.770  29.597  34.737  1.00  0.00    -0.206 F 
ATOM     54  C   UNL A   1      46.620  28.010  36.246  1.00  0.00     0.040 A 
ATOM     55  C   UNL A   1      45.233  26.189  36.984  1.00  0.00     0.040 A 
ATOM     56  F   UNL A   1      43.047  25.974  36.168  1.00  0.00    -0.206 F 
ATOM     57  C   UNL A   1      46.454  26.857  37.011  1.00  0.00     0.006 A 
ENDBRANCH  29  50
BRANCH  41  58
ATOM     58  C   UNL A   1      39.133  32.377  36.263  1.00  0.00     0.057 A 
ATOM     59  C   UNL A   1      38.236  31.924  37.238  1.00  0.00     0.134 A 
ATOM     60  C   UNL A   1      39.704  33.643  36.435  1.00  0.00     0.134 A 
ATOM     61  F   UNL A   1      37.649  30.724  37.117  1.00  0.00    -0.206 F 
ATOM     62  C   UNL A   1      37.910  32.710  38.342  1.00  0.00     0.040 A 
ATOM     63  C   UNL A   1      39.403  34.428  37.547  1.00  0.00     0.040 A 
ATOM     64  F   UNL A   1      40.576  34.125  35.537  1.00  0.00    -0.206 F 
ATOM     65  C   UNL A   1      38.501  33.962  38.502  1.00  0.00     0.006 A 
ENDBRANCH  41  58
ENDBRANCH  15  16
ENDBRANCH   8  10
ENDBRANCH   7   8
ENDBRANCH   6   7
ENDBRANCH   5   6
ENDBRANCH   4   5
ENDBRANCH   3   4
ENDBRANCH   2   3
ENDBRANCH   1   2
BRANCH   1  66
ATOM     66  C   UNL A   1      39.437  21.814  26.121  1.00  0.00     0.188 C 
BRANCH  66  67
ATOM     67  C   UNL A   1      38.463  23.004  26.127  1.00  0.00     0.188 C 
BRANCH  67  68
ATOM     68  O   UNL A   1      37.260  22.846  25.386  1.00  0.00    -0.376 OA
BRANCH  68  69
ATOM     69  C   UNL A   1      36.419  21.790  25.860  1.00  0.00     0.202 C 
BRANCH  69  70
ATOM     70  C   UNL A   1      35.361  21.338  24.848  1.00  0.00     0.261 C 
BRANCH  70  71
ATOM     71  O   UNL A   1      34.118  20.986  25.477  1.00  0.00    -0.463 OA
BRANCH  71  72
ATOM     72  C   UNL A   1      32.974  21.475  24.959  1.00  0.00     0.309 C 
ATOM     73  O   UNL A   1      31.941  21.681  25.582  1.00  0.00    -0.252 OA
BRANCH  72  74
ATOM     74  C   UNL A   1      33.095  21.856  23.528  1.00  0.00     0.107 C 
ATOM     75  C   UNL A   1      32.059  22.622  22.745  1.00  0.00     0.025 C 
ATOM     76  C   UNL A   1      33.366  23.283  23.088  1.00  0.00     0.034 C 
BRANCH  76  77
ATOM     77  C   UNL A   1      33.284  24.486  23.993  1.00  0.00    -0.044 A 
ATOM     78  C   UNL A   1      32.120  25.269  24.036  1.00  0.00     0.004 A 
ATOM     79  C   UNL A   1      34.357  24.893  24.789  1.00  0.00     0.004 A 
ATOM     80  C   UNL A   1      32.041  26.419  24.826  1.00  0.00     0.004 A 
ATOM     81  C   UNL A   1      34.272  26.040  25.587  1.00  0.00     0.004 A 
ATOM     82  C   UNL A   1      33.123  26.845  25.609  1.00  0.00    -0.045 A 
BRANCH  82  83
ATOM     83  C   UNL A   1      33.019  28.144  26.379  1.00  0.00     0.019 C 
ATOM     84  C   UNL A   1      31.772  28.988  26.450  1.00  0.00     0.009 C 
ATOM     85  C   UNL A   1      32.160  28.140  27.625  1.00  0.00     0.009 C 
ENDBRANCH  82  83
ENDBRANCH  76  77
ENDBRANCH  72  74
ENDBRANCH  71  72
ENDBRANCH  70  71
ENDBRANCH  69  70
ENDBRANCH  68  69
ENDBRANCH  67  68
ENDBRANCH  66  67
ENDBRANCH   1  66
TORSDOF 22
ENDMDL
MODEL 3
REMARK VINA RESULT:      -9.5      4.362      8.891
REMARK SMILES O=C(OCCOCCOCCOCCOC(=O)[C@H]1C[C@H]1c1ccc(C2CC2)cc1)c1ccc(-c2c3nc(c(-c4c(F)cccc4F)c4ccc([nH]4)c(-c4c(F)cccc4F)c4nc(c(-c5c(F)cccc5F)c5ccc2[nH]5)C=C4)C=C3)cc1
REMARK SMILES IDX 9 1 8 2 7 3 6 4 5 5 4 6 3 7 2 8 1 9 30 10 31 11 83 12 32 13
REMARK SMILES IDX 82 14 33 15 34 16 35 17 76 18 36 19 81 20 75 21 77 22 37 23
REMARK SMILES IDX 80 24 74 25 73 26 38 28 64 29 47 30 63 31 48 32 51 33 62 34
REMARK SMILES IDX 78 35 49 36 50 37 61 39 79 40 52 41 39 42 40 43 45 44 41 45
REMARK SMILES IDX 42 46 44 47 46 48 43 49 65 50 66 51 71 52 67 53 68 54 70 55
REMARK SMILES IDX 72 56 69 57 53 58 54 59 59 60 55 61 56 62 58 63 60 64 57 65
REMARK SMILES IDX 10 66 11 67 12 68 13 69 14 70 15 71 16 72 17 73 18 74 19 75
REMARK SMILES IDX 20 76 21 77 22 78 29 79 23 80 28 81 24 82 25 83 26 84 27 85
REMARK H PARENT 77 27 51 38
REMARK Flexibility Score: inf
ROOT
ATOM      1  O   UNL A   1      35.657  22.263  26.480  1.00  0.00    -0.377 OA
ENDROOT
BRANCH   1   2
ATOM      2  C   UNL A   1      36.381  22.931  25.448  1.00  0.00     0.188 C 
BRANCH   2   3
ATOM      3  C   UNL A   1      37.406  22.046  24.748  1.00  0.00     0.188 C 
BRANCH   3   4
ATOM      4  O   UNL A   1      36.855  20.743  24.570  1.00  0.00    -0.376 OA
BRANCH   4   5
ATOM      5  C   UNL A   1      37.708  19.675  24.969  1.00  0.00     0.202 C 
BRANCH   5   6
ATOM      6  C   UNL A   1      38.911  20.146  25.785  1.00  0.00     0.261 C 
BRANCH   6   7
ATOM      7  O   UNL A   1      39.988  19.198  25.751  1.00  0.00    -0.460 OA
BRANCH   7   8
ATOM      8  C   UNL A   1      41.301  19.442  25.987  1.00  0.00     0.338 C 
ATOM      9  O   UNL A   1      42.103  18.518  25.854  1.00  0.00    -0.246 OA
BRANCH   8  10
ATOM     10  C   UNL A   1      41.849  20.781  26.374  1.00  0.00     0.060 A 
ATOM     11  C   UNL A   1      42.033  21.227  27.684  1.00  0.00     0.016 A 
ATOM     12  C   UNL A   1      42.307  21.609  25.334  1.00  0.00     0.016 A 
ATOM     13  C   UNL A   1      42.619  22.453  27.968  1.00  0.00     0.010 A 
ATOM     14  C   UNL A   1      42.915  22.839  25.608  1.00  0.00     0.010 A 
ATOM     15  C   UNL A   1      43.065  23.264  26.932  1.00  0.00    -0.014 A 
BRANCH  15  16
ATOM     16  C   UNL A   1      43.570  24.602  27.277  1.00  0.00     0.031 A 
ATOM     17  C   UNL A   1      42.592  25.611  27.792  1.00  0.00     0.074 A 
ATOM     18  C   UNL A   1      44.892  24.849  27.251  1.00  0.00     0.049 A 
ATOM     19  N   UNL A   1      42.776  26.868  28.081  1.00  0.00    -0.248 NA
ATOM     20  C   UNL A   1      41.221  25.127  28.035  1.00  0.00     0.031 C 
ATOM     21  C   UNL A   1      45.926  23.872  26.902  1.00  0.00     0.029 A 
ATOM     22  N   UNL A   1      45.594  25.987  27.544  1.00  0.00    -0.354 N 
ATOM     23  C   UNL A   1      41.538  27.338  28.499  1.00  0.00     0.074 A 
ATOM     24  C   UNL A   1      40.614  26.228  28.448  1.00  0.00     0.031 C 
ATOM     25  C   UNL A   1      47.132  24.455  27.005  1.00  0.00     0.029 A 
ATOM     26  C   UNL A   1      46.949  25.859  27.354  1.00  0.00     0.049 A 
ATOM     27  H   UNL A   1      45.168  26.817  27.860  1.00  0.00     0.167 HD
ATOM     28  C   UNL A   1      41.211  28.596  28.870  1.00  0.00     0.037 A 
ATOM     29  C   UNL A   1      47.915  26.795  27.407  1.00  0.00     0.037 A 
ATOM     30  C   UNL A   1      42.157  29.673  28.915  1.00  0.00     0.049 A 
ATOM     31  C   UNL A   1      47.505  28.209  27.721  1.00  0.00     0.074 A 
ATOM     32  C   UNL A   1      41.945  31.003  29.222  1.00  0.00     0.029 A 
ATOM     33  N   UNL A   1      43.511  29.530  28.641  1.00  0.00    -0.354 N 
ATOM     34  N   UNL A   1      46.319  28.672  28.048  1.00  0.00    -0.248 NA
ATOM     35  C   UNL A   1      48.551  29.237  27.643  1.00  0.00     0.031 C 
ATOM     36  C   UNL A   1      43.166  31.674  29.093  1.00  0.00     0.029 A 
ATOM     37  C   UNL A   1      44.144  30.754  28.742  1.00  0.00     0.049 A 
ATOM     38  H   UNL A   1      43.955  28.682  28.408  1.00  0.00     0.167 HD
ATOM     39  C   UNL A   1      46.475  30.041  28.210  1.00  0.00     0.074 A 
ATOM     40  C   UNL A   1      47.878  30.329  27.979  1.00  0.00     0.031 C 
ATOM     41  C   UNL A   1      45.547  30.985  28.505  1.00  0.00     0.037 A 
BRANCH  28  42
ATOM     42  C   UNL A   1      39.769  28.866  29.163  1.00  0.00     0.057 A 
ATOM     43  C   UNL A   1      39.228  28.741  30.447  1.00  0.00     0.134 A 
ATOM     44  C   UNL A   1      38.900  29.232  28.126  1.00  0.00     0.134 A 
ATOM     45  F   UNL A   1      39.999  28.360  31.477  1.00  0.00    -0.206 F 
ATOM     46  C   UNL A   1      37.869  28.957  30.689  1.00  0.00     0.040 A 
ATOM     47  C   UNL A   1      37.545  29.468  28.358  1.00  0.00     0.040 A 
ATOM     48  F   UNL A   1      39.354  29.354  26.869  1.00  0.00    -0.206 F 
ATOM     49  C   UNL A   1      37.024  29.325  29.642  1.00  0.00     0.006 A 
ENDBRANCH  28  42
BRANCH  29  50
ATOM     50  C   UNL A   1      49.322  26.458  27.066  1.00  0.00     0.057 A 
ATOM     51  C   UNL A   1      49.764  26.405  25.738  1.00  0.00     0.134 A 
ATOM     52  C   UNL A   1      50.255  26.139  28.062  1.00  0.00     0.134 A 
ATOM     53  F   UNL A   1      48.917  26.674  24.733  1.00  0.00    -0.206 F 
ATOM     54  C   UNL A   1      51.071  26.030  25.414  1.00  0.00     0.040 A 
ATOM     55  C   UNL A   1      51.572  25.791  27.755  1.00  0.00     0.040 A 
ATOM     56  F   UNL A   1      49.901  26.162  29.355  1.00  0.00    -0.206 F 
ATOM     57  C   UNL A   1      51.981  25.726  26.426  1.00  0.00     0.006 A 
ENDBRANCH  29  50
BRANCH  41  58
ATOM     58  C   UNL A   1      46.030  32.397  28.593  1.00  0.00     0.057 A 
ATOM     59  C   UNL A   1      45.989  33.251  27.484  1.00  0.00     0.134 A 
ATOM     60  C   UNL A   1      46.482  32.922  29.809  1.00  0.00     0.134 A 
ATOM     61  F   UNL A   1      45.577  32.797  26.292  1.00  0.00    -0.206 F 
ATOM     62  C   UNL A   1      46.395  34.581  27.580  1.00  0.00     0.040 A 
ATOM     63  C   UNL A   1      46.869  34.257  29.922  1.00  0.00     0.040 A 
ATOM     64  F   UNL A   1      46.535  32.153  30.907  1.00  0.00    -0.206 F 
ATOM     65  C   UNL A   1      46.828  35.088  28.804  1.00  0.00     0.006 A 
ENDBRANCH  41  58
ENDBRANCH  15  16
ENDBRANCH   8  10
ENDBRANCH   7   8
ENDBRANCH   6   7
ENDBRANCH   5   6
ENDBRANCH   4   5
ENDBRANCH   3   4
ENDBRANCH   2   3
ENDBRANCH   1   2
BRANCH   1  66
ATOM     66  C   UNL A   1      34.468  22.880  26.965  1.00  0.00     0.188 C 
BRANCH  66  67
ATOM     67  C   UNL A   1      33.272  22.015  27.397  1.00  0.00     0.188 C 
BRANCH  67  68
ATOM     68  O   UNL A   1      32.234  21.841  26.441  1.00  0.00    -0.376 OA
BRANCH  68  69
ATOM     69  C   UNL A   1      32.640  21.140  25.262  1.00  0.00     0.202 C 
BRANCH  69  70
ATOM     70  C   UNL A   1      32.374  21.906  23.962  1.00  0.00     0.261 C 
BRANCH  70  71
ATOM     71  O   UNL A   1      31.401  22.949  24.132  1.00  0.00    -0.463 OA
BRANCH  71  72
ATOM     72  C   UNL A   1      31.384  23.963  23.244  1.00  0.00     0.309 C 
ATOM     73  O   UNL A   1      30.523  24.830  23.169  1.00  0.00    -0.252 OA
BRANCH  72  74
ATOM     74  C   UNL A   1      32.596  24.011  22.386  1.00  0.00     0.107 C 
ATOM     75  C   UNL A   1      32.902  25.089  21.378  1.00  0.00     0.025 C 
ATOM     76  C   UNL A   1      33.727  24.993  22.633  1.00  0.00     0.034 C 
BRANCH  76  77
ATOM     77  C   UNL A   1      33.647  26.170  23.571  1.00  0.00    -0.044 A 
ATOM     78  C   UNL A   1      33.425  27.465  23.076  1.00  0.00     0.004 A 
ATOM     79  C   UNL A   1      33.824  26.036  24.950  1.00  0.00     0.004 A 
ATOM     80  C   UNL A   1      33.401  28.577  23.921  1.00  0.00     0.004 A 
ATOM     81  C   UNL A   1      33.790  27.151  25.795  1.00  0.00     0.004 A 
ATOM     82  C   UNL A   1      33.601  28.450  25.303  1.00  0.00    -0.045 A 
BRANCH  82  83
ATOM     83  C   UNL A   1      33.653  29.694  26.164  1.00  0.00     0.019 C 
ATOM     84  C   UNL A   1      32.438  30.382  26.733  1.00  0.00     0.009 C 
ATOM     85  C   UNL A   1      33.297  29.537  27.626  1.00  0.00     0.009 C 
ENDBRANCH  82  83
ENDBRANCH  76  77
ENDBRANCH  72  74
ENDBRANCH  71  72
ENDBRANCH  70  71
ENDBRANCH  69  70
ENDBRANCH  68  69
ENDBRANCH  67  68
ENDBRANCH  66  67
ENDBRANCH   1  66
TORSDOF 22
ENDMDL
