MODEL 1
REMARK VINA RESULT:      -7.6      0.000      0.000
REMARK SMILES CCOc1cc2c(cc1/C=C1/C(=O)N(c3cccc(C(=O)OCCOCCOCCOCCOC(=O)c4ccc(-c5c6nc(c(-c7c(F)cccc7F)c7ccc([nH]7)c(-c7c(F)cccc7F)c7nc(c(-c8c(F)cccc8F)c8ccc5[nH]8)C=C7)C=C6)cc4)c3)C(=S)N=C1O)OCO2
REMARK SMILES IDX 27 1 26 2 25 3 24 4 23 5 22 6 20 7 21 8 19 9 15 10 16 11
REMARK SMILES IDX 91 12 17 13 18 14 14 15 10 16 11 17 12 18 95 19 13 20 94 21
REMARK SMILES IDX 92 22 93 23 9 24 4 25 5 26 6 27 8 28 7 29 99 30 97 31 98 32
REMARK SMILES IDX 3 33 2 34 1 35 96 36 28 38 29 39 30 40 31 41 32 42 33 43
REMARK SMILES IDX 34 44 35 45 36 46 37 47 38 48 90 49 39 50 89 51 40 52 41 53
REMARK SMILES IDX 42 54 83 55 43 56 88 57 82 58 84 59 44 60 87 61 81 62 80 63
REMARK SMILES IDX 45 65 71 66 54 67 70 68 55 69 58 70 69 71 85 72 56 73 57 74
REMARK SMILES IDX 68 76 86 77 59 78 46 79 47 80 52 81 48 82 49 83 51 84 53 85
REMARK SMILES IDX 50 86 72 87 73 88 78 89 74 90 75 91 77 92 79 93 76 94 60 95
REMARK SMILES IDX 61 96 66 97 62 98 63 99 65 100 67 101 64 102
REMARK H PARENT 96 37 84 64 58 75
REMARK Flexibility Score: inf
ROOT
ATOM      1  C   UNL A   1      49.097  20.769  36.365  1.00  0.00     0.188 C 
ENDROOT
BRANCH   1   2
ATOM      2  C   UNL A   1      47.556  20.757  36.272  1.00  0.00     0.188 C 
BRANCH   2   3
ATOM      3  O   UNL A   1      47.056  21.335  35.077  1.00  0.00    -0.376 OA
BRANCH   3   4
ATOM      4  C   UNL A   1      45.665  21.310  34.823  1.00  0.00     0.202 C 
BRANCH   4   5
ATOM      5  C   UNL A   1      44.812  22.522  35.222  1.00  0.00     0.261 C 
BRANCH   5   6
ATOM      6  O   UNL A   1      43.724  22.838  34.348  1.00  0.00    -0.460 OA
BRANCH   6   7
ATOM      7  C   UNL A   1      44.025  23.395  33.153  1.00  0.00     0.338 C 
ATOM      8  O   UNL A   1      43.820  22.916  32.053  1.00  0.00    -0.246 OA
BRANCH   7   9
ATOM      9  C   UNL A   1      44.422  24.801  33.413  1.00  0.00     0.062 A 
ATOM     10  C   UNL A   1      43.849  27.070  34.093  1.00  0.00     0.052 A 
ATOM     11  C   UNL A   1      45.121  27.484  33.655  1.00  0.00     0.027 A 
ATOM     12  C   UNL A   1      43.514  25.714  33.968  1.00  0.00     0.042 A 
ATOM     13  C   UNL A   1      46.023  26.576  33.090  1.00  0.00     0.003 A 
ATOM     14  C   UNL A   1      45.678  25.232  32.975  1.00  0.00     0.016 A 
BRANCH  10  15
ATOM     15  N   UNL A   1      42.926  28.007  34.696  1.00  0.00    -0.251 N 
ATOM     16  C   UNL A   1      40.875  30.900  33.727  1.00  0.00     0.031 C 
ATOM     17  C   UNL A   1      41.293  29.842  34.468  1.00  0.00     0.103 C 
ATOM     18  C   UNL A   1      42.320  28.944  33.836  1.00  0.00     0.270 C 
ATOM     19  C   UNL A   1      40.875  29.379  35.789  1.00  0.00     0.226 C 
ATOM     20  O   UNL A   1      42.551  29.038  32.630  1.00  0.00    -0.268 OA
ATOM     21  N   UNL A   1      41.474  28.527  36.528  1.00  0.00    -0.184 NA
ATOM     22  C   UNL A   1      42.641  27.958  36.079  1.00  0.00     0.210 C 
ATOM     23  S   UNL A   1      43.661  27.273  37.257  1.00  0.00    -0.038 S 
BRANCH  16  24
ATOM     24  C   UNL A   1      39.853  31.960  33.948  1.00  0.00     0.021 A 
ATOM     25  C   UNL A   1      40.217  33.340  33.954  1.00  0.00     0.130 A 
ATOM     26  C   UNL A   1      39.251  34.355  33.927  1.00  0.00     0.097 A 
ATOM     27  C   UNL A   1      37.934  33.988  34.017  1.00  0.00     0.169 A 
ATOM     28  C   UNL A   1      38.501  31.654  34.167  1.00  0.00     0.062 A 
ATOM     29  C   UNL A   1      37.571  32.675  34.158  1.00  0.00     0.166 A 
ATOM     30  O   UNL A   1      36.869  34.830  33.999  1.00  0.00    -0.453 OA
ATOM     31  O   UNL A   1      36.222  32.520  34.247  1.00  0.00    -0.454 OA
ATOM     32  C   UNL A   1      35.781  33.886  34.094  1.00  0.00     0.468 C 
BRANCH  25  33
ATOM     33  O   UNL A   1      41.537  33.734  33.915  1.00  0.00    -0.493 OA
BRANCH  33  34
ATOM     34  C   UNL A   1      42.005  34.197  35.198  1.00  0.00     0.226 C 
ATOM     35  C   UNL A   1      42.734  33.125  36.004  1.00  0.00     0.049 C 
ENDBRANCH  33  34
ENDBRANCH  25  33
ENDBRANCH  16  24
BRANCH  19  36
ATOM     36  O   UNL A   1      39.720  29.834  36.270  1.00  0.00    -0.493 OA
ATOM     37  H   UNL A   1      39.019  29.238  36.444  1.00  0.00     0.295 HD
ENDBRANCH  19  36
ENDBRANCH  10  15
ENDBRANCH   7   9
ENDBRANCH   6   7
ENDBRANCH   5   6
ENDBRANCH   4   5
ENDBRANCH   3   4
ENDBRANCH   2   3
ENDBRANCH   1   2
BRANCH   1  38
ATOM     38  O   UNL A   1      49.803  21.749  35.616  1.00  0.00    -0.377 OA
BRANCH  38  39
ATOM     39  C   UNL A   1      51.133  22.104  35.990  1.00  0.00     0.188 C 
BRANCH  39  40
ATOM     40  C   UNL A   1      52.022  23.048  35.140  1.00  0.00     0.188 C 
BRANCH  40  41
ATOM     41  O   UNL A   1      52.322  22.572  33.842  1.00  0.00    -0.376 OA
BRANCH  41  42
ATOM     42  C   UNL A   1      52.038  23.397  32.731  1.00  0.00     0.202 C 
BRANCH  42  43
ATOM     43  C   UNL A   1      52.828  24.705  32.596  1.00  0.00     0.261 C 
BRANCH  43  44
ATOM     44  O   UNL A   1      52.740  25.372  31.330  1.00  0.00    -0.460 OA
BRANCH  44  45
ATOM     45  C   UNL A   1      52.358  26.664  31.329  1.00  0.00     0.338 C 
ATOM     46  O   UNL A   1      53.046  27.645  31.571  1.00  0.00    -0.246 OA
BRANCH  45  47
ATOM     47  C   UNL A   1      50.977  26.704  30.812  1.00  0.00     0.060 A 
ATOM     48  C   UNL A   1      50.722  27.206  29.529  1.00  0.00     0.016 A 
ATOM     49  C   UNL A   1      49.938  26.211  31.604  1.00  0.00     0.016 A 
ATOM     50  C   UNL A   1      49.413  27.244  29.042  1.00  0.00     0.010 A 
ATOM     51  C   UNL A   1      48.630  26.273  31.128  1.00  0.00     0.010 A 
ATOM     52  C   UNL A   1      48.359  26.819  29.861  1.00  0.00    -0.014 A 
BRANCH  52  53
ATOM     53  C   UNL A   1      46.955  27.153  29.527  1.00  0.00     0.031 A 
ATOM     54  C   UNL A   1      46.456  28.516  29.920  1.00  0.00     0.074 A 
ATOM     55  C   UNL A   1      46.130  26.266  28.943  1.00  0.00     0.049 A 
ATOM     56  N   UNL A   1      45.237  28.985  29.933  1.00  0.00    -0.248 NA
ATOM     57  C   UNL A   1      47.479  29.475  30.373  1.00  0.00     0.031 C 
ATOM     58  C   UNL A   1      46.510  24.940  28.461  1.00  0.00     0.029 A 
ATOM     59  N   UNL A   1      44.784  26.348  28.684  1.00  0.00    -0.354 N 
ATOM     60  C   UNL A   1      45.345  30.286  30.408  1.00  0.00     0.074 A 
ATOM     61  C   UNL A   1      46.740  30.524  30.700  1.00  0.00     0.031 C 
ATOM     62  C   UNL A   1      45.413  24.320  27.988  1.00  0.00     0.029 A 
ATOM     63  C   UNL A   1      44.251  25.186  28.180  1.00  0.00     0.049 A 
ATOM     64  H   UNL A   1      44.252  27.161  28.843  1.00  0.00     0.167 HD
ATOM     65  C   UNL A   1      44.366  31.204  30.581  1.00  0.00     0.037 A 
ATOM     66  C   UNL A   1      42.965  24.854  27.947  1.00  0.00     0.037 A 
ATOM     67  C   UNL A   1      42.979  30.957  30.298  1.00  0.00     0.049 A 
ATOM     68  C   UNL A   1      41.877  25.858  28.250  1.00  0.00     0.074 A 
ATOM     69  C   UNL A   1      41.902  31.812  30.454  1.00  0.00     0.029 A 
ATOM     70  N   UNL A   1      42.478  29.764  29.800  1.00  0.00    -0.354 N 
ATOM     71  N   UNL A   1      41.982  27.083  28.706  1.00  0.00    -0.248 NA
ATOM     72  C   UNL A   1      40.490  25.429  28.009  1.00  0.00     0.031 C 
ATOM     73  C   UNL A   1      40.743  31.119  30.097  1.00  0.00     0.029 A 
ATOM     74  C   UNL A   1      41.106  29.857  29.653  1.00  0.00     0.049 A 
ATOM     75  H   UNL A   1      43.019  28.971  29.583  1.00  0.00     0.167 HD
ATOM     76  C   UNL A   1      40.686  27.587  28.751  1.00  0.00     0.074 A 
ATOM     77  C   UNL A   1      39.811  26.535  28.282  1.00  0.00     0.031 C 
ATOM     78  C   UNL A   1      40.258  28.814  29.139  1.00  0.00     0.037 A 
BRANCH  65  79
ATOM     79  C   UNL A   1      44.758  32.548  31.116  1.00  0.00     0.057 A 
ATOM     80  C   UNL A   1      45.137  33.598  30.271  1.00  0.00     0.134 A 
ATOM     81  C   UNL A   1      44.713  32.810  32.492  1.00  0.00     0.134 A 
ATOM     82  F   UNL A   1      45.218  33.408  28.944  1.00  0.00    -0.206 F 
ATOM     83  C   UNL A   1      45.474  34.855  30.774  1.00  0.00     0.040 A 
ATOM     84  C   UNL A   1      45.019  34.071  33.005  1.00  0.00     0.040 A 
ATOM     85  F   UNL A   1      44.358  31.849  33.358  1.00  0.00    -0.206 F 
ATOM     86  C   UNL A   1      45.405  35.098  32.145  1.00  0.00     0.006 A 
ENDBRANCH  65  79
BRANCH  66  87
ATOM     87  C   UNL A   1      42.610  23.507  27.425  1.00  0.00     0.057 A 
ATOM     88  C   UNL A   1      42.605  23.245  26.048  1.00  0.00     0.134 A 
ATOM     89  C   UNL A   1      42.202  22.473  28.275  1.00  0.00     0.134 A 
ATOM     90  F   UNL A   1      42.961  24.201  25.178  1.00  0.00    -0.206 F 
ATOM     91  C   UNL A   1      42.172  22.020  25.536  1.00  0.00     0.040 A 
ATOM     92  C   UNL A   1      41.798  21.232  27.778  1.00  0.00     0.040 A 
ATOM     93  F   UNL A   1      42.185  22.653  29.604  1.00  0.00    -0.206 F 
ATOM     94  C   UNL A   1      41.769  21.008  26.404  1.00  0.00     0.006 A 
ENDBRANCH  66  87
BRANCH  78  95
ATOM     95  C   UNL A   1      38.798  29.130  28.984  1.00  0.00     0.057 A 
ATOM     96  C   UNL A   1      37.905  29.102  30.062  1.00  0.00     0.134 A 
ATOM     97  C   UNL A   1      38.301  29.554  27.744  1.00  0.00     0.134 A 
ATOM     98  F   UNL A   1      38.315  28.698  31.274  1.00  0.00    -0.206 F 
ATOM     99  C   UNL A   1      36.567  29.469  29.908  1.00  0.00     0.040 A 
ATOM    100  C   UNL A   1      36.974  29.951  27.584  1.00  0.00     0.040 A 
ATOM    101  F   UNL A   1      39.107  29.616  26.672  1.00  0.00    -0.206 F 
ATOM    102  C   UNL A   1      36.102  29.905  28.668  1.00  0.00     0.006 A 
ENDBRANCH  78  95
ENDBRANCH  52  53
ENDBRANCH  45  47
ENDBRANCH  44  45
ENDBRANCH  43  44
ENDBRANCH  42  43
ENDBRANCH  41  42
ENDBRANCH  40  41
ENDBRANCH  39  40
ENDBRANCH  38  39
ENDBRANCH   1  38
TORSDOF 25
ENDMDL
MODEL 2
REMARK VINA RESULT:      -7.5      4.554     11.778
REMARK SMILES CCOc1cc2c(cc1/C=C1/C(=O)N(c3cccc(C(=O)OCCOCCOCCOCCOC(=O)c4ccc(-c5c6nc(c(-c7c(F)cccc7F)c7ccc([nH]7)c(-c7c(F)cccc7F)c7nc(c(-c8c(F)cccc8F)c8ccc5[nH]8)C=C7)C=C6)cc4)c3)C(=S)N=C1O)OCO2
REMARK SMILES IDX 27 1 26 2 25 3 24 4 23 5 22 6 20 7 21 8 19 9 15 10 16 11
REMARK SMILES IDX 91 12 17 13 18 14 14 15 10 16 11 17 12 18 95 19 13 20 94 21
REMARK SMILES IDX 92 22 93 23 9 24 4 25 5 26 6 27 8 28 7 29 99 30 97 31 98 32
REMARK SMILES IDX 3 33 2 34 1 35 96 36 28 38 29 39 30 40 31 41 32 42 33 43
REMARK SMILES IDX 34 44 35 45 36 46 37 47 38 48 90 49 39 50 89 51 40 52 41 53
REMARK SMILES IDX 42 54 83 55 43 56 88 57 82 58 84 59 44 60 87 61 81 62 80 63
REMARK SMILES IDX 45 65 71 66 54 67 70 68 55 69 58 70 69 71 85 72 56 73 57 74
REMARK SMILES IDX 68 76 86 77 59 78 46 79 47 80 52 81 48 82 49 83 51 84 53 85
REMARK SMILES IDX 50 86 72 87 73 88 78 89 74 90 75 91 77 92 79 93 76 94 60 95
REMARK SMILES IDX 61 96 66 97 62 98 63 99 65 100 67 101 64 102
REMARK H PARENT 96 37 84 64 58 75
REMARK Flexibility Score: inf
ROOT
ATOM      1  C   UNL A   1      33.778  28.146  26.295  1.00  0.00     0.188 C 
ENDROOT
BRANCH   1   2
ATOM      2  C   UNL A   1      32.687  28.210  25.203  1.00  0.00     0.188 C 
BRANCH   2   3
ATOM      3  O   UNL A   1      31.738  27.160  25.289  1.00  0.00    -0.376 OA
BRANCH   3   4
ATOM      4  C   UNL A   1      31.631  26.233  24.226  1.00  0.00     0.202 C 
BRANCH   4   5
ATOM      5  C   UNL A   1      32.622  26.321  23.057  1.00  0.00     0.261 C 
BRANCH   5   6
ATOM      6  O   UNL A   1      33.867  25.641  23.239  1.00  0.00    -0.460 OA
BRANCH   6   7
ATOM      7  C   UNL A   1      33.879  24.301  23.061  1.00  0.00     0.338 C 
ATOM      8  O   UNL A   1      33.711  23.702  22.014  1.00  0.00    -0.246 OA
BRANCH   7   9
ATOM      9  C   UNL A   1      34.380  23.696  24.321  1.00  0.00     0.062 A 
ATOM     10  C   UNL A   1      36.215  22.818  25.662  1.00  0.00     0.052 A 
ATOM     11  C   UNL A   1      35.265  22.338  26.582  1.00  0.00     0.027 A 
ATOM     12  C   UNL A   1      35.753  23.504  24.529  1.00  0.00     0.042 A 
ATOM     13  C   UNL A   1      33.894  22.520  26.369  1.00  0.00     0.003 A 
ATOM     14  C   UNL A   1      33.450  23.206  25.243  1.00  0.00     0.016 A 
BRANCH  10  15
ATOM     15  N   UNL A   1      37.633  22.647  25.895  1.00  0.00    -0.251 N 
ATOM     16  C   UNL A   1      40.561  24.668  26.822  1.00  0.00     0.031 C 
ATOM     17  C   UNL A   1      39.798  23.557  26.647  1.00  0.00     0.103 C 
ATOM     18  C   UNL A   1      38.350  23.783  26.318  1.00  0.00     0.270 C 
ATOM     19  C   UNL A   1      40.135  22.141  26.772  1.00  0.00     0.226 C 
ATOM     20  O   UNL A   1      37.859  24.904  26.464  1.00  0.00    -0.268 OA
ATOM     21  N   UNL A   1      39.444  21.150  26.360  1.00  0.00    -0.184 NA
ATOM     22  C   UNL A   1      38.250  21.388  25.722  1.00  0.00     0.210 C 
ATOM     23  S   UNL A   1      37.644  20.135  24.742  1.00  0.00    -0.038 S 
BRANCH  16  24
ATOM     24  C   UNL A   1      41.982  24.879  27.213  1.00  0.00     0.021 A 
ATOM     25  C   UNL A   1      42.317  25.613  28.390  1.00  0.00     0.130 A 
ATOM     26  C   UNL A   1      43.624  25.627  28.899  1.00  0.00     0.097 A 
ATOM     27  C   UNL A   1      44.604  25.012  28.165  1.00  0.00     0.169 A 
ATOM     28  C   UNL A   1      43.045  24.381  26.444  1.00  0.00     0.062 A 
ATOM     29  C   UNL A   1      44.326  24.426  26.959  1.00  0.00     0.166 A 
ATOM     30  O   UNL A   1      45.915  24.921  28.505  1.00  0.00    -0.453 OA
ATOM     31  O   UNL A   1      45.433  23.887  26.381  1.00  0.00    -0.454 OA
ATOM     32  C   UNL A   1      46.427  24.160  27.391  1.00  0.00     0.468 C 
BRANCH  25  33
ATOM     33  O   UNL A   1      41.357  26.281  29.117  1.00  0.00    -0.493 OA
BRANCH  33  34
ATOM     34  C   UNL A   1      41.551  27.711  29.090  1.00  0.00     0.226 C 
ATOM     35  C   UNL A   1      41.245  28.341  27.735  1.00  0.00     0.049 C 
ENDBRANCH  33  34
ENDBRANCH  25  33
ENDBRANCH  16  24
BRANCH  19  36
ATOM     36  O   UNL A   1      41.245  21.823  27.435  1.00  0.00    -0.493 OA
ATOM     37  H   UNL A   1      41.194  21.295  28.207  1.00  0.00     0.295 HD
ENDBRANCH  19  36
ENDBRANCH  10  15
ENDBRANCH   7   9
ENDBRANCH   6   7
ENDBRANCH   5   6
ENDBRANCH   4   5
ENDBRANCH   3   4
ENDBRANCH   2   3
ENDBRANCH   1   2
BRANCH   1  38
ATOM     38  O   UNL A   1      34.623  29.276  26.461  1.00  0.00    -0.377 OA
BRANCH  38  39
ATOM     39  C   UNL A   1      34.225  30.337  27.328  1.00  0.00     0.188 C 
BRANCH  39  40
ATOM     40  C   UNL A   1      35.219  31.084  28.254  1.00  0.00     0.188 C 
BRANCH  40  41
ATOM     41  O   UNL A   1      35.003  32.479  28.355  1.00  0.00    -0.376 OA
BRANCH  41  42
ATOM     42  C   UNL A   1      34.391  32.990  29.522  1.00  0.00     0.202 C 
BRANCH  42  43
ATOM     43  C   UNL A   1      35.271  33.777  30.500  1.00  0.00     0.261 C 
BRANCH  43  44
ATOM     44  O   UNL A   1      36.520  33.173  30.859  1.00  0.00    -0.460 OA
BRANCH  44  45
ATOM     45  C   UNL A   1      36.535  32.360  31.934  1.00  0.00     0.338 C 
ATOM     46  O   UNL A   1      35.602  32.079  32.670  1.00  0.00    -0.246 OA
BRANCH  45  47
ATOM     47  C   UNL A   1      37.866  31.723  31.971  1.00  0.00     0.060 A 
ATOM     48  C   UNL A   1      38.798  32.102  32.948  1.00  0.00     0.016 A 
ATOM     49  C   UNL A   1      38.171  30.725  31.044  1.00  0.00     0.016 A 
ATOM     50  C   UNL A   1      40.057  31.499  32.980  1.00  0.00     0.010 A 
ATOM     51  C   UNL A   1      39.437  30.143  31.062  1.00  0.00     0.010 A 
ATOM     52  C   UNL A   1      40.395  30.550  32.007  1.00  0.00    -0.014 A 
BRANCH  52  53
ATOM     53  C   UNL A   1      41.804  30.144  31.797  1.00  0.00     0.031 A 
ATOM     54  C   UNL A   1      42.620  30.955  30.830  1.00  0.00     0.074 A 
ATOM     55  C   UNL A   1      42.333  29.065  32.400  1.00  0.00     0.049 A 
ATOM     56  N   UNL A   1      43.794  30.705  30.315  1.00  0.00    -0.248 NA
ATOM     57  C   UNL A   1      42.018  32.221  30.375  1.00  0.00     0.031 C 
ATOM     58  C   UNL A   1      41.665  28.235  33.400  1.00  0.00     0.029 A 
ATOM     59  N   UNL A   1      43.557  28.467  32.227  1.00  0.00    -0.354 N 
ATOM     60  C   UNL A   1      44.063  31.770  29.465  1.00  0.00     0.074 A 
ATOM     61  C   UNL A   1      42.921  32.655  29.510  1.00  0.00     0.031 C 
ATOM     62  C   UNL A   1      42.479  27.217  33.734  1.00  0.00     0.029 A 
ATOM     63  C   UNL A   1      43.701  27.298  32.935  1.00  0.00     0.049 A 
ATOM     64  H   UNL A   1      44.264  28.840  31.652  1.00  0.00     0.167 HD
ATOM     65  C   UNL A   1      45.168  31.994  28.717  1.00  0.00     0.037 A 
ATOM     66  C   UNL A   1      44.690  26.382  32.901  1.00  0.00     0.037 A 
ATOM     67  C   UNL A   1      46.295  31.103  28.669  1.00  0.00     0.049 A 
ATOM     68  C   UNL A   1      45.865  26.599  31.976  1.00  0.00     0.074 A 
ATOM     69  C   UNL A   1      47.458  31.225  27.930  1.00  0.00     0.029 A 
ATOM     70  N   UNL A   1      46.397  29.925  29.391  1.00  0.00    -0.354 N 
ATOM     71  N   UNL A   1      46.111  27.603  31.169  1.00  0.00    -0.248 NA
ATOM     72  C   UNL A   1      46.897  25.550  31.954  1.00  0.00     0.031 C 
ATOM     73  C   UNL A   1      48.244  30.095  28.169  1.00  0.00     0.029 A 
ATOM     74  C   UNL A   1      47.600  29.304  29.107  1.00  0.00     0.049 A 
ATOM     75  H   UNL A   1      45.716  29.582  30.014  1.00  0.00     0.167 HD
ATOM     76  C   UNL A   1      47.348  27.334  30.591  1.00  0.00     0.074 A 
ATOM     77  C   UNL A   1      47.799  26.072  31.134  1.00  0.00     0.031 C 
ATOM     78  C   UNL A   1      48.052  28.070  29.696  1.00  0.00     0.037 A 
BRANCH  65  79
ATOM     79  C   UNL A   1      45.201  33.235  27.877  1.00  0.00     0.057 A 
ATOM     80  C   UNL A   1      45.847  34.401  28.308  1.00  0.00     0.134 A 
ATOM     81  C   UNL A   1      44.619  33.252  26.603  1.00  0.00     0.134 A 
ATOM     82  F   UNL A   1      46.408  34.456  29.526  1.00  0.00    -0.206 F 
ATOM     83  C   UNL A   1      45.898  35.544  27.510  1.00  0.00     0.040 A 
ATOM     84  C   UNL A   1      44.690  34.379  25.784  1.00  0.00     0.040 A 
ATOM     85  F   UNL A   1      43.986  32.168  26.128  1.00  0.00    -0.206 F 
ATOM     86  C   UNL A   1      45.328  35.531  26.238  1.00  0.00     0.006 A 
ENDBRANCH  65  79
BRANCH  66  87
ATOM     87  C   UNL A   1      44.620  25.156  33.740  1.00  0.00     0.057 A 
ATOM     88  C   UNL A   1      44.199  23.933  33.199  1.00  0.00     0.134 A 
ATOM     89  C   UNL A   1      44.901  25.187  35.111  1.00  0.00     0.134 A 
ATOM     90  F   UNL A   1      43.890  23.842  31.897  1.00  0.00    -0.206 F 
ATOM     91  C   UNL A   1      44.026  22.800  33.996  1.00  0.00     0.040 A 
ATOM     92  C   UNL A   1      44.763  24.052  35.913  1.00  0.00     0.040 A 
ATOM     93  F   UNL A   1      45.310  26.322  35.695  1.00  0.00    -0.206 F 
ATOM     94  C   UNL A   1      44.310  22.857  35.359  1.00  0.00     0.006 A 
ENDBRANCH  66  87
BRANCH  78  95
ATOM     95  C   UNL A   1      49.424  27.591  29.316  1.00  0.00     0.057 A 
ATOM     96  C   UNL A   1      49.671  26.880  28.136  1.00  0.00     0.134 A 
ATOM     97  C   UNL A   1      50.528  27.928  30.112  1.00  0.00     0.134 A 
ATOM     98  F   UNL A   1      48.658  26.519  27.335  1.00  0.00    -0.206 F 
ATOM     99  C   UNL A   1      50.965  26.507  27.770  1.00  0.00     0.040 A 
ATOM    100  C   UNL A   1      51.828  27.587  29.741  1.00  0.00     0.040 A 
ATOM    101  F   UNL A   1      50.362  28.621  31.250  1.00  0.00    -0.206 F 
ATOM    102  C   UNL A   1      52.049  26.871  28.568  1.00  0.00     0.006 A 
ENDBRANCH  78  95
ENDBRANCH  52  53
ENDBRANCH  45  47
ENDBRANCH  44  45
ENDBRANCH  43  44
ENDBRANCH  42  43
ENDBRANCH  41  42
ENDBRANCH  40  41
ENDBRANCH  39  40
ENDBRANCH  38  39
ENDBRANCH   1  38
TORSDOF 25
ENDMDL
MODEL 3
REMARK VINA RESULT:      -6.9      1.125      2.087
REMARK SMILES CCOc1cc2c(cc1/C=C1/C(=O)N(c3cccc(C(=O)OCCOCCOCCOCCOC(=O)c4ccc(-c5c6nc(c(-c7c(F)cccc7F)c7ccc([nH]7)c(-c7c(F)cccc7F)c7nc(c(-c8c(F)cccc8F)c8ccc5[nH]8)C=C7)C=C6)cc4)c3)C(=S)N=C1O)OCO2
REMARK SMILES IDX 27 1 26 2 25 3 24 4 23 5 22 6 20 7 21 8 19 9 15 10 16 11
REMARK SMILES IDX 91 12 17 13 18 14 14 15 10 16 11 17 12 18 95 19 13 20 94 21
REMARK SMILES IDX 92 22 93 23 9 24 4 25 5 26 6 27 8 28 7 29 99 30 97 31 98 32
REMARK SMILES IDX 3 33 2 34 1 35 96 36 28 38 29 39 30 40 31 41 32 42 33 43
REMARK SMILES IDX 34 44 35 45 36 46 37 47 38 48 90 49 39 50 89 51 40 52 41 53
REMARK SMILES IDX 42 54 83 55 43 56 88 57 82 58 84 59 44 60 87 61 81 62 80 63
REMARK SMILES IDX 45 65 71 66 54 67 70 68 55 69 58 70 69 71 85 72 56 73 57 74
REMARK SMILES IDX 68 76 86 77 59 78 46 79 47 80 52 81 48 82 49 83 51 84 53 85
REMARK SMILES IDX 50 86 72 87 73 88 78 89 74 90 75 91 77 92 79 93 76 94 60 95
REMARK SMILES IDX 61 96 66 97 62 98 63 99 65 100 67 101 64 102
REMARK H PARENT 96 37 84 64 58 75
REMARK Flexibility Score: inf
ROOT
ATOM      1  C   UNL A   1      49.462  20.686  37.361  1.00  0.00     0.188 C 
ENDROOT
BRANCH   1   2
ATOM      2  C   UNL A   1      48.070  20.025  37.464  1.00  0.00     0.188 C 
BRANCH   2   3
ATOM      3  O   UNL A   1      47.263  20.223  36.315  1.00  0.00    -0.376 OA
BRANCH   3   4
ATOM      4  C   UNL A   1      46.014  20.874  36.447  1.00  0.00     0.202 C 
BRANCH   4   5
ATOM      5  C   UNL A   1      45.975  22.407  36.499  1.00  0.00     0.261 C 
BRANCH   5   6
ATOM      6  O   UNL A   1      44.688  23.008  36.323  1.00  0.00    -0.460 OA
BRANCH   6   7
ATOM      7  C   UNL A   1      44.202  23.084  35.063  1.00  0.00     0.338 C 
ATOM      8  O   UNL A   1      43.418  22.316  34.536  1.00  0.00    -0.246 OA
BRANCH   7   9
ATOM      9  C   UNL A   1      44.600  24.407  34.520  1.00  0.00     0.062 A 
ATOM     10  C   UNL A   1      44.395  26.835  34.502  1.00  0.00     0.052 A 
ATOM     11  C   UNL A   1      45.166  26.855  33.325  1.00  0.00     0.027 A 
ATOM     12  C   UNL A   1      44.122  25.593  35.094  1.00  0.00     0.042 A 
ATOM     13  C   UNL A   1      45.633  25.671  32.745  1.00  0.00     0.003 A 
ATOM     14  C   UNL A   1      45.358  24.446  33.345  1.00  0.00     0.016 A 
BRANCH  10  15
ATOM     15  N   UNL A   1      43.931  28.062  35.112  1.00  0.00    -0.251 N 
ATOM     16  C   UNL A   1      41.687  30.871  34.343  1.00  0.00     0.031 C 
ATOM     17  C   UNL A   1      42.429  30.019  35.096  1.00  0.00     0.103 C 
ATOM     18  C   UNL A   1      42.966  28.801  34.399  1.00  0.00     0.270 C 
ATOM     19  C   UNL A   1      42.767  30.051  36.517  1.00  0.00     0.226 C 
ATOM     20  O   UNL A   1      42.528  28.491  33.290  1.00  0.00    -0.268 OA
ATOM     21  N   UNL A   1      43.661  29.359  37.108  1.00  0.00    -0.184 NA
ATOM     22  C   UNL A   1      44.415  28.476  36.373  1.00  0.00     0.210 C 
ATOM     23  S   UNL A   1      45.901  27.990  37.048  1.00  0.00    -0.038 S 
BRANCH  16  24
ATOM     24  C   UNL A   1      40.937  32.120  34.653  1.00  0.00     0.021 A 
ATOM     25  C   UNL A   1      39.512  32.121  34.724  1.00  0.00     0.130 A 
ATOM     26  C   UNL A   1      38.803  33.216  35.238  1.00  0.00     0.097 A 
ATOM     27  C   UNL A   1      39.512  34.344  35.559  1.00  0.00     0.169 A 
ATOM     28  C   UNL A   1      41.590  33.341  34.876  1.00  0.00     0.062 A 
ATOM     29  C   UNL A   1      40.866  34.412  35.361  1.00  0.00     0.166 A 
ATOM     30  O   UNL A   1      38.997  35.490  36.073  1.00  0.00    -0.453 OA
ATOM     31  O   UNL A   1      41.379  35.618  35.726  1.00  0.00    -0.454 OA
ATOM     32  C   UNL A   1      40.196  36.277  36.224  1.00  0.00     0.468 C 
BRANCH  25  33
ATOM     33  O   UNL A   1      38.774  31.016  34.359  1.00  0.00    -0.493 OA
BRANCH  33  34
ATOM     34  C   UNL A   1      38.211  31.151  33.038  1.00  0.00     0.226 C 
ATOM     35  C   UNL A   1      36.723  31.487  33.041  1.00  0.00     0.049 C 
ENDBRANCH  33  34
ENDBRANCH  25  33
ENDBRANCH  16  24
BRANCH  19  36
ATOM     36  O   UNL A   1      42.039  30.833  37.310  1.00  0.00    -0.493 OA
ATOM     37  H   UNL A   1      41.950  31.745  37.114  1.00  0.00     0.295 HD
ENDBRANCH  19  36
ENDBRANCH  10  15
ENDBRANCH   7   9
ENDBRANCH   6   7
ENDBRANCH   5   6
ENDBRANCH   4   5
ENDBRANCH   3   4
ENDBRANCH   2   3
ENDBRANCH   1   2
BRANCH   1  38
ATOM     38  O   UNL A   1      49.596  21.833  36.534  1.00  0.00    -0.377 OA
BRANCH  38  39
ATOM     39  C   UNL A   1      50.488  22.880  36.913  1.00  0.00     0.188 C 
BRANCH  39  40
ATOM     40  C   UNL A   1      51.059  23.907  35.902  1.00  0.00     0.188 C 
BRANCH  40  41
ATOM     41  O   UNL A   1      52.037  23.391  35.019  1.00  0.00    -0.376 OA
BRANCH  41  42
ATOM     42  C   UNL A   1      51.885  23.608  33.631  1.00  0.00     0.202 C 
BRANCH  42  43
ATOM     43  C   UNL A   1      53.072  24.211  32.871  1.00  0.00     0.261 C 
BRANCH  43  44
ATOM     44  O   UNL A   1      52.754  24.993  31.712  1.00  0.00    -0.460 OA
BRANCH  44  45
ATOM     45  C   UNL A   1      52.336  26.259  31.906  1.00  0.00     0.338 C 
ATOM     46  O   UNL A   1      52.978  27.195  32.359  1.00  0.00    -0.246 OA
BRANCH  45  47
ATOM     47  C   UNL A   1      50.990  26.363  31.312  1.00  0.00     0.060 A 
ATOM     48  C   UNL A   1      50.802  27.077  30.120  1.00  0.00     0.016 A 
ATOM     49  C   UNL A   1      49.917  25.722  31.934  1.00  0.00     0.016 A 
ATOM     50  C   UNL A   1      49.526  27.176  29.560  1.00  0.00     0.010 A 
ATOM     51  C   UNL A   1      48.641  25.843  31.388  1.00  0.00     0.010 A 
ATOM     52  C   UNL A   1      48.435  26.597  30.219  1.00  0.00    -0.014 A 
BRANCH  52  53
ATOM     53  C   UNL A   1      47.046  26.959  29.854  1.00  0.00     0.031 A 
ATOM     54  C   UNL A   1      46.536  28.295  30.315  1.00  0.00     0.074 A 
ATOM     55  C   UNL A   1      46.243  26.116  29.181  1.00  0.00     0.049 A 
ATOM     56  N   UNL A   1      45.319  28.770  30.311  1.00  0.00    -0.248 NA
ATOM     57  C   UNL A   1      47.543  29.218  30.870  1.00  0.00     0.031 C 
ATOM     58  C   UNL A   1      46.638  24.823  28.628  1.00  0.00     0.029 A 
ATOM     59  N   UNL A   1      44.908  26.222  28.875  1.00  0.00    -0.354 N 
ATOM     60  C   UNL A   1      45.411  30.036  30.874  1.00  0.00     0.074 A 
ATOM     61  C   UNL A   1      46.794  30.247  31.235  1.00  0.00     0.031 C 
ATOM     62  C   UNL A   1      45.559  24.240  28.073  1.00  0.00     0.029 A 
ATOM     63  C   UNL A   1      44.392  25.098  28.276  1.00  0.00     0.049 A 
ATOM     64  H   UNL A   1      44.373  27.026  29.066  1.00  0.00     0.167 HD
ATOM     65  C   UNL A   1      44.428  30.946  31.068  1.00  0.00     0.037 A 
ATOM     66  C   UNL A   1      43.116  24.788  27.972  1.00  0.00     0.037 A 
ATOM     67  C   UNL A   1      43.052  30.725  30.716  1.00  0.00     0.049 A 
ATOM     68  C   UNL A   1      42.019  25.776  28.297  1.00  0.00     0.074 A 
ATOM     69  C   UNL A   1      41.973  31.573  30.886  1.00  0.00     0.029 A 
ATOM     70  N   UNL A   1      42.569  29.569  30.122  1.00  0.00    -0.354 N 
ATOM     71  N   UNL A   1      42.109  26.968  28.836  1.00  0.00    -0.248 NA
ATOM     72  C   UNL A   1      40.642  25.371  27.975  1.00  0.00     0.031 C 
ATOM     73  C   UNL A   1      40.827  30.910  30.439  1.00  0.00     0.029 A 
ATOM     74  C   UNL A   1      41.204  29.679  29.928  1.00  0.00     0.049 A 
ATOM     75  H   UNL A   1      43.115  28.789  29.875  1.00  0.00     0.167 HD
ATOM     76  C   UNL A   1      40.813  27.474  28.864  1.00  0.00     0.074 A 
ATOM     77  C   UNL A   1      39.956  26.460  28.293  1.00  0.00     0.031 C 
ATOM     78  C   UNL A   1      40.374  28.675  29.314  1.00  0.00     0.037 A 
BRANCH  65  79
ATOM     79  C   UNL A   1      44.802  32.250  31.706  1.00  0.00     0.057 A 
ATOM     80  C   UNL A   1      45.030  32.360  33.084  1.00  0.00     0.134 A 
ATOM     81  C   UNL A   1      44.980  33.401  30.928  1.00  0.00     0.134 A 
ATOM     82  F   UNL A   1      44.859  31.298  33.888  1.00  0.00    -0.206 F 
ATOM     83  C   UNL A   1      45.405  33.570  33.667  1.00  0.00     0.040 A 
ATOM     84  C   UNL A   1      45.383  34.610  31.495  1.00  0.00     0.040 A 
ATOM     85  F   UNL A   1      44.779  33.365  29.601  1.00  0.00    -0.206 F 
ATOM     86  C   UNL A   1      45.593  34.698  32.870  1.00  0.00     0.006 A 
ENDBRANCH  65  79
BRANCH  66  87
ATOM     87  C   UNL A   1      42.779  23.481  27.349  1.00  0.00     0.057 A 
ATOM     88  C   UNL A   1      42.297  22.415  28.121  1.00  0.00     0.134 A 
ATOM     89  C   UNL A   1      42.993  23.238  25.987  1.00  0.00     0.134 A 
ATOM     90  F   UNL A   1      42.094  22.574  29.437  1.00  0.00    -0.206 F 
ATOM     91  C   UNL A   1      42.077  21.151  27.571  1.00  0.00     0.040 A 
ATOM     92  C   UNL A   1      42.747  21.987  25.417  1.00  0.00     0.040 A 
ATOM     93  F   UNL A   1      43.452  24.213  25.188  1.00  0.00    -0.206 F 
ATOM     94  C   UNL A   1      42.301  20.935  26.212  1.00  0.00     0.006 A 
ENDBRANCH  66  87
BRANCH  78  95
ATOM     95  C   UNL A   1      38.922  29.008  29.124  1.00  0.00     0.057 A 
ATOM     96  C   UNL A   1      37.987  28.913  30.161  1.00  0.00     0.134 A 
ATOM     97  C   UNL A   1      38.476  29.516  27.896  1.00  0.00     0.134 A 
ATOM     98  F   UNL A   1      38.348  28.427  31.358  1.00  0.00    -0.206 F 
ATOM     99  C   UNL A   1      36.657  29.295  29.980  1.00  0.00     0.040 A 
ATOM    100  C   UNL A   1      37.156  29.930  27.711  1.00  0.00     0.040 A 
ATOM    101  F   UNL A   1      39.323  29.646  26.863  1.00  0.00    -0.206 F 
ATOM    102  C   UNL A   1      36.242  29.816  28.754  1.00  0.00     0.006 A 
ENDBRANCH  78  95
ENDBRANCH  52  53
ENDBRANCH  45  47
ENDBRANCH  44  45
ENDBRANCH  43  44
ENDBRANCH  42  43
ENDBRANCH  41  42
ENDBRANCH  40  41
ENDBRANCH  39  40
ENDBRANCH  38  39
ENDBRANCH   1  38
TORSDOF 25
ENDMDL
