MODEL 1
REMARK VINA RESULT:      -9.5      0.000      0.000
REMARK SMILES COC(=O)c1ccc(C)c2c1[C@H]1C=CC[C@H]1[C@@H](c1ccc(C(=O)OCCOCCOCCOCCOC(=O)c3ccc(-c4c5nc(c(-c6c(F)cccc6F)c6ccc([nH]6)c(-c6c(F)cccc6F)c6nc(c(-c7c(F)cccc7F)c7ccc4[nH]7)C=C6)C=C5)cc3)cc1)N2
REMARK SMILES IDX 29 1 28 2 27 3 26 4 25 5 24 6 22 7 23 8 21 9 18 10 19 11
REMARK SMILES IDX 94 12 20 13 93 14 17 15 5 16 6 17 11 18 7 19 10 20 12 21
REMARK SMILES IDX 8 22 95 23 13 24 16 25 9 26 14 28 15 29 3 30 4 31 2 32 1 33
REMARK SMILES IDX 30 34 31 35 32 36 33 37 34 38 35 39 36 40 37 41 38 42 39 43
REMARK SMILES IDX 40 44 92 45 41 46 91 47 42 48 43 49 44 50 85 51 45 52 90 53
REMARK SMILES IDX 84 54 86 55 46 56 89 57 83 58 82 59 47 61 73 62 56 63 72 64
REMARK SMILES IDX 57 65 60 66 71 67 87 68 58 69 59 70 70 72 88 73 61 74 48 75
REMARK SMILES IDX 49 76 54 77 50 78 51 79 53 80 55 81 52 82 74 83 75 84 80 85
REMARK SMILES IDX 76 86 77 87 79 88 81 89 78 90 62 91 63 92 68 93 64 94 65 95
REMARK SMILES IDX 67 96 69 97 66 98
REMARK H PARENT 95 27 86 60 60 71
REMARK Flexibility Score: inf
ROOT
ATOM      1  C   UNL A   1      39.640  28.904  28.235  1.00  0.00     0.188 C 
ENDROOT
BRANCH   1   2
ATOM      2  C   UNL A   1      39.216  29.789  29.427  1.00  0.00     0.188 C 
BRANCH   2   3
ATOM      3  O   UNL A   1      38.091  30.613  29.166  1.00  0.00    -0.376 OA
BRANCH   3   4
ATOM      4  C   UNL A   1      36.800  30.043  29.295  1.00  0.00     0.202 C 
BRANCH   4   5
ATOM      5  C   UNL A   1      35.674  30.634  28.431  1.00  0.00     0.261 C 
BRANCH   5   6
ATOM      6  O   UNL A   1      34.567  29.760  28.177  1.00  0.00    -0.460 OA
BRANCH   6   7
ATOM      7  C   UNL A   1      33.717  30.144  27.201  1.00  0.00     0.338 C 
ATOM      8  O   UNL A   1      33.251  31.260  27.040  1.00  0.00    -0.246 OA
BRANCH   7   9
ATOM      9  C   UNL A   1      33.640  29.056  26.201  1.00  0.00     0.060 A 
ATOM     10  C   UNL A   1      33.537  27.093  24.162  1.00  0.00    -0.025 A 
ATOM     11  C   UNL A   1      33.264  28.448  23.899  1.00  0.00     0.007 A 
ATOM     12  C   UNL A   1      33.925  26.759  25.473  1.00  0.00     0.007 A 
ATOM     13  C   UNL A   1      33.280  29.412  24.905  1.00  0.00     0.016 A 
ATOM     14  C   UNL A   1      33.993  27.733  26.484  1.00  0.00     0.016 A 
BRANCH  10  15
ATOM     15  C   UNL A   1      33.342  25.993  23.108  1.00  0.00     0.114 C 
ATOM     16  C   UNL A   1      32.578  22.698  25.695  1.00  0.00     0.065 A 
ATOM     17  C   UNL A   1      33.662  22.120  26.361  1.00  0.00     0.016 A 
ATOM     18  C   UNL A   1      32.781  23.638  24.659  1.00  0.00    -0.003 A 
ATOM     19  C   UNL A   1      34.959  22.452  25.989  1.00  0.00     0.006 A 
ATOM     20  C   UNL A   1      34.110  23.952  24.264  1.00  0.00     0.042 A 
ATOM     21  C   UNL A   1      31.605  24.323  23.989  1.00  0.00     0.050 C 
ATOM     22  C   UNL A   1      35.200  23.358  24.942  1.00  0.00    -0.028 A 
ATOM     23  N   UNL A   1      34.329  24.937  23.306  1.00  0.00    -0.377 N 
ATOM     24  C   UNL A   1      30.734  25.192  24.867  1.00  0.00    -0.023 C 
ATOM     25  C   UNL A   1      31.973  25.324  22.877  1.00  0.00     0.031 C 
ATOM     26  C   UNL A   1      36.646  23.688  24.666  1.00  0.00     0.046 C 
ATOM     27  H   UNL A   1      35.150  24.922  22.762  1.00  0.00     0.161 HD
ATOM     28  C   UNL A   1      30.278  26.266  24.208  1.00  0.00    -0.030 C 
ATOM     29  C   UNL A   1      30.798  26.304  22.810  1.00  0.00     0.034 C 
BRANCH  16  30
ATOM     30  C   UNL A   1      31.217  22.280  26.101  1.00  0.00     0.338 C 
ATOM     31  O   UNL A   1      30.533  21.473  25.497  1.00  0.00    -0.246 OA
BRANCH  30  32
ATOM     32  O   UNL A   1      30.854  22.990  27.199  1.00  0.00    -0.465 OA
ATOM     33  C   UNL A   1      29.464  22.889  27.511  1.00  0.00     0.282 C 
ENDBRANCH  30  32
ENDBRANCH  16  30
ENDBRANCH  10  15
ENDBRANCH   7   9
ENDBRANCH   6   7
ENDBRANCH   5   6
ENDBRANCH   4   5
ENDBRANCH   3   4
ENDBRANCH   2   3
ENDBRANCH   1   2
BRANCH   1  34
ATOM     34  O   UNL A   1      40.119  27.591  28.489  1.00  0.00    -0.377 OA
BRANCH  34  35
ATOM     35  C   UNL A   1      39.281  26.470  28.222  1.00  0.00     0.188 C 
BRANCH  35  36
ATOM     36  C   UNL A   1      39.711  25.350  27.241  1.00  0.00     0.188 C 
BRANCH  36  37
ATOM     37  O   UNL A   1      39.613  24.040  27.768  1.00  0.00    -0.376 OA
BRANCH  37  38
ATOM     38  C   UNL A   1      39.583  22.967  26.844  1.00  0.00     0.202 C 
BRANCH  38  39
ATOM     39  C   UNL A   1      40.933  22.441  26.338  1.00  0.00     0.261 C 
BRANCH  39  40
ATOM     40  O   UNL A   1      42.073  22.691  27.174  1.00  0.00    -0.460 OA
BRANCH  40  41
ATOM     41  C   UNL A   1      43.299  22.574  26.621  1.00  0.00     0.338 C 
ATOM     42  O   UNL A   1      43.790  21.586  26.102  1.00  0.00    -0.246 OA
BRANCH  41  43
ATOM     43  C   UNL A   1      43.893  23.926  26.605  1.00  0.00     0.060 A 
ATOM     44  C   UNL A   1      43.975  24.635  25.398  1.00  0.00     0.016 A 
ATOM     45  C   UNL A   1      44.338  24.501  27.797  1.00  0.00     0.016 A 
ATOM     46  C   UNL A   1      44.510  25.923  25.382  1.00  0.00     0.010 A 
ATOM     47  C   UNL A   1      44.911  25.774  27.772  1.00  0.00     0.010 A 
ATOM     48  C   UNL A   1      45.024  26.478  26.561  1.00  0.00    -0.014 A 
BRANCH  48  49
ATOM     49  C   UNL A   1      45.905  27.667  26.485  1.00  0.00     0.031 A 
ATOM     50  C   UNL A   1      47.381  27.428  26.329  1.00  0.00     0.074 A 
ATOM     51  C   UNL A   1      45.420  28.918  26.545  1.00  0.00     0.049 A 
ATOM     52  N   UNL A   1      48.366  28.285  26.288  1.00  0.00    -0.248 NA
ATOM     53  C   UNL A   1      47.799  26.021  26.200  1.00  0.00     0.031 C 
ATOM     54  C   UNL A   1      44.009  29.281  26.648  1.00  0.00     0.029 A 
ATOM     55  N   UNL A   1      46.080  30.121  26.539  1.00  0.00    -0.354 N 
ATOM     56  C   UNL A   1      49.515  27.525  26.117  1.00  0.00     0.074 A 
ATOM     57  C   UNL A   1      49.112  26.137  26.103  1.00  0.00     0.031 C 
ATOM     58  C   UNL A   1      43.909  30.621  26.716  1.00  0.00     0.029 A 
ATOM     59  C   UNL A   1      45.251  31.205  26.693  1.00  0.00     0.049 A 
ATOM     60  H   UNL A   1      47.056  30.201  26.434  1.00  0.00     0.167 HD
ATOM     61  C   UNL A   1      50.794  27.944  25.972  1.00  0.00     0.037 A 
ATOM     62  C   UNL A   1      45.551  32.512  26.827  1.00  0.00     0.037 A 
ATOM     63  C   UNL A   1      51.200  29.322  26.031  1.00  0.00     0.049 A 
ATOM     64  C   UNL A   1      46.996  32.944  26.791  1.00  0.00     0.074 A 
ATOM     65  C   UNL A   1      52.472  29.854  25.918  1.00  0.00     0.029 A 
ATOM     66  N   UNL A   1      50.337  30.388  26.242  1.00  0.00    -0.354 N 
ATOM     67  N   UNL A   1      48.077  32.225  26.603  1.00  0.00    -0.248 NA
ATOM     68  C   UNL A   1      47.261  34.378  26.987  1.00  0.00     0.031 C 
ATOM     69  C   UNL A   1      52.385  31.236  26.116  1.00  0.00     0.029 A 
ATOM     70  C   UNL A   1      51.052  31.573  26.290  1.00  0.00     0.049 A 
ATOM     71  H   UNL A   1      49.361  30.312  26.342  1.00  0.00     0.167 HD
ATOM     72  C   UNL A   1      49.142  33.119  26.625  1.00  0.00     0.074 A 
ATOM     73  C   UNL A   1      48.575  34.435  26.826  1.00  0.00     0.031 C 
ATOM     74  C   UNL A   1      50.470  32.876  26.488  1.00  0.00     0.037 A 
BRANCH  61  75
ATOM     75  C   UNL A   1      51.839  26.885  25.776  1.00  0.00     0.057 A 
ATOM     76  C   UNL A   1      52.462  26.282  26.874  1.00  0.00     0.134 A 
ATOM     77  C   UNL A   1      52.221  26.454  24.498  1.00  0.00     0.134 A 
ATOM     78  F   UNL A   1      52.143  26.648  28.125  1.00  0.00    -0.206 F 
ATOM     79  C   UNL A   1      53.426  25.286  26.709  1.00  0.00     0.040 A 
ATOM     80  C   UNL A   1      53.160  25.436  24.321  1.00  0.00     0.040 A 
ATOM     81  F   UNL A   1      51.646  26.975  23.403  1.00  0.00    -0.206 F 
ATOM     82  C   UNL A   1      53.770  24.853  25.430  1.00  0.00     0.006 A 
ENDBRANCH  61  75
BRANCH  62  83
ATOM     83  C   UNL A   1      44.476  33.518  27.035  1.00  0.00     0.057 A 
ATOM     84  C   UNL A   1      44.051  33.874  28.321  1.00  0.00     0.134 A 
ATOM     85  C   UNL A   1      43.897  34.196  25.956  1.00  0.00     0.134 A 
ATOM     86  F   UNL A   1      44.567  33.266  29.399  1.00  0.00    -0.206 F 
ATOM     87  C   UNL A   1      43.093  34.868  28.526  1.00  0.00     0.040 A 
ATOM     88  C   UNL A   1      42.960  35.213  26.147  1.00  0.00     0.040 A 
ATOM     89  F   UNL A   1      44.282  33.921  24.701  1.00  0.00    -0.206 F 
ATOM     90  C   UNL A   1      42.553  35.550  27.437  1.00  0.00     0.006 A 
ENDBRANCH  62  83
BRANCH  74  91
ATOM     91  C   UNL A   1      51.392  34.062  26.509  1.00  0.00     0.057 A 
ATOM     92  C   UNL A   1      51.910  34.539  27.721  1.00  0.00     0.134 A 
ATOM     93  C   UNL A   1      51.751  34.749  25.341  1.00  0.00     0.134 A 
ATOM     94  F   UNL A   1      51.597  33.938  28.879  1.00  0.00    -0.206 F 
ATOM     95  C   UNL A   1      52.751  35.652  27.771  1.00  0.00     0.040 A 
ATOM     96  C   UNL A   1      52.618  35.843  25.376  1.00  0.00     0.040 A 
ATOM     97  F   UNL A   1      51.301  34.340  24.146  1.00  0.00    -0.206 F 
ATOM     98  C   UNL A   1      53.115  36.301  26.594  1.00  0.00     0.006 A 
ENDBRANCH  74  91
ENDBRANCH  48  49
ENDBRANCH  41  43
ENDBRANCH  40  41
ENDBRANCH  39  40
ENDBRANCH  38  39
ENDBRANCH  37  38
ENDBRANCH  36  37
ENDBRANCH  35  36
ENDBRANCH  34  35
ENDBRANCH   1  34
TORSDOF 23
ENDMDL
MODEL 2
REMARK VINA RESULT:      -9.4      5.796     11.903
REMARK SMILES COC(=O)c1ccc(C)c2c1[C@H]1C=CC[C@H]1[C@@H](c1ccc(C(=O)OCCOCCOCCOCCOC(=O)c3ccc(-c4c5nc(c(-c6c(F)cccc6F)c6ccc([nH]6)c(-c6c(F)cccc6F)c6nc(c(-c7c(F)cccc7F)c7ccc4[nH]7)C=C6)C=C5)cc3)cc1)N2
REMARK SMILES IDX 29 1 28 2 27 3 26 4 25 5 24 6 22 7 23 8 21 9 18 10 19 11
REMARK SMILES IDX 94 12 20 13 93 14 17 15 5 16 6 17 11 18 7 19 10 20 12 21
REMARK SMILES IDX 8 22 95 23 13 24 16 25 9 26 14 28 15 29 3 30 4 31 2 32 1 33
REMARK SMILES IDX 30 34 31 35 32 36 33 37 34 38 35 39 36 40 37 41 38 42 39 43
REMARK SMILES IDX 40 44 92 45 41 46 91 47 42 48 43 49 44 50 85 51 45 52 90 53
REMARK SMILES IDX 84 54 86 55 46 56 89 57 83 58 82 59 47 61 73 62 56 63 72 64
REMARK SMILES IDX 57 65 60 66 71 67 87 68 58 69 59 70 70 72 88 73 61 74 48 75
REMARK SMILES IDX 49 76 54 77 50 78 51 79 53 80 55 81 52 82 74 83 75 84 80 85
REMARK SMILES IDX 76 86 77 87 79 88 81 89 78 90 62 91 63 92 68 93 64 94 65 95
REMARK SMILES IDX 67 96 69 97 66 98
REMARK H PARENT 95 27 86 60 60 71
REMARK Flexibility Score: inf
ROOT
ATOM      1  C   UNL A   1      34.035  35.081  31.898  1.00  0.00     0.188 C 
ENDROOT
BRANCH   1   2
ATOM      2  C   UNL A   1      33.967  33.972  32.970  1.00  0.00     0.188 C 
BRANCH   2   3
ATOM      3  O   UNL A   1      34.777  32.841  32.688  1.00  0.00    -0.376 OA
BRANCH   3   4
ATOM      4  C   UNL A   1      36.102  32.826  33.189  1.00  0.00     0.202 C 
BRANCH   4   5
ATOM      5  C   UNL A   1      37.169  32.103  32.351  1.00  0.00     0.261 C 
BRANCH   5   6
ATOM      6  O   UNL A   1      37.850  32.914  31.385  1.00  0.00    -0.460 OA
BRANCH   6   7
ATOM      7  C   UNL A   1      38.400  34.056  31.848  1.00  0.00     0.338 C 
ATOM      8  O   UNL A   1      37.854  34.896  32.543  1.00  0.00    -0.246 OA
BRANCH   7   9
ATOM      9  C   UNL A   1      39.856  34.005  31.590  1.00  0.00     0.060 A 
ATOM     10  C   UNL A   1      42.669  33.892  31.274  1.00  0.00    -0.025 A 
ATOM     11  C   UNL A   1      42.075  34.410  32.439  1.00  0.00     0.007 A 
ATOM     12  C   UNL A   1      41.805  33.373  30.290  1.00  0.00     0.007 A 
ATOM     13  C   UNL A   1      40.693  34.499  32.586  1.00  0.00     0.016 A 
ATOM     14  C   UNL A   1      40.410  33.413  30.451  1.00  0.00     0.016 A 
BRANCH  10  15
ATOM     15  C   UNL A   1      44.182  33.958  31.019  1.00  0.00     0.114 C 
ATOM     16  C   UNL A   1      44.210  33.093  26.850  1.00  0.00     0.065 A 
ATOM     17  C   UNL A   1      44.017  31.768  26.452  1.00  0.00     0.016 A 
ATOM     18  C   UNL A   1      44.436  33.418  28.207  1.00  0.00    -0.003 A 
ATOM     19  C   UNL A   1      44.071  30.748  27.394  1.00  0.00     0.006 A 
ATOM     20  C   UNL A   1      44.518  32.368  29.161  1.00  0.00     0.042 A 
ATOM     21  C   UNL A   1      44.568  34.863  28.650  1.00  0.00     0.050 C 
ATOM     22  C   UNL A   1      44.326  31.029  28.747  1.00  0.00    -0.028 A 
ATOM     23  N   UNL A   1      44.655  32.675  30.512  1.00  0.00    -0.377 N 
ATOM     24  C   UNL A   1      43.363  35.750  28.439  1.00  0.00    -0.023 C 
ATOM     25  C   UNL A   1      44.811  35.069  30.157  1.00  0.00     0.031 C 
ATOM     26  C   UNL A   1      44.301  29.850  29.688  1.00  0.00     0.046 C 
ATOM     27  H   UNL A   1      45.070  32.025  31.125  1.00  0.00     0.161 HD
ATOM     28  C   UNL A   1      43.227  36.646  29.427  1.00  0.00    -0.030 C 
ATOM     29  C   UNL A   1      44.287  36.475  30.462  1.00  0.00     0.034 C 
BRANCH  16  30
ATOM     30  C   UNL A   1      44.184  34.139  25.801  1.00  0.00     0.338 C 
ATOM     31  O   UNL A   1      43.223  34.844  25.551  1.00  0.00    -0.246 OA
BRANCH  30  32
ATOM     32  O   UNL A   1      45.372  34.124  25.144  1.00  0.00    -0.465 OA
ATOM     33  C   UNL A   1      46.306  35.089  25.631  1.00  0.00     0.282 C 
ENDBRANCH  30  32
ENDBRANCH  16  30
ENDBRANCH  10  15
ENDBRANCH   7   9
ENDBRANCH   6   7
ENDBRANCH   5   6
ENDBRANCH   4   5
ENDBRANCH   3   4
ENDBRANCH   2   3
ENDBRANCH   1   2
BRANCH   1  34
ATOM     34  O   UNL A   1      32.841  35.470  31.234  1.00  0.00    -0.377 OA
BRANCH  34  35
ATOM     35  C   UNL A   1      32.918  36.239  30.036  1.00  0.00     0.188 C 
BRANCH  35  36
ATOM     36  C   UNL A   1      32.706  35.595  28.643  1.00  0.00     0.188 C 
BRANCH  36  37
ATOM     37  O   UNL A   1      33.109  34.241  28.555  1.00  0.00    -0.376 OA
BRANCH  37  38
ATOM     38  C   UNL A   1      34.453  33.985  28.187  1.00  0.00     0.202 C 
BRANCH  38  39
ATOM     39  C   UNL A   1      35.235  32.979  29.042  1.00  0.00     0.261 C 
BRANCH  39  40
ATOM     40  O   UNL A   1      34.651  31.676  29.193  1.00  0.00    -0.460 OA
BRANCH  40  41
ATOM     41  C   UNL A   1      35.127  30.677  28.421  1.00  0.00     0.338 C 
ATOM     42  O   UNL A   1      34.658  30.256  27.376  1.00  0.00    -0.246 OA
BRANCH  41  43
ATOM     43  C   UNL A   1      36.434  30.283  28.985  1.00  0.00     0.060 A 
ATOM     44  C   UNL A   1      37.610  30.860  28.483  1.00  0.00     0.016 A 
ATOM     45  C   UNL A   1      36.486  29.366  30.036  1.00  0.00     0.016 A 
ATOM     46  C   UNL A   1      38.845  30.512  29.031  1.00  0.00     0.010 A 
ATOM     47  C   UNL A   1      37.726  28.988  30.555  1.00  0.00     0.010 A 
ATOM     48  C   UNL A   1      38.910  29.539  30.037  1.00  0.00    -0.014 A 
BRANCH  48  49
ATOM     49  C   UNL A   1      40.212  28.912  30.361  1.00  0.00     0.031 A 
ATOM     50  C   UNL A   1      40.955  29.435  31.559  1.00  0.00     0.074 A 
ATOM     51  C   UNL A   1      40.722  27.908  29.628  1.00  0.00     0.049 A 
ATOM     52  N   UNL A   1      42.128  29.098  32.027  1.00  0.00    -0.248 NA
ATOM     53  C   UNL A   1      40.274  30.486  32.335  1.00  0.00     0.031 C 
ATOM     54  C   UNL A   1      40.079  27.283  28.476  1.00  0.00     0.029 A 
ATOM     55  N   UNL A   1      41.919  27.247  29.749  1.00  0.00    -0.354 N 
ATOM     56  C   UNL A   1      42.319  29.884  33.156  1.00  0.00     0.074 A 
ATOM     57  C   UNL A   1      41.163  30.743  33.279  1.00  0.00     0.031 C 
ATOM     58  C   UNL A   1      40.900  26.338  27.980  1.00  0.00     0.029 A 
ATOM     59  C   UNL A   1      42.135  26.317  28.763  1.00  0.00     0.049 A 
ATOM     60  H   UNL A   1      42.562  27.422  30.475  1.00  0.00     0.167 HD
ATOM     61  C   UNL A   1      43.359  29.885  34.021  1.00  0.00     0.037 A 
ATOM     62  C   UNL A   1      43.222  25.560  28.511  1.00  0.00     0.037 A 
ATOM     63  C   UNL A   1      44.529  29.062  33.873  1.00  0.00     0.049 A 
ATOM     64  C   UNL A   1      44.424  25.670  29.417  1.00  0.00     0.074 A 
ATOM     65  C   UNL A   1      45.650  28.999  34.681  1.00  0.00     0.029 A 
ATOM     66  N   UNL A   1      44.736  28.170  32.830  1.00  0.00    -0.354 N 
ATOM     67  N   UNL A   1      44.589  26.396  30.498  1.00  0.00    -0.248 NA
ATOM     68  C   UNL A   1      45.593  24.851  29.065  1.00  0.00     0.031 C 
ATOM     69  C   UNL A   1      46.559  28.111  34.096  1.00  0.00     0.029 A 
ATOM     70  C   UNL A   1      45.978  27.573  32.959  1.00  0.00     0.049 A 
ATOM     71  H   UNL A   1      44.093  27.989  32.107  1.00  0.00     0.167 HD
ATOM     72  C   UNL A   1      45.862  26.096  30.970  1.00  0.00     0.074 A 
ATOM     73  C   UNL A   1      46.419  25.110  30.068  1.00  0.00     0.031 C 
ATOM     74  C   UNL A   1      46.515  26.589  32.053  1.00  0.00     0.037 A 
BRANCH  61  75
ATOM     75  C   UNL A   1      43.281  30.836  35.179  1.00  0.00     0.057 A 
ATOM     76  C   UNL A   1      43.788  32.136  35.073  1.00  0.00     0.134 A 
ATOM     77  C   UNL A   1      42.691  30.469  36.397  1.00  0.00     0.134 A 
ATOM     78  F   UNL A   1      44.364  32.552  33.935  1.00  0.00    -0.206 F 
ATOM     79  C   UNL A   1      43.710  33.038  36.135  1.00  0.00     0.040 A 
ATOM     80  C   UNL A   1      42.580  31.372  37.455  1.00  0.00     0.040 A 
ATOM     81  F   UNL A   1      42.166  29.245  36.557  1.00  0.00    -0.206 F 
ATOM     82  C   UNL A   1      43.096  32.660  37.327  1.00  0.00     0.006 A 
ENDBRANCH  61  75
BRANCH  62  83
ATOM     83  C   UNL A   1      43.252  24.645  27.340  1.00  0.00     0.057 A 
ATOM     84  C   UNL A   1      42.795  23.324  27.434  1.00  0.00     0.134 A 
ATOM     85  C   UNL A   1      43.674  25.091  26.081  1.00  0.00     0.134 A 
ATOM     86  F   UNL A   1      42.373  22.835  28.609  1.00  0.00    -0.206 F 
ATOM     87  C   UNL A   1      42.755  22.482  26.321  1.00  0.00     0.040 A 
ATOM     88  C   UNL A   1      43.612  24.269  24.954  1.00  0.00     0.040 A 
ATOM     89  F   UNL A   1      44.096  26.353  25.919  1.00  0.00    -0.206 F 
ATOM     90  C   UNL A   1      43.153  22.959  25.074  1.00  0.00     0.006 A 
ENDBRANCH  62  83
BRANCH  74  91
ATOM     91  C   UNL A   1      47.882  26.037  32.342  1.00  0.00     0.057 A 
ATOM     92  C   UNL A   1      48.050  25.010  33.281  1.00  0.00     0.134 A 
ATOM     93  C   UNL A   1      49.034  26.531  31.716  1.00  0.00     0.134 A 
ATOM     94  F   UNL A   1      46.992  24.500  33.929  1.00  0.00    -0.206 F 
ATOM     95  C   UNL A   1      49.311  24.495  33.585  1.00  0.00     0.040 A 
ATOM     96  C   UNL A   1      50.297  26.000  31.987  1.00  0.00     0.040 A 
ATOM     97  F   UNL A   1      48.945  27.506  30.798  1.00  0.00    -0.206 F 
ATOM     98  C   UNL A   1      50.438  24.984  32.928  1.00  0.00     0.006 A 
ENDBRANCH  74  91
ENDBRANCH  48  49
ENDBRANCH  41  43
ENDBRANCH  40  41
ENDBRANCH  39  40
ENDBRANCH  38  39
ENDBRANCH  37  38
ENDBRANCH  36  37
ENDBRANCH  35  36
ENDBRANCH  34  35
ENDBRANCH   1  34
TORSDOF 23
ENDMDL
MODEL 3
REMARK VINA RESULT:      -9.4      6.282     12.612
REMARK SMILES COC(=O)c1ccc(C)c2c1[C@H]1C=CC[C@H]1[C@@H](c1ccc(C(=O)OCCOCCOCCOCCOC(=O)c3ccc(-c4c5nc(c(-c6c(F)cccc6F)c6ccc([nH]6)c(-c6c(F)cccc6F)c6nc(c(-c7c(F)cccc7F)c7ccc4[nH]7)C=C6)C=C5)cc3)cc1)N2
REMARK SMILES IDX 29 1 28 2 27 3 26 4 25 5 24 6 22 7 23 8 21 9 18 10 19 11
REMARK SMILES IDX 94 12 20 13 93 14 17 15 5 16 6 17 11 18 7 19 10 20 12 21
REMARK SMILES IDX 8 22 95 23 13 24 16 25 9 26 14 28 15 29 3 30 4 31 2 32 1 33
REMARK SMILES IDX 30 34 31 35 32 36 33 37 34 38 35 39 36 40 37 41 38 42 39 43
REMARK SMILES IDX 40 44 92 45 41 46 91 47 42 48 43 49 44 50 85 51 45 52 90 53
REMARK SMILES IDX 84 54 86 55 46 56 89 57 83 58 82 59 47 61 73 62 56 63 72 64
REMARK SMILES IDX 57 65 60 66 71 67 87 68 58 69 59 70 70 72 88 73 61 74 48 75
REMARK SMILES IDX 49 76 54 77 50 78 51 79 53 80 55 81 52 82 74 83 75 84 80 85
REMARK SMILES IDX 76 86 77 87 79 88 81 89 78 90 62 91 63 92 68 93 64 94 65 95
REMARK SMILES IDX 67 96 69 97 66 98
REMARK H PARENT 95 27 86 60 60 71
REMARK Flexibility Score: inf
ROOT
ATOM      1  C   UNL A   1      34.815  35.379  33.149  1.00  0.00     0.188 C 
ENDROOT
BRANCH   1   2
ATOM      2  C   UNL A   1      35.128  34.646  34.472  1.00  0.00     0.188 C 
BRANCH   2   3
ATOM      3  O   UNL A   1      35.266  33.240  34.337  1.00  0.00    -0.376 OA
BRANCH   3   4
ATOM      4  C   UNL A   1      35.399  32.703  33.033  1.00  0.00     0.202 C 
BRANCH   4   5
ATOM      5  C   UNL A   1      36.824  32.520  32.484  1.00  0.00     0.261 C 
BRANCH   5   6
ATOM      6  O   UNL A   1      37.492  33.724  32.086  1.00  0.00    -0.460 OA
BRANCH   6   7
ATOM      7  C   UNL A   1      38.629  34.021  32.751  1.00  0.00     0.338 C 
ATOM      8  O   UNL A   1      38.798  33.975  33.958  1.00  0.00    -0.246 OA
BRANCH   7   9
ATOM      9  C   UNL A   1      39.719  34.166  31.760  1.00  0.00     0.060 A 
ATOM     10  C   UNL A   1      41.920  34.391  29.991  1.00  0.00    -0.025 A 
ATOM     11  C   UNL A   1      42.062  34.580  31.379  1.00  0.00     0.007 A 
ATOM     12  C   UNL A   1      40.644  34.024  29.522  1.00  0.00     0.007 A 
ATOM     13  C   UNL A   1      40.977  34.503  32.249  1.00  0.00     0.016 A 
ATOM     14  C   UNL A   1      39.554  33.895  30.399  1.00  0.00     0.016 A 
BRANCH  10  15
ATOM     15  C   UNL A   1      43.064  34.655  29.001  1.00  0.00     0.114 C 
ATOM     16  C   UNL A   1      46.306  34.880  31.752  1.00  0.00     0.065 A 
ATOM     17  C   UNL A   1      46.448  36.048  32.507  1.00  0.00     0.016 A 
ATOM     18  C   UNL A   1      45.400  34.822  30.670  1.00  0.00    -0.003 A 
ATOM     19  C   UNL A   1      45.708  37.177  32.180  1.00  0.00     0.006 A 
ATOM     20  C   UNL A   1      44.665  35.988  30.323  1.00  0.00     0.042 A 
ATOM     21  C   UNL A   1      45.189  33.532  29.899  1.00  0.00     0.050 C 
ATOM     22  C   UNL A   1      44.820  37.167  31.090  1.00  0.00    -0.028 A 
ATOM     23  N   UNL A   1      43.707  35.925  29.315  1.00  0.00    -0.377 N 
ATOM     24  C   UNL A   1      44.635  32.360  30.676  1.00  0.00    -0.023 C 
ATOM     25  C   UNL A   1      44.171  33.614  28.746  1.00  0.00     0.031 C 
ATOM     26  C   UNL A   1      44.026  38.429  30.867  1.00  0.00     0.046 C 
ATOM     27  H   UNL A   1      43.464  36.738  28.816  1.00  0.00     0.161 HD
ATOM     28  C   UNL A   1      43.812  31.612  29.928  1.00  0.00    -0.030 C 
ATOM     29  C   UNL A   1      43.658  32.183  28.558  1.00  0.00     0.034 C 
BRANCH  16  30
ATOM     30  C   UNL A   1      47.148  33.717  32.116  1.00  0.00     0.338 C 
ATOM     31  O   UNL A   1      48.145  33.369  31.508  1.00  0.00    -0.246 OA
BRANCH  30  32
ATOM     32  O   UNL A   1      46.585  33.089  33.179  1.00  0.00    -0.465 OA
ATOM     33  C   UNL A   1      47.111  31.782  33.414  1.00  0.00     0.282 C 
ENDBRANCH  30  32
ENDBRANCH  16  30
ENDBRANCH  10  15
ENDBRANCH   7   9
ENDBRANCH   6   7
ENDBRANCH   5   6
ENDBRANCH   4   5
ENDBRANCH   3   4
ENDBRANCH   2   3
ENDBRANCH   1   2
BRANCH   1  34
ATOM     34  O   UNL A   1      33.633  36.161  33.059  1.00  0.00    -0.377 OA
BRANCH  34  35
ATOM     35  C   UNL A   1      33.334  36.852  31.849  1.00  0.00     0.188 C 
BRANCH  35  36
ATOM     36  C   UNL A   1      32.609  36.152  30.672  1.00  0.00     0.188 C 
BRANCH  36  37
ATOM     37  O   UNL A   1      33.158  34.898  30.308  1.00  0.00    -0.376 OA
BRANCH  37  38
ATOM     38  C   UNL A   1      33.848  34.824  29.074  1.00  0.00     0.202 C 
BRANCH  38  39
ATOM     39  C   UNL A   1      35.090  33.924  29.018  1.00  0.00     0.261 C 
BRANCH  39  40
ATOM     40  O   UNL A   1      34.949  32.603  29.563  1.00  0.00    -0.460 OA
BRANCH  40  41
ATOM     41  C   UNL A   1      34.890  31.568  28.699  1.00  0.00     0.338 C 
ATOM     42  O   UNL A   1      34.080  31.390  27.804  1.00  0.00    -0.246 OA
BRANCH  41  43
ATOM     43  C   UNL A   1      36.100  30.752  28.924  1.00  0.00     0.060 A 
ATOM     44  C   UNL A   1      36.120  29.808  29.961  1.00  0.00     0.016 A 
ATOM     45  C   UNL A   1      37.203  30.902  28.081  1.00  0.00     0.016 A 
ATOM     46  C   UNL A   1      37.250  29.015  30.160  1.00  0.00     0.010 A 
ATOM     47  C   UNL A   1      38.349  30.136  28.307  1.00  0.00     0.010 A 
ATOM     48  C   UNL A   1      38.386  29.210  29.364  1.00  0.00    -0.014 A 
BRANCH  48  49
ATOM     49  C   UNL A   1      39.685  28.643  29.794  1.00  0.00     0.031 A 
ATOM     50  C   UNL A   1      40.354  29.268  30.987  1.00  0.00     0.074 A 
ATOM     51  C   UNL A   1      40.256  27.606  29.158  1.00  0.00     0.049 A 
ATOM     52  N   UNL A   1      41.510  28.996  31.533  1.00  0.00    -0.248 NA
ATOM     53  C   UNL A   1      39.609  30.350  31.653  1.00  0.00     0.031 C 
ATOM     54  C   UNL A   1      39.686  26.886  28.023  1.00  0.00     0.029 A 
ATOM     55  N   UNL A   1      41.461  26.988  29.383  1.00  0.00    -0.354 N 
ATOM     56  C   UNL A   1      41.625  29.863  32.612  1.00  0.00     0.074 A 
ATOM     57  C   UNL A   1      40.444  30.696  32.619  1.00  0.00     0.031 C 
ATOM     58  C   UNL A   1      40.554  25.933  27.634  1.00  0.00     0.029 A 
ATOM     59  C   UNL A   1      41.749  25.999  28.475  1.00  0.00     0.049 A 
ATOM     60  H   UNL A   1      42.062  27.231  30.124  1.00  0.00     0.167 HD
ATOM     61  C   UNL A   1      42.620  29.952  33.525  1.00  0.00     0.037 A 
ATOM     62  C   UNL A   1      42.865  25.257  28.330  1.00  0.00     0.037 A 
ATOM     63  C   UNL A   1      43.816  29.154  33.491  1.00  0.00     0.049 A 
ATOM     64  C   UNL A   1      44.017  25.463  29.283  1.00  0.00     0.074 A 
ATOM     65  C   UNL A   1      44.896  29.178  34.354  1.00  0.00     0.029 A 
ATOM     66  N   UNL A   1      44.096  28.199  32.524  1.00  0.00    -0.354 N 
ATOM     67  N   UNL A   1      44.110  26.265  30.317  1.00  0.00    -0.248 NA
ATOM     68  C   UNL A   1      45.222  24.654  29.045  1.00  0.00     0.031 C 
ATOM     69  C   UNL A   1      45.854  28.277  33.877  1.00  0.00     0.029 A 
ATOM     70  C   UNL A   1      45.345  27.646  32.754  1.00  0.00     0.049 A 
ATOM     71  H   UNL A   1      43.495  27.951  31.785  1.00  0.00     0.167 HD
ATOM     72  C   UNL A   1      45.365  26.034  30.870  1.00  0.00     0.074 A 
ATOM     73  C   UNL A   1      45.990  25.005  30.067  1.00  0.00     0.031 C 
ATOM     74  C   UNL A   1      45.950  26.619  31.946  1.00  0.00     0.037 A 
BRANCH  61  75
ATOM     75  C   UNL A   1      42.461  30.978  34.608  1.00  0.00     0.057 A 
ATOM     76  C   UNL A   1      41.804  30.663  35.802  1.00  0.00     0.134 A 
ATOM     77  C   UNL A   1      42.968  32.278  34.472  1.00  0.00     0.134 A 
ATOM     78  F   UNL A   1      41.295  29.437  35.997  1.00  0.00    -0.206 F 
ATOM     79  C   UNL A   1      41.660  31.601  36.825  1.00  0.00     0.040 A 
ATOM     80  C   UNL A   1      42.858  33.215  35.500  1.00  0.00     0.040 A 
ATOM     81  F   UNL A   1      43.628  32.639  33.361  1.00  0.00    -0.206 F 
ATOM     82  C   UNL A   1      42.196  32.879  36.680  1.00  0.00     0.006 A 
ENDBRANCH  61  75
BRANCH  62  83
ATOM     83  C   UNL A   1      42.976  24.265  27.228  1.00  0.00     0.057 A 
ATOM     84  C   UNL A   1      43.579  24.595  26.009  1.00  0.00     0.134 A 
ATOM     85  C   UNL A   1      42.542  22.943  27.395  1.00  0.00     0.134 A 
ATOM     86  F   UNL A   1      44.020  25.841  25.785  1.00  0.00    -0.206 F 
ATOM     87  C   UNL A   1      43.750  23.648  24.997  1.00  0.00     0.040 A 
ATOM     88  C   UNL A   1      42.733  21.979  26.403  1.00  0.00     0.040 A 
ATOM     89  F   UNL A   1      41.982  22.557  28.550  1.00  0.00    -0.206 F 
ATOM     90  C   UNL A   1      43.337  22.332  25.198  1.00  0.00     0.006 A 
ENDBRANCH  62  83
BRANCH  74  91
ATOM     91  C   UNL A   1      47.314  26.126  32.339  1.00  0.00     0.057 A 
ATOM     92  C   UNL A   1      48.460  26.618  31.698  1.00  0.00     0.134 A 
ATOM     93  C   UNL A   1      47.499  25.153  33.330  1.00  0.00     0.134 A 
ATOM     94  F   UNL A   1      48.356  27.541  30.731  1.00  0.00    -0.206 F 
ATOM     95  C   UNL A   1      49.737  26.161  32.029  1.00  0.00     0.040 A 
ATOM     96  C   UNL A   1      48.774  24.713  33.693  1.00  0.00     0.040 A 
ATOM     97  F   UNL A   1      46.447  24.647  33.992  1.00  0.00    -0.206 F 
ATOM     98  C   UNL A   1      49.896  25.213  33.037  1.00  0.00     0.006 A 
ENDBRANCH  74  91
ENDBRANCH  48  49
ENDBRANCH  41  43
ENDBRANCH  40  41
ENDBRANCH  39  40
ENDBRANCH  38  39
ENDBRANCH  37  38
ENDBRANCH  36  37
ENDBRANCH  35  36
ENDBRANCH  34  35
ENDBRANCH   1  34
TORSDOF 23
ENDMDL
