MODEL 1
REMARK VINA RESULT:     -11.7      0.000      0.000
REMARK SMILES Cc1cc(S(F)(F)(F)(F)F)cc2c1O[C@H](C(F)(F)F)C(C(=O)OCCOCCOCCOCCOC(=O)c1ccc(-c3c4nc(c(-c5c(F)cccc5F)c5ccc([nH]5)c(-c5c(F)cccc5F)c5nc(c(-c6c(F)cccc6F)c6ccc3[nH]6)C=C5)C=C4)cc1)=C2
REMARK SMILES IDX 30 1 29 2 28 3 27 4 26 5 25 6 24 7 23 8 21 9 22 10 20 11
REMARK SMILES IDX 1 12 2 13 3 14 13 15 4 16 12 17 14 18 11 19 92 20 15 21 5 22
REMARK SMILES IDX 6 23 7 24 8 25 9 26 10 27 16 28 17 29 18 30 19 31 31 32
REMARK SMILES IDX 32 33 33 34 34 35 35 36 36 37 37 38 38 39 39 40 91 41 40 42
REMARK SMILES IDX 90 43 41 44 42 45 43 46 84 47 44 48 89 49 83 50 85 51 45 52
REMARK SMILES IDX 88 53 82 54 81 55 46 57 72 58 55 59 71 60 56 61 59 62 70 63
REMARK SMILES IDX 86 64 57 65 58 66 69 68 87 69 60 70 47 71 48 72 53 73 49 74
REMARK SMILES IDX 50 75 52 76 54 77 51 78 73 79 74 80 79 81 75 82 76 83 78 84
REMARK SMILES IDX 80 85 77 86 61 87 62 88 67 89 63 90 64 91 66 92 68 93 65 94
REMARK H PARENT 85 56 59 67
REMARK Flexibility Score: inf
ROOT
ATOM      1  C   UNL A   1      38.750  21.978  25.874  1.00  0.00     0.188 C 
ENDROOT
BRANCH   1   2
ATOM      2  O   UNL A   1      37.720  21.548  24.995  1.00  0.00    -0.377 OA
BRANCH   2   3
ATOM      3  C   UNL A   1      36.466  21.645  25.654  1.00  0.00     0.188 C 
BRANCH   3   4
ATOM      4  C   UNL A   1      36.268  23.065  26.161  1.00  0.00     0.188 C 
BRANCH   4   5
ATOM      5  O   UNL A   1      34.986  23.179  26.761  1.00  0.00    -0.376 OA
BRANCH   5   6
ATOM      6  C   UNL A   1      34.552  21.901  27.199  1.00  0.00     0.202 C 
BRANCH   6   7
ATOM      7  C   UNL A   1      33.041  21.804  27.061  1.00  0.00     0.261 C 
BRANCH   7   8
ATOM      8  O   UNL A   1      32.490  23.110  26.974  1.00  0.00    -0.460 OA
BRANCH   8   9
ATOM      9  C   UNL A   1      31.619  23.442  25.903  1.00  0.00     0.338 C 
ATOM     10  O   UNL A   1      30.646  22.677  25.615  1.00  0.00    -0.246 OA
BRANCH   9  11
ATOM     11  C   UNL A   1      31.848  24.714  25.104  1.00  0.00     0.087 C 
ATOM     12  C   UNL A   1      33.865  28.474  22.238  1.00  0.00     0.048 C 
ATOM     13  C   UNL A   1      32.521  28.204  22.894  1.00  0.00    -0.007 A 
ATOM     14  C   UNL A   1      31.488  29.103  22.750  1.00  0.00     0.031 A 
ATOM     15  C   UNL A   1      32.316  27.036  23.626  1.00  0.00     0.130 A 
ATOM     16  C   UNL A   1      30.249  28.858  23.330  1.00  0.00     0.108 A 
ATOM     17  C   UNL A   1      31.053  26.788  24.209  1.00  0.00     0.019 A 
ATOM     18  O   UNL A   1      33.377  26.040  23.817  1.00  0.00    -0.475 OA
ATOM     19  C   UNL A   1      30.023  27.717  24.046  1.00  0.00     0.036 A 
ATOM     20  C   UNL A   1      30.865  25.555  24.974  1.00  0.00     0.027 C 
ATOM     21  C   UNL A   1      33.106  24.933  24.539  1.00  0.00     0.316 C 
BRANCH  16  22
ATOM     22  S   UNL A   1      28.916  30.067  23.132  1.00  0.00     0.310 S 
ATOM     23  F   UNL A   1      29.608  30.843  21.935  1.00  0.00    -0.094 F 
ATOM     24  F   UNL A   1      29.698  31.022  24.112  1.00  0.00    -0.094 F 
ATOM     25  F   UNL A   1      27.743  31.083  23.032  1.00  0.00    -0.094 F 
ATOM     26  F   UNL A   1      28.215  29.163  22.043  1.00  0.00    -0.094 F 
ATOM     27  F   UNL A   1      30.151  29.079  23.136  1.00  0.00    -0.094 F 
ENDBRANCH  16  22
BRANCH  21  28
ATOM     28  C   UNL A   1      33.182  23.835  23.489  1.00  0.00     0.430 C 
ATOM     29  F   UNL A   1      32.033  23.779  22.823  1.00  0.00    -0.167 F 
ATOM     30  F   UNL A   1      34.173  24.099  22.643  1.00  0.00    -0.167 F 
ATOM     31  F   UNL A   1      33.407  22.667  24.085  1.00  0.00    -0.167 F 
ENDBRANCH  21  28
ENDBRANCH   9  11
ENDBRANCH   8   9
ENDBRANCH   7   8
ENDBRANCH   6   7
ENDBRANCH   5   6
ENDBRANCH   4   5
ENDBRANCH   3   4
ENDBRANCH   2   3
ENDBRANCH   1   2
BRANCH   1  32
ATOM     32  C   UNL A   1      39.758  20.856  26.060  1.00  0.00     0.188 C 
BRANCH  32  33
ATOM     33  O   UNL A   1      40.979  21.393  26.546  1.00  0.00    -0.376 OA
BRANCH  33  34
ATOM     34  C   UNL A   1      42.059  20.570  26.129  1.00  0.00     0.202 C 
BRANCH  34  35
ATOM     35  C   UNL A   1      43.219  21.446  25.683  1.00  0.00     0.261 C 
BRANCH  35  36
ATOM     36  O   UNL A   1      42.715  22.603  25.031  1.00  0.00    -0.460 OA
BRANCH  36  37
ATOM     37  C   UNL A   1      43.361  23.854  25.205  1.00  0.00     0.338 C 
ATOM     38  O   UNL A   1      44.286  24.209  24.409  1.00  0.00    -0.246 OA
BRANCH  37  39
ATOM     39  C   UNL A   1      42.946  24.771  26.345  1.00  0.00     0.060 A 
ATOM     40  C   UNL A   1      43.709  25.903  26.612  1.00  0.00     0.016 A 
ATOM     41  C   UNL A   1      41.838  24.588  27.030  1.00  0.00     0.016 A 
ATOM     42  C   UNL A   1      43.032  26.997  27.194  1.00  0.00     0.010 A 
ATOM     43  C   UNL A   1      41.443  25.505  28.010  1.00  0.00     0.010 A 
ATOM     44  C   UNL A   1      42.018  26.686  28.099  1.00  0.00    -0.014 A 
BRANCH  44  45
ATOM     45  C   UNL A   1      41.586  27.684  29.161  1.00  0.00     0.031 A 
ATOM     46  C   UNL A   1      40.481  28.505  28.937  1.00  0.00     0.074 A 
ATOM     47  C   UNL A   1      42.259  27.603  30.368  1.00  0.00     0.049 A 
ATOM     48  N   UNL A   1      39.871  29.306  29.813  1.00  0.00    -0.248 NA
ATOM     49  C   UNL A   1      39.784  28.618  27.646  1.00  0.00     0.031 C 
ATOM     50  C   UNL A   1      43.370  26.770  30.604  1.00  0.00     0.029 A 
ATOM     51  N   UNL A   1      41.993  28.291  31.532  1.00  0.00    -0.354 N 
ATOM     52  C   UNL A   1      38.836  29.920  29.235  1.00  0.00     0.074 A 
ATOM     53  C   UNL A   1      38.771  29.491  27.831  1.00  0.00     0.031 C 
ATOM     54  C   UNL A   1      43.775  26.961  31.887  1.00  0.00     0.029 A 
ATOM     55  C   UNL A   1      42.924  27.916  32.475  1.00  0.00     0.049 A 
ATOM     56  H   UNL A   1      41.264  28.939  31.666  1.00  0.00     0.167 HD
ATOM     57  C   UNL A   1      37.946  30.819  29.822  1.00  0.00     0.037 A 
ATOM     58  C   UNL A   1      43.041  28.372  33.779  1.00  0.00     0.037 A 
ATOM     59  C   UNL A   1      38.037  31.242  31.139  1.00  0.00     0.049 A 
ATOM     60  C   UNL A   1      42.185  29.316  34.351  1.00  0.00     0.074 A 
ATOM     61  C   UNL A   1      37.143  32.141  31.750  1.00  0.00     0.029 A 
ATOM     62  N   UNL A   1      38.983  30.885  32.075  1.00  0.00    -0.354 N 
ATOM     63  N   UNL A   1      41.128  29.899  33.784  1.00  0.00    -0.248 NA
ATOM     64  C   UNL A   1      42.320  29.830  35.720  1.00  0.00     0.031 C 
ATOM     65  C   UNL A   1      37.548  32.333  33.034  1.00  0.00     0.029 A 
ATOM     66  C   UNL A   1      38.704  31.556  33.246  1.00  0.00     0.049 A 
ATOM     67  H   UNL A   1      39.730  30.259  31.933  1.00  0.00     0.167 HD
ATOM     68  C   UNL A   1      40.544  30.731  34.648  1.00  0.00     0.074 A 
ATOM     69  C   UNL A   1      41.306  30.704  35.904  1.00  0.00     0.031 C 
ATOM     70  C   UNL A   1      39.403  31.509  34.442  1.00  0.00     0.037 A 
BRANCH  57  71
ATOM     71  C   UNL A   1      36.812  31.365  28.972  1.00  0.00     0.057 A 
ATOM     72  C   UNL A   1      35.778  30.600  28.689  1.00  0.00     0.134 A 
ATOM     73  C   UNL A   1      36.878  32.679  28.497  1.00  0.00     0.134 A 
ATOM     74  F   UNL A   1      35.718  29.347  29.132  1.00  0.00    -0.206 F 
ATOM     75  C   UNL A   1      34.752  31.133  27.917  1.00  0.00     0.040 A 
ATOM     76  C   UNL A   1      35.818  33.264  27.981  1.00  0.00     0.040 A 
ATOM     77  F   UNL A   1      38.027  33.346  28.570  1.00  0.00    -0.206 F 
ATOM     78  C   UNL A   1      34.629  32.540  27.916  1.00  0.00     0.006 A 
ENDBRANCH  57  71
BRANCH  58  79
ATOM     79  C   UNL A   1      44.167  27.813  34.634  1.00  0.00     0.057 A 
ATOM     80  C   UNL A   1      45.335  28.417  34.658  1.00  0.00     0.134 A 
ATOM     81  C   UNL A   1      43.944  26.656  35.390  1.00  0.00     0.134 A 
ATOM     82  F   UNL A   1      45.549  29.512  33.934  1.00  0.00    -0.206 F 
ATOM     83  C   UNL A   1      46.339  27.884  35.459  1.00  0.00     0.040 A 
ATOM     84  C   UNL A   1      44.794  26.290  36.325  1.00  0.00     0.040 A 
ATOM     85  F   UNL A   1      42.862  25.918  35.159  1.00  0.00    -0.206 F 
ATOM     86  C   UNL A   1      45.922  27.079  36.542  1.00  0.00     0.006 A 
ENDBRANCH  58  79
BRANCH  70  87
ATOM     87  C   UNL A   1      38.897  32.356  35.598  1.00  0.00     0.057 A 
ATOM     88  C   UNL A   1      38.183  31.785  36.543  1.00  0.00     0.134 A 
ATOM     89  C   UNL A   1      39.298  33.692  35.712  1.00  0.00     0.134 A 
ATOM     90  F   UNL A   1      37.795  30.518  36.432  1.00  0.00    -0.206 F 
ATOM     91  C   UNL A   1      37.844  32.538  37.662  1.00  0.00     0.040 A 
ATOM     92  C   UNL A   1      39.194  34.331  36.858  1.00  0.00     0.040 A 
ATOM     93  F   UNL A   1      39.789  34.324  34.649  1.00  0.00    -0.206 F 
ATOM     94  C   UNL A   1      38.673  33.644  37.954  1.00  0.00     0.006 A 
ENDBRANCH  70  87
ENDBRANCH  44  45
ENDBRANCH  37  39
ENDBRANCH  36  37
ENDBRANCH  35  36
ENDBRANCH  34  35
ENDBRANCH  33  34
ENDBRANCH  32  33
ENDBRANCH   1  32
TORSDOF 22
ENDMDL
MODEL 2
REMARK VINA RESULT:     -11.3      4.833     10.215
REMARK SMILES Cc1cc(S(F)(F)(F)(F)F)cc2c1O[C@H](C(F)(F)F)C(C(=O)OCCOCCOCCOCCOC(=O)c1ccc(-c3c4nc(c(-c5c(F)cccc5F)c5ccc([nH]5)c(-c5c(F)cccc5F)c5nc(c(-c6c(F)cccc6F)c6ccc3[nH]6)C=C5)C=C4)cc1)=C2
REMARK SMILES IDX 30 1 29 2 28 3 27 4 26 5 25 6 24 7 23 8 21 9 22 10 20 11
REMARK SMILES IDX 1 12 2 13 3 14 13 15 4 16 12 17 14 18 11 19 92 20 15 21 5 22
REMARK SMILES IDX 6 23 7 24 8 25 9 26 10 27 16 28 17 29 18 30 19 31 31 32
REMARK SMILES IDX 32 33 33 34 34 35 35 36 36 37 37 38 38 39 39 40 91 41 40 42
REMARK SMILES IDX 90 43 41 44 42 45 43 46 84 47 44 48 89 49 83 50 85 51 45 52
REMARK SMILES IDX 88 53 82 54 81 55 46 57 72 58 55 59 71 60 56 61 59 62 70 63
REMARK SMILES IDX 86 64 57 65 58 66 69 68 87 69 60 70 47 71 48 72 53 73 49 74
REMARK SMILES IDX 50 75 52 76 54 77 51 78 73 79 74 80 79 81 75 82 76 83 78 84
REMARK SMILES IDX 80 85 77 86 61 87 62 88 67 89 63 90 64 91 66 92 68 93 65 94
REMARK H PARENT 85 56 59 67
REMARK Flexibility Score: inf
ROOT
ATOM      1  C   UNL A   1      33.279  36.967  31.227  1.00  0.00     0.188 C 
ENDROOT
BRANCH   1   2
ATOM      2  O   UNL A   1      32.885  35.761  30.589  1.00  0.00    -0.377 OA
BRANCH   2   3
ATOM      3  C   UNL A   1      33.166  35.848  29.200  1.00  0.00     0.188 C 
BRANCH   3   4
ATOM      4  C   UNL A   1      33.392  34.453  28.640  1.00  0.00     0.188 C 
BRANCH   4   5
ATOM      5  O   UNL A   1      34.726  34.343  28.165  1.00  0.00    -0.376 OA
BRANCH   5   6
ATOM      6  C   UNL A   1      34.980  33.004  27.770  1.00  0.00     0.202 C 
BRANCH   6   7
ATOM      7  C   UNL A   1      34.055  32.067  28.531  1.00  0.00     0.261 C 
BRANCH   7   8
ATOM      8  O   UNL A   1      33.475  31.138  27.627  1.00  0.00    -0.460 OA
BRANCH   8   9
ATOM      9  C   UNL A   1      34.195  29.976  27.245  1.00  0.00     0.338 C 
ATOM     10  O   UNL A   1      35.460  29.944  27.365  1.00  0.00    -0.246 OA
BRANCH   9  11
ATOM     11  C   UNL A   1      33.453  28.770  26.693  1.00  0.00     0.087 C 
ATOM     12  C   UNL A   1      29.868  25.517  24.964  1.00  0.00     0.048 C 
ATOM     13  C   UNL A   1      31.373  25.470  25.176  1.00  0.00    -0.007 A 
ATOM     14  C   UNL A   1      32.083  24.337  24.846  1.00  0.00     0.031 A 
ATOM     15  C   UNL A   1      32.048  26.580  25.682  1.00  0.00     0.130 A 
ATOM     16  C   UNL A   1      33.461  24.290  25.018  1.00  0.00     0.108 A 
ATOM     17  C   UNL A   1      33.451  26.529  25.850  1.00  0.00     0.019 A 
ATOM     18  O   UNL A   1      31.348  27.816  26.053  1.00  0.00    -0.475 OA
ATOM     19  C   UNL A   1      34.144  25.367  25.506  1.00  0.00     0.036 A 
ATOM     20  C   UNL A   1      34.134  27.707  26.384  1.00  0.00     0.027 C 
ATOM     21  C   UNL A   1      32.069  28.849  26.538  1.00  0.00     0.316 C 
BRANCH  16  22
ATOM     22  S   UNL A   1      34.362  22.780  24.588  1.00  0.00     0.310 S 
ATOM     23  F   UNL A   1      35.802  23.418  24.777  1.00  0.00    -0.094 F 
ATOM     24  F   UNL A   1      34.409  23.286  23.097  1.00  0.00    -0.094 F 
ATOM     25  F   UNL A   1      35.070  21.453  24.190  1.00  0.00    -0.094 F 
ATOM     26  F   UNL A   1      34.433  22.352  26.107  1.00  0.00    -0.094 F 
ATOM     27  F   UNL A   1      33.746  24.169  25.024  1.00  0.00    -0.094 F 
ENDBRANCH  16  22
BRANCH  21  28
ATOM     28  C   UNL A   1      31.927  29.888  25.436  1.00  0.00     0.430 C 
ATOM     29  F   UNL A   1      33.072  29.980  24.766  1.00  0.00    -0.167 F 
ATOM     30  F   UNL A   1      30.955  29.522  24.605  1.00  0.00    -0.167 F 
ATOM     31  F   UNL A   1      31.630  31.067  25.974  1.00  0.00    -0.167 F 
ENDBRANCH  21  28
ENDBRANCH   9  11
ENDBRANCH   8   9
ENDBRANCH   7   8
ENDBRANCH   6   7
ENDBRANCH   5   6
ENDBRANCH   4   5
ENDBRANCH   3   4
ENDBRANCH   2   3
ENDBRANCH   1   2
BRANCH   1  32
ATOM     32  C   UNL A   1      33.903  36.646  32.576  1.00  0.00     0.188 C 
BRANCH  32  33
ATOM     33  O   UNL A   1      34.629  35.429  32.483  1.00  0.00    -0.376 OA
BRANCH  33  34
ATOM     34  C   UNL A   1      35.056  35.033  33.778  1.00  0.00     0.202 C 
BRANCH  34  35
ATOM     35  C   UNL A   1      34.822  33.540  33.953  1.00  0.00     0.261 C 
BRANCH  35  36
ATOM     36  O   UNL A   1      35.937  32.824  33.440  1.00  0.00    -0.460 OA
BRANCH  36  37
ATOM     37  C   UNL A   1      35.826  32.126  32.209  1.00  0.00     0.338 C 
ATOM     38  O   UNL A   1      34.722  32.117  31.580  1.00  0.00    -0.246 OA
BRANCH  37  39
ATOM     39  C   UNL A   1      37.030  31.391  31.642  1.00  0.00     0.060 A 
ATOM     40  C   UNL A   1      37.095  31.158  30.272  1.00  0.00     0.016 A 
ATOM     41  C   UNL A   1      38.060  31.046  32.384  1.00  0.00     0.016 A 
ATOM     42  C   UNL A   1      38.386  31.058  29.710  1.00  0.00     0.010 A 
ATOM     43  C   UNL A   1      39.189  30.453  31.809  1.00  0.00     0.010 A 
ATOM     44  C   UNL A   1      39.360  30.453  30.504  1.00  0.00    -0.014 A 
BRANCH  44  45
ATOM     45  C   UNL A   1      40.589  29.812  29.879  1.00  0.00     0.031 A 
ATOM     46  C   UNL A   1      40.538  28.488  29.443  1.00  0.00     0.074 A 
ATOM     47  C   UNL A   1      41.659  30.662  29.654  1.00  0.00     0.049 A 
ATOM     48  N   UNL A   1      41.455  27.831  28.729  1.00  0.00    -0.248 NA
ATOM     49  C   UNL A   1      39.417  27.574  29.709  1.00  0.00     0.031 C 
ATOM     50  C   UNL A   1      41.713  32.002  30.084  1.00  0.00     0.029 A 
ATOM     51  N   UNL A   1      42.836  30.382  28.995  1.00  0.00    -0.354 N 
ATOM     52  C   UNL A   1      41.044  26.584  28.487  1.00  0.00     0.074 A 
ATOM     53  C   UNL A   1      39.730  26.399  29.120  1.00  0.00     0.031 C 
ATOM     54  C   UNL A   1      42.909  32.519  29.700  1.00  0.00     0.029 A 
ATOM     55  C   UNL A   1      43.623  31.511  29.024  1.00  0.00     0.049 A 
ATOM     56  H   UNL A   1      43.073  29.523  28.577  1.00  0.00     0.167 HD
ATOM     57  C   UNL A   1      41.712  25.595  27.764  1.00  0.00     0.037 A 
ATOM     58  C   UNL A   1      44.895  31.673  28.497  1.00  0.00     0.037 A 
ATOM     59  C   UNL A   1      42.965  25.770  27.199  1.00  0.00     0.049 A 
ATOM     60  C   UNL A   1      45.589  30.665  27.823  1.00  0.00     0.074 A 
ATOM     61  C   UNL A   1      43.649  24.787  26.459  1.00  0.00     0.029 A 
ATOM     62  N   UNL A   1      43.763  26.893  27.249  1.00  0.00    -0.354 N 
ATOM     63  N   UNL A   1      45.160  29.433  27.546  1.00  0.00    -0.248 NA
ATOM     64  C   UNL A   1      46.949  30.815  27.289  1.00  0.00     0.031 C 
ATOM     65  C   UNL A   1      44.847  25.304  26.075  1.00  0.00     0.029 A 
ATOM     66  C   UNL A   1      44.931  26.621  26.571  1.00  0.00     0.049 A 
ATOM     67  H   UNL A   1      43.538  27.743  27.691  1.00  0.00     0.167 HD
ATOM     68  C   UNL A   1      46.095  28.762  26.870  1.00  0.00     0.074 A 
ATOM     69  C   UNL A   1      47.262  29.639  26.700  1.00  0.00     0.031 C 
ATOM     70  C   UNL A   1      46.021  27.456  26.383  1.00  0.00     0.037 A 
BRANCH  57  71
ATOM     71  C   UNL A   1      41.026  24.252  27.583  1.00  0.00     0.057 A 
ATOM     72  C   UNL A   1      40.032  24.133  26.727  1.00  0.00     0.134 A 
ATOM     73  C   UNL A   1      41.460  23.152  28.331  1.00  0.00     0.134 A 
ATOM     74  F   UNL A   1      39.613  25.181  26.023  1.00  0.00    -0.206 F 
ATOM     75  C   UNL A   1      39.433  22.888  26.578  1.00  0.00     0.040 A 
ATOM     76  C   UNL A   1      41.070  21.933  28.025  1.00  0.00     0.040 A 
ATOM     77  F   UNL A   1      42.277  23.341  29.364  1.00  0.00    -0.206 F 
ATOM     78  C   UNL A   1      40.212  21.766  26.939  1.00  0.00     0.006 A 
ENDBRANCH  57  71
BRANCH  58  79
ATOM     79  C   UNL A   1      45.574  33.023  28.664  1.00  0.00     0.057 A 
ATOM     80  C   UNL A   1      46.324  33.254  29.719  1.00  0.00     0.134 A 
ATOM     81  C   UNL A   1      45.391  34.007  27.686  1.00  0.00     0.134 A 
ATOM     82  F   UNL A   1      46.490  32.321  30.653  1.00  0.00    -0.206 F 
ATOM     83  C   UNL A   1      46.937  34.496  29.835  1.00  0.00     0.040 A 
ATOM     84  C   UNL A   1      46.152  35.081  27.662  1.00  0.00     0.040 A 
ATOM     85  F   UNL A   1      44.438  33.857  26.771  1.00  0.00    -0.206 F 
ATOM     86  C   UNL A   1      47.140  35.214  28.636  1.00  0.00     0.006 A 
ENDBRANCH  58  79
BRANCH  70  87
ATOM     87  C   UNL A   1      47.207  26.917  25.599  1.00  0.00     0.057 A 
ATOM     88  C   UNL A   1      47.332  27.238  24.330  1.00  0.00     0.134 A 
ATOM     89  C   UNL A   1      48.210  26.198  26.259  1.00  0.00     0.134 A 
ATOM     90  F   UNL A   1      46.375  27.913  23.700  1.00  0.00    -0.206 F 
ATOM     91  C   UNL A   1      48.490  26.852  23.663  1.00  0.00     0.040 A 
ATOM     92  C   UNL A   1      49.398  26.044  25.713  1.00  0.00     0.040 A 
ATOM     93  F   UNL A   1      47.960  25.663  27.452  1.00  0.00    -0.206 F 
ATOM     94  C   UNL A   1      49.629  26.613  24.462  1.00  0.00     0.006 A 
ENDBRANCH  70  87
ENDBRANCH  44  45
ENDBRANCH  37  39
ENDBRANCH  36  37
ENDBRANCH  35  36
ENDBRANCH  34  35
ENDBRANCH  33  34
ENDBRANCH  32  33
ENDBRANCH   1  32
TORSDOF 22
ENDMDL
MODEL 3
REMARK VINA RESULT:     -11.2      4.844     10.327
REMARK SMILES Cc1cc(S(F)(F)(F)(F)F)cc2c1O[C@H](C(F)(F)F)C(C(=O)OCCOCCOCCOCCOC(=O)c1ccc(-c3c4nc(c(-c5c(F)cccc5F)c5ccc([nH]5)c(-c5c(F)cccc5F)c5nc(c(-c6c(F)cccc6F)c6ccc3[nH]6)C=C5)C=C4)cc1)=C2
REMARK SMILES IDX 30 1 29 2 28 3 27 4 26 5 25 6 24 7 23 8 21 9 22 10 20 11
REMARK SMILES IDX 1 12 2 13 3 14 13 15 4 16 12 17 14 18 11 19 92 20 15 21 5 22
REMARK SMILES IDX 6 23 7 24 8 25 9 26 10 27 16 28 17 29 18 30 19 31 31 32
REMARK SMILES IDX 32 33 33 34 34 35 35 36 36 37 37 38 38 39 39 40 91 41 40 42
REMARK SMILES IDX 90 43 41 44 42 45 43 46 84 47 44 48 89 49 83 50 85 51 45 52
REMARK SMILES IDX 88 53 82 54 81 55 46 57 72 58 55 59 71 60 56 61 59 62 70 63
REMARK SMILES IDX 86 64 57 65 58 66 69 68 87 69 60 70 47 71 48 72 53 73 49 74
REMARK SMILES IDX 50 75 52 76 54 77 51 78 73 79 74 80 79 81 75 82 76 83 78 84
REMARK SMILES IDX 80 85 77 86 61 87 62 88 67 89 63 90 64 91 66 92 68 93 65 94
REMARK H PARENT 85 56 59 67
REMARK Flexibility Score: inf
ROOT
ATOM      1  C   UNL A   1      32.903  35.764  30.265  1.00  0.00     0.188 C 
ENDROOT
BRANCH   1   2
ATOM      2  O   UNL A   1      33.740  36.139  29.181  1.00  0.00    -0.377 OA
BRANCH   2   3
ATOM      3  C   UNL A   1      34.347  34.980  28.629  1.00  0.00     0.188 C 
BRANCH   3   4
ATOM      4  C   UNL A   1      33.273  34.068  28.060  1.00  0.00     0.188 C 
BRANCH   4   5
ATOM      5  O   UNL A   1      33.663  32.713  28.231  1.00  0.00    -0.376 OA
BRANCH   5   6
ATOM      6  C   UNL A   1      32.994  31.903  27.276  1.00  0.00     0.202 C 
BRANCH   6   7
ATOM      7  C   UNL A   1      33.628  30.522  27.250  1.00  0.00     0.261 C 
BRANCH   7   8
ATOM      8  O   UNL A   1      32.677  29.574  26.787  1.00  0.00    -0.460 OA
BRANCH   8   9
ATOM      9  C   UNL A   1      32.941  28.818  25.615  1.00  0.00     0.338 C 
ATOM     10  O   UNL A   1      33.306  29.406  24.548  1.00  0.00    -0.246 OA
BRANCH   9  11
ATOM     11  C   UNL A   1      32.789  27.306  25.635  1.00  0.00     0.087 C 
ATOM     12  C   UNL A   1      30.966  22.509  25.934  1.00  0.00     0.048 C 
ATOM     13  C   UNL A   1      32.326  23.147  25.700  1.00  0.00    -0.007 A 
ATOM     14  C   UNL A   1      33.432  22.357  25.480  1.00  0.00     0.031 A 
ATOM     15  C   UNL A   1      32.460  24.535  25.681  1.00  0.00     0.130 A 
ATOM     16  C   UNL A   1      34.676  22.929  25.247  1.00  0.00     0.108 A 
ATOM     17  C   UNL A   1      33.726  25.112  25.438  1.00  0.00     0.019 A 
ATOM     18  O   UNL A   1      31.319  25.431  25.910  1.00  0.00    -0.475 OA
ATOM     19  C   UNL A   1      34.830  24.286  25.218  1.00  0.00     0.036 A 
ATOM     20  C   UNL A   1      33.839  26.571  25.426  1.00  0.00     0.027 C 
ATOM     21  C   UNL A   1      31.526  26.764  25.878  1.00  0.00     0.316 C 
BRANCH  16  22
ATOM     22  S   UNL A   1      36.113  21.861  24.976  1.00  0.00     0.310 S 
ATOM     23  F   UNL A   1      35.262  20.569  24.626  1.00  0.00    -0.094 F 
ATOM     24  F   UNL A   1      36.020  21.429  26.488  1.00  0.00    -0.094 F 
ATOM     25  F   UNL A   1      37.391  20.998  24.777  1.00  0.00    -0.094 F 
ATOM     26  F   UNL A   1      36.108  22.193  23.431  1.00  0.00    -0.094 F 
ATOM     27  F   UNL A   1      34.752  22.650  25.135  1.00  0.00    -0.094 F 
ENDBRANCH  16  22
BRANCH  21  28
ATOM     28  C   UNL A   1      30.751  27.182  24.637  1.00  0.00     0.430 C 
ATOM     29  F   UNL A   1      29.642  26.455  24.543  1.00  0.00    -0.167 F 
ATOM     30  F   UNL A   1      30.432  28.469  24.727  1.00  0.00    -0.167 F 
ATOM     31  F   UNL A   1      31.504  26.986  23.558  1.00  0.00    -0.167 F 
ENDBRANCH  21  28
ENDBRANCH   9  11
ENDBRANCH   8   9
ENDBRANCH   7   8
ENDBRANCH   6   7
ENDBRANCH   5   6
ENDBRANCH   4   5
ENDBRANCH   3   4
ENDBRANCH   2   3
ENDBRANCH   1   2
BRANCH   1  32
ATOM     32  C   UNL A   1      33.758  35.471  31.487  1.00  0.00     0.188 C 
BRANCH  32  33
ATOM     33  O   UNL A   1      33.013  34.690  32.410  1.00  0.00    -0.376 OA
BRANCH  33  34
ATOM     34  C   UNL A   1      33.875  33.762  33.051  1.00  0.00     0.202 C 
BRANCH  34  35
ATOM     35  C   UNL A   1      34.761  33.093  32.011  1.00  0.00     0.261 C 
BRANCH  35  36
ATOM     36  O   UNL A   1      35.195  31.832  32.501  1.00  0.00    -0.460 OA
BRANCH  36  37
ATOM     37  C   UNL A   1      36.497  31.693  33.048  1.00  0.00     0.338 C 
ATOM     38  O   UNL A   1      36.722  32.036  34.251  1.00  0.00    -0.246 OA
BRANCH  37  39
ATOM     39  C   UNL A   1      37.624  31.132  32.195  1.00  0.00     0.060 A 
ATOM     40  C   UNL A   1      37.451  31.050  30.818  1.00  0.00     0.016 A 
ATOM     41  C   UNL A   1      38.795  30.809  32.699  1.00  0.00     0.016 A 
ATOM     42  C   UNL A   1      38.621  31.126  30.029  1.00  0.00     0.010 A 
ATOM     43  C   UNL A   1      39.839  30.384  31.868  1.00  0.00     0.010 A 
ATOM     44  C   UNL A   1      39.765  30.535  30.563  1.00  0.00    -0.014 A 
BRANCH  44  45
ATOM     45  C   UNL A   1      40.899  30.077  29.661  1.00  0.00     0.031 A 
ATOM     46  C   UNL A   1      41.990  30.916  29.432  1.00  0.00     0.074 A 
ATOM     47  C   UNL A   1      40.829  28.762  29.230  1.00  0.00     0.049 A 
ATOM     48  N   UNL A   1      43.134  30.613  28.814  1.00  0.00    -0.248 NA
ATOM     49  C   UNL A   1      42.053  32.322  29.859  1.00  0.00     0.031 C 
ATOM     50  C   UNL A   1      39.735  27.907  29.465  1.00  0.00     0.029 A 
ATOM     51  N   UNL A   1      41.772  28.055  28.517  1.00  0.00    -0.354 N 
ATOM     52  C   UNL A   1      43.947  31.672  28.806  1.00  0.00     0.074 A 
ATOM     53  C   UNL A   1      43.261  32.788  29.471  1.00  0.00     0.031 C 
ATOM     54  C   UNL A   1      40.008  26.706  28.891  1.00  0.00     0.029 A 
ATOM     55  C   UNL A   1      41.279  26.790  28.289  1.00  0.00     0.049 A 
ATOM     56  H   UNL A   1      42.646  28.396  28.221  1.00  0.00     0.167 HD
ATOM     57  C   UNL A   1      45.233  31.750  28.270  1.00  0.00     0.037 A 
ATOM     58  C   UNL A   1      41.886  25.754  27.596  1.00  0.00     0.037 A 
ATOM     59  C   UNL A   1      45.858  30.701  27.615  1.00  0.00     0.049 A 
ATOM     60  C   UNL A   1      43.149  25.850  27.009  1.00  0.00     0.074 A 
ATOM     61  C   UNL A   1      47.157  30.760  27.076  1.00  0.00     0.029 A 
ATOM     62  N   UNL A   1      45.355  29.443  27.366  1.00  0.00    -0.354 N 
ATOM     63  N   UNL A   1      43.978  26.896  27.036  1.00  0.00    -0.248 NA
ATOM     64  C   UNL A   1      43.789  24.771  26.245  1.00  0.00     0.031 C 
ATOM     65  C   UNL A   1      47.432  29.558  26.502  1.00  0.00     0.029 A 
ATOM     66  C   UNL A   1      46.306  28.728  26.672  1.00  0.00     0.049 A 
ATOM     67  H   UNL A   1      44.468  29.111  27.637  1.00  0.00     0.167 HD
ATOM     68  C   UNL A   1      45.104  26.606  26.381  1.00  0.00     0.074 A 
ATOM     69  C   UNL A   1      44.996  25.238  25.857  1.00  0.00     0.031 C 
ATOM     70  C   UNL A   1      46.219  27.426  26.203  1.00  0.00     0.037 A 
BRANCH  57  71
ATOM     71  C   UNL A   1      45.991  33.059  28.414  1.00  0.00     0.057 A 
ATOM     72  C   UNL A   1      45.880  33.986  27.486  1.00  0.00     0.134 A 
ATOM     73  C   UNL A   1      46.803  33.263  29.535  1.00  0.00     0.134 A 
ATOM     74  F   UNL A   1      45.116  33.789  26.415  1.00  0.00    -0.206 F 
ATOM     75  C   UNL A   1      46.579  35.176  27.654  1.00  0.00     0.040 A 
ATOM     76  C   UNL A   1      47.267  34.461  29.821  1.00  0.00     0.040 A 
ATOM     77  F   UNL A   1      47.107  32.234  30.322  1.00  0.00    -0.206 F 
ATOM     78  C   UNL A   1      46.933  35.519  28.977  1.00  0.00     0.006 A 
ENDBRANCH  57  71
BRANCH  58  79
ATOM     79  C   UNL A   1      41.133  24.440  27.467  1.00  0.00     0.057 A 
ATOM     80  C   UNL A   1      40.133  24.338  26.619  1.00  0.00     0.134 A 
ATOM     81  C   UNL A   1      41.516  23.350  28.257  1.00  0.00     0.134 A 
ATOM     82  F   UNL A   1      39.763  25.376  25.875  1.00  0.00    -0.206 F 
ATOM     83  C   UNL A   1      39.472  23.118  26.520  1.00  0.00     0.040 A 
ATOM     84  C   UNL A   1      41.065  22.141  27.998  1.00  0.00     0.040 A 
ATOM     85  F   UNL A   1      42.344  23.538  29.281  1.00  0.00    -0.206 F 
ATOM     86  C   UNL A   1      40.196  21.974  26.922  1.00  0.00     0.006 A 
ENDBRANCH  58  79
BRANCH  70  87
ATOM     87  C   UNL A   1      47.411  26.858  25.449  1.00  0.00     0.057 A 
ATOM     88  C   UNL A   1      47.561  27.154  24.177  1.00  0.00     0.134 A 
ATOM     89  C   UNL A   1      48.394  26.139  26.138  1.00  0.00     0.134 A 
ATOM     90  F   UNL A   1      46.623  27.830  23.519  1.00  0.00    -0.206 F 
ATOM     91  C   UNL A   1      48.724  26.743  23.536  1.00  0.00     0.040 A 
ATOM     92  C   UNL A   1      49.588  25.961  25.614  1.00  0.00     0.040 A 
ATOM     93  F   UNL A   1      48.118  25.629  27.336  1.00  0.00    -0.206 F 
ATOM     94  C   UNL A   1      49.847  26.504  24.357  1.00  0.00     0.006 A 
ENDBRANCH  70  87
ENDBRANCH  44  45
ENDBRANCH  37  39
ENDBRANCH  36  37
ENDBRANCH  35  36
ENDBRANCH  34  35
ENDBRANCH  33  34
ENDBRANCH  32  33
ENDBRANCH   1  32
TORSDOF 22
ENDMDL
