MODEL 1
REMARK VINA RESULT:     -10.0      0.000      0.000
REMARK SMILES Cc1ccc(-c2nc(C)c(C(=O)N3CCC(C(=O)OCCOCCOCCOCCOC(=O)c4ccc(-c5c6nc(c(-c7c(F)cccc7F)c7ccc([nH]7)c(-c7c(F)cccc7F)c7nc(c(-c8c(F)cccc8F)c8ccc5[nH]8)C=C7)C=C6)cc4)CC3)s2)o1
REMARK SMILES IDX 25 1 24 2 23 3 22 4 21 5 20 6 19 7 17 8 18 9 16 10 11 11
REMARK SMILES IDX 12 12 13 13 14 14 89 15 15 16 88 17 10 18 6 19 7 20 90 21
REMARK SMILES IDX 8 22 9 23 5 24 1 25 2 26 3 27 91 28 4 29 26 30 27 31 28 32
REMARK SMILES IDX 29 33 30 34 31 35 32 36 33 37 34 38 35 39 87 40 36 41 86 42
REMARK SMILES IDX 37 43 38 44 39 45 80 46 40 47 85 48 79 49 81 50 41 51 84 52
REMARK SMILES IDX 78 53 77 54 42 56 68 57 51 58 67 59 52 60 55 61 66 62 82 63
REMARK SMILES IDX 53 64 54 65 65 67 83 68 56 69 43 70 44 71 49 72 45 73 46 74
REMARK SMILES IDX 48 75 50 76 47 77 69 78 70 79 75 80 71 81 72 82 74 83 76 84
REMARK SMILES IDX 73 85 57 86 58 87 63 88 59 89 60 90 62 91 64 92 61 93
REMARK H PARENT 81 55 55 66
REMARK Flexibility Score: inf
ROOT
ATOM      1  O   UNL A   1      35.443  23.681  23.220  1.00  0.00    -0.377 OA
ENDROOT
BRANCH   1   2
ATOM      2  C   UNL A   1      34.275  22.954  23.533  1.00  0.00     0.188 C 
BRANCH   2   3
ATOM      3  C   UNL A   1      33.129  23.047  22.523  1.00  0.00     0.188 C 
BRANCH   3   4
ATOM      4  O   UNL A   1      32.128  24.043  22.633  1.00  0.00    -0.376 OA
BRANCH   4   5
ATOM      5  C   UNL A   1      30.867  23.760  23.220  1.00  0.00     0.202 C 
BRANCH   5   6
ATOM      6  C   UNL A   1      30.734  22.937  24.512  1.00  0.00     0.261 C 
BRANCH   6   7
ATOM      7  O   UNL A   1      31.550  23.340  25.624  1.00  0.00    -0.463 OA
BRANCH   7   8
ATOM      8  C   UNL A   1      31.089  24.390  26.336  1.00  0.00     0.309 C 
ATOM      9  O   UNL A   1      29.952  24.479  26.792  1.00  0.00    -0.252 OA
BRANCH   8  10
ATOM     10  C   UNL A   1      32.079  25.527  26.482  1.00  0.00     0.103 C 
ATOM     11  C   UNL A   1      33.365  29.406  25.668  1.00  0.00     0.265 C 
ATOM     12  O   UNL A   1      33.512  29.519  24.450  1.00  0.00    -0.268 OA
ATOM     13  N   UNL A   1      33.179  28.155  26.233  1.00  0.00    -0.338 N 
ATOM     14  C   UNL A   1      33.900  27.044  25.660  1.00  0.00     0.120 C 
ATOM     15  C   UNL A   1      32.260  27.866  27.330  1.00  0.00     0.120 C 
ATOM     16  C   UNL A   1      32.971  25.905  25.292  1.00  0.00     0.037 C 
ATOM     17  C   UNL A   1      31.294  26.762  26.932  1.00  0.00     0.037 C 
BRANCH  11  18
ATOM     18  C   UNL A   1      33.499  30.518  26.580  1.00  0.00     0.115 A 
ATOM     19  C   UNL A   1      34.219  31.924  28.400  1.00  0.00     0.159 A 
ATOM     20  N   UNL A   1      33.039  32.321  27.982  1.00  0.00    -0.237 NA
ATOM     21  S   UNL A   1      34.920  30.631  27.537  1.00  0.00    -0.105 S 
ATOM     22  C   UNL A   1      32.603  31.515  26.948  1.00  0.00     0.062 A 
ATOM     23  C   UNL A   1      31.233  31.794  26.439  1.00  0.00     0.068 C 
BRANCH  19  24
ATOM     24  C   UNL A   1      34.845  32.510  29.542  1.00  0.00     0.162 A 
ATOM     25  C   UNL A   1      34.458  33.550  32.938  1.00  0.00     0.087 C 
ATOM     26  C   UNL A   1      35.018  33.277  31.602  1.00  0.00     0.101 A 
ATOM     27  C   UNL A   1      36.252  33.462  31.021  1.00  0.00     0.046 A 
ATOM     28  O   UNL A   1      34.162  32.718  30.711  1.00  0.00    -0.459 OA
ATOM     29  C   UNL A   1      36.145  32.956  29.702  1.00  0.00     0.054 A 
ENDBRANCH  19  24
ENDBRANCH  11  18
ENDBRANCH   8  10
ENDBRANCH   7   8
ENDBRANCH   6   7
ENDBRANCH   5   6
ENDBRANCH   4   5
ENDBRANCH   3   4
ENDBRANCH   2   3
ENDBRANCH   1   2
BRANCH   1  30
ATOM     30  C   UNL A   1      36.664  22.949  23.170  1.00  0.00     0.188 C 
BRANCH  30  31
ATOM     31  C   UNL A   1      36.992  22.021  24.357  1.00  0.00     0.188 C 
BRANCH  31  32
ATOM     32  O   UNL A   1      37.532  22.688  25.490  1.00  0.00    -0.376 OA
BRANCH  32  33
ATOM     33  C   UNL A   1      38.688  22.155  26.123  1.00  0.00     0.202 C 
BRANCH  33  34
ATOM     34  C   UNL A   1      39.098  20.708  25.789  1.00  0.00     0.261 C 
BRANCH  34  35
ATOM     35  O   UNL A   1      40.020  20.081  26.694  1.00  0.00    -0.460 OA
BRANCH  35  36
ATOM     36  C   UNL A   1      41.269  19.854  26.254  1.00  0.00     0.338 C 
ATOM     37  O   UNL A   1      41.659  18.899  25.596  1.00  0.00    -0.246 OA
BRANCH  36  38
ATOM     38  C   UNL A   1      42.083  21.056  26.515  1.00  0.00     0.060 A 
ATOM     39  C   UNL A   1      42.377  21.379  27.845  1.00  0.00     0.016 A 
ATOM     40  C   UNL A   1      42.506  21.885  25.471  1.00  0.00     0.016 A 
ATOM     41  C   UNL A   1      43.019  22.575  28.145  1.00  0.00     0.010 A 
ATOM     42  C   UNL A   1      43.131  23.099  25.775  1.00  0.00     0.010 A 
ATOM     43  C   UNL A   1      43.327  23.474  27.116  1.00  0.00    -0.014 A 
BRANCH  43  44
ATOM     44  C   UNL A   1      43.565  24.890  27.479  1.00  0.00     0.031 A 
ATOM     45  C   UNL A   1      44.911  25.483  27.157  1.00  0.00     0.074 A 
ATOM     46  C   UNL A   1      42.590  25.661  27.988  1.00  0.00     0.049 A 
ATOM     47  N   UNL A   1      45.349  26.705  27.327  1.00  0.00    -0.248 NA
ATOM     48  C   UNL A   1      45.899  24.570  26.559  1.00  0.00     0.031 C 
ATOM     49  C   UNL A   1      41.235  25.214  28.300  1.00  0.00     0.029 A 
ATOM     50  N   UNL A   1      42.597  26.990  28.326  1.00  0.00    -0.354 N 
ATOM     51  C   UNL A   1      46.656  26.704  26.854  1.00  0.00     0.074 A 
ATOM     52  C   UNL A   1      46.959  25.352  26.441  1.00  0.00     0.031 C 
ATOM     53  C   UNL A   1      40.541  26.253  28.796  1.00  0.00     0.029 A 
ATOM     54  C   UNL A   1      41.410  27.428  28.854  1.00  0.00     0.049 A 
ATOM     55  H   UNL A   1      43.381  27.573  28.200  1.00  0.00     0.167 HD
ATOM     56  C   UNL A   1      47.524  27.739  26.752  1.00  0.00     0.037 A 
ATOM     57  C   UNL A   1      41.072  28.638  29.342  1.00  0.00     0.037 A 
ATOM     58  C   UNL A   1      47.225  29.079  27.180  1.00  0.00     0.049 A 
ATOM     59  C   UNL A   1      42.074  29.761  29.286  1.00  0.00     0.074 A 
ATOM     60  C   UNL A   1      48.035  30.200  27.135  1.00  0.00     0.029 A 
ATOM     61  N   UNL A   1      46.021  29.477  27.742  1.00  0.00    -0.354 N 
ATOM     62  N   UNL A   1      43.302  29.757  28.824  1.00  0.00    -0.248 NA
ATOM     63  C   UNL A   1      41.634  31.064  29.806  1.00  0.00     0.031 C 
ATOM     64  C   UNL A   1      47.338  31.264  27.719  1.00  0.00     0.029 A 
ATOM     65  C   UNL A   1      46.071  30.822  28.065  1.00  0.00     0.049 A 
ATOM     66  H   UNL A   1      45.244  28.889  27.888  1.00  0.00     0.167 HD
ATOM     67  C   UNL A   1      43.770  31.059  28.968  1.00  0.00     0.074 A 
ATOM     68  C   UNL A   1      42.687  31.827  29.547  1.00  0.00     0.031 C 
ATOM     69  C   UNL A   1      44.983  31.574  28.642  1.00  0.00     0.037 A 
BRANCH  56  70
ATOM     70  C   UNL A   1      48.883  27.435  26.191  1.00  0.00     0.057 A 
ATOM     71  C   UNL A   1      49.132  27.425  24.811  1.00  0.00     0.134 A 
ATOM     72  C   UNL A   1      49.953  27.126  27.039  1.00  0.00     0.134 A 
ATOM     73  F   UNL A   1      48.148  27.691  23.939  1.00  0.00    -0.206 F 
ATOM     74  C   UNL A   1      50.384  27.079  24.296  1.00  0.00     0.040 A 
ATOM     75  C   UNL A   1      51.217  26.811  26.538  1.00  0.00     0.040 A 
ATOM     76  F   UNL A   1      49.787  27.118  28.371  1.00  0.00    -0.206 F 
ATOM     77  C   UNL A   1      51.432  26.775  25.162  1.00  0.00     0.006 A 
ENDBRANCH  56  70
BRANCH  57  78
ATOM     78  C   UNL A   1      39.724  28.842  29.930  1.00  0.00     0.057 A 
ATOM     79  C   UNL A   1      39.484  28.655  31.295  1.00  0.00     0.134 A 
ATOM     80  C   UNL A   1      38.641  29.231  29.132  1.00  0.00     0.134 A 
ATOM     81  F   UNL A   1      40.474  28.261  32.109  1.00  0.00    -0.206 F 
ATOM     82  C   UNL A   1      38.212  28.835  31.844  1.00  0.00     0.040 A 
ATOM     83  C   UNL A   1      37.371  29.441  29.671  1.00  0.00     0.040 A 
ATOM     84  F   UNL A   1      38.807  29.429  27.815  1.00  0.00    -0.206 F 
ATOM     85  C   UNL A   1      37.154  29.237  31.031  1.00  0.00     0.006 A 
ENDBRANCH  57  78
BRANCH  69  86
ATOM     86  C   UNL A   1      45.186  33.048  28.859  1.00  0.00     0.057 A 
ATOM     87  C   UNL A   1      45.739  33.561  30.039  1.00  0.00     0.134 A 
ATOM     88  C   UNL A   1      44.847  33.966  27.855  1.00  0.00     0.134 A 
ATOM     89  F   UNL A   1      46.079  32.740  31.045  1.00  0.00    -0.206 F 
ATOM     90  C   UNL A   1      45.912  34.934  30.228  1.00  0.00     0.040 A 
ATOM     91  C   UNL A   1      45.046  35.337  28.019  1.00  0.00     0.040 A 
ATOM     92  F   UNL A   1      44.327  33.543  26.693  1.00  0.00    -0.206 F 
ATOM     93  C   UNL A   1      45.570  35.826  29.213  1.00  0.00     0.006 A 
ENDBRANCH  69  86
ENDBRANCH  43  44
ENDBRANCH  36  38
ENDBRANCH  35  36
ENDBRANCH  34  35
ENDBRANCH  33  34
ENDBRANCH  32  33
ENDBRANCH  31  32
ENDBRANCH  30  31
ENDBRANCH   1  30
TORSDOF 22
ENDMDL
MODEL 2
REMARK VINA RESULT:      -9.8      0.835      5.873
REMARK SMILES Cc1ccc(-c2nc(C)c(C(=O)N3CCC(C(=O)OCCOCCOCCOCCOC(=O)c4ccc(-c5c6nc(c(-c7c(F)cccc7F)c7ccc([nH]7)c(-c7c(F)cccc7F)c7nc(c(-c8c(F)cccc8F)c8ccc5[nH]8)C=C7)C=C6)cc4)CC3)s2)o1
REMARK SMILES IDX 25 1 24 2 23 3 22 4 21 5 20 6 19 7 17 8 18 9 16 10 11 11
REMARK SMILES IDX 12 12 13 13 14 14 89 15 15 16 88 17 10 18 6 19 7 20 90 21
REMARK SMILES IDX 8 22 9 23 5 24 1 25 2 26 3 27 91 28 4 29 26 30 27 31 28 32
REMARK SMILES IDX 29 33 30 34 31 35 32 36 33 37 34 38 35 39 87 40 36 41 86 42
REMARK SMILES IDX 37 43 38 44 39 45 80 46 40 47 85 48 79 49 81 50 41 51 84 52
REMARK SMILES IDX 78 53 77 54 42 56 68 57 51 58 67 59 52 60 55 61 66 62 82 63
REMARK SMILES IDX 53 64 54 65 65 67 83 68 56 69 43 70 44 71 49 72 45 73 46 74
REMARK SMILES IDX 48 75 50 76 47 77 69 78 70 79 75 80 71 81 72 82 74 83 76 84
REMARK SMILES IDX 73 85 57 86 58 87 63 88 59 89 60 90 62 91 64 92 61 93
REMARK H PARENT 81 55 55 66
REMARK Flexibility Score: inf
ROOT
ATOM      1  O   UNL A   1      35.350  23.659  23.213  1.00  0.00    -0.377 OA
ENDROOT
BRANCH   1   2
ATOM      2  C   UNL A   1      34.193  22.853  23.166  1.00  0.00     0.188 C 
BRANCH   2   3
ATOM      3  C   UNL A   1      33.057  23.352  22.270  1.00  0.00     0.188 C 
BRANCH   3   4
ATOM      4  O   UNL A   1      32.117  24.306  22.733  1.00  0.00    -0.376 OA
BRANCH   4   5
ATOM      5  C   UNL A   1      30.969  23.914  23.469  1.00  0.00     0.202 C 
BRANCH   5   6
ATOM      6  C   UNL A   1      31.043  22.893  24.615  1.00  0.00     0.261 C 
BRANCH   6   7
ATOM      7  O   UNL A   1      31.603  23.352  25.857  1.00  0.00    -0.463 OA
BRANCH   7   8
ATOM      8  C   UNL A   1      31.035  24.459  26.380  1.00  0.00     0.309 C 
ATOM      9  O   UNL A   1      29.838  24.578  26.630  1.00  0.00    -0.252 OA
BRANCH   8  10
ATOM     10  C   UNL A   1      31.993  25.615  26.581  1.00  0.00     0.103 C 
ATOM     11  C   UNL A   1      33.343  29.460  25.712  1.00  0.00     0.265 C 
ATOM     12  O   UNL A   1      33.637  29.508  24.517  1.00  0.00    -0.268 OA
ATOM     13  N   UNL A   1      33.098  28.240  26.319  1.00  0.00    -0.338 N 
ATOM     14  C   UNL A   1      33.890  27.109  25.902  1.00  0.00     0.120 C 
ATOM     15  C   UNL A   1      32.054  27.999  27.311  1.00  0.00     0.120 C 
ATOM     16  C   UNL A   1      33.020  25.938  25.489  1.00  0.00     0.037 C 
ATOM     17  C   UNL A   1      31.150  26.862  26.862  1.00  0.00     0.037 C 
BRANCH  11  18
ATOM     18  C   UNL A   1      33.358  30.622  26.570  1.00  0.00     0.115 A 
ATOM     19  C   UNL A   1      33.884  32.158  28.350  1.00  0.00     0.159 A 
ATOM     20  N   UNL A   1      32.711  32.462  27.844  1.00  0.00    -0.237 NA
ATOM     21  S   UNL A   1      34.709  30.869  27.599  1.00  0.00    -0.105 S 
ATOM     22  C   UNL A   1      32.386  31.581  26.831  1.00  0.00     0.062 A 
ATOM     23  C   UNL A   1      31.035  31.751  26.230  1.00  0.00     0.068 C 
BRANCH  19  24
ATOM     24  C   UNL A   1      34.405  32.837  29.493  1.00  0.00     0.162 A 
ATOM     25  C   UNL A   1      33.865  35.384  31.941  1.00  0.00     0.087 C 
ATOM     26  C   UNL A   1      34.462  34.293  31.149  1.00  0.00     0.101 A 
ATOM     27  C   UNL A   1      35.638  33.583  31.225  1.00  0.00     0.046 A 
ATOM     28  O   UNL A   1      33.722  33.859  30.098  1.00  0.00    -0.459 OA
ATOM     29  C   UNL A   1      35.596  32.638  30.171  1.00  0.00     0.054 A 
ENDBRANCH  19  24
ENDBRANCH  11  18
ENDBRANCH   8  10
ENDBRANCH   7   8
ENDBRANCH   6   7
ENDBRANCH   5   6
ENDBRANCH   4   5
ENDBRANCH   3   4
ENDBRANCH   2   3
ENDBRANCH   1   2
BRANCH   1  30
ATOM     30  C   UNL A   1      36.604  22.989  23.141  1.00  0.00     0.188 C 
BRANCH  30  31
ATOM     31  C   UNL A   1      37.017  22.106  24.335  1.00  0.00     0.188 C 
BRANCH  31  32
ATOM     32  O   UNL A   1      37.498  22.831  25.460  1.00  0.00    -0.376 OA
BRANCH  32  33
ATOM     33  C   UNL A   1      38.619  22.333  26.178  1.00  0.00     0.202 C 
BRANCH  33  34
ATOM     34  C   UNL A   1      39.231  20.992  25.731  1.00  0.00     0.261 C 
BRANCH  34  35
ATOM     35  O   UNL A   1      40.035  20.303  26.702  1.00  0.00    -0.460 OA
BRANCH  35  36
ATOM     36  C   UNL A   1      41.242  19.860  26.310  1.00  0.00     0.338 C 
ATOM     37  O   UNL A   1      41.495  18.801  25.751  1.00  0.00    -0.246 OA
BRANCH  36  38
ATOM     38  C   UNL A   1      42.218  20.953  26.475  1.00  0.00     0.060 A 
ATOM     39  C   UNL A   1      42.431  21.460  27.763  1.00  0.00     0.016 A 
ATOM     40  C   UNL A   1      42.877  21.509  25.374  1.00  0.00     0.016 A 
ATOM     41  C   UNL A   1      43.234  22.580  27.945  1.00  0.00     0.010 A 
ATOM     42  C   UNL A   1      43.666  22.649  25.555  1.00  0.00     0.010 A 
ATOM     43  C   UNL A   1      43.790  23.223  26.833  1.00  0.00    -0.014 A 
BRANCH  43  44
ATOM     44  C   UNL A   1      44.228  24.630  26.992  1.00  0.00     0.031 A 
ATOM     45  C   UNL A   1      43.212  25.633  27.473  1.00  0.00     0.074 A 
ATOM     46  C   UNL A   1      45.508  24.995  26.815  1.00  0.00     0.049 A 
ATOM     47  N   UNL A   1      43.357  26.906  27.740  1.00  0.00    -0.248 NA
ATOM     48  C   UNL A   1      41.846  25.126  27.684  1.00  0.00     0.031 C 
ATOM     49  C   UNL A   1      46.590  24.107  26.395  1.00  0.00     0.029 A 
ATOM     50  N   UNL A   1      46.111  26.216  26.973  1.00  0.00    -0.354 N 
ATOM     51  C   UNL A   1      42.104  27.347  28.151  1.00  0.00     0.074 A 
ATOM     52  C   UNL A   1      41.202  26.222  28.048  1.00  0.00     0.031 C 
ATOM     53  C   UNL A   1      47.728  24.819  26.319  1.00  0.00     0.029 A 
ATOM     54  C   UNL A   1      47.447  26.212  26.663  1.00  0.00     0.049 A 
ATOM     55  H   UNL A   1      45.630  27.018  27.280  1.00  0.00     0.167 HD
ATOM     56  C   UNL A   1      41.738  28.573  28.595  1.00  0.00     0.037 A 
ATOM     57  C   UNL A   1      48.336  27.225  26.647  1.00  0.00     0.037 A 
ATOM     58  C   UNL A   1      42.635  29.694  28.680  1.00  0.00     0.049 A 
ATOM     59  C   UNL A   1      47.895  28.600  27.075  1.00  0.00     0.074 A 
ATOM     60  C   UNL A   1      42.367  30.984  29.103  1.00  0.00     0.029 A 
ATOM     61  N   UNL A   1      43.976  29.660  28.325  1.00  0.00    -0.354 N 
ATOM     62  N   UNL A   1      46.714  29.006  27.477  1.00  0.00    -0.248 NA
ATOM     63  C   UNL A   1      48.919  29.654  27.065  1.00  0.00     0.031 C 
ATOM     64  C   UNL A   1      43.533  31.743  28.953  1.00  0.00     0.029 A 
ATOM     65  C   UNL A   1      44.545  30.910  28.502  1.00  0.00     0.049 A 
ATOM     66  H   UNL A   1      44.453  28.863  27.997  1.00  0.00     0.167 HD
ATOM     67  C   UNL A   1      46.859  30.352  27.796  1.00  0.00     0.074 A 
ATOM     68  C   UNL A   1      48.247  30.687  27.554  1.00  0.00     0.031 C 
ATOM     69  C   UNL A   1      45.930  31.228  28.256  1.00  0.00     0.037 A 
BRANCH  56  70
ATOM     70  C   UNL A   1      40.299  28.756  28.980  1.00  0.00     0.057 A 
ATOM     71  C   UNL A   1      39.321  29.135  28.048  1.00  0.00     0.134 A 
ATOM     72  C   UNL A   1      39.885  28.573  30.305  1.00  0.00     0.134 A 
ATOM     73  F   UNL A   1      39.650  29.348  26.765  1.00  0.00    -0.206 F 
ATOM     74  C   UNL A   1      37.997  29.365  28.429  1.00  0.00     0.040 A 
ATOM     75  C   UNL A   1      38.558  28.768  30.691  1.00  0.00     0.040 A 
ATOM     76  F   UNL A   1      40.766  28.209  31.250  1.00  0.00    -0.206 F 
ATOM     77  C   UNL A   1      37.612  29.177  29.754  1.00  0.00     0.006 A 
ENDBRANCH  56  70
BRANCH  57  78
ATOM     78  C   UNL A   1      49.729  26.972  26.201  1.00  0.00     0.057 A 
ATOM     79  C   UNL A   1      50.096  27.058  24.855  1.00  0.00     0.134 A 
ATOM     80  C   UNL A   1      50.730  26.635  27.122  1.00  0.00     0.134 A 
ATOM     81  F   UNL A   1      49.180  27.354  23.922  1.00  0.00    -0.206 F 
ATOM     82  C   UNL A   1      51.405  26.807  24.436  1.00  0.00     0.040 A 
ATOM     83  C   UNL A   1      52.047  26.408  26.722  1.00  0.00     0.040 A 
ATOM     84  F   UNL A   1      50.443  26.539  28.429  1.00  0.00    -0.206 F 
ATOM     85  C   UNL A   1      52.386  26.488  25.373  1.00  0.00     0.006 A 
ENDBRANCH  57  78
BRANCH  69  86
ATOM     86  C   UNL A   1      46.396  32.622  28.573  1.00  0.00     0.057 A 
ATOM     87  C   UNL A   1      46.896  32.977  29.833  1.00  0.00     0.134 A 
ATOM     88  C   UNL A   1      46.369  33.619  27.588  1.00  0.00     0.134 A 
ATOM     89  F   UNL A   1      46.942  32.074  30.825  1.00  0.00    -0.206 F 
ATOM     90  C   UNL A   1      47.315  34.279  30.113  1.00  0.00     0.040 A 
ATOM     91  C   UNL A   1      46.816  34.916  27.846  1.00  0.00     0.040 A 
ATOM     92  F   UNL A   1      45.917  33.347  26.355  1.00  0.00    -0.206 F 
ATOM     93  C   UNL A   1      47.281  35.251  29.115  1.00  0.00     0.006 A 
ENDBRANCH  69  86
ENDBRANCH  43  44
ENDBRANCH  36  38
ENDBRANCH  35  36
ENDBRANCH  34  35
ENDBRANCH  33  34
ENDBRANCH  32  33
ENDBRANCH  31  32
ENDBRANCH  30  31
ENDBRANCH   1  30
TORSDOF 22
ENDMDL
MODEL 3
REMARK VINA RESULT:      -9.3      3.980      8.958
REMARK SMILES Cc1ccc(-c2nc(C)c(C(=O)N3CCC(C(=O)OCCOCCOCCOCCOC(=O)c4ccc(-c5c6nc(c(-c7c(F)cccc7F)c7ccc([nH]7)c(-c7c(F)cccc7F)c7nc(c(-c8c(F)cccc8F)c8ccc5[nH]8)C=C7)C=C6)cc4)CC3)s2)o1
REMARK SMILES IDX 25 1 24 2 23 3 22 4 21 5 20 6 19 7 17 8 18 9 16 10 11 11
REMARK SMILES IDX 12 12 13 13 14 14 89 15 15 16 88 17 10 18 6 19 7 20 90 21
REMARK SMILES IDX 8 22 9 23 5 24 1 25 2 26 3 27 91 28 4 29 26 30 27 31 28 32
REMARK SMILES IDX 29 33 30 34 31 35 32 36 33 37 34 38 35 39 87 40 36 41 86 42
REMARK SMILES IDX 37 43 38 44 39 45 80 46 40 47 85 48 79 49 81 50 41 51 84 52
REMARK SMILES IDX 78 53 77 54 42 56 68 57 51 58 67 59 52 60 55 61 66 62 82 63
REMARK SMILES IDX 53 64 54 65 65 67 83 68 56 69 43 70 44 71 49 72 45 73 46 74
REMARK SMILES IDX 48 75 50 76 47 77 69 78 70 79 75 80 71 81 72 82 74 83 76 84
REMARK SMILES IDX 73 85 57 86 58 87 63 88 59 89 60 90 62 91 64 92 61 93
REMARK H PARENT 81 55 55 66
REMARK Flexibility Score: inf
ROOT
ATOM      1  O   UNL A   1      40.132  21.800  26.847  1.00  0.00    -0.377 OA
ENDROOT
BRANCH   1   2
ATOM      2  C   UNL A   1      38.949  22.040  26.115  1.00  0.00     0.188 C 
BRANCH   2   3
ATOM      3  C   UNL A   1      38.330  20.828  25.415  1.00  0.00     0.188 C 
BRANCH   3   4
ATOM      4  O   UNL A   1      37.186  20.959  24.588  1.00  0.00    -0.376 OA
BRANCH   4   5
ATOM      5  C   UNL A   1      35.875  20.819  25.114  1.00  0.00     0.202 C 
BRANCH   5   6
ATOM      6  C   UNL A   1      35.009  19.582  24.827  1.00  0.00     0.261 C 
BRANCH   6   7
ATOM      7  O   UNL A   1      33.766  19.807  24.139  1.00  0.00    -0.463 OA
BRANCH   7   8
ATOM      8  C   UNL A   1      32.673  19.906  24.926  1.00  0.00     0.309 C 
ATOM      9  O   UNL A   1      32.038  18.949  25.361  1.00  0.00    -0.252 OA
BRANCH   8  10
ATOM     10  C   UNL A   1      32.222  21.328  25.189  1.00  0.00     0.103 C 
ATOM     11  C   UNL A   1      32.883  25.441  25.235  1.00  0.00     0.265 C 
ATOM     12  O   UNL A   1      33.835  25.673  25.982  1.00  0.00    -0.268 OA
ATOM     13  N   UNL A   1      32.298  24.186  25.225  1.00  0.00    -0.338 N 
ATOM     14  C   UNL A   1      32.200  23.479  26.478  1.00  0.00     0.120 C 
ATOM     15  C   UNL A   1      31.825  23.499  24.027  1.00  0.00     0.120 C 
ATOM     16  C   UNL A   1      32.802  22.091  26.386  1.00  0.00     0.037 C 
ATOM     17  C   UNL A   1      32.478  22.131  23.910  1.00  0.00     0.037 C 
BRANCH  11  18
ATOM     18  C   UNL A   1      32.246  26.463  24.436  1.00  0.00     0.115 A 
ATOM     19  C   UNL A   1      30.642  28.044  23.581  1.00  0.00     0.159 A 
ATOM     20  N   UNL A   1      31.521  27.764  22.646  1.00  0.00    -0.237 NA
ATOM     21  S   UNL A   1      30.904  27.306  25.095  1.00  0.00    -0.105 S 
ATOM     22  C   UNL A   1      32.440  26.846  23.114  1.00  0.00     0.062 A 
ATOM     23  C   UNL A   1      33.442  26.367  22.125  1.00  0.00     0.068 C 
BRANCH  19  24
ATOM     24  C   UNL A   1      29.510  28.875  23.321  1.00  0.00     0.162 A 
ATOM     25  C   UNL A   1      28.267  32.217  23.085  1.00  0.00     0.087 C 
ATOM     26  C   UNL A   1      28.366  30.746  23.088  1.00  0.00     0.101 A 
ATOM     27  C   UNL A   1      27.477  29.722  22.848  1.00  0.00     0.046 A 
ATOM     28  O   UNL A   1      29.588  30.241  23.388  1.00  0.00    -0.459 OA
ATOM     29  C   UNL A   1      28.216  28.521  22.983  1.00  0.00     0.054 A 
ENDBRANCH  19  24
ENDBRANCH  11  18
ENDBRANCH   8  10
ENDBRANCH   7   8
ENDBRANCH   6   7
ENDBRANCH   5   6
ENDBRANCH   4   5
ENDBRANCH   3   4
ENDBRANCH   2   3
ENDBRANCH   1   2
BRANCH   1  30
ATOM     30  C   UNL A   1      41.297  21.471  26.098  1.00  0.00     0.188 C 
BRANCH  30  31
ATOM     31  C   UNL A   1      42.620  22.161  26.488  1.00  0.00     0.188 C 
BRANCH  31  32
ATOM     32  O   UNL A   1      43.118  23.066  25.511  1.00  0.00    -0.376 OA
BRANCH  32  33
ATOM     33  C   UNL A   1      42.666  24.414  25.521  1.00  0.00     0.202 C 
BRANCH  33  34
ATOM     34  C   UNL A   1      42.060  24.968  26.824  1.00  0.00     0.261 C 
BRANCH  34  35
ATOM     35  O   UNL A   1      41.301  26.182  26.710  1.00  0.00    -0.460 OA
BRANCH  35  36
ATOM     36  C   UNL A   1      40.186  26.294  27.452  1.00  0.00     0.338 C 
ATOM     37  O   UNL A   1      39.248  25.509  27.499  1.00  0.00    -0.246 OA
BRANCH  36  38
ATOM     38  C   UNL A   1      40.352  27.428  28.380  1.00  0.00     0.060 A 
ATOM     39  C   UNL A   1      39.593  28.582  28.154  1.00  0.00     0.016 A 
ATOM     40  C   UNL A   1      41.280  27.379  29.425  1.00  0.00     0.016 A 
ATOM     41  C   UNL A   1      39.818  29.723  28.916  1.00  0.00     0.010 A 
ATOM     42  C   UNL A   1      41.523  28.534  30.176  1.00  0.00     0.010 A 
ATOM     43  C   UNL A   1      40.838  29.725  29.876  1.00  0.00    -0.014 A 
BRANCH  43  44
ATOM     44  C   UNL A   1      41.364  31.035  30.326  1.00  0.00     0.031 A 
ATOM     45  C   UNL A   1      40.796  31.625  31.590  1.00  0.00     0.074 A 
ATOM     46  C   UNL A   1      42.383  31.641  29.695  1.00  0.00     0.049 A 
ATOM     47  N   UNL A   1      41.120  32.726  32.218  1.00  0.00    -0.248 NA
ATOM     48  C   UNL A   1      39.713  30.863  32.235  1.00  0.00     0.031 C 
ATOM     49  C   UNL A   1      43.045  31.146  28.491  1.00  0.00     0.029 A 
ATOM     50  N   UNL A   1      43.039  32.807  29.991  1.00  0.00    -0.354 N 
ATOM     51  C   UNL A   1      40.286  32.785  33.328  1.00  0.00     0.074 A 
ATOM     52  C   UNL A   1      39.406  31.640  33.260  1.00  0.00     0.031 C 
ATOM     53  C   UNL A   1      44.012  32.013  28.143  1.00  0.00     0.029 A 
ATOM     54  C   UNL A   1      44.019  33.130  29.087  1.00  0.00     0.049 A 
ATOM     55  H   UNL A   1      42.828  33.360  30.778  1.00  0.00     0.167 HD
ATOM     56  C   UNL A   1      40.264  33.698  34.328  1.00  0.00     0.037 A 
ATOM     57  C   UNL A   1      44.819  34.212  29.025  1.00  0.00     0.037 A 
ATOM     58  C   UNL A   1      41.128  34.846  34.383  1.00  0.00     0.049 A 
ATOM     59  C   UNL A   1      44.734  35.256  30.108  1.00  0.00     0.074 A 
ATOM     60  C   UNL A   1      41.182  35.841  35.342  1.00  0.00     0.029 A 
ATOM     61  N   UNL A   1      42.087  35.157  33.430  1.00  0.00    -0.354 N 
ATOM     62  N   UNL A   1      43.953  35.297  31.162  1.00  0.00    -0.248 NA
ATOM     63  C   UNL A   1      45.654  36.396  30.000  1.00  0.00     0.031 C 
ATOM     64  C   UNL A   1      42.138  36.782  34.941  1.00  0.00     0.029 A 
ATOM     65  C   UNL A   1      42.726  36.337  33.768  1.00  0.00     0.049 A 
ATOM     66  H   UNL A   1      42.285  34.616  32.631  1.00  0.00     0.167 HD
ATOM     67  C   UNL A   1      44.309  36.447  31.858  1.00  0.00     0.074 A 
ATOM     68  C   UNL A   1      45.385  37.067  31.111  1.00  0.00     0.031 C 
ATOM     69  C   UNL A   1      43.798  36.942  33.014  1.00  0.00     0.037 A 
BRANCH  56  70
ATOM     70  C   UNL A   1      39.243  33.498  35.411  1.00  0.00     0.057 A 
ATOM     71  C   UNL A   1      39.543  32.818  36.600  1.00  0.00     0.134 A 
ATOM     72  C   UNL A   1      37.934  33.972  35.255  1.00  0.00     0.134 A 
ATOM     73  F   UNL A   1      40.771  32.320  36.808  1.00  0.00    -0.206 F 
ATOM     74  C   UNL A   1      38.570  32.582  37.573  1.00  0.00     0.040 A 
ATOM     75  C   UNL A   1      36.961  33.770  36.234  1.00  0.00     0.040 A 
ATOM     76  F   UNL A   1      37.576  34.632  34.143  1.00  0.00    -0.206 F 
ATOM     77  C   UNL A   1      37.274  33.063  37.393  1.00  0.00     0.006 A 
ENDBRANCH  56  70
BRANCH  57  78
ATOM     78  C   UNL A   1      45.766  34.362  27.891  1.00  0.00     0.057 A 
ATOM     79  C   UNL A   1      47.087  33.912  27.973  1.00  0.00     0.134 A 
ATOM     80  C   UNL A   1      45.363  34.964  26.692  1.00  0.00     0.134 A 
ATOM     81  F   UNL A   1      47.540  33.347  29.101  1.00  0.00    -0.206 F 
ATOM     82  C   UNL A   1      47.979  34.066  26.909  1.00  0.00     0.040 A 
ATOM     83  C   UNL A   1      46.235  35.100  25.611  1.00  0.00     0.040 A 
ATOM     84  F   UNL A   1      44.107  35.415  26.549  1.00  0.00    -0.206 F 
ATOM     85  C   UNL A   1      47.550  34.655  25.721  1.00  0.00     0.006 A 
ENDBRANCH  57  78
BRANCH  69  86
ATOM     86  C   UNL A   1      44.429  38.189  33.568  1.00  0.00     0.057 A 
ATOM     87  C   UNL A   1      45.500  38.149  34.469  1.00  0.00     0.134 A 
ATOM     88  C   UNL A   1      43.971  39.452  33.167  1.00  0.00     0.134 A 
ATOM     89  F   UNL A   1      45.983  36.974  34.901  1.00  0.00    -0.206 F 
ATOM     90  C   UNL A   1      46.067  39.318  34.981  1.00  0.00     0.040 A 
ATOM     91  C   UNL A   1      44.551  40.627  33.647  1.00  0.00     0.040 A 
ATOM     92  F   UNL A   1      42.958  39.565  32.295  1.00  0.00    -0.206 F 
ATOM     93  C   UNL A   1      45.596  40.562  34.565  1.00  0.00     0.006 A 
ENDBRANCH  69  86
ENDBRANCH  43  44
ENDBRANCH  36  38
ENDBRANCH  35  36
ENDBRANCH  34  35
ENDBRANCH  33  34
ENDBRANCH  32  33
ENDBRANCH  31  32
ENDBRANCH  30  31
ENDBRANCH   1  30
TORSDOF 22
ENDMDL
