MODEL 1
REMARK VINA RESULT:      -8.5      0.000      0.000
REMARK SMILES O=C(OCCOCCOCCOCCOC(=O)c1ccccc1Nc1nc(Cl)nc(Nc2ccc(N3CCOCC3=O)cc2)n1)c1ccc(-c2c3nc(c(-c4c(F)cccc4F)c4ccc([nH]4)c(-c4c(F)cccc4F)c4nc(c(-c5c(F)cccc5F)c5ccc2[nH]5)C=C4)C=C3)cc1
REMARK SMILES IDX 10 1 9 2 8 3 7 4 6 5 5 6 4 7 3 8 2 9 1 10 46 11 47 12 99 13
REMARK SMILES IDX 48 14 98 15 49 16 50 17 51 18 92 19 52 20 97 21 91 22 93 23
REMARK SMILES IDX 53 24 96 25 90 26 89 27 54 29 80 30 63 31 79 32 64 33 67 34
REMARK SMILES IDX 78 35 94 36 65 37 66 38 77 40 95 41 68 42 55 43 56 44 61 45
REMARK SMILES IDX 57 46 58 47 60 48 62 49 59 50 81 51 82 52 87 53 83 54 84 55
REMARK SMILES IDX 86 56 88 57 85 58 69 59 70 60 75 61 71 62 72 63 74 64 76 65
REMARK SMILES IDX 73 66 11 67 12 68 13 69 14 70 15 71 16 72 17 73 18 74 19 75
REMARK SMILES IDX 23 76 20 77 22 78 21 79 24 80 25 82 26 83 45 84 27 85 30 86
REMARK SMILES IDX 28 87 29 88 31 89 32 91 33 92 44 93 34 94 43 95 35 96 36 97
REMARK SMILES IDX 37 98 41 99 38 100 40 101 42 102 39 103
REMARK H PARENT 93 28 67 39 24 81 31 90
REMARK Flexibility Score: inf
ROOT
ATOM      1  C   UNL A   1      37.271  33.455  36.554  1.00  0.00     0.188 C 
ENDROOT
BRANCH   1   2
ATOM      2  O   UNL A   1      36.635  33.078  37.770  1.00  0.00    -0.377 OA
BRANCH   2   3
ATOM      3  C   UNL A   1      37.389  32.244  38.649  1.00  0.00     0.188 C 
BRANCH   3   4
ATOM      4  C   UNL A   1      37.899  32.930  39.917  1.00  0.00     0.188 C 
BRANCH   4   5
ATOM      5  O   UNL A   1      39.131  32.348  40.357  1.00  0.00    -0.376 OA
BRANCH   5   6
ATOM      6  C   UNL A   1      39.910  33.166  41.233  1.00  0.00     0.202 C 
BRANCH   6   7
ATOM      7  C   UNL A   1      39.098  34.225  41.979  1.00  0.00     0.261 C 
BRANCH   7   8
ATOM      8  O   UNL A   1      39.492  35.559  41.628  1.00  0.00    -0.460 OA
BRANCH   8   9
ATOM      9  C   UNL A   1      40.684  35.972  41.126  1.00  0.00     0.338 C 
ATOM     10  O   UNL A   1      41.583  36.240  41.922  1.00  0.00    -0.246 OA
BRANCH   9  11
ATOM     11  C   UNL A   1      40.994  36.092  39.663  1.00  0.00     0.060 A 
ATOM     12  C   UNL A   1      40.093  36.455  38.662  1.00  0.00     0.016 A 
ATOM     13  C   UNL A   1      42.326  35.847  39.280  1.00  0.00     0.016 A 
ATOM     14  C   UNL A   1      40.456  36.477  37.324  1.00  0.00     0.010 A 
ATOM     15  C   UNL A   1      42.713  35.889  37.937  1.00  0.00     0.010 A 
ATOM     16  C   UNL A   1      41.756  36.155  36.955  1.00  0.00    -0.014 A 
BRANCH  16  17
ATOM     17  C   UNL A   1      41.990  35.873  35.529  1.00  0.00     0.031 A 
ATOM     18  C   UNL A   1      42.692  36.929  34.727  1.00  0.00     0.074 A 
ATOM     19  C   UNL A   1      41.767  34.642  35.040  1.00  0.00     0.049 A 
ATOM     20  N   UNL A   1      43.033  36.929  33.468  1.00  0.00    -0.248 NA
ATOM     21  C   UNL A   1      43.087  38.148  35.456  1.00  0.00     0.031 C 
ATOM     22  C   UNL A   1      41.243  33.512  35.811  1.00  0.00     0.029 A 
ATOM     23  N   UNL A   1      41.998  34.123  33.796  1.00  0.00    -0.354 N 
ATOM     24  C   UNL A   1      43.646  38.156  33.248  1.00  0.00     0.074 A 
ATOM     25  C   UNL A   1      43.634  38.876  34.499  1.00  0.00     0.031 C 
ATOM     26  C   UNL A   1      41.220  32.422  35.025  1.00  0.00     0.029 A 
ATOM     27  C   UNL A   1      41.662  32.795  33.686  1.00  0.00     0.049 A 
ATOM     28  H   UNL A   1      42.368  34.649  33.052  1.00  0.00     0.167 HD
ATOM     29  C   UNL A   1      44.160  38.637  32.095  1.00  0.00     0.037 A 
ATOM     30  C   UNL A   1      41.688  31.994  32.606  1.00  0.00     0.037 A 
ATOM     31  C   UNL A   1      44.159  37.889  30.869  1.00  0.00     0.049 A 
ATOM     32  C   UNL A   1      42.161  32.588  31.307  1.00  0.00     0.074 A 
ATOM     33  C   UNL A   1      44.576  38.278  29.611  1.00  0.00     0.029 A 
ATOM     34  N   UNL A   1      43.709  36.578  30.761  1.00  0.00    -0.354 N 
ATOM     35  N   UNL A   1      42.657  33.783  31.076  1.00  0.00    -0.248 NA
ATOM     36  C   UNL A   1      42.059  31.738  30.116  1.00  0.00     0.031 C 
ATOM     37  C   UNL A   1      44.336  37.215  28.732  1.00  0.00     0.029 A 
ATOM     38  C   UNL A   1      43.818  36.146  29.453  1.00  0.00     0.049 A 
ATOM     39  H   UNL A   1      43.364  36.036  31.507  1.00  0.00     0.167 HD
ATOM     40  C   UNL A   1      42.945  33.823  29.718  1.00  0.00     0.074 A 
ATOM     41  C   UNL A   1      42.584  32.523  29.184  1.00  0.00     0.031 C 
ATOM     42  C   UNL A   1      43.455  34.835  28.974  1.00  0.00     0.037 A 
BRANCH  29  43
ATOM     43  C   UNL A   1      44.660  40.052  32.114  1.00  0.00     0.057 A 
ATOM     44  C   UNL A   1      45.987  40.379  32.420  1.00  0.00     0.134 A 
ATOM     45  C   UNL A   1      43.770  41.111  31.898  1.00  0.00     0.134 A 
ATOM     46  F   UNL A   1      46.885  39.414  32.677  1.00  0.00    -0.206 F 
ATOM     47  C   UNL A   1      46.402  41.708  32.546  1.00  0.00     0.040 A 
ATOM     48  C   UNL A   1      44.178  42.442  31.995  1.00  0.00     0.040 A 
ATOM     49  F   UNL A   1      42.481  40.870  31.612  1.00  0.00    -0.206 F 
ATOM     50  C   UNL A   1      45.495  42.744  32.332  1.00  0.00     0.006 A 
ENDBRANCH  29  43
BRANCH  30  51
ATOM     51  C   UNL A   1      41.217  30.587  32.694  1.00  0.00     0.057 A 
ATOM     52  C   UNL A   1      39.877  30.248  32.477  1.00  0.00     0.134 A 
ATOM     53  C   UNL A   1      42.096  29.544  33.019  1.00  0.00     0.134 A 
ATOM     54  F   UNL A   1      38.979  31.199  32.182  1.00  0.00    -0.206 F 
ATOM     55  C   UNL A   1      39.426  28.930  32.591  1.00  0.00     0.040 A 
ATOM     56  C   UNL A   1      41.664  28.219  33.109  1.00  0.00     0.040 A 
ATOM     57  F   UNL A   1      43.394  29.795  33.244  1.00  0.00    -0.206 F 
ATOM     58  C   UNL A   1      40.322  27.910  32.903  1.00  0.00     0.006 A 
ENDBRANCH  30  51
BRANCH  42  59
ATOM     59  C   UNL A   1      43.686  34.551  27.522  1.00  0.00     0.057 A 
ATOM     60  C   UNL A   1      42.791  34.979  26.535  1.00  0.00     0.134 A 
ATOM     61  C   UNL A   1      44.842  33.881  27.108  1.00  0.00     0.134 A 
ATOM     62  F   UNL A   1      41.659  35.615  26.872  1.00  0.00    -0.206 F 
ATOM     63  C   UNL A   1      43.027  34.727  25.184  1.00  0.00     0.040 A 
ATOM     64  C   UNL A   1      45.105  33.648  25.760  1.00  0.00     0.040 A 
ATOM     65  F   UNL A   1      45.743  33.456  28.008  1.00  0.00    -0.206 F 
ATOM     66  C   UNL A   1      44.192  34.067  24.794  1.00  0.00     0.006 A 
ENDBRANCH  42  59
ENDBRANCH  16  17
ENDBRANCH   9  11
ENDBRANCH   8   9
ENDBRANCH   7   8
ENDBRANCH   6   7
ENDBRANCH   5   6
ENDBRANCH   4   5
ENDBRANCH   3   4
ENDBRANCH   2   3
ENDBRANCH   1   2
BRANCH   1  67
ATOM     67  C   UNL A   1      37.701  32.338  35.580  1.00  0.00     0.188 C 
BRANCH  67  68
ATOM     68  O   UNL A   1      37.717  32.741  34.220  1.00  0.00    -0.376 OA
BRANCH  68  69
ATOM     69  C   UNL A   1      38.039  34.101  33.964  1.00  0.00     0.202 C 
BRANCH  69  70
ATOM     70  C   UNL A   1      37.116  34.894  33.026  1.00  0.00     0.261 C 
BRANCH  70  71
ATOM     71  O   UNL A   1      35.790  35.159  33.509  1.00  0.00    -0.460 OA
BRANCH  71  72
ATOM     72  C   UNL A   1      34.780  34.301  33.245  1.00  0.00     0.340 C 
ATOM     73  O   UNL A   1      34.388  33.399  33.968  1.00  0.00    -0.246 OA
BRANCH  72  74
ATOM     74  C   UNL A   1      34.092  34.792  32.013  1.00  0.00     0.083 A 
ATOM     75  C   UNL A   1      33.506  36.068  32.080  1.00  0.00     0.018 A 
ATOM     76  C   UNL A   1      34.148  34.094  30.782  1.00  0.00     0.055 A 
ATOM     77  C   UNL A   1      33.009  36.674  30.925  1.00  0.00     0.001 A 
ATOM     78  C   UNL A   1      33.616  34.719  29.641  1.00  0.00     0.027 A 
ATOM     79  C   UNL A   1      33.063  35.999  29.708  1.00  0.00     0.002 A 
BRANCH  76  80
ATOM     80  N   UNL A   1      34.745  32.821  30.696  1.00  0.00    -0.323 N 
ATOM     81  H   UNL A   1      34.208  32.058  31.012  1.00  0.00     0.170 HD
BRANCH  80  82
ATOM     82  C   UNL A   1      36.011  32.535  30.208  1.00  0.00     0.233 A 
ATOM     83  N   UNL A   1      36.932  33.479  30.126  1.00  0.00    -0.182 NA
ATOM     84  N   UNL A   1      36.166  31.286  29.792  1.00  0.00    -0.176 NA
ATOM     85  C   UNL A   1      38.068  33.050  29.607  1.00  0.00     0.228 A 
ATOM     86  C   UNL A   1      37.316  31.002  29.203  1.00  0.00     0.233 A 
ATOM     87  Cl  UNL A   1      39.316  34.207  29.465  1.00  0.00    -0.041 Cl
ATOM     88  N   UNL A   1      38.329  31.851  29.120  1.00  0.00    -0.182 NA
BRANCH  86  89
ATOM     89  N   UNL A   1      37.356  29.781  28.539  1.00  0.00    -0.324 N 
ATOM     90  H   UNL A   1      36.496  29.426  28.217  1.00  0.00     0.170 HD
BRANCH  89  91
ATOM     91  C   UNL A   1      38.483  29.005  28.282  1.00  0.00     0.041 A 
ATOM     92  C   UNL A   1      39.315  29.308  27.201  1.00  0.00     0.028 A 
ATOM     93  C   UNL A   1      38.875  28.009  29.178  1.00  0.00     0.028 A 
ATOM     94  C   UNL A   1      40.540  28.652  27.047  1.00  0.00     0.028 A 
ATOM     95  C   UNL A   1      40.068  27.318  28.997  1.00  0.00     0.028 A 
ATOM     96  C   UNL A   1      40.925  27.651  27.946  1.00  0.00     0.044 A 
BRANCH  96  97
ATOM     97  N   UNL A   1      42.202  27.031  27.847  1.00  0.00    -0.308 N 
ATOM     98  C   UNL A   1      43.228  27.490  28.791  1.00  0.00     0.154 C 
ATOM     99  C   UNL A   1      42.354  25.820  27.161  1.00  0.00     0.253 C 
ATOM    100  C   UNL A   1      44.616  26.949  28.476  1.00  0.00     0.183 C 
ATOM    101  C   UNL A   1      43.732  25.154  27.287  1.00  0.00     0.260 C 
ATOM    102  O   UNL A   1      41.507  25.327  26.413  1.00  0.00    -0.272 OA
ATOM    103  O   UNL A   1      44.557  25.529  28.378  1.00  0.00    -0.370 OA
ENDBRANCH  96  97
ENDBRANCH  89  91
ENDBRANCH  86  89
ENDBRANCH  80  82
ENDBRANCH  76  80
ENDBRANCH  72  74
ENDBRANCH  71  72
ENDBRANCH  70  71
ENDBRANCH  69  70
ENDBRANCH  68  69
ENDBRANCH  67  68
ENDBRANCH   1  67
TORSDOF 25
ENDMDL
MODEL 2
REMARK VINA RESULT:      -7.9      1.238      5.728
REMARK SMILES O=C(OCCOCCOCCOCCOC(=O)c1ccccc1Nc1nc(Cl)nc(Nc2ccc(N3CCOCC3=O)cc2)n1)c1ccc(-c2c3nc(c(-c4c(F)cccc4F)c4ccc([nH]4)c(-c4c(F)cccc4F)c4nc(c(-c5c(F)cccc5F)c5ccc2[nH]5)C=C4)C=C3)cc1
REMARK SMILES IDX 10 1 9 2 8 3 7 4 6 5 5 6 4 7 3 8 2 9 1 10 46 11 47 12 99 13
REMARK SMILES IDX 48 14 98 15 49 16 50 17 51 18 92 19 52 20 97 21 91 22 93 23
REMARK SMILES IDX 53 24 96 25 90 26 89 27 54 29 80 30 63 31 79 32 64 33 67 34
REMARK SMILES IDX 78 35 94 36 65 37 66 38 77 40 95 41 68 42 55 43 56 44 61 45
REMARK SMILES IDX 57 46 58 47 60 48 62 49 59 50 81 51 82 52 87 53 83 54 84 55
REMARK SMILES IDX 86 56 88 57 85 58 69 59 70 60 75 61 71 62 72 63 74 64 76 65
REMARK SMILES IDX 73 66 11 67 12 68 13 69 14 70 15 71 16 72 17 73 18 74 19 75
REMARK SMILES IDX 23 76 20 77 22 78 21 79 24 80 25 82 26 83 45 84 27 85 30 86
REMARK SMILES IDX 28 87 29 88 31 89 32 91 33 92 44 93 34 94 43 95 35 96 36 97
REMARK SMILES IDX 37 98 41 99 38 100 40 101 42 102 39 103
REMARK H PARENT 93 28 67 39 24 81 31 90
REMARK Flexibility Score: inf
ROOT
ATOM      1  C   UNL A   1      37.694  33.313  35.541  1.00  0.00     0.188 C 
ENDROOT
BRANCH   1   2
ATOM      2  O   UNL A   1      36.943  33.185  36.743  1.00  0.00    -0.377 OA
BRANCH   2   3
ATOM      3  C   UNL A   1      37.497  32.342  37.752  1.00  0.00     0.188 C 
BRANCH   3   4
ATOM      4  C   UNL A   1      37.767  33.026  39.092  1.00  0.00     0.188 C 
BRANCH   4   5
ATOM      5  O   UNL A   1      38.673  32.255  39.890  1.00  0.00    -0.376 OA
BRANCH   5   6
ATOM      6  C   UNL A   1      39.385  32.993  40.885  1.00  0.00     0.202 C 
BRANCH   6   7
ATOM      7  C   UNL A   1      38.649  34.239  41.379  1.00  0.00     0.261 C 
BRANCH   7   8
ATOM      8  O   UNL A   1      39.398  35.440  41.146  1.00  0.00    -0.460 OA
BRANCH   8   9
ATOM      9  C   UNL A   1      40.691  35.553  40.749  1.00  0.00     0.338 C 
ATOM     10  O   UNL A   1      41.569  35.437  41.603  1.00  0.00    -0.246 OA
BRANCH   9  11
ATOM     11  C   UNL A   1      41.128  35.776  39.331  1.00  0.00     0.060 A 
ATOM     12  C   UNL A   1      40.317  36.211  38.282  1.00  0.00     0.016 A 
ATOM     13  C   UNL A   1      42.490  35.557  39.050  1.00  0.00     0.016 A 
ATOM     14  C   UNL A   1      40.796  36.327  36.986  1.00  0.00     0.010 A 
ATOM     15  C   UNL A   1      42.993  35.693  37.752  1.00  0.00     0.010 A 
ATOM     16  C   UNL A   1      42.125  36.030  36.711  1.00  0.00    -0.014 A 
BRANCH  16  17
ATOM     17  C   UNL A   1      42.484  35.849  35.295  1.00  0.00     0.031 A 
ATOM     18  C   UNL A   1      42.123  34.540  34.658  1.00  0.00     0.074 A 
ATOM     19  C   UNL A   1      42.923  36.892  34.572  1.00  0.00     0.049 A 
ATOM     20  N   UNL A   1      42.310  34.130  33.434  1.00  0.00    -0.248 NA
ATOM     21  C   UNL A   1      41.432  33.563  35.519  1.00  0.00     0.031 C 
ATOM     22  C   UNL A   1      43.135  38.247  35.090  1.00  0.00     0.029 A 
ATOM     23  N   UNL A   1      43.221  36.991  33.241  1.00  0.00    -0.354 N 
ATOM     24  C   UNL A   1      41.795  32.840  33.390  1.00  0.00     0.074 A 
ATOM     25  C   UNL A   1      41.285  32.533  34.705  1.00  0.00     0.031 C 
ATOM     26  C   UNL A   1      43.504  39.048  34.076  1.00  0.00     0.029 A 
ATOM     27  C   UNL A   1      43.617  38.250  32.861  1.00  0.00     0.049 A 
ATOM     28  H   UNL A   1      43.159  36.233  32.617  1.00  0.00     0.167 HD
ATOM     29  C   UNL A   1      41.764  31.989  32.341  1.00  0.00     0.037 A 
ATOM     30  C   UNL A   1      44.047  38.685  31.662  1.00  0.00     0.037 A 
ATOM     31  C   UNL A   1      42.275  32.333  31.044  1.00  0.00     0.049 A 
ATOM     32  C   UNL A   1      44.108  37.687  30.538  1.00  0.00     0.074 A 
ATOM     33  C   UNL A   1      42.378  31.547  29.912  1.00  0.00     0.029 A 
ATOM     34  N   UNL A   1      42.774  33.588  30.714  1.00  0.00    -0.354 N 
ATOM     35  N   UNL A   1      43.706  36.436  30.519  1.00  0.00    -0.248 NA
ATOM     36  C   UNL A   1      44.702  38.147  29.278  1.00  0.00     0.031 C 
ATOM     37  C   UNL A   1      42.982  32.315  28.910  1.00  0.00     0.029 A 
ATOM     38  C   UNL A   1      43.207  33.595  29.401  1.00  0.00     0.049 A 
ATOM     39  H   UNL A   1      42.812  34.358  31.325  1.00  0.00     0.167 HD
ATOM     40  C   UNL A   1      43.979  35.964  29.243  1.00  0.00     0.074 A 
ATOM     41  C   UNL A   1      44.564  37.073  28.512  1.00  0.00     0.031 C 
ATOM     42  C   UNL A   1      43.773  34.731  28.716  1.00  0.00     0.037 A 
BRANCH  29  43
ATOM     43  C   UNL A   1      41.251  30.605  32.607  1.00  0.00     0.057 A 
ATOM     44  C   UNL A   1      42.012  29.634  33.272  1.00  0.00     0.134 A 
ATOM     45  C   UNL A   1      39.998  30.216  32.116  1.00  0.00     0.134 A 
ATOM     46  F   UNL A   1      43.237  29.927  33.735  1.00  0.00    -0.206 F 
ATOM     47  C   UNL A   1      41.560  28.318  33.407  1.00  0.00     0.040 A 
ATOM     48  C   UNL A   1      39.525  28.912  32.267  1.00  0.00     0.040 A 
ATOM     49  F   UNL A   1      39.222  31.092  31.459  1.00  0.00    -0.206 F 
ATOM     50  C   UNL A   1      40.312  27.954  32.903  1.00  0.00     0.006 A 
ENDBRANCH  29  43
BRANCH  30  51
ATOM     51  C   UNL A   1      44.490  40.092  31.480  1.00  0.00     0.057 A 
ATOM     52  C   UNL A   1      43.605  41.091  31.059  1.00  0.00     0.134 A 
ATOM     53  C   UNL A   1      45.821  40.471  31.704  1.00  0.00     0.134 A 
ATOM     54  F   UNL A   1      42.321  40.793  30.807  1.00  0.00    -0.206 F 
ATOM     55  C   UNL A   1      44.027  42.408  30.856  1.00  0.00     0.040 A 
ATOM     56  C   UNL A   1      46.250  41.788  31.531  1.00  0.00     0.040 A 
ATOM     57  F   UNL A   1      46.726  39.566  32.105  1.00  0.00    -0.206 F 
ATOM     58  C   UNL A   1      45.352  42.761  31.097  1.00  0.00     0.006 A 
ENDBRANCH  30  51
BRANCH  42  59
ATOM     59  C   UNL A   1      44.145  34.544  27.278  1.00  0.00     0.057 A 
ATOM     60  C   UNL A   1      43.249  34.829  26.241  1.00  0.00     0.134 A 
ATOM     61  C   UNL A   1      45.432  34.117  26.931  1.00  0.00     0.134 A 
ATOM     62  F   UNL A   1      41.998  35.229  26.512  1.00  0.00    -0.206 F 
ATOM     63  C   UNL A   1      43.615  34.671  24.905  1.00  0.00     0.040 A 
ATOM     64  C   UNL A   1      45.819  33.984  25.600  1.00  0.00     0.040 A 
ATOM     65  F   UNL A   1      46.338  33.839  27.882  1.00  0.00    -0.206 F 
ATOM     66  C   UNL A   1      44.906  34.255  24.582  1.00  0.00     0.006 A 
ENDBRANCH  42  59
ENDBRANCH  16  17
ENDBRANCH   9  11
ENDBRANCH   8   9
ENDBRANCH   7   8
ENDBRANCH   6   7
ENDBRANCH   5   6
ENDBRANCH   4   5
ENDBRANCH   3   4
ENDBRANCH   2   3
ENDBRANCH   1   2
BRANCH   1  67
ATOM     67  C   UNL A   1      37.564  32.201  34.478  1.00  0.00     0.188 C 
BRANCH  67  68
ATOM     68  O   UNL A   1      37.347  32.689  33.164  1.00  0.00    -0.376 OA
BRANCH  68  69
ATOM     69  C   UNL A   1      37.437  34.097  32.986  1.00  0.00     0.202 C 
BRANCH  69  70
ATOM     70  C   UNL A   1      36.127  34.891  32.863  1.00  0.00     0.261 C 
BRANCH  70  71
ATOM     71  O   UNL A   1      34.933  34.122  32.645  1.00  0.00    -0.460 OA
BRANCH  71  72
ATOM     72  C   UNL A   1      34.789  33.384  31.523  1.00  0.00     0.340 C 
ATOM     73  O   UNL A   1      34.870  32.169  31.439  1.00  0.00    -0.246 OA
BRANCH  72  74
ATOM     74  C   UNL A   1      34.296  34.300  30.451  1.00  0.00     0.083 A 
ATOM     75  C   UNL A   1      33.259  35.184  30.797  1.00  0.00     0.018 A 
ATOM     76  C   UNL A   1      34.929  34.400  29.188  1.00  0.00     0.055 A 
ATOM     77  C   UNL A   1      32.871  36.192  29.915  1.00  0.00     0.001 A 
ATOM     78  C   UNL A   1      34.499  35.410  28.310  1.00  0.00     0.027 A 
ATOM     79  C   UNL A   1      33.490  36.304  28.672  1.00  0.00     0.002 A 
BRANCH  76  80
ATOM     80  N   UNL A   1      35.979  33.531  28.830  1.00  0.00    -0.323 N 
ATOM     81  H   UNL A   1      36.893  33.894  28.888  1.00  0.00     0.170 HD
BRANCH  80  82
ATOM     82  C   UNL A   1      35.853  32.217  28.408  1.00  0.00     0.233 A 
ATOM     83  N   UNL A   1      34.773  31.816  27.761  1.00  0.00    -0.182 NA
ATOM     84  N   UNL A   1      36.858  31.430  28.767  1.00  0.00    -0.176 NA
ATOM     85  C   UNL A   1      34.795  30.529  27.464  1.00  0.00     0.228 A 
ATOM     86  C   UNL A   1      36.721  30.143  28.497  1.00  0.00     0.233 A 
ATOM     87  Cl  UNL A   1      33.437  29.926  26.624  1.00  0.00    -0.041 Cl
ATOM     88  N   UNL A   1      35.712  29.640  27.801  1.00  0.00    -0.182 NA
BRANCH  86  89
ATOM     89  N   UNL A   1      37.645  29.306  29.113  1.00  0.00    -0.324 N 
ATOM     90  H   UNL A   1      37.537  29.169  30.082  1.00  0.00     0.170 HD
BRANCH  89  91
ATOM     91  C   UNL A   1      38.707  28.642  28.506  1.00  0.00     0.041 A 
ATOM     92  C   UNL A   1      39.563  29.325  27.640  1.00  0.00     0.028 A 
ATOM     93  C   UNL A   1      39.016  27.328  28.864  1.00  0.00     0.028 A 
ATOM     94  C   UNL A   1      40.733  28.716  27.175  1.00  0.00     0.028 A 
ATOM     95  C   UNL A   1      40.151  26.701  28.361  1.00  0.00     0.028 A 
ATOM     96  C   UNL A   1      41.034  27.397  27.534  1.00  0.00     0.044 A 
BRANCH  96  97
ATOM     97  N   UNL A   1      42.259  26.792  27.134  1.00  0.00    -0.308 N 
ATOM     98  C   UNL A   1      43.295  26.664  28.166  1.00  0.00     0.154 C 
ATOM     99  C   UNL A   1      42.328  26.041  25.954  1.00  0.00     0.253 C 
ATOM    100  C   UNL A   1      44.641  26.220  27.610  1.00  0.00     0.183 C 
ATOM    101  C   UNL A   1      43.644  25.281  25.729  1.00  0.00     0.260 C 
ATOM    102  O   UNL A   1      41.463  26.033  25.076  1.00  0.00    -0.272 OA
ATOM    103  O   UNL A   1      44.468  25.025  26.854  1.00  0.00    -0.370 OA
ENDBRANCH  96  97
ENDBRANCH  89  91
ENDBRANCH  86  89
ENDBRANCH  80  82
ENDBRANCH  76  80
ENDBRANCH  72  74
ENDBRANCH  71  72
ENDBRANCH  70  71
ENDBRANCH  69  70
ENDBRANCH  68  69
ENDBRANCH  67  68
ENDBRANCH   1  67
TORSDOF 25
ENDMDL
MODEL 3
REMARK VINA RESULT:      -7.6      5.957     11.654
REMARK SMILES O=C(OCCOCCOCCOCCOC(=O)c1ccccc1Nc1nc(Cl)nc(Nc2ccc(N3CCOCC3=O)cc2)n1)c1ccc(-c2c3nc(c(-c4c(F)cccc4F)c4ccc([nH]4)c(-c4c(F)cccc4F)c4nc(c(-c5c(F)cccc5F)c5ccc2[nH]5)C=C4)C=C3)cc1
REMARK SMILES IDX 10 1 9 2 8 3 7 4 6 5 5 6 4 7 3 8 2 9 1 10 46 11 47 12 99 13
REMARK SMILES IDX 48 14 98 15 49 16 50 17 51 18 92 19 52 20 97 21 91 22 93 23
REMARK SMILES IDX 53 24 96 25 90 26 89 27 54 29 80 30 63 31 79 32 64 33 67 34
REMARK SMILES IDX 78 35 94 36 65 37 66 38 77 40 95 41 68 42 55 43 56 44 61 45
REMARK SMILES IDX 57 46 58 47 60 48 62 49 59 50 81 51 82 52 87 53 83 54 84 55
REMARK SMILES IDX 86 56 88 57 85 58 69 59 70 60 75 61 71 62 72 63 74 64 76 65
REMARK SMILES IDX 73 66 11 67 12 68 13 69 14 70 15 71 16 72 17 73 18 74 19 75
REMARK SMILES IDX 23 76 20 77 22 78 21 79 24 80 25 82 26 83 45 84 27 85 30 86
REMARK SMILES IDX 28 87 29 88 31 89 32 91 33 92 44 93 34 94 43 95 35 96 36 97
REMARK SMILES IDX 37 98 41 99 38 100 40 101 42 102 39 103
REMARK H PARENT 93 28 67 39 24 81 31 90
REMARK Flexibility Score: inf
ROOT
ATOM      1  C   UNL A   1      41.175  26.731  26.665  1.00  0.00     0.188 C 
ENDROOT
BRANCH   1   2
ATOM      2  O   UNL A   1      41.506  26.316  25.345  1.00  0.00    -0.377 OA
BRANCH   2   3
ATOM      3  C   UNL A   1      42.895  26.266  25.024  1.00  0.00     0.188 C 
BRANCH   3   4
ATOM      4  C   UNL A   1      43.531  24.878  25.104  1.00  0.00     0.188 C 
BRANCH   4   5
ATOM      5  O   UNL A   1      44.818  24.937  25.729  1.00  0.00    -0.376 OA
BRANCH   5   6
ATOM      6  C   UNL A   1      45.929  24.758  24.849  1.00  0.00     0.202 C 
BRANCH   6   7
ATOM      7  C   UNL A   1      47.190  25.508  25.279  1.00  0.00     0.261 C 
BRANCH   7   8
ATOM      8  O   UNL A   1      47.325  26.772  24.612  1.00  0.00    -0.460 OA
BRANCH   8   9
ATOM      9  C   UNL A   1      46.726  27.949  24.926  1.00  0.00     0.338 C 
ATOM     10  O   UNL A   1      46.631  28.801  24.044  1.00  0.00    -0.246 OA
BRANCH   9  11
ATOM     11  C   UNL A   1      46.140  28.272  26.269  1.00  0.00     0.060 A 
ATOM     12  C   UNL A   1      44.792  28.183  26.618  1.00  0.00     0.016 A 
ATOM     13  C   UNL A   1      47.046  28.668  27.272  1.00  0.00     0.016 A 
ATOM     14  C   UNL A   1      44.334  28.565  27.869  1.00  0.00     0.010 A 
ATOM     15  C   UNL A   1      46.600  29.034  28.546  1.00  0.00     0.010 A 
ATOM     16  C   UNL A   1      45.231  29.029  28.823  1.00  0.00    -0.014 A 
BRANCH  16  17
ATOM     17  C   UNL A   1      44.660  29.724  29.989  1.00  0.00     0.031 A 
ATOM     18  C   UNL A   1      44.306  31.172  29.818  1.00  0.00     0.074 A 
ATOM     19  C   UNL A   1      44.288  29.026  31.074  1.00  0.00     0.049 A 
ATOM     20  N   UNL A   1      43.780  32.006  30.672  1.00  0.00    -0.248 NA
ATOM     21  C   UNL A   1      44.560  31.754  28.488  1.00  0.00     0.031 C 
ATOM     22  C   UNL A   1      44.447  27.578  31.239  1.00  0.00     0.029 A 
ATOM     23  N   UNL A   1      43.658  29.428  32.218  1.00  0.00    -0.354 N 
ATOM     24  C   UNL A   1      43.676  33.215  29.995  1.00  0.00     0.074 A 
ATOM     25  C   UNL A   1      44.189  33.010  28.662  1.00  0.00     0.031 C 
ATOM     26  C   UNL A   1      43.899  27.211  32.410  1.00  0.00     0.029 A 
ATOM     27  C   UNL A   1      43.416  28.402  33.100  1.00  0.00     0.049 A 
ATOM     28  H   UNL A   1      43.404  30.362  32.395  1.00  0.00     0.167 HD
ATOM     29  C   UNL A   1      43.202  34.393  30.459  1.00  0.00     0.037 A 
ATOM     30  C   UNL A   1      42.887  28.445  34.336  1.00  0.00     0.037 A 
ATOM     31  C   UNL A   1      42.693  34.557  31.792  1.00  0.00     0.049 A 
ATOM     32  C   UNL A   1      42.470  29.788  34.872  1.00  0.00     0.074 A 
ATOM     33  C   UNL A   1      42.252  35.706  32.419  1.00  0.00     0.029 A 
ATOM     34  N   UNL A   1      42.561  33.518  32.705  1.00  0.00    -0.354 N 
ATOM     35  N   UNL A   1      42.456  30.953  34.264  1.00  0.00    -0.248 NA
ATOM     36  C   UNL A   1      42.018  29.832  36.266  1.00  0.00     0.031 C 
ATOM     37  C   UNL A   1      41.895  35.368  33.730  1.00  0.00     0.029 A 
ATOM     38  C   UNL A   1      42.064  34.000  33.902  1.00  0.00     0.049 A 
ATOM     39  H   UNL A   1      42.787  32.577  32.526  1.00  0.00     0.167 HD
ATOM     40  C   UNL A   1      41.977  31.865  35.193  1.00  0.00     0.074 A 
ATOM     41  C   UNL A   1      41.694  31.111  36.400  1.00  0.00     0.031 C 
ATOM     42  C   UNL A   1      41.788  33.203  35.072  1.00  0.00     0.037 A 
BRANCH  29  43
ATOM     43  C   UNL A   1      43.315  35.575  29.543  1.00  0.00     0.057 A 
ATOM     44  C   UNL A   1      44.368  36.496  29.627  1.00  0.00     0.134 A 
ATOM     45  C   UNL A   1      42.304  35.838  28.610  1.00  0.00     0.134 A 
ATOM     46  F   UNL A   1      45.351  36.327  30.525  1.00  0.00    -0.206 F 
ATOM     47  C   UNL A   1      44.392  37.652  28.842  1.00  0.00     0.040 A 
ATOM     48  C   UNL A   1      42.330  36.975  27.803  1.00  0.00     0.040 A 
ATOM     49  F   UNL A   1      41.260  35.004  28.485  1.00  0.00    -0.206 F 
ATOM     50  C   UNL A   1      43.370  37.894  27.925  1.00  0.00     0.006 A 
ENDBRANCH  29  43
BRANCH  30  51
ATOM     51  C   UNL A   1      42.769  27.209  35.153  1.00  0.00     0.057 A 
ATOM     52  C   UNL A   1      43.782  26.815  36.035  1.00  0.00     0.134 A 
ATOM     53  C   UNL A   1      41.645  26.377  35.058  1.00  0.00     0.134 A 
ATOM     54  F   UNL A   1      44.894  27.554  36.161  1.00  0.00    -0.206 F 
ATOM     55  C   UNL A   1      43.688  25.636  36.781  1.00  0.00     0.040 A 
ATOM     56  C   UNL A   1      41.526  25.211  35.817  1.00  0.00     0.040 A 
ATOM     57  F   UNL A   1      40.637  26.690  34.230  1.00  0.00    -0.206 F 
ATOM     58  C   UNL A   1      42.554  24.833  36.677  1.00  0.00     0.006 A 
ENDBRANCH  30  51
BRANCH  42  59
ATOM     59  C   UNL A   1      41.215  33.911  36.260  1.00  0.00     0.057 A 
ATOM     60  C   UNL A   1      39.833  34.032  36.450  1.00  0.00     0.134 A 
ATOM     61  C   UNL A   1      42.058  34.437  37.245  1.00  0.00     0.134 A 
ATOM     62  F   UNL A   1      38.976  33.559  35.534  1.00  0.00    -0.206 F 
ATOM     63  C   UNL A   1      39.311  34.675  37.572  1.00  0.00     0.040 A 
ATOM     64  C   UNL A   1      41.549  35.056  38.383  1.00  0.00     0.040 A 
ATOM     65  F   UNL A   1      43.392  34.342  37.122  1.00  0.00    -0.206 F 
ATOM     66  C   UNL A   1      40.170  35.182  38.546  1.00  0.00     0.006 A 
ENDBRANCH  42  59
ENDBRANCH  16  17
ENDBRANCH   9  11
ENDBRANCH   8   9
ENDBRANCH   7   8
ENDBRANCH   6   7
ENDBRANCH   5   6
ENDBRANCH   4   5
ENDBRANCH   3   4
ENDBRANCH   2   3
ENDBRANCH   1   2
BRANCH   1  67
ATOM     67  C   UNL A   1      41.636  25.848  27.843  1.00  0.00     0.188 C 
BRANCH  67  68
ATOM     68  O   UNL A   1      40.685  24.868  28.231  1.00  0.00    -0.376 OA
BRANCH  68  69
ATOM     69  C   UNL A   1      39.364  25.330  28.482  1.00  0.00     0.202 C 
BRANCH  69  70
ATOM     70  C   UNL A   1      38.250  24.874  27.528  1.00  0.00     0.261 C 
BRANCH  70  71
ATOM     71  O   UNL A   1      38.584  23.816  26.615  1.00  0.00    -0.460 OA
BRANCH  71  72
ATOM     72  C   UNL A   1      37.660  23.336  25.755  1.00  0.00     0.340 C 
ATOM     73  O   UNL A   1      36.813  23.986  25.165  1.00  0.00    -0.246 OA
BRANCH  72  74
ATOM     74  C   UNL A   1      38.003  21.906  25.489  1.00  0.00     0.083 A 
ATOM     75  C   UNL A   1      39.275  21.472  25.899  1.00  0.00     0.018 A 
ATOM     76  C   UNL A   1      37.055  20.978  24.993  1.00  0.00     0.055 A 
ATOM     77  C   UNL A   1      39.602  20.116  25.857  1.00  0.00     0.001 A 
ATOM     78  C   UNL A   1      37.422  19.622  24.938  1.00  0.00     0.027 A 
ATOM     79  C   UNL A   1      38.677  19.193  25.376  1.00  0.00     0.002 A 
BRANCH  76  80
ATOM     80  N   UNL A   1      35.771  21.395  24.591  1.00  0.00    -0.323 N 
ATOM     81  H   UNL A   1      35.722  22.217  24.051  1.00  0.00     0.170 HD
BRANCH  80  82
ATOM     82  C   UNL A   1      34.572  20.762  24.879  1.00  0.00     0.233 A 
ATOM     83  N   UNL A   1      34.408  19.476  24.625  1.00  0.00    -0.182 NA
ATOM     84  N   UNL A   1      33.630  21.567  25.352  1.00  0.00    -0.176 NA
ATOM     85  C   UNL A   1      33.199  19.039  24.922  1.00  0.00     0.228 A 
ATOM     86  C   UNL A   1      32.432  21.034  25.520  1.00  0.00     0.233 A 
ATOM     87  Cl  UNL A   1      32.901  17.383  24.627  1.00  0.00    -0.041 Cl
ATOM     88  N   UNL A   1      32.171  19.746  25.355  1.00  0.00    -0.182 NA
BRANCH  86  89
ATOM     89  N   UNL A   1      31.405  21.942  25.753  1.00  0.00    -0.324 N 
ATOM     90  H   UNL A   1      30.705  21.662  26.387  1.00  0.00     0.170 HD
BRANCH  89  91
ATOM     91  C   UNL A   1      31.260  23.205  25.186  1.00  0.00     0.041 A 
ATOM     92  C   UNL A   1      31.022  23.339  23.817  1.00  0.00     0.028 A 
ATOM     93  C   UNL A   1      31.207  24.341  25.996  1.00  0.00     0.028 A 
ATOM     94  C   UNL A   1      30.692  24.585  23.275  1.00  0.00     0.028 A 
ATOM     95  C   UNL A   1      30.932  25.591  25.452  1.00  0.00     0.028 A 
ATOM     96  C   UNL A   1      30.646  25.721  24.092  1.00  0.00     0.044 A 
BRANCH  96  97
ATOM     97  N   UNL A   1      30.236  26.980  23.570  1.00  0.00    -0.308 N 
ATOM     98  C   UNL A   1      31.225  27.711  22.769  1.00  0.00     0.154 C 
ATOM     99  C   UNL A   1      28.878  27.317  23.509  1.00  0.00     0.253 C 
ATOM    100  C   UNL A   1      30.795  29.134  22.440  1.00  0.00     0.183 C 
ATOM    101  C   UNL A   1      28.549  28.613  22.752  1.00  0.00     0.260 C 
ATOM    102  O   UNL A   1      27.978  26.705  24.088  1.00  0.00    -0.272 OA
ATOM    103  O   UNL A   1      29.507  29.109  21.832  1.00  0.00    -0.370 OA
ENDBRANCH  96  97
ENDBRANCH  89  91
ENDBRANCH  86  89
ENDBRANCH  80  82
ENDBRANCH  76  80
ENDBRANCH  72  74
ENDBRANCH  71  72
ENDBRANCH  70  71
ENDBRANCH  69  70
ENDBRANCH  68  69
ENDBRANCH  67  68
ENDBRANCH   1  67
TORSDOF 25
ENDMDL
