MODEL 1
REMARK VINA RESULT:     -10.2      0.000      0.000
REMARK SMILES Cc1ccccc1OCC(=O)N1C[C@@H](O)C[C@H]1C(=O)OCCOCCOCCOCCOC(=O)c1ccc(-c2c3nc(c(-c4c(F)cccc4F)c4ccc([nH]4)c(-c4c(F)cccc4F)c4nc(c(-c5c(F)cccc5F)c5ccc2[nH]5)C=C4)C=C3)cc1
REMARK SMILES IDX 25 1 24 2 23 3 22 4 21 5 20 6 18 7 19 8 17 9 12 10 13 11
REMARK SMILES IDX 14 12 16 13 10 14 11 15 9 16 8 17 7 18 1 19 2 20 3 21 4 22
REMARK SMILES IDX 6 23 5 24 15 25 26 27 27 28 28 29 29 30 30 31 31 32 32 33
REMARK SMILES IDX 33 34 34 35 35 36 36 37 88 38 37 39 87 40 38 41 39 42 40 43
REMARK SMILES IDX 81 44 41 45 86 46 80 47 82 48 42 49 85 50 79 51 78 52 43 54
REMARK SMILES IDX 69 55 52 56 68 57 53 58 56 59 67 60 83 61 54 62 55 63 66 65
REMARK SMILES IDX 84 66 57 67 44 68 45 69 50 70 46 71 47 72 49 73 51 74 48 75
REMARK SMILES IDX 70 76 71 77 76 78 72 79 73 80 75 81 77 82 74 83 58 84 59 85
REMARK SMILES IDX 64 86 60 87 61 88 63 89 65 90 62 91
REMARK H PARENT 15 26 82 53 56 64
REMARK Flexibility Score: inf
ROOT
ATOM      1  C   UNL A   1      38.311  21.066  25.654  1.00  0.00     0.188 C 
ENDROOT
BRANCH   1   2
ATOM      2  C   UNL A   1      36.834  21.470  25.456  1.00  0.00     0.188 C 
BRANCH   2   3
ATOM      3  O   UNL A   1      36.325  21.861  24.188  1.00  0.00    -0.376 OA
BRANCH   3   4
ATOM      4  C   UNL A   1      35.714  23.129  24.104  1.00  0.00     0.202 C 
BRANCH   4   5
ATOM      5  C   UNL A   1      35.133  23.674  25.398  1.00  0.00     0.261 C 
BRANCH   5   6
ATOM      6  O   UNL A   1      33.775  24.121  25.257  1.00  0.00    -0.462 OA
BRANCH   6   7
ATOM      7  C   UNL A   1      33.593  25.432  24.979  1.00  0.00     0.329 C 
ATOM      8  O   UNL A   1      34.508  26.226  24.759  1.00  0.00    -0.250 OA
BRANCH   7   9
ATOM      9  C   UNL A   1      32.129  25.878  25.127  1.00  0.00     0.198 C 
ATOM     10  N   UNL A   1      31.129  25.691  24.042  1.00  0.00    -0.323 N 
ATOM     11  C   UNL A   1      29.897  25.125  24.570  1.00  0.00     0.152 C 
ATOM     12  C   UNL A   1      30.008  25.340  26.078  1.00  0.00     0.136 C 
ATOM     13  C   UNL A   1      31.497  25.154  26.328  1.00  0.00     0.070 C 
BRANCH  10  14
ATOM     14  C   UNL A   1      31.266  26.358  22.845  1.00  0.00     0.261 C 
ATOM     15  O   UNL A   1      31.449  25.716  21.804  1.00  0.00    -0.271 OA
BRANCH  14  16
ATOM     16  C   UNL A   1      31.256  27.910  22.758  1.00  0.00     0.329 C 
BRANCH  16  17
ATOM     17  O   UNL A   1      30.405  28.625  21.903  1.00  0.00    -0.484 OA
BRANCH  17  18
ATOM     18  C   UNL A   1      29.374  29.444  22.241  1.00  0.00     0.122 A 
ATOM     19  C   UNL A   1      27.681  27.893  23.421  1.00  0.00     0.048 C 
ATOM     20  C   UNL A   1      28.215  29.228  22.996  1.00  0.00    -0.009 A 
ATOM     21  C   UNL A   1      27.446  30.355  23.386  1.00  0.00     0.007 A 
ATOM     22  C   UNL A   1      27.720  31.637  22.915  1.00  0.00     0.001 A 
ATOM     23  C   UNL A   1      29.592  30.735  21.721  1.00  0.00     0.047 A 
ATOM     24  C   UNL A   1      28.768  31.817  22.030  1.00  0.00     0.004 A 
ENDBRANCH  17  18
ENDBRANCH  16  17
ENDBRANCH  14  16
ENDBRANCH  10  14
BRANCH  12  25
ATOM     25  O   UNL A   1      29.211  24.453  26.836  1.00  0.00    -0.391 OA
ATOM     26  H   UNL A   1      28.792  23.809  26.244  1.00  0.00     0.211 HD
ENDBRANCH  12  25
ENDBRANCH   7   9
ENDBRANCH   6   7
ENDBRANCH   5   6
ENDBRANCH   4   5
ENDBRANCH   3   4
ENDBRANCH   2   3
ENDBRANCH   1   2
BRANCH   1  27
ATOM     27  O   UNL A   1      39.190  22.083  26.111  1.00  0.00    -0.377 OA
BRANCH  27  28
ATOM     28  C   UNL A   1      40.559  21.718  26.063  1.00  0.00     0.188 C 
BRANCH  28  29
ATOM     29  C   UNL A   1      40.774  20.271  26.463  1.00  0.00     0.188 C 
BRANCH  29  30
ATOM     30  O   UNL A   1      41.715  19.676  25.591  1.00  0.00    -0.376 OA
BRANCH  30  31
ATOM     31  C   UNL A   1      42.521  18.640  26.111  1.00  0.00     0.202 C 
BRANCH  31  32
ATOM     32  C   UNL A   1      43.863  18.494  25.390  1.00  0.00     0.261 C 
BRANCH  32  33
ATOM     33  O   UNL A   1      44.093  19.653  24.556  1.00  0.00    -0.460 OA
BRANCH  33  34
ATOM     34  C   UNL A   1      44.930  20.601  25.071  1.00  0.00     0.338 C 
ATOM     35  O   UNL A   1      46.062  20.389  25.475  1.00  0.00    -0.246 OA
BRANCH  34  36
ATOM     36  C   UNL A   1      44.159  21.848  25.397  1.00  0.00     0.060 A 
ATOM     37  C   UNL A   1      43.945  22.825  24.403  1.00  0.00     0.016 A 
ATOM     38  C   UNL A   1      44.043  22.208  26.732  1.00  0.00     0.016 A 
ATOM     39  C   UNL A   1      43.775  24.185  24.748  1.00  0.00     0.010 A 
ATOM     40  C   UNL A   1      44.003  23.553  27.050  1.00  0.00     0.010 A 
ATOM     41  C   UNL A   1      43.875  24.571  26.084  1.00  0.00    -0.014 A 
BRANCH  41  42
ATOM     42  C   UNL A   1      43.972  25.950  26.635  1.00  0.00     0.031 A 
ATOM     43  C   UNL A   1      42.692  26.744  26.770  1.00  0.00     0.074 A 
ATOM     44  C   UNL A   1      45.056  26.335  27.361  1.00  0.00     0.049 A 
ATOM     45  N   UNL A   1      42.550  27.831  27.451  1.00  0.00    -0.248 NA
ATOM     46  C   UNL A   1      41.427  26.346  26.140  1.00  0.00     0.031 C 
ATOM     47  C   UNL A   1      45.031  27.173  28.566  1.00  0.00     0.029 A 
ATOM     48  N   UNL A   1      46.408  26.027  27.253  1.00  0.00    -0.354 N 
ATOM     49  C   UNL A   1      41.203  28.079  27.624  1.00  0.00     0.074 A 
ATOM     50  C   UNL A   1      40.548  27.167  26.726  1.00  0.00     0.031 C 
ATOM     51  C   UNL A   1      46.262  27.366  29.051  1.00  0.00     0.029 A 
ATOM     52  C   UNL A   1      47.161  26.944  28.013  1.00  0.00     0.049 A 
ATOM     53  H   UNL A   1      46.781  25.283  26.725  1.00  0.00     0.167 HD
ATOM     54  C   UNL A   1      40.809  28.948  28.603  1.00  0.00     0.037 A 
ATOM     55  C   UNL A   1      48.024  27.803  27.395  1.00  0.00     0.037 A 
ATOM     56  C   UNL A   1      41.941  29.754  29.095  1.00  0.00     0.049 A 
ATOM     57  C   UNL A   1      47.529  29.240  27.429  1.00  0.00     0.074 A 
ATOM     58  C   UNL A   1      42.463  30.077  30.337  1.00  0.00     0.029 A 
ATOM     59  N   UNL A   1      42.836  30.285  28.165  1.00  0.00    -0.354 N 
ATOM     60  N   UNL A   1      46.291  29.564  27.724  1.00  0.00    -0.248 NA
ATOM     61  C   UNL A   1      48.359  30.426  27.235  1.00  0.00     0.031 C 
ATOM     62  C   UNL A   1      43.761  30.633  30.137  1.00  0.00     0.029 A 
ATOM     63  C   UNL A   1      43.962  30.787  28.775  1.00  0.00     0.049 A 
ATOM     64  H   UNL A   1      42.682  30.299  27.193  1.00  0.00     0.167 HD
ATOM     65  C   UNL A   1      46.141  30.918  27.746  1.00  0.00     0.074 A 
ATOM     66  C   UNL A   1      47.468  31.416  27.438  1.00  0.00     0.031 C 
ATOM     67  C   UNL A   1      44.943  31.526  27.994  1.00  0.00     0.037 A 
BRANCH  54  68
ATOM     68  C   UNL A   1      39.426  28.984  29.256  1.00  0.00     0.057 A 
ATOM     69  C   UNL A   1      38.330  29.570  28.585  1.00  0.00     0.134 A 
ATOM     70  C   UNL A   1      39.134  28.597  30.582  1.00  0.00     0.134 A 
ATOM     71  F   UNL A   1      38.428  29.975  27.313  1.00  0.00    -0.206 F 
ATOM     72  C   UNL A   1      37.077  29.784  29.186  1.00  0.00     0.040 A 
ATOM     73  C   UNL A   1      37.866  28.750  31.174  1.00  0.00     0.040 A 
ATOM     74  F   UNL A   1      40.067  28.097  31.400  1.00  0.00    -0.206 F 
ATOM     75  C   UNL A   1      36.836  29.365  30.484  1.00  0.00     0.006 A 
ENDBRANCH  54  68
BRANCH  55  76
ATOM     76  C   UNL A   1      48.876  27.054  26.414  1.00  0.00     0.057 A 
ATOM     77  C   UNL A   1      48.613  27.411  25.072  1.00  0.00     0.134 A 
ATOM     78  C   UNL A   1      50.214  26.777  26.734  1.00  0.00     0.134 A 
ATOM     79  F   UNL A   1      47.348  27.643  24.680  1.00  0.00    -0.206 F 
ATOM     80  C   UNL A   1      49.639  27.784  24.195  1.00  0.00     0.040 A 
ATOM     81  C   UNL A   1      51.251  27.126  25.850  1.00  0.00     0.040 A 
ATOM     82  F   UNL A   1      50.551  26.399  27.975  1.00  0.00    -0.206 F 
ATOM     83  C   UNL A   1      50.964  27.700  24.610  1.00  0.00     0.006 A 
ENDBRANCH  55  76
BRANCH  67  84
ATOM     84  C   UNL A   1      44.558  32.913  27.527  1.00  0.00     0.057 A 
ATOM     85  C   UNL A   1      44.151  33.200  26.217  1.00  0.00     0.134 A 
ATOM     86  C   UNL A   1      44.363  33.966  28.455  1.00  0.00     0.134 A 
ATOM     87  F   UNL A   1      44.158  32.269  25.255  1.00  0.00    -0.206 F 
ATOM     88  C   UNL A   1      43.641  34.449  25.845  1.00  0.00     0.040 A 
ATOM     89  C   UNL A   1      43.799  35.196  28.106  1.00  0.00     0.040 A 
ATOM     90  F   UNL A   1      44.669  33.843  29.754  1.00  0.00    -0.206 F 
ATOM     91  C   UNL A   1      43.449  35.447  26.791  1.00  0.00     0.006 A 
ENDBRANCH  67  84
ENDBRANCH  41  42
ENDBRANCH  34  36
ENDBRANCH  33  34
ENDBRANCH  32  33
ENDBRANCH  31  32
ENDBRANCH  30  31
ENDBRANCH  29  30
ENDBRANCH  28  29
ENDBRANCH  27  28
ENDBRANCH   1  27
TORSDOF 25
ENDMDL
MODEL 2
REMARK VINA RESULT:      -9.9      1.749      2.292
REMARK SMILES Cc1ccccc1OCC(=O)N1C[C@@H](O)C[C@H]1C(=O)OCCOCCOCCOCCOC(=O)c1ccc(-c2c3nc(c(-c4c(F)cccc4F)c4ccc([nH]4)c(-c4c(F)cccc4F)c4nc(c(-c5c(F)cccc5F)c5ccc2[nH]5)C=C4)C=C3)cc1
REMARK SMILES IDX 25 1 24 2 23 3 22 4 21 5 20 6 18 7 19 8 17 9 12 10 13 11
REMARK SMILES IDX 14 12 16 13 10 14 11 15 9 16 8 17 7 18 1 19 2 20 3 21 4 22
REMARK SMILES IDX 6 23 5 24 15 25 26 27 27 28 28 29 29 30 30 31 31 32 32 33
REMARK SMILES IDX 33 34 34 35 35 36 36 37 88 38 37 39 87 40 38 41 39 42 40 43
REMARK SMILES IDX 81 44 41 45 86 46 80 47 82 48 42 49 85 50 79 51 78 52 43 54
REMARK SMILES IDX 69 55 52 56 68 57 53 58 56 59 67 60 83 61 54 62 55 63 66 65
REMARK SMILES IDX 84 66 57 67 44 68 45 69 50 70 46 71 47 72 49 73 51 74 48 75
REMARK SMILES IDX 70 76 71 77 76 78 72 79 73 80 75 81 77 82 74 83 58 84 59 85
REMARK SMILES IDX 64 86 60 87 61 88 63 89 65 90 62 91
REMARK H PARENT 15 26 82 53 56 64
REMARK Flexibility Score: inf
ROOT
ATOM      1  C   UNL A   1      39.393  20.864  26.153  1.00  0.00     0.188 C 
ENDROOT
BRANCH   1   2
ATOM      2  C   UNL A   1      38.403  21.817  25.448  1.00  0.00     0.188 C 
BRANCH   2   3
ATOM      3  O   UNL A   1      38.329  23.199  25.773  1.00  0.00    -0.376 OA
BRANCH   3   4
ATOM      4  C   UNL A   1      37.069  23.701  26.157  1.00  0.00     0.202 C 
BRANCH   4   5
ATOM      5  C   UNL A   1      35.884  22.778  25.920  1.00  0.00     0.261 C 
BRANCH   5   6
ATOM      6  O   UNL A   1      35.085  23.172  24.794  1.00  0.00    -0.462 OA
BRANCH   6   7
ATOM      7  C   UNL A   1      33.885  23.732  25.068  1.00  0.00     0.329 C 
ATOM      8  O   UNL A   1      33.637  24.375  26.089  1.00  0.00    -0.250 OA
BRANCH   7   9
ATOM      9  C   UNL A   1      32.798  23.346  24.050  1.00  0.00     0.198 C 
ATOM     10  N   UNL A   1      32.898  23.703  22.610  1.00  0.00    -0.323 N 
ATOM     11  C   UNL A   1      32.588  22.553  21.773  1.00  0.00     0.152 C 
ATOM     12  C   UNL A   1      31.899  21.577  22.725  1.00  0.00     0.136 C 
ATOM     13  C   UNL A   1      32.638  21.817  24.033  1.00  0.00     0.070 C 
BRANCH  10  14
ATOM     14  C   UNL A   1      32.874  25.022  22.215  1.00  0.00     0.261 C 
ATOM     15  O   UNL A   1      33.922  25.573  21.860  1.00  0.00    -0.271 OA
BRANCH  14  16
ATOM     16  C   UNL A   1      31.574  25.872  22.251  1.00  0.00     0.329 C 
BRANCH  16  17
ATOM     17  O   UNL A   1      31.464  27.077  22.960  1.00  0.00    -0.484 OA
BRANCH  17  18
ATOM     18  C   UNL A   1      31.916  27.358  24.210  1.00  0.00     0.122 A 
ATOM     19  C   UNL A   1      34.118  28.647  23.823  1.00  0.00     0.048 C 
ATOM     20  C   UNL A   1      32.992  28.129  24.666  1.00  0.00    -0.009 A 
ATOM     21  C   UNL A   1      33.060  28.440  26.048  1.00  0.00     0.007 A 
ATOM     22  C   UNL A   1      32.186  27.878  26.977  1.00  0.00     0.001 A 
ATOM     23  C   UNL A   1      31.087  26.748  25.172  1.00  0.00     0.047 A 
ATOM     24  C   UNL A   1      31.228  26.981  26.540  1.00  0.00     0.004 A 
ENDBRANCH  17  18
ENDBRANCH  16  17
ENDBRANCH  14  16
ENDBRANCH  10  14
BRANCH  12  25
ATOM     25  O   UNL A   1      31.962  20.232  22.299  1.00  0.00    -0.391 OA
ATOM     26  H   UNL A   1      32.889  19.980  22.159  1.00  0.00     0.211 HD
ENDBRANCH  12  25
ENDBRANCH   7   9
ENDBRANCH   6   7
ENDBRANCH   5   6
ENDBRANCH   4   5
ENDBRANCH   3   4
ENDBRANCH   2   3
ENDBRANCH   1   2
BRANCH   1  27
ATOM     27  O   UNL A   1      40.271  21.451  27.101  1.00  0.00    -0.377 OA
BRANCH  27  28
ATOM     28  C   UNL A   1      41.588  20.926  27.060  1.00  0.00     0.188 C 
BRANCH  28  29
ATOM     29  C   UNL A   1      41.620  19.520  26.494  1.00  0.00     0.188 C 
BRANCH  29  30
ATOM     30  O   UNL A   1      42.489  19.481  25.379  1.00  0.00    -0.376 OA
BRANCH  30  31
ATOM     31  C   UNL A   1      43.584  18.591  25.437  1.00  0.00     0.202 C 
BRANCH  31  32
ATOM     32  C   UNL A   1      44.622  18.831  24.339  1.00  0.00     0.261 C 
BRANCH  32  33
ATOM     33  O   UNL A   1      44.566  20.213  23.914  1.00  0.00    -0.460 OA
BRANCH  33  34
ATOM     34  C   UNL A   1      45.398  21.073  24.571  1.00  0.00     0.338 C 
ATOM     35  O   UNL A   1      46.575  20.860  24.814  1.00  0.00    -0.246 OA
BRANCH  34  36
ATOM     36  C   UNL A   1      44.597  22.142  25.257  1.00  0.00     0.060 A 
ATOM     37  C   UNL A   1      43.815  23.035  24.495  1.00  0.00     0.016 A 
ATOM     38  C   UNL A   1      44.960  22.498  26.548  1.00  0.00     0.016 A 
ATOM     39  C   UNL A   1      43.537  24.338  24.967  1.00  0.00     0.010 A 
ATOM     40  C   UNL A   1      44.791  23.812  26.943  1.00  0.00     0.010 A 
ATOM     41  C   UNL A   1      44.089  24.763  26.175  1.00  0.00    -0.014 A 
BRANCH  41  42
ATOM     42  C   UNL A   1      44.129  26.143  26.729  1.00  0.00     0.031 A 
ATOM     43  C   UNL A   1      42.832  26.919  26.776  1.00  0.00     0.074 A 
ATOM     44  C   UNL A   1      45.156  26.544  27.528  1.00  0.00     0.049 A 
ATOM     45  N   UNL A   1      42.629  28.005  27.445  1.00  0.00    -0.248 NA
ATOM     46  C   UNL A   1      41.619  26.504  26.063  1.00  0.00     0.031 C 
ATOM     47  C   UNL A   1      45.037  27.381  28.727  1.00  0.00     0.029 A 
ATOM     48  N   UNL A   1      46.516  26.254  27.512  1.00  0.00    -0.354 N 
ATOM     49  C   UNL A   1      41.270  28.234  27.526  1.00  0.00     0.074 A 
ATOM     50  C   UNL A   1      40.690  27.313  26.586  1.00  0.00     0.031 C 
ATOM     51  C   UNL A   1      46.230  27.591  29.294  1.00  0.00     0.029 A 
ATOM     52  C   UNL A   1      47.203  27.182  28.321  1.00  0.00     0.049 A 
ATOM     53  H   UNL A   1      46.935  25.516  27.012  1.00  0.00     0.167 HD
ATOM     54  C   UNL A   1      40.798  29.098  28.475  1.00  0.00     0.037 A 
ATOM     55  C   UNL A   1      48.093  28.052  27.762  1.00  0.00     0.037 A 
ATOM     56  C   UNL A   1      41.883  29.920  29.041  1.00  0.00     0.049 A 
ATOM     57  C   UNL A   1      47.577  29.483  27.761  1.00  0.00     0.074 A 
ATOM     58  C   UNL A   1      42.314  30.250  30.316  1.00  0.00     0.029 A 
ATOM     59  N   UNL A   1      42.832  30.463  28.174  1.00  0.00    -0.354 N 
ATOM     60  N   UNL A   1      46.318  29.789  27.970  1.00  0.00    -0.248 NA
ATOM     61  C   UNL A   1      48.403  30.680  27.622  1.00  0.00     0.031 C 
ATOM     62  C   UNL A   1      43.615  30.824  30.204  1.00  0.00     0.029 A 
ATOM     63  C   UNL A   1      43.906  30.980  28.859  1.00  0.00     0.049 A 
ATOM     64  H   UNL A   1      42.744  30.474  27.194  1.00  0.00     0.167 HD
ATOM     65  C   UNL A   1      46.148  31.142  27.980  1.00  0.00     0.074 A 
ATOM     66  C   UNL A   1      47.486  31.658  27.763  1.00  0.00     0.031 C 
ATOM     67  C   UNL A   1      44.928  31.733  28.146  1.00  0.00     0.037 A 
BRANCH  54  68
ATOM     68  C   UNL A   1      39.374  29.114  29.032  1.00  0.00     0.057 A 
ATOM     69  C   UNL A   1      38.300  29.586  28.245  1.00  0.00     0.134 A 
ATOM     70  C   UNL A   1      39.010  28.821  30.364  1.00  0.00     0.134 A 
ATOM     71  F   UNL A   1      38.466  29.891  26.952  1.00  0.00    -0.206 F 
ATOM     72  C   UNL A   1      37.000  29.783  28.743  1.00  0.00     0.040 A 
ATOM     73  C   UNL A   1      37.699  28.956  30.859  1.00  0.00     0.040 A 
ATOM     74  F   UNL A   1      39.907  28.438  31.280  1.00  0.00    -0.206 F 
ATOM     75  C   UNL A   1      36.691  29.459  30.054  1.00  0.00     0.006 A 
ENDBRANCH  54  68
BRANCH  55  76
ATOM     76  C   UNL A   1      49.021  27.315  26.842  1.00  0.00     0.057 A 
ATOM     77  C   UNL A   1      48.854  27.678  25.486  1.00  0.00     0.134 A 
ATOM     78  C   UNL A   1      50.334  27.047  27.258  1.00  0.00     0.134 A 
ATOM     79  F   UNL A   1      47.619  27.902  25.005  1.00  0.00    -0.206 F 
ATOM     80  C   UNL A   1      49.937  28.063  24.689  1.00  0.00     0.040 A 
ATOM     81  C   UNL A   1      51.430  27.409  26.453  1.00  0.00     0.040 A 
ATOM     82  F   UNL A   1      50.583  26.665  28.518  1.00  0.00    -0.206 F 
ATOM     83  C   UNL A   1      51.229  27.987  25.198  1.00  0.00     0.006 A 
ENDBRANCH  55  76
BRANCH  67  84
ATOM     84  C   UNL A   1      44.556  33.114  27.652  1.00  0.00     0.057 A 
ATOM     85  C   UNL A   1      44.124  33.375  26.345  1.00  0.00     0.134 A 
ATOM     86  C   UNL A   1      44.401  34.194  28.556  1.00  0.00     0.134 A 
ATOM     87  F   UNL A   1      44.093  32.420  25.407  1.00  0.00    -0.206 F 
ATOM     88  C   UNL A   1      43.627  34.624  25.953  1.00  0.00     0.040 A 
ATOM     89  C   UNL A   1      43.851  35.424  28.189  1.00  0.00     0.040 A 
ATOM     90  F   UNL A   1      44.735  34.098  29.851  1.00  0.00    -0.206 F 
ATOM     91  C   UNL A   1      43.475  35.648  26.876  1.00  0.00     0.006 A 
ENDBRANCH  67  84
ENDBRANCH  41  42
ENDBRANCH  34  36
ENDBRANCH  33  34
ENDBRANCH  32  33
ENDBRANCH  31  32
ENDBRANCH  30  31
ENDBRANCH  29  30
ENDBRANCH  28  29
ENDBRANCH  27  28
ENDBRANCH   1  27
TORSDOF 25
ENDMDL
MODEL 3
REMARK VINA RESULT:      -9.6      1.675      2.877
REMARK SMILES Cc1ccccc1OCC(=O)N1C[C@@H](O)C[C@H]1C(=O)OCCOCCOCCOCCOC(=O)c1ccc(-c2c3nc(c(-c4c(F)cccc4F)c4ccc([nH]4)c(-c4c(F)cccc4F)c4nc(c(-c5c(F)cccc5F)c5ccc2[nH]5)C=C4)C=C3)cc1
REMARK SMILES IDX 25 1 24 2 23 3 22 4 21 5 20 6 18 7 19 8 17 9 12 10 13 11
REMARK SMILES IDX 14 12 16 13 10 14 11 15 9 16 8 17 7 18 1 19 2 20 3 21 4 22
REMARK SMILES IDX 6 23 5 24 15 25 26 27 27 28 28 29 29 30 30 31 31 32 32 33
REMARK SMILES IDX 33 34 34 35 35 36 36 37 88 38 37 39 87 40 38 41 39 42 40 43
REMARK SMILES IDX 81 44 41 45 86 46 80 47 82 48 42 49 85 50 79 51 78 52 43 54
REMARK SMILES IDX 69 55 52 56 68 57 53 58 56 59 67 60 83 61 54 62 55 63 66 65
REMARK SMILES IDX 84 66 57 67 44 68 45 69 50 70 46 71 47 72 49 73 51 74 48 75
REMARK SMILES IDX 70 76 71 77 76 78 72 79 73 80 75 81 77 82 74 83 58 84 59 85
REMARK SMILES IDX 64 86 60 87 61 88 63 89 65 90 62 91
REMARK H PARENT 15 26 82 53 56 64
REMARK Flexibility Score: inf
ROOT
ATOM      1  C   UNL A   1      33.055  20.193  24.532  1.00  0.00     0.188 C 
ENDROOT
BRANCH   1   2
ATOM      2  C   UNL A   1      32.310  20.872  25.702  1.00  0.00     0.188 C 
BRANCH   2   3
ATOM      3  O   UNL A   1      31.022  21.449  25.539  1.00  0.00    -0.376 OA
BRANCH   3   4
ATOM      4  C   UNL A   1      30.899  22.829  25.799  1.00  0.00     0.202 C 
BRANCH   4   5
ATOM      5  C   UNL A   1      31.987  23.442  26.666  1.00  0.00     0.261 C 
BRANCH   5   6
ATOM      6  O   UNL A   1      32.623  24.573  26.049  1.00  0.00    -0.462 OA
BRANCH   6   7
ATOM      7  C   UNL A   1      31.902  25.715  25.987  1.00  0.00     0.329 C 
ATOM      8  O   UNL A   1      31.102  26.078  26.851  1.00  0.00    -0.250 OA
BRANCH   7   9
ATOM      9  C   UNL A   1      32.053  26.446  24.642  1.00  0.00     0.198 C 
ATOM     10  N   UNL A   1      33.095  27.481  24.415  1.00  0.00    -0.323 N 
ATOM     11  C   UNL A   1      33.784  27.249  23.154  1.00  0.00     0.152 C 
ATOM     12  C   UNL A   1      32.871  26.278  22.407  1.00  0.00     0.136 C 
ATOM     13  C   UNL A   1      32.319  25.416  23.532  1.00  0.00     0.070 C 
BRANCH  10  14
ATOM     14  C   UNL A   1      33.066  28.666  25.115  1.00  0.00     0.261 C 
ATOM     15  O   UNL A   1      34.030  28.984  25.821  1.00  0.00    -0.271 OA
BRANCH  14  16
ATOM     16  C   UNL A   1      31.828  29.607  25.096  1.00  0.00     0.329 C 
BRANCH  16  17
ATOM     17  O   UNL A   1      31.136  29.941  23.924  1.00  0.00    -0.484 OA
BRANCH  17  18
ATOM     18  C   UNL A   1      29.814  29.779  23.656  1.00  0.00     0.122 A 
ATOM     19  C   UNL A   1      28.863  32.178  23.633  1.00  0.00     0.048 C 
ATOM     20  C   UNL A   1      28.790  30.699  23.403  1.00  0.00    -0.009 A 
ATOM     21  C   UNL A   1      27.553  30.211  22.906  1.00  0.00     0.007 A 
ATOM     22  C   UNL A   1      27.280  28.848  22.813  1.00  0.00     0.001 A 
ATOM     23  C   UNL A   1      29.493  28.408  23.621  1.00  0.00     0.047 A 
ATOM     24  C   UNL A   1      28.238  27.941  23.228  1.00  0.00     0.004 A 
ENDBRANCH  17  18
ENDBRANCH  16  17
ENDBRANCH  14  16
ENDBRANCH  10  14
BRANCH  12  25
ATOM     25  O   UNL A   1      33.538  25.525  21.416  1.00  0.00    -0.391 OA
ATOM     26  H   UNL A   1      34.492  25.537  21.588  1.00  0.00     0.211 HD
ENDBRANCH  12  25
ENDBRANCH   7   9
ENDBRANCH   6   7
ENDBRANCH   5   6
ENDBRANCH   4   5
ENDBRANCH   3   4
ENDBRANCH   2   3
ENDBRANCH   1   2
BRANCH   1  27
ATOM     27  O   UNL A   1      34.351  20.689  24.232  1.00  0.00    -0.377 OA
BRANCH  27  28
ATOM     28  C   UNL A   1      35.383  20.092  25.001  1.00  0.00     0.188 C 
BRANCH  28  29
ATOM     29  C   UNL A   1      36.651  20.923  24.986  1.00  0.00     0.188 C 
BRANCH  29  30
ATOM     30  O   UNL A   1      37.771  20.068  24.868  1.00  0.00    -0.376 OA
BRANCH  30  31
ATOM     31  C   UNL A   1      38.996  20.520  25.407  1.00  0.00     0.202 C 
BRANCH  31  32
ATOM     32  C   UNL A   1      39.934  19.384  25.821  1.00  0.00     0.261 C 
BRANCH  32  33
ATOM     33  O   UNL A   1      41.305  19.779  25.588  1.00  0.00    -0.460 OA
BRANCH  33  34
ATOM     34  C   UNL A   1      41.913  20.454  26.607  1.00  0.00     0.338 C 
ATOM     35  O   UNL A   1      42.320  19.945  27.640  1.00  0.00    -0.246 OA
BRANCH  34  36
ATOM     36  C   UNL A   1      41.696  21.932  26.450  1.00  0.00     0.060 A 
ATOM     37  C   UNL A   1      42.435  22.654  25.489  1.00  0.00     0.016 A 
ATOM     38  C   UNL A   1      41.108  22.618  27.502  1.00  0.00     0.016 A 
ATOM     39  C   UNL A   1      42.714  24.027  25.672  1.00  0.00     0.010 A 
ATOM     40  C   UNL A   1      41.494  23.926  27.734  1.00  0.00     0.010 A 
ATOM     41  C   UNL A   1      42.302  24.661  26.844  1.00  0.00    -0.014 A 
BRANCH  41  42
ATOM     42  C   UNL A   1      42.692  26.007  27.345  1.00  0.00     0.031 A 
ATOM     43  C   UNL A   1      41.584  26.976  27.689  1.00  0.00     0.074 A 
ATOM     44  C   UNL A   1      43.931  26.225  27.862  1.00  0.00     0.049 A 
ATOM     45  N   UNL A   1      41.723  28.067  28.366  1.00  0.00    -0.248 NA
ATOM     46  C   UNL A   1      40.184  26.771  27.299  1.00  0.00     0.031 C 
ATOM     47  C   UNL A   1      44.240  27.047  29.038  1.00  0.00     0.029 A 
ATOM     48  N   UNL A   1      45.184  25.724  27.523  1.00  0.00    -0.354 N 
ATOM     49  C   UNL A   1      40.477  28.507  28.768  1.00  0.00     0.074 A 
ATOM     50  C   UNL A   1      39.550  27.707  28.015  1.00  0.00     0.031 C 
ATOM     51  C   UNL A   1      45.553  27.055  29.295  1.00  0.00     0.029 A 
ATOM     52  C   UNL A   1      46.184  26.516  28.124  1.00  0.00     0.049 A 
ATOM     53  H   UNL A   1      45.347  24.939  26.951  1.00  0.00     0.167 HD
ATOM     54  C   UNL A   1      40.392  29.415  29.786  1.00  0.00     0.037 A 
ATOM     55  C   UNL A   1      47.038  27.246  27.348  1.00  0.00     0.037 A 
ATOM     56  C   UNL A   1      41.697  30.045  30.057  1.00  0.00     0.049 A 
ATOM     57  C   UNL A   1      46.770  28.740  27.444  1.00  0.00     0.074 A 
ATOM     58  C   UNL A   1      42.471  30.278  31.182  1.00  0.00     0.029 A 
ATOM     59  N   UNL A   1      42.481  30.448  28.975  1.00  0.00    -0.354 N 
ATOM     60  N   UNL A   1      45.663  29.237  27.946  1.00  0.00    -0.248 NA
ATOM     61  C   UNL A   1      47.715  29.794  27.086  1.00  0.00     0.031 C 
ATOM     62  C   UNL A   1      43.780  30.642  30.748  1.00  0.00     0.029 A 
ATOM     63  C   UNL A   1      43.757  30.776  29.369  1.00  0.00     0.049 A 
ATOM     64  H   UNL A   1      42.161  30.492  28.045  1.00  0.00     0.167 HD
ATOM     65  C   UNL A   1      45.716  30.599  27.970  1.00  0.00     0.074 A 
ATOM     66  C   UNL A   1      47.026  30.902  27.425  1.00  0.00     0.031 C 
ATOM     67  C   UNL A   1      44.681  31.371  28.415  1.00  0.00     0.037 A 
BRANCH  54  68
ATOM     68  C   UNL A   1      39.166  29.646  30.671  1.00  0.00     0.057 A 
ATOM     69  C   UNL A   1      38.484  30.882  30.646  1.00  0.00     0.134 A 
ATOM     70  C   UNL A   1      38.693  28.761  31.664  1.00  0.00     0.134 A 
ATOM     71  F   UNL A   1      38.792  31.829  29.751  1.00  0.00    -0.206 F 
ATOM     72  C   UNL A   1      37.456  31.221  31.544  1.00  0.00     0.040 A 
ATOM     73  C   UNL A   1      37.624  29.064  32.530  1.00  0.00     0.040 A 
ATOM     74  F   UNL A   1      39.266  27.574  31.893  1.00  0.00    -0.206 F 
ATOM     75  C   UNL A   1      37.015  30.307  32.487  1.00  0.00     0.006 A 
ENDBRANCH  54  68
BRANCH  55  76
ATOM     76  C   UNL A   1      47.587  26.390  26.246  1.00  0.00     0.057 A 
ATOM     77  C   UNL A   1      47.164  26.807  24.963  1.00  0.00     0.134 A 
ATOM     78  C   UNL A   1      48.899  25.901  26.342  1.00  0.00     0.134 A 
ATOM     79  F   UNL A   1      45.905  27.241  24.786  1.00  0.00    -0.206 F 
ATOM     80  C   UNL A   1      48.076  27.029  23.925  1.00  0.00     0.040 A 
ATOM     81  C   UNL A   1      49.817  26.099  25.293  1.00  0.00     0.040 A 
ATOM     82  F   UNL A   1      49.374  25.453  27.512  1.00  0.00    -0.206 F 
ATOM     83  C   UNL A   1      49.422  26.731  24.113  1.00  0.00     0.006 A 
ENDBRANCH  55  76
BRANCH  67  84
ATOM     84  C   UNL A   1      44.424  32.803  27.998  1.00  0.00     0.057 A 
ATOM     85  C   UNL A   1      44.692  33.906  28.821  1.00  0.00     0.134 A 
ATOM     86  C   UNL A   1      44.112  33.126  26.654  1.00  0.00     0.134 A 
ATOM     87  F   UNL A   1      45.119  33.759  30.081  1.00  0.00    -0.206 F 
ATOM     88  C   UNL A   1      44.606  35.225  28.361  1.00  0.00     0.040 A 
ATOM     89  C   UNL A   1      44.082  34.437  26.171  1.00  0.00     0.040 A 
ATOM     90  F   UNL A   1      43.862  32.187  25.731  1.00  0.00    -0.206 F 
ATOM     91  C   UNL A   1      44.314  35.495  27.032  1.00  0.00     0.006 A 
ENDBRANCH  67  84
ENDBRANCH  41  42
ENDBRANCH  34  36
ENDBRANCH  33  34
ENDBRANCH  32  33
ENDBRANCH  31  32
ENDBRANCH  30  31
ENDBRANCH  29  30
ENDBRANCH  28  29
ENDBRANCH  27  28
ENDBRANCH   1  27
TORSDOF 25
ENDMDL
