MODEL 1
REMARK VINA RESULT:     -10.8      0.000      0.000
REMARK SMILES C[NH+]1CCC(NC(=O)N[C@@H]2C=C[C@H](C(=O)OCCOCCOCCOCCOC(=O)c3ccc(-c4c5nc(c(-c6c(F)cccc6F)c6ccc([nH]6)c(-c6c(F)cccc6F)c6nc(c(-c7c(F)cccc7F)c7ccc4[nH]7)C=C6)C=C5)cc3)C2)CC1
REMARK SMILES IDX 22 1 21 2 20 3 19 4 18 5 17 6 16 7 14 8 15 9 13 10 10 11
REMARK SMILES IDX 11 12 85 13 12 14 9 15 6 16 7 17 8 19 5 21 1 22 2 23 3 24
REMARK SMILES IDX 87 25 4 27 86 28 23 29 24 30 25 31 26 32 27 33 28 34 29 35
REMARK SMILES IDX 30 36 31 37 32 38 84 39 33 40 83 41 34 42 35 43 36 44 77 45
REMARK SMILES IDX 37 46 82 47 76 48 78 49 38 50 81 51 75 52 74 53 39 55 65 56
REMARK SMILES IDX 48 57 64 58 49 59 52 60 63 61 79 62 50 63 51 64 62 66 80 67
REMARK SMILES IDX 53 68 40 69 41 70 46 71 42 72 43 73 45 74 47 75 44 76 66 77
REMARK SMILES IDX 67 78 72 79 68 80 69 81 71 82 73 83 70 84 54 85 55 86 60 87
REMARK SMILES IDX 56 88 57 89 59 90 61 91 58 92
REMARK H PARENT 6 18 9 20 2 26 78 54 52 65
REMARK Flexibility Score: inf
ROOT
ATOM      1  O   UNL A   1      40.067  21.434  26.606  1.00  0.00    -0.377 OA
ENDROOT
BRANCH   1   2
ATOM      2  C   UNL A   1      38.928  22.156  26.153  1.00  0.00     0.188 C 
BRANCH   2   3
ATOM      3  C   UNL A   1      37.832  21.540  25.233  1.00  0.00     0.188 C 
BRANCH   3   4
ATOM      4  O   UNL A   1      36.533  22.075  25.423  1.00  0.00    -0.376 OA
BRANCH   4   5
ATOM      5  C   UNL A   1      35.506  21.165  25.774  1.00  0.00     0.202 C 
BRANCH   5   6
ATOM      6  C   UNL A   1      34.535  20.804  24.646  1.00  0.00     0.261 C 
BRANCH   6   7
ATOM      7  O   UNL A   1      33.537  21.792  24.346  1.00  0.00    -0.463 OA
BRANCH   7   8
ATOM      8  C   UNL A   1      32.353  21.735  25.016  1.00  0.00     0.312 C 
ATOM      9  O   UNL A   1      31.751  20.703  25.273  1.00  0.00    -0.252 OA
BRANCH   8  10
ATOM     10  C   UNL A   1      31.962  23.145  25.454  1.00  0.00     0.124 C 
ATOM     11  C   UNL A   1      31.976  25.007  23.828  1.00  0.00     0.107 C 
ATOM     12  C   UNL A   1      33.161  25.027  24.734  1.00  0.00    -0.006 C 
ATOM     13  C   UNL A   1      31.124  23.893  24.410  1.00  0.00     0.048 C 
ATOM     14  C   UNL A   1      33.154  24.028  25.620  1.00  0.00    -0.014 C 
BRANCH  11  15
ATOM     15  N   UNL A   1      32.421  24.782  22.470  1.00  0.00    -0.332 N 
ATOM     16  N   UNL A   1      32.929  26.945  21.628  1.00  0.00    -0.335 N 
ATOM     17  C   UNL A   1      32.822  25.608  21.481  1.00  0.00     0.315 C 
ATOM     18  H   UNL A   1      33.262  27.418  20.830  1.00  0.00     0.165 HD
ATOM     19  O   UNL A   1      33.113  25.114  20.390  1.00  0.00    -0.249 OA
ATOM     20  H   UNL A   1      32.437  23.832  22.215  1.00  0.00     0.165 HD
BRANCH  16  21
ATOM     21  C   UNL A   1      32.638  27.801  22.753  1.00  0.00     0.095 C 
ATOM     22  C   UNL A   1      31.628  30.240  25.977  1.00  0.00     0.332 C 
ATOM     23  N   UNL A   1      31.998  29.901  24.598  1.00  0.00    -0.337 N 
ATOM     24  C   UNL A   1      30.932  29.075  24.003  1.00  0.00     0.264 C 
ATOM     25  C   UNL A   1      33.331  29.269  24.578  1.00  0.00     0.264 C 
ATOM     26  H   UNL A   1      32.078  30.739  24.022  1.00  0.00     0.347 HD
ATOM     27  C   UNL A   1      31.306  28.523  22.628  1.00  0.00     0.086 C 
ATOM     28  C   UNL A   1      33.727  28.769  23.177  1.00  0.00     0.086 C 
ENDBRANCH  16  21
ENDBRANCH  11  15
ENDBRANCH   8  10
ENDBRANCH   7   8
ENDBRANCH   6   7
ENDBRANCH   5   6
ENDBRANCH   4   5
ENDBRANCH   3   4
ENDBRANCH   2   3
ENDBRANCH   1   2
BRANCH   1  29
ATOM     29  C   UNL A   1      40.321  20.171  26.022  1.00  0.00     0.188 C 
BRANCH  29  30
ATOM     30  C   UNL A   1      41.659  19.538  26.450  1.00  0.00     0.188 C 
BRANCH  30  31
ATOM     31  O   UNL A   1      42.706  20.492  26.576  1.00  0.00    -0.376 OA
BRANCH  31  32
ATOM     32  C   UNL A   1      43.763  20.472  25.633  1.00  0.00     0.202 C 
BRANCH  32  33
ATOM     33  C   UNL A   1      44.104  21.748  24.847  1.00  0.00     0.261 C 
BRANCH  33  34
ATOM     34  O   UNL A   1      43.417  22.950  25.221  1.00  0.00    -0.460 OA
BRANCH  34  35
ATOM     35  C   UNL A   1      44.116  24.101  25.237  1.00  0.00     0.338 C 
ATOM     36  O   UNL A   1      45.054  24.409  24.521  1.00  0.00    -0.246 OA
BRANCH  35  37
ATOM     37  C   UNL A   1      43.409  25.023  26.151  1.00  0.00     0.060 A 
ATOM     38  C   UNL A   1      43.853  26.350  26.259  1.00  0.00     0.016 A 
ATOM     39  C   UNL A   1      42.281  24.594  26.853  1.00  0.00     0.016 A 
ATOM     40  C   UNL A   1      43.173  27.248  27.080  1.00  0.00     0.010 A 
ATOM     41  C   UNL A   1      41.625  25.483  27.707  1.00  0.00     0.010 A 
ATOM     42  C   UNL A   1      42.089  26.803  27.845  1.00  0.00    -0.014 A 
BRANCH  42  43
ATOM     43  C   UNL A   1      41.598  27.645  28.960  1.00  0.00     0.031 A 
ATOM     44  C   UNL A   1      42.332  27.565  30.269  1.00  0.00     0.074 A 
ATOM     45  C   UNL A   1      40.556  28.480  28.812  1.00  0.00     0.049 A 
ATOM     46  N   UNL A   1      42.084  28.167  31.402  1.00  0.00    -0.248 NA
ATOM     47  C   UNL A   1      43.511  26.681  30.300  1.00  0.00     0.031 C 
ATOM     48  C   UNL A   1      39.798  28.680  27.579  1.00  0.00     0.029 A 
ATOM     49  N   UNL A   1      39.953  29.313  29.719  1.00  0.00    -0.354 N 
ATOM     50  C   UNL A   1      43.070  27.733  32.279  1.00  0.00     0.074 A 
ATOM     51  C   UNL A   1      43.899  26.792  31.561  1.00  0.00     0.031 C 
ATOM     52  C   UNL A   1      38.820  29.574  27.811  1.00  0.00     0.029 A 
ATOM     53  C   UNL A   1      38.865  29.982  29.216  1.00  0.00     0.049 A 
ATOM     54  H   UNL A   1      40.272  29.423  30.645  1.00  0.00     0.167 HD
ATOM     55  C   UNL A   1      43.273  28.095  33.567  1.00  0.00     0.037 A 
ATOM     56  C   UNL A   1      37.996  30.807  29.830  1.00  0.00     0.037 A 
ATOM     57  C   UNL A   1      42.439  29.023  34.281  1.00  0.00     0.049 A 
ATOM     58  C   UNL A   1      38.188  31.125  31.291  1.00  0.00     0.074 A 
ATOM     59  C   UNL A   1      42.558  29.459  35.588  1.00  0.00     0.029 A 
ATOM     60  N   UNL A   1      41.320  29.647  33.750  1.00  0.00    -0.354 N 
ATOM     61  N   UNL A   1      39.134  30.728  32.110  1.00  0.00    -0.248 NA
ATOM     62  C   UNL A   1      37.193  32.010  31.914  1.00  0.00     0.031 C 
ATOM     63  C   UNL A   1      41.479  30.304  35.864  1.00  0.00     0.029 A 
ATOM     64  C   UNL A   1      40.724  30.446  34.710  1.00  0.00     0.049 A 
ATOM     65  H   UNL A   1      40.998  29.539  32.825  1.00  0.00     0.167 HD
ATOM     66  C   UNL A   1      38.867  31.340  33.330  1.00  0.00     0.074 A 
ATOM     67  C   UNL A   1      37.679  32.145  33.140  1.00  0.00     0.031 C 
ATOM     68  C   UNL A   1      39.545  31.248  34.501  1.00  0.00     0.037 A 
BRANCH  55  69
ATOM     69  C   UNL A   1      44.423  27.456  34.288  1.00  0.00     0.057 A 
ATOM     70  C   UNL A   1      45.696  28.040  34.322  1.00  0.00     0.134 A 
ATOM     71  C   UNL A   1      44.250  26.246  34.972  1.00  0.00     0.134 A 
ATOM     72  F   UNL A   1      45.936  29.189  33.671  1.00  0.00    -0.206 F 
ATOM     73  C   UNL A   1      46.761  27.432  34.989  1.00  0.00     0.040 A 
ATOM     74  C   UNL A   1      45.300  25.644  35.668  1.00  0.00     0.040 A 
ATOM     75  F   UNL A   1      43.057  25.631  34.979  1.00  0.00    -0.206 F 
ATOM     76  C   UNL A   1      46.561  26.234  35.671  1.00  0.00     0.006 A 
ENDBRANCH  55  69
BRANCH  56  77
ATOM     77  C   UNL A   1      36.854  31.386  29.077  1.00  0.00     0.057 A 
ATOM     78  C   UNL A   1      36.865  32.719  28.649  1.00  0.00     0.134 A 
ATOM     79  C   UNL A   1      35.707  30.631  28.797  1.00  0.00     0.134 A 
ATOM     80  F   UNL A   1      37.922  33.502  28.908  1.00  0.00    -0.206 F 
ATOM     81  C   UNL A   1      35.772  33.287  27.989  1.00  0.00     0.040 A 
ATOM     82  C   UNL A   1      34.619  31.178  28.114  1.00  0.00     0.040 A 
ATOM     83  F   UNL A   1      35.630  29.349  29.180  1.00  0.00    -0.206 F 
ATOM     84  C   UNL A   1      34.647  32.512  27.716  1.00  0.00     0.006 A 
ENDBRANCH  56  77
BRANCH  68  85
ATOM     85  C   UNL A   1      39.048  32.073  35.655  1.00  0.00     0.057 A 
ATOM     86  C   UNL A   1      38.222  31.538  36.652  1.00  0.00     0.134 A 
ATOM     87  C   UNL A   1      39.438  33.413  35.790  1.00  0.00     0.134 A 
ATOM     88  F   UNL A   1      37.804  30.265  36.580  1.00  0.00    -0.206 F 
ATOM     89  C   UNL A   1      37.779  32.313  37.725  1.00  0.00     0.040 A 
ATOM     90  C   UNL A   1      39.028  34.188  36.875  1.00  0.00     0.040 A 
ATOM     91  F   UNL A   1      40.239  33.984  34.878  1.00  0.00    -0.206 F 
ATOM     92  C   UNL A   1      38.188  33.641  37.843  1.00  0.00     0.006 A 
ENDBRANCH  68  85
ENDBRANCH  42  43
ENDBRANCH  35  37
ENDBRANCH  34  35
ENDBRANCH  33  34
ENDBRANCH  32  33
ENDBRANCH  31  32
ENDBRANCH  30  31
ENDBRANCH  29  30
ENDBRANCH   1  29
TORSDOF 22
ENDMDL
MODEL 2
REMARK VINA RESULT:     -10.5      0.760      6.004
REMARK SMILES C[NH+]1CCC(NC(=O)N[C@@H]2C=C[C@H](C(=O)OCCOCCOCCOCCOC(=O)c3ccc(-c4c5nc(c(-c6c(F)cccc6F)c6ccc([nH]6)c(-c6c(F)cccc6F)c6nc(c(-c7c(F)cccc7F)c7ccc4[nH]7)C=C6)C=C5)cc3)C2)CC1
REMARK SMILES IDX 22 1 21 2 20 3 19 4 18 5 17 6 16 7 14 8 15 9 13 10 10 11
REMARK SMILES IDX 11 12 85 13 12 14 9 15 6 16 7 17 8 19 5 21 1 22 2 23 3 24
REMARK SMILES IDX 87 25 4 27 86 28 23 29 24 30 25 31 26 32 27 33 28 34 29 35
REMARK SMILES IDX 30 36 31 37 32 38 84 39 33 40 83 41 34 42 35 43 36 44 77 45
REMARK SMILES IDX 37 46 82 47 76 48 78 49 38 50 81 51 75 52 74 53 39 55 65 56
REMARK SMILES IDX 48 57 64 58 49 59 52 60 63 61 79 62 50 63 51 64 62 66 80 67
REMARK SMILES IDX 53 68 40 69 41 70 46 71 42 72 43 73 45 74 47 75 44 76 66 77
REMARK SMILES IDX 67 78 72 79 68 80 69 81 71 82 73 83 70 84 54 85 55 86 60 87
REMARK SMILES IDX 56 88 57 89 59 90 61 91 58 92
REMARK H PARENT 6 18 9 20 2 26 78 54 52 65
REMARK Flexibility Score: inf
ROOT
ATOM      1  O   UNL A   1      40.980  21.352  26.470  1.00  0.00    -0.377 OA
ENDROOT
BRANCH   1   2
ATOM      2  C   UNL A   1      39.604  21.214  26.134  1.00  0.00     0.188 C 
BRANCH   2   3
ATOM      3  C   UNL A   1      38.665  22.425  25.848  1.00  0.00     0.188 C 
BRANCH   3   4
ATOM      4  O   UNL A   1      37.286  22.102  25.793  1.00  0.00    -0.376 OA
BRANCH   4   5
ATOM      5  C   UNL A   1      36.924  20.936  25.076  1.00  0.00     0.202 C 
BRANCH   5   6
ATOM      6  C   UNL A   1      35.420  20.661  24.984  1.00  0.00     0.261 C 
BRANCH   6   7
ATOM      7  O   UNL A   1      34.600  21.795  24.660  1.00  0.00    -0.463 OA
BRANCH   7   8
ATOM      8  C   UNL A   1      33.355  21.865  25.206  1.00  0.00     0.312 C 
ATOM      9  O   UNL A   1      32.586  20.920  25.303  1.00  0.00    -0.252 OA
BRANCH   8  10
ATOM     10  C   UNL A   1      33.126  23.277  25.740  1.00  0.00     0.124 C 
ATOM     11  C   UNL A   1      32.868  25.176  24.179  1.00  0.00     0.107 C 
ATOM     12  C   UNL A   1      34.220  25.131  24.810  1.00  0.00    -0.006 C 
ATOM     13  C   UNL A   1      32.115  24.081  24.913  1.00  0.00     0.048 C 
ATOM     14  C   UNL A   1      34.361  24.111  25.661  1.00  0.00    -0.014 C 
BRANCH  11  15
ATOM     15  N   UNL A   1      33.004  24.969  22.754  1.00  0.00    -0.332 N 
ATOM     16  N   UNL A   1      32.740  27.127  21.794  1.00  0.00    -0.335 N 
ATOM     17  C   UNL A   1      32.931  25.795  21.689  1.00  0.00     0.315 C 
ATOM     18  H   UNL A   1      32.738  27.608  20.935  1.00  0.00     0.165 HD
ATOM     19  O   UNL A   1      33.053  25.309  20.564  1.00  0.00    -0.249 OA
ATOM     20  H   UNL A   1      33.187  24.033  22.510  1.00  0.00     0.165 HD
BRANCH  16  21
ATOM     21  C   UNL A   1      32.537  27.966  22.951  1.00  0.00     0.095 C 
ATOM     22  C   UNL A   1      31.780  30.376  26.265  1.00  0.00     0.332 C 
ATOM     23  N   UNL A   1      32.112  30.052  24.872  1.00  0.00    -0.337 N 
ATOM     24  C   UNL A   1      30.968  29.356  24.255  1.00  0.00     0.264 C 
ATOM     25  C   UNL A   1      33.376  29.294  24.822  1.00  0.00     0.264 C 
ATOM     26  H   UNL A   1      32.272  30.898  24.325  1.00  0.00     0.347 HD
ATOM     27  C   UNL A   1      31.283  28.819  22.859  1.00  0.00     0.086 C 
ATOM     28  C   UNL A   1      33.717  28.807  23.402  1.00  0.00     0.086 C 
ENDBRANCH  16  21
ENDBRANCH  11  15
ENDBRANCH   8  10
ENDBRANCH   7   8
ENDBRANCH   6   7
ENDBRANCH   5   6
ENDBRANCH   4   5
ENDBRANCH   3   4
ENDBRANCH   2   3
ENDBRANCH   1   2
BRANCH   1  29
ATOM     29  C   UNL A   1      41.646  20.221  26.993  1.00  0.00     0.188 C 
BRANCH  29  30
ATOM     30  C   UNL A   1      42.591  19.529  25.991  1.00  0.00     0.188 C 
BRANCH  30  31
ATOM     31  O   UNL A   1      43.176  20.437  25.066  1.00  0.00    -0.376 OA
BRANCH  31  32
ATOM     32  C   UNL A   1      44.553  20.747  25.194  1.00  0.00     0.202 C 
BRANCH  32  33
ATOM     33  C   UNL A   1      44.974  22.119  25.746  1.00  0.00     0.261 C 
BRANCH  33  34
ATOM     34  O   UNL A   1      43.931  23.064  26.014  1.00  0.00    -0.460 OA
BRANCH  34  35
ATOM     35  C   UNL A   1      44.114  24.339  25.619  1.00  0.00     0.338 C 
ATOM     36  O   UNL A   1      44.564  24.729  24.556  1.00  0.00    -0.246 OA
BRANCH  35  37
ATOM     37  C   UNL A   1      43.475  25.202  26.636  1.00  0.00     0.060 A 
ATOM     38  C   UNL A   1      43.930  26.520  26.796  1.00  0.00     0.016 A 
ATOM     39  C   UNL A   1      42.396  24.729  27.386  1.00  0.00     0.016 A 
ATOM     40  C   UNL A   1      43.312  27.364  27.716  1.00  0.00     0.010 A 
ATOM     41  C   UNL A   1      41.805  25.562  28.338  1.00  0.00     0.010 A 
ATOM     42  C   UNL A   1      42.282  26.871  28.525  1.00  0.00    -0.014 A 
BRANCH  42  43
ATOM     43  C   UNL A   1      41.873  27.642  29.722  1.00  0.00     0.031 A 
ATOM     44  C   UNL A   1      40.681  28.548  29.594  1.00  0.00     0.074 A 
ATOM     45  C   UNL A   1      42.515  27.520  30.896  1.00  0.00     0.049 A 
ATOM     46  N   UNL A   1      40.146  29.351  30.476  1.00  0.00    -0.248 NA
ATOM     47  C   UNL A   1      39.999  28.545  28.288  1.00  0.00     0.031 C 
ATOM     48  C   UNL A   1      43.650  26.637  31.155  1.00  0.00     0.029 A 
ATOM     49  N   UNL A   1      42.299  28.154  32.093  1.00  0.00    -0.354 N 
ATOM     50  C   UNL A   1      39.071  29.949  29.831  1.00  0.00     0.074 A 
ATOM     51  C   UNL A   1      39.049  29.446  28.476  1.00  0.00     0.031 C 
ATOM     52  C   UNL A   1      44.040  26.795  32.433  1.00  0.00     0.029 A 
ATOM     53  C   UNL A   1      43.203  27.812  33.069  1.00  0.00     0.049 A 
ATOM     54  H   UNL A   1      41.564  28.793  32.239  1.00  0.00     0.167 HD
ATOM     55  C   UNL A   1      38.175  30.834  30.328  1.00  0.00     0.037 A 
ATOM     56  C   UNL A   1      43.345  28.286  34.321  1.00  0.00     0.037 A 
ATOM     57  C   UNL A   1      38.208  31.341  31.672  1.00  0.00     0.049 A 
ATOM     58  C   UNL A   1      42.390  29.340  34.824  1.00  0.00     0.074 A 
ATOM     59  C   UNL A   1      37.346  32.238  32.276  1.00  0.00     0.029 A 
ATOM     60  N   UNL A   1      39.164  31.003  32.619  1.00  0.00    -0.354 N 
ATOM     61  N   UNL A   1      41.363  29.887  34.217  1.00  0.00    -0.248 NA
ATOM     62  C   UNL A   1      42.612  29.839  36.188  1.00  0.00     0.031 C 
ATOM     63  C   UNL A   1      37.814  32.486  33.571  1.00  0.00     0.029 A 
ATOM     64  C   UNL A   1      38.929  31.694  33.795  1.00  0.00     0.049 A 
ATOM     65  H   UNL A   1      39.901  30.365  32.476  1.00  0.00     0.167 HD
ATOM     66  C   UNL A   1      40.799  30.766  35.135  1.00  0.00     0.074 A 
ATOM     67  C   UNL A   1      41.590  30.669  36.343  1.00  0.00     0.031 C 
ATOM     68  C   UNL A   1      39.722  31.578  34.992  1.00  0.00     0.037 A 
BRANCH  55  69
ATOM     69  C   UNL A   1      37.108  31.329  29.396  1.00  0.00     0.057 A 
ATOM     70  C   UNL A   1      37.163  32.600  28.810  1.00  0.00     0.134 A 
ATOM     71  C   UNL A   1      36.016  30.514  29.070  1.00  0.00     0.134 A 
ATOM     72  F   UNL A   1      38.171  33.438  29.097  1.00  0.00    -0.206 F 
ATOM     73  C   UNL A   1      36.159  33.053  27.951  1.00  0.00     0.040 A 
ATOM     74  C   UNL A   1      35.022  30.945  28.189  1.00  0.00     0.040 A 
ATOM     75  F   UNL A   1      35.899  29.286  29.597  1.00  0.00    -0.206 F 
ATOM     76  C   UNL A   1      35.090  32.220  27.633  1.00  0.00     0.006 A 
ENDBRANCH  55  69
BRANCH  56  77
ATOM     77  C   UNL A   1      44.441  27.786  35.191  1.00  0.00     0.057 A 
ATOM     78  C   UNL A   1      45.713  28.369  35.166  1.00  0.00     0.134 A 
ATOM     79  C   UNL A   1      44.253  26.689  36.042  1.00  0.00     0.134 A 
ATOM     80  F   UNL A   1      45.965  29.405  34.354  1.00  0.00    -0.206 F 
ATOM     81  C   UNL A   1      46.764  27.869  35.939  1.00  0.00     0.040 A 
ATOM     82  C   UNL A   1      45.287  26.197  36.841  1.00  0.00     0.040 A 
ATOM     83  F   UNL A   1      43.059  26.083  36.113  1.00  0.00    -0.206 F 
ATOM     84  C   UNL A   1      46.549  26.782  36.784  1.00  0.00     0.006 A 
ENDBRANCH  56  77
BRANCH  68  85
ATOM     85  C   UNL A   1      39.307  32.391  36.187  1.00  0.00     0.057 A 
ATOM     86  C   UNL A   1      39.834  33.663  36.443  1.00  0.00     0.134 A 
ATOM     87  C   UNL A   1      38.330  31.907  37.069  1.00  0.00     0.134 A 
ATOM     88  F   UNL A   1      40.778  34.182  35.643  1.00  0.00    -0.206 F 
ATOM     89  C   UNL A   1      39.429  34.412  37.549  1.00  0.00     0.040 A 
ATOM     90  C   UNL A   1      37.894  32.660  38.160  1.00  0.00     0.040 A 
ATOM     91  F   UNL A   1      37.774  30.702  36.875  1.00  0.00    -0.206 F 
ATOM     92  C   UNL A   1      38.450  33.913  38.408  1.00  0.00     0.006 A 
ENDBRANCH  68  85
ENDBRANCH  42  43
ENDBRANCH  35  37
ENDBRANCH  34  35
ENDBRANCH  33  34
ENDBRANCH  32  33
ENDBRANCH  31  32
ENDBRANCH  30  31
ENDBRANCH  29  30
ENDBRANCH   1  29
TORSDOF 22
ENDMDL
MODEL 3
REMARK VINA RESULT:     -10.4      5.080     10.287
REMARK SMILES C[NH+]1CCC(NC(=O)N[C@@H]2C=C[C@H](C(=O)OCCOCCOCCOCCOC(=O)c3ccc(-c4c5nc(c(-c6c(F)cccc6F)c6ccc([nH]6)c(-c6c(F)cccc6F)c6nc(c(-c7c(F)cccc7F)c7ccc4[nH]7)C=C6)C=C5)cc3)C2)CC1
REMARK SMILES IDX 22 1 21 2 20 3 19 4 18 5 17 6 16 7 14 8 15 9 13 10 10 11
REMARK SMILES IDX 11 12 85 13 12 14 9 15 6 16 7 17 8 19 5 21 1 22 2 23 3 24
REMARK SMILES IDX 87 25 4 27 86 28 23 29 24 30 25 31 26 32 27 33 28 34 29 35
REMARK SMILES IDX 30 36 31 37 32 38 84 39 33 40 83 41 34 42 35 43 36 44 77 45
REMARK SMILES IDX 37 46 82 47 76 48 78 49 38 50 81 51 75 52 74 53 39 55 65 56
REMARK SMILES IDX 48 57 64 58 49 59 52 60 63 61 79 62 50 63 51 64 62 66 80 67
REMARK SMILES IDX 53 68 40 69 41 70 46 71 42 72 43 73 45 74 47 75 44 76 66 77
REMARK SMILES IDX 67 78 72 79 68 80 69 81 71 82 73 83 70 84 54 85 55 86 60 87
REMARK SMILES IDX 56 88 57 89 59 90 61 91 58 92
REMARK H PARENT 6 18 9 20 2 26 78 54 52 65
REMARK Flexibility Score: inf
ROOT
ATOM      1  O   UNL A   1      34.331  35.941  28.304  1.00  0.00    -0.377 OA
ENDROOT
BRANCH   1   2
ATOM      2  C   UNL A   1      34.311  34.578  27.898  1.00  0.00     0.188 C 
BRANCH   2   3
ATOM      3  C   UNL A   1      35.459  33.572  28.214  1.00  0.00     0.188 C 
BRANCH   3   4
ATOM      4  O   UNL A   1      35.396  32.357  27.486  1.00  0.00    -0.376 OA
BRANCH   4   5
ATOM      5  C   UNL A   1      34.448  31.396  27.915  1.00  0.00     0.202 C 
BRANCH   5   6
ATOM      6  C   UNL A   1      34.119  30.299  26.898  1.00  0.00     0.261 C 
BRANCH   6   7
ATOM      7  O   UNL A   1      33.050  29.413  27.266  1.00  0.00    -0.463 OA
BRANCH   7   8
ATOM      8  C   UNL A   1      32.349  28.804  26.270  1.00  0.00     0.312 C 
ATOM      9  O   UNL A   1      31.906  29.374  25.285  1.00  0.00    -0.252 OA
BRANCH   8  10
ATOM     10  C   UNL A   1      32.287  27.304  26.553  1.00  0.00     0.124 C 
ATOM     11  C   UNL A   1      31.860  25.704  24.718  1.00  0.00     0.107 C 
ATOM     12  C   UNL A   1      30.656  25.938  25.568  1.00  0.00    -0.006 C 
ATOM     13  C   UNL A   1      32.950  26.454  25.461  1.00  0.00     0.048 C 
ATOM     14  C   UNL A   1      30.885  26.796  26.566  1.00  0.00    -0.014 C 
BRANCH  11  15
ATOM     15  N   UNL A   1      31.596  26.186  23.380  1.00  0.00    -0.332 N 
ATOM     16  N   UNL A   1      32.275  24.416  21.948  1.00  0.00    -0.335 N 
ATOM     17  C   UNL A   1      31.787  25.657  22.153  1.00  0.00     0.315 C 
ATOM     18  H   UNL A   1      32.333  24.151  21.000  1.00  0.00     0.165 HD
ATOM     19  O   UNL A   1      31.491  26.339  21.171  1.00  0.00    -0.249 OA
ATOM     20  H   UNL A   1      31.194  27.084  23.359  1.00  0.00     0.165 HD
BRANCH  16  21
ATOM     21  C   UNL A   1      32.730  23.410  22.879  1.00  0.00     0.095 C 
ATOM     22  C   UNL A   1      34.183  20.604  25.595  1.00  0.00     0.332 C 
ATOM     23  N   UNL A   1      33.915  21.211  24.285  1.00  0.00    -0.337 N 
ATOM     24  C   UNL A   1      34.606  22.510  24.206  1.00  0.00     0.264 C 
ATOM     25  C   UNL A   1      32.459  21.288  24.057  1.00  0.00     0.264 C 
ATOM     26  H   UNL A   1      34.285  20.634  23.530  1.00  0.00     0.347 HD
ATOM     27  C   UNL A   1      34.244  23.300  22.950  1.00  0.00     0.086 C 
ATOM     28  C   UNL A   1      32.104  22.034  22.758  1.00  0.00     0.086 C 
ENDBRANCH  16  21
ENDBRANCH  11  15
ENDBRANCH   8  10
ENDBRANCH   7   8
ENDBRANCH   6   7
ENDBRANCH   5   6
ENDBRANCH   4   5
ENDBRANCH   3   4
ENDBRANCH   2   3
ENDBRANCH   1   2
BRANCH   1  29
ATOM     29  C   UNL A   1      33.608  36.292  29.467  1.00  0.00     0.188 C 
BRANCH  29  30
ATOM     30  C   UNL A   1      32.866  35.113  30.125  1.00  0.00     0.188 C 
BRANCH  30  31
ATOM     31  O   UNL A   1      33.235  34.917  31.485  1.00  0.00    -0.376 OA
BRANCH  31  32
ATOM     32  C   UNL A   1      34.329  35.650  32.006  1.00  0.00     0.202 C 
BRANCH  32  33
ATOM     33  C   UNL A   1      35.537  34.898  32.589  1.00  0.00     0.261 C 
BRANCH  33  34
ATOM     34  O   UNL A   1      35.822  33.601  32.051  1.00  0.00    -0.460 OA
BRANCH  34  35
ATOM     35  C   UNL A   1      36.327  32.667  32.880  1.00  0.00     0.338 C 
ATOM     36  O   UNL A   1      35.936  32.379  33.999  1.00  0.00    -0.246 OA
BRANCH  35  37
ATOM     37  C   UNL A   1      37.328  31.899  32.109  1.00  0.00     0.060 A 
ATOM     38  C   UNL A   1      38.284  31.138  32.798  1.00  0.00     0.016 A 
ATOM     39  C   UNL A   1      37.284  31.886  30.713  1.00  0.00     0.016 A 
ATOM     40  C   UNL A   1      39.207  30.371  32.091  1.00  0.00     0.010 A 
ATOM     41  C   UNL A   1      38.235  31.150  30.004  1.00  0.00     0.010 A 
ATOM     42  C   UNL A   1      39.217  30.415  30.692  1.00  0.00    -0.014 A 
BRANCH  42  43
ATOM     43  C   UNL A   1      40.395  29.893  29.962  1.00  0.00     0.031 A 
ATOM     44  C   UNL A   1      41.544  30.834  29.728  1.00  0.00     0.074 A 
ATOM     45  C   UNL A   1      40.463  28.617  29.547  1.00  0.00     0.049 A 
ATOM     46  N   UNL A   1      42.666  30.636  29.088  1.00  0.00    -0.248 NA
ATOM     47  C   UNL A   1      41.402  32.186  30.296  1.00  0.00     0.031 C 
ATOM     48  C   UNL A   1      39.435  27.600  29.760  1.00  0.00     0.029 A 
ATOM     49  N   UNL A   1      41.447  27.964  28.850  1.00  0.00    -0.354 N 
ATOM     50  C   UNL A   1      43.360  31.836  29.174  1.00  0.00     0.074 A 
ATOM     51  C   UNL A   1      42.521  32.767  29.895  1.00  0.00     0.031 C 
ATOM     52  C   UNL A   1      39.840  26.449  29.192  1.00  0.00     0.029 A 
ATOM     53  C   UNL A   1      41.138  26.660  28.551  1.00  0.00     0.049 A 
ATOM     54  H   UNL A   1      42.297  28.390  28.590  1.00  0.00     0.167 HD
ATOM     55  C   UNL A   1      44.593  32.134  28.702  1.00  0.00     0.037 A 
ATOM     56  C   UNL A   1      41.818  25.755  27.822  1.00  0.00     0.037 A 
ATOM     57  C   UNL A   1      45.419  31.209  27.975  1.00  0.00     0.049 A 
ATOM     58  C   UNL A   1      43.150  26.137  27.228  1.00  0.00     0.074 A 
ATOM     59  C   UNL A   1      46.685  31.408  27.456  1.00  0.00     0.029 A 
ATOM     60  N   UNL A   1      45.054  29.909  27.655  1.00  0.00    -0.354 N 
ATOM     61  N   UNL A   1      43.811  27.267  27.329  1.00  0.00    -0.248 NA
ATOM     62  C   UNL A   1      43.833  25.117  26.419  1.00  0.00     0.031 C 
ATOM     63  C   UNL A   1      47.062  30.248  26.771  1.00  0.00     0.029 A 
ATOM     64  C   UNL A   1      46.059  29.303  26.921  1.00  0.00     0.049 A 
ATOM     65  H   UNL A   1      44.205  29.481  27.912  1.00  0.00     0.167 HD
ATOM     66  C   UNL A   1      44.998  27.080  26.629  1.00  0.00     0.074 A 
ATOM     67  C   UNL A   1      44.972  25.726  26.119  1.00  0.00     0.031 C 
ATOM     68  C   UNL A   1      46.020  27.950  26.428  1.00  0.00     0.037 A 
BRANCH  55  69
ATOM     69  C   UNL A   1      45.101  33.527  28.932  1.00  0.00     0.057 A 
ATOM     70  C   UNL A   1      45.865  33.864  30.057  1.00  0.00     0.134 A 
ATOM     71  C   UNL A   1      44.832  34.543  28.006  1.00  0.00     0.134 A 
ATOM     72  F   UNL A   1      46.141  32.943  30.993  1.00  0.00    -0.206 F 
ATOM     73  C   UNL A   1      46.324  35.166  30.264  1.00  0.00     0.040 A 
ATOM     74  C   UNL A   1      45.312  35.841  28.188  1.00  0.00     0.040 A 
ATOM     75  F   UNL A   1      44.105  34.291  26.908  1.00  0.00    -0.206 F 
ATOM     76  C   UNL A   1      46.054  36.156  29.324  1.00  0.00     0.006 A 
ENDBRANCH  55  69
BRANCH  56  77
ATOM     77  C   UNL A   1      41.254  24.399  27.596  1.00  0.00     0.057 A 
ATOM     78  C   UNL A   1      40.212  24.187  26.686  1.00  0.00     0.134 A 
ATOM     79  C   UNL A   1      41.718  23.287  28.312  1.00  0.00     0.134 A 
ATOM     80  F   UNL A   1      39.705  25.214  25.989  1.00  0.00    -0.206 F 
ATOM     81  C   UNL A   1      39.638  22.926  26.509  1.00  0.00     0.040 A 
ATOM     82  C   UNL A   1      41.173  22.016  28.125  1.00  0.00     0.040 A 
ATOM     83  F   UNL A   1      42.713  23.421  29.201  1.00  0.00    -0.206 F 
ATOM     84  C   UNL A   1      40.124  21.834  27.227  1.00  0.00     0.006 A 
ENDBRANCH  56  77
BRANCH  68  85
ATOM     85  C   UNL A   1      47.214  27.449  25.665  1.00  0.00     0.057 A 
ATOM     86  C   UNL A   1      47.343  27.628  24.282  1.00  0.00     0.134 A 
ATOM     87  C   UNL A   1      48.271  26.817  26.335  1.00  0.00     0.134 A 
ATOM     88  F   UNL A   1      46.365  28.218  23.578  1.00  0.00    -0.206 F 
ATOM     89  C   UNL A   1      48.464  27.170  23.588  1.00  0.00     0.040 A 
ATOM     90  C   UNL A   1      49.410  26.383  25.658  1.00  0.00     0.040 A 
ATOM     91  F   UNL A   1      48.218  26.625  27.662  1.00  0.00    -0.206 F 
ATOM     92  C   UNL A   1      49.506  26.551  24.278  1.00  0.00     0.006 A 
ENDBRANCH  68  85
ENDBRANCH  42  43
ENDBRANCH  35  37
ENDBRANCH  34  35
ENDBRANCH  33  34
ENDBRANCH  32  33
ENDBRANCH  31  32
ENDBRANCH  30  31
ENDBRANCH  29  30
ENDBRANCH   1  29
TORSDOF 22
ENDMDL
