MODEL 1
REMARK VINA RESULT:     -11.1      0.000      0.000
REMARK SMILES O=C(OCCOCCOCCOCCOC(=O)[C@H]1C=C[C@H](NS(=O)(=O)c2ccc(F)c(F)c2F)C1)c1ccc(-c2c3nc(c(-c4c(F)cccc4F)c4ccc([nH]4)c(-c4c(F)cccc4F)c4nc(c(-c5c(F)cccc5F)c5ccc2[nH]5)C=C4)C=C3)cc1
REMARK SMILES IDX 10 1 9 2 8 3 7 4 6 5 5 6 4 7 3 8 2 9 1 10 36 11 37 12 89 13
REMARK SMILES IDX 38 14 88 15 39 16 40 17 41 18 82 19 42 20 87 21 81 22 83 23
REMARK SMILES IDX 43 24 86 25 80 26 79 27 44 29 70 30 53 31 69 32 54 33 57 34
REMARK SMILES IDX 68 35 84 36 55 37 56 38 67 40 85 41 58 42 45 43 46 44 51 45
REMARK SMILES IDX 47 46 48 47 50 48 52 49 49 50 71 51 72 52 77 53 73 54 74 55
REMARK SMILES IDX 76 56 78 57 75 58 59 59 60 60 65 61 61 62 62 63 64 64 66 65
REMARK SMILES IDX 63 66 11 67 12 68 13 69 14 70 15 71 16 72 17 73 18 74 19 75
REMARK SMILES IDX 35 76 20 77 21 78 22 79 23 81 24 82 25 83 26 84 27 85 33 86
REMARK SMILES IDX 28 87 31 88 34 89 29 90 32 91 30 92
REMARK H PARENT 83 28 57 39 22 80
REMARK Flexibility Score: inf
ROOT
ATOM      1  C   UNL A   1      44.017  18.553  25.083  1.00  0.00     0.188 C 
ENDROOT
BRANCH   1   2
ATOM      2  O   UNL A   1      45.303  18.300  25.631  1.00  0.00    -0.377 OA
BRANCH   2   3
ATOM      3  C   UNL A   1      46.367  19.139  25.185  1.00  0.00     0.188 C 
BRANCH   3   4
ATOM      4  C   UNL A   1      45.944  20.522  24.688  1.00  0.00     0.188 C 
BRANCH   4   5
ATOM      5  O   UNL A   1      45.945  21.449  25.779  1.00  0.00    -0.376 OA
BRANCH   5   6
ATOM      6  C   UNL A   1      44.843  22.355  25.808  1.00  0.00     0.202 C 
BRANCH   6   7
ATOM      7  C   UNL A   1      44.537  23.012  24.463  1.00  0.00     0.261 C 
BRANCH   7   8
ATOM      8  O   UNL A   1      43.895  24.283  24.617  1.00  0.00    -0.460 OA
BRANCH   8   9
ATOM      9  C   UNL A   1      44.399  25.420  25.160  1.00  0.00     0.338 C 
ATOM     10  O   UNL A   1      45.470  25.832  24.715  1.00  0.00    -0.246 OA
BRANCH   9  11
ATOM     11  C   UNL A   1      43.767  26.203  26.279  1.00  0.00     0.060 A 
ATOM     12  C   UNL A   1      44.033  27.531  26.624  1.00  0.00     0.016 A 
ATOM     13  C   UNL A   1      42.771  25.534  27.018  1.00  0.00     0.016 A 
ATOM     14  C   UNL A   1      43.371  28.168  27.670  1.00  0.00     0.010 A 
ATOM     15  C   UNL A   1      42.101  26.160  28.073  1.00  0.00     0.010 A 
ATOM     16  C   UNL A   1      42.421  27.476  28.410  1.00  0.00    -0.014 A 
BRANCH  16  17
ATOM     17  C   UNL A   1      41.912  28.099  29.640  1.00  0.00     0.031 A 
ATOM     18  C   UNL A   1      40.652  28.902  29.541  1.00  0.00     0.074 A 
ATOM     19  C   UNL A   1      42.512  27.861  30.819  1.00  0.00     0.049 A 
ATOM     20  N   UNL A   1      40.052  29.619  30.449  1.00  0.00    -0.248 NA
ATOM     21  C   UNL A   1      39.963  28.876  28.236  1.00  0.00     0.031 C 
ATOM     22  C   UNL A   1      43.661  26.976  31.016  1.00  0.00     0.029 A 
ATOM     23  N   UNL A   1      42.232  28.337  32.071  1.00  0.00    -0.354 N 
ATOM     24  C   UNL A   1      38.937  30.155  29.820  1.00  0.00     0.074 A 
ATOM     25  C   UNL A   1      38.928  29.668  28.460  1.00  0.00     0.031 C 
ATOM     26  C   UNL A   1      44.001  26.988  32.316  1.00  0.00     0.029 A 
ATOM     27  C   UNL A   1      43.132  27.925  33.023  1.00  0.00     0.049 A 
ATOM     28  H   UNL A   1      41.462  28.918  32.270  1.00  0.00     0.167 HD
ATOM     29  C   UNL A   1      38.019  31.000  30.338  1.00  0.00     0.037 A 
ATOM     30  C   UNL A   1      43.260  28.316  34.305  1.00  0.00     0.037 A 
ATOM     31  C   UNL A   1      38.063  31.469  31.694  1.00  0.00     0.049 A 
ATOM     32  C   UNL A   1      42.289  29.343  34.827  1.00  0.00     0.074 A 
ATOM     33  C   UNL A   1      37.218  32.354  32.333  1.00  0.00     0.029 A 
ATOM     34  N   UNL A   1      39.028  31.085  32.618  1.00  0.00    -0.354 N 
ATOM     35  N   UNL A   1      41.256  29.885  34.224  1.00  0.00    -0.248 NA
ATOM     36  C   UNL A   1      42.514  29.837  36.192  1.00  0.00     0.031 C 
ATOM     37  C   UNL A   1      37.701  32.544  33.633  1.00  0.00     0.029 A 
ATOM     38  C   UNL A   1      38.821  31.745  33.814  1.00  0.00     0.049 A 
ATOM     39  H   UNL A   1      39.750  30.439  32.445  1.00  0.00     0.167 HD
ATOM     40  C   UNL A   1      40.707  30.779  35.132  1.00  0.00     0.074 A 
ATOM     41  C   UNL A   1      41.507  30.688  36.338  1.00  0.00     0.031 C 
ATOM     42  C   UNL A   1      39.647  31.612  34.987  1.00  0.00     0.037 A 
BRANCH  29  43
ATOM     43  C   UNL A   1      36.968  31.522  29.408  1.00  0.00     0.057 A 
ATOM     44  C   UNL A   1      37.017  32.815  28.871  1.00  0.00     0.134 A 
ATOM     45  C   UNL A   1      35.869  30.722  29.072  1.00  0.00     0.134 A 
ATOM     46  F   UNL A   1      38.027  33.642  29.181  1.00  0.00    -0.206 F 
ATOM     47  C   UNL A   1      35.999  33.297  28.045  1.00  0.00     0.040 A 
ATOM     48  C   UNL A   1      34.856  31.187  28.234  1.00  0.00     0.040 A 
ATOM     49  F   UNL A   1      35.756  29.479  29.566  1.00  0.00    -0.206 F 
ATOM     50  C   UNL A   1      34.918  32.481  27.721  1.00  0.00     0.006 A 
ENDBRANCH  29  43
BRANCH  30  51
ATOM     51  C   UNL A   1      44.383  27.817  35.142  1.00  0.00     0.057 A 
ATOM     52  C   UNL A   1      44.277  26.640  35.891  1.00  0.00     0.134 A 
ATOM     53  C   UNL A   1      45.586  28.532  35.242  1.00  0.00     0.134 A 
ATOM     54  F   UNL A   1      43.144  25.922  35.862  1.00  0.00    -0.206 F 
ATOM     55  C   UNL A   1      45.313  26.200  36.718  1.00  0.00     0.040 A 
ATOM     56  C   UNL A   1      46.641  28.089  36.042  1.00  0.00     0.040 A 
ATOM     57  F   UNL A   1      45.756  29.672  34.557  1.00  0.00    -0.206 F 
ATOM     58  C   UNL A   1      46.502  26.923  36.791  1.00  0.00     0.006 A 
ENDBRANCH  30  51
BRANCH  42  59
ATOM     59  C   UNL A   1      39.301  32.477  36.158  1.00  0.00     0.057 A 
ATOM     60  C   UNL A   1      39.857  33.752  36.311  1.00  0.00     0.134 A 
ATOM     61  C   UNL A   1      38.345  32.062  37.092  1.00  0.00     0.134 A 
ATOM     62  F   UNL A   1      40.788  34.197  35.453  1.00  0.00    -0.206 F 
ATOM     63  C   UNL A   1      39.476  34.586  37.362  1.00  0.00     0.040 A 
ATOM     64  C   UNL A   1      37.939  32.896  38.133  1.00  0.00     0.040 A 
ATOM     65  F   UNL A   1      37.771  30.854  36.988  1.00  0.00    -0.206 F 
ATOM     66  C   UNL A   1      38.507  34.162  38.270  1.00  0.00     0.006 A 
ENDBRANCH  42  59
ENDBRANCH  16  17
ENDBRANCH   9  11
ENDBRANCH   8   9
ENDBRANCH   7   8
ENDBRANCH   6   7
ENDBRANCH   5   6
ENDBRANCH   4   5
ENDBRANCH   3   4
ENDBRANCH   2   3
ENDBRANCH   1   2
BRANCH   1  67
ATOM     67  C   UNL A   1      42.871  18.950  26.032  1.00  0.00     0.188 C 
BRANCH  67  68
ATOM     68  O   UNL A   1      41.651  19.315  25.432  1.00  0.00    -0.376 OA
BRANCH  68  69
ATOM     69  C   UNL A   1      40.613  19.925  26.175  1.00  0.00     0.202 C 
BRANCH  69  70
ATOM     70  C   UNL A   1      40.209  21.410  26.130  1.00  0.00     0.261 C 
BRANCH  70  71
ATOM     71  O   UNL A   1      38.824  21.750  26.092  1.00  0.00    -0.463 OA
BRANCH  71  72
ATOM     72  C   UNL A   1      38.466  23.057  26.165  1.00  0.00     0.312 C 
ATOM     73  O   UNL A   1      39.101  23.914  26.765  1.00  0.00    -0.252 OA
BRANCH  72  74
ATOM     74  C   UNL A   1      37.204  23.351  25.341  1.00  0.00     0.123 C 
ATOM     75  C   UNL A   1      36.949  22.367  24.236  1.00  0.00    -0.015 C 
ATOM     76  C   UNL A   1      35.892  23.334  26.139  1.00  0.00     0.043 C 
ATOM     77  C   UNL A   1      35.703  21.876  24.269  1.00  0.00    -0.011 C 
ATOM     78  C   UNL A   1      34.912  22.386  25.428  1.00  0.00     0.093 C 
BRANCH  78  79
ATOM     79  N   UNL A   1      33.766  23.145  24.947  1.00  0.00    -0.204 NA
ATOM     80  H   UNL A   1      34.011  23.485  24.018  1.00  0.00     0.142 HD
BRANCH  79  81
ATOM     81  S   UNL A   1      32.267  22.428  24.810  1.00  0.00     0.244 S 
ATOM     82  O   UNL A   1      31.701  22.522  26.141  1.00  0.00    -0.207 OA
ATOM     83  O   UNL A   1      31.586  22.988  23.666  1.00  0.00    -0.207 OA
BRANCH  81  84
ATOM     84  C   UNL A   1      32.474  20.700  24.503  1.00  0.00     0.121 A 
ATOM     85  C   UNL A   1      32.726  19.870  25.610  1.00  0.00     0.028 A 
ATOM     86  C   UNL A   1      32.381  20.135  23.239  1.00  0.00     0.181 A 
ATOM     87  C   UNL A   1      32.861  18.488  25.437  1.00  0.00     0.044 A 
ATOM     88  C   UNL A   1      32.522  18.762  23.070  1.00  0.00     0.195 A 
ATOM     89  F   UNL A   1      32.142  20.861  22.150  1.00  0.00    -0.202 F 
ATOM     90  C   UNL A   1      32.754  17.942  24.163  1.00  0.00     0.161 A 
ATOM     91  F   UNL A   1      32.423  18.232  21.841  1.00  0.00    -0.200 F 
ATOM     92  F   UNL A   1      32.874  16.619  23.999  1.00  0.00    -0.204 F 
ENDBRANCH  81  84
ENDBRANCH  79  81
ENDBRANCH  78  79
ENDBRANCH  72  74
ENDBRANCH  71  72
ENDBRANCH  70  71
ENDBRANCH  69  70
ENDBRANCH  68  69
ENDBRANCH  67  68
ENDBRANCH   1  67
TORSDOF 23
ENDMDL
MODEL 2
REMARK VINA RESULT:     -10.7      2.375      7.063
REMARK SMILES O=C(OCCOCCOCCOCCOC(=O)[C@H]1C=C[C@H](NS(=O)(=O)c2ccc(F)c(F)c2F)C1)c1ccc(-c2c3nc(c(-c4c(F)cccc4F)c4ccc([nH]4)c(-c4c(F)cccc4F)c4nc(c(-c5c(F)cccc5F)c5ccc2[nH]5)C=C4)C=C3)cc1
REMARK SMILES IDX 10 1 9 2 8 3 7 4 6 5 5 6 4 7 3 8 2 9 1 10 36 11 37 12 89 13
REMARK SMILES IDX 38 14 88 15 39 16 40 17 41 18 82 19 42 20 87 21 81 22 83 23
REMARK SMILES IDX 43 24 86 25 80 26 79 27 44 29 70 30 53 31 69 32 54 33 57 34
REMARK SMILES IDX 68 35 84 36 55 37 56 38 67 40 85 41 58 42 45 43 46 44 51 45
REMARK SMILES IDX 47 46 48 47 50 48 52 49 49 50 71 51 72 52 77 53 73 54 74 55
REMARK SMILES IDX 76 56 78 57 75 58 59 59 60 60 65 61 61 62 62 63 64 64 66 65
REMARK SMILES IDX 63 66 11 67 12 68 13 69 14 70 15 71 16 72 17 73 18 74 19 75
REMARK SMILES IDX 35 76 20 77 21 78 22 79 23 81 24 82 25 83 26 84 27 85 33 86
REMARK SMILES IDX 28 87 31 88 34 89 29 90 32 91 30 92
REMARK H PARENT 83 28 57 39 22 80
REMARK Flexibility Score: inf
ROOT
ATOM      1  C   UNL A   1      40.774  20.083  26.912  1.00  0.00     0.188 C 
ENDROOT
BRANCH   1   2
ATOM      2  O   UNL A   1      42.158  19.761  26.930  1.00  0.00    -0.377 OA
BRANCH   2   3
ATOM      3  C   UNL A   1      42.570  18.650  26.133  1.00  0.00     0.188 C 
BRANCH   3   4
ATOM      4  C   UNL A   1      43.899  18.829  25.400  1.00  0.00     0.188 C 
BRANCH   4   5
ATOM      5  O   UNL A   1      43.865  20.032  24.623  1.00  0.00    -0.376 OA
BRANCH   5   6
ATOM      6  C   UNL A   1      44.987  20.896  24.792  1.00  0.00     0.202 C 
BRANCH   6   7
ATOM      7  C   UNL A   1      44.776  22.002  25.825  1.00  0.00     0.261 C 
BRANCH   7   8
ATOM      8  O   UNL A   1      43.503  22.642  25.677  1.00  0.00    -0.460 OA
BRANCH   8   9
ATOM      9  C   UNL A   1      43.232  23.969  25.608  1.00  0.00     0.338 C 
ATOM     10  O   UNL A   1      43.304  24.504  24.501  1.00  0.00    -0.246 OA
BRANCH   9  11
ATOM     11  C   UNL A   1      42.875  24.846  26.778  1.00  0.00     0.060 A 
ATOM     12  C   UNL A   1      42.000  24.531  27.823  1.00  0.00     0.016 A 
ATOM     13  C   UNL A   1      43.534  26.090  26.843  1.00  0.00     0.016 A 
ATOM     14  C   UNL A   1      41.758  25.413  28.872  1.00  0.00     0.010 A 
ATOM     15  C   UNL A   1      43.297  26.987  27.890  1.00  0.00     0.010 A 
ATOM     16  C   UNL A   1      42.388  26.650  28.895  1.00  0.00    -0.014 A 
BRANCH  16  17
ATOM     17  C   UNL A   1      41.940  27.639  29.886  1.00  0.00     0.031 A 
ATOM     18  C   UNL A   1      42.718  27.746  31.160  1.00  0.00     0.074 A 
ATOM     19  C   UNL A   1      40.930  28.477  29.597  1.00  0.00     0.049 A 
ATOM     20  N   UNL A   1      42.479  28.465  32.220  1.00  0.00    -0.248 NA
ATOM     21  C   UNL A   1      43.950  26.938  31.241  1.00  0.00     0.031 C 
ATOM     22  C   UNL A   1      40.215  28.528  28.321  1.00  0.00     0.029 A 
ATOM     23  N   UNL A   1      40.338  29.450  30.356  1.00  0.00    -0.354 N 
ATOM     24  C   UNL A   1      43.507  28.174  33.105  1.00  0.00     0.074 A 
ATOM     25  C   UNL A   1      44.387  27.230  32.456  1.00  0.00     0.031 C 
ATOM     26  C   UNL A   1      39.264  29.475  28.393  1.00  0.00     0.029 A 
ATOM     27  C   UNL A   1      39.268  30.048  29.736  1.00  0.00     0.049 A 
ATOM     28  H   UNL A   1      40.648  29.697  31.257  1.00  0.00     0.167 HD
ATOM     29  C   UNL A   1      43.680  28.646  34.360  1.00  0.00     0.037 A 
ATOM     30  C   UNL A   1      38.368  30.917  30.233  1.00  0.00     0.037 A 
ATOM     31  C   UNL A   1      42.781  29.579  34.976  1.00  0.00     0.049 A 
ATOM     32  C   UNL A   1      38.520  31.342  31.671  1.00  0.00     0.074 A 
ATOM     33  C   UNL A   1      42.819  30.107  36.251  1.00  0.00     0.029 A 
ATOM     34  N   UNL A   1      41.666  30.117  34.345  1.00  0.00    -0.354 N 
ATOM     35  N   UNL A   1      39.469  31.038  32.526  1.00  0.00    -0.248 NA
ATOM     36  C   UNL A   1      37.466  32.203  32.224  1.00  0.00     0.031 C 
ATOM     37  C   UNL A   1      41.698  30.928  36.409  1.00  0.00     0.029 A 
ATOM     38  C   UNL A   1      40.986  30.943  35.217  1.00  0.00     0.049 A 
ATOM     39  H   UNL A   1      41.402  29.936  33.415  1.00  0.00     0.167 HD
ATOM     40  C   UNL A   1      39.132  31.670  33.714  1.00  0.00     0.074 A 
ATOM     41  C   UNL A   1      37.902  32.396  33.462  1.00  0.00     0.031 C 
ATOM     42  C   UNL A   1      39.766  31.648  34.912  1.00  0.00     0.037 A 
BRANCH  29  43
ATOM     43  C   UNL A   1      44.821  28.083  35.150  1.00  0.00     0.057 A 
ATOM     44  C   UNL A   1      46.087  28.680  35.167  1.00  0.00     0.134 A 
ATOM     45  C   UNL A   1      44.651  26.901  35.882  1.00  0.00     0.134 A 
ATOM     46  F   UNL A   1      46.323  29.796  34.461  1.00  0.00    -0.206 F 
ATOM     47  C   UNL A   1      47.150  28.110  35.873  1.00  0.00     0.040 A 
ATOM     48  C   UNL A   1      45.700  26.333  36.604  1.00  0.00     0.040 A 
ATOM     49  F   UNL A   1      43.466  26.273  35.894  1.00  0.00    -0.206 F 
ATOM     50  C   UNL A   1      46.956  26.936  36.596  1.00  0.00     0.006 A 
ENDBRANCH  29  43
BRANCH  30  51
ATOM     51  C   UNL A   1      37.212  31.364  29.412  1.00  0.00     0.057 A 
ATOM     52  C   UNL A   1      36.104  30.540  29.190  1.00  0.00     0.134 A 
ATOM     53  C   UNL A   1      37.205  32.624  28.795  1.00  0.00     0.134 A 
ATOM     54  F   UNL A   1      36.058  29.312  29.728  1.00  0.00    -0.206 F 
ATOM     55  C   UNL A   1      35.042  30.941  28.375  1.00  0.00     0.040 A 
ATOM     56  C   UNL A   1      36.138  33.049  28.001  1.00  0.00     0.040 A 
ATOM     57  F   UNL A   1      38.237  33.465  28.958  1.00  0.00    -0.206 F 
ATOM     58  C   UNL A   1      35.055  32.202  27.782  1.00  0.00     0.006 A 
ENDBRANCH  30  51
BRANCH  42  59
ATOM     59  C   UNL A   1      39.141  32.429  36.025  1.00  0.00     0.057 A 
ATOM     60  C   UNL A   1      38.238  31.837  36.913  1.00  0.00     0.134 A 
ATOM     61  C   UNL A   1      39.508  33.761  36.253  1.00  0.00     0.134 A 
ATOM     62  F   UNL A   1      37.841  30.567  36.735  1.00  0.00    -0.206 F 
ATOM     63  C   UNL A   1      37.714  32.546  37.994  1.00  0.00     0.040 A 
ATOM     64  C   UNL A   1      39.009  34.473  37.343  1.00  0.00     0.040 A 
ATOM     65  F   UNL A   1      40.378  34.377  35.439  1.00  0.00    -0.206 F 
ATOM     66  C   UNL A   1      38.109  33.865  38.216  1.00  0.00     0.006 A 
ENDBRANCH  42  59
ENDBRANCH  16  17
ENDBRANCH   9  11
ENDBRANCH   8   9
ENDBRANCH   7   8
ENDBRANCH   6   7
ENDBRANCH   5   6
ENDBRANCH   4   5
ENDBRANCH   3   4
ENDBRANCH   2   3
ENDBRANCH   1   2
BRANCH   1  67
ATOM     67  C   UNL A   1      40.358  21.565  26.927  1.00  0.00     0.188 C 
BRANCH  67  68
ATOM     68  O   UNL A   1      39.584  22.015  25.841  1.00  0.00    -0.376 OA
BRANCH  68  69
ATOM     69  C   UNL A   1      38.208  21.702  25.731  1.00  0.00     0.202 C 
BRANCH  69  70
ATOM     70  C   UNL A   1      37.208  22.322  24.739  1.00  0.00     0.261 C 
BRANCH  70  71
ATOM     71  O   UNL A   1      35.826  22.377  25.091  1.00  0.00    -0.463 OA
BRANCH  71  72
ATOM     72  C   UNL A   1      35.004  21.375  24.687  1.00  0.00     0.312 C 
ATOM     73  O   UNL A   1      35.166  20.195  24.967  1.00  0.00    -0.252 OA
BRANCH  72  74
ATOM     74  C   UNL A   1      33.800  21.908  23.897  1.00  0.00     0.123 C 
ATOM     75  C   UNL A   1      32.567  22.122  24.726  1.00  0.00    -0.015 C 
ATOM     76  C   UNL A   1      34.019  23.274  23.230  1.00  0.00     0.043 C 
ATOM     77  C   UNL A   1      32.052  23.347  24.565  1.00  0.00    -0.011 C 
ATOM     78  C   UNL A   1      32.868  24.202  23.654  1.00  0.00     0.093 C 
BRANCH  78  79
ATOM     79  N   UNL A   1      32.082  24.566  22.483  1.00  0.00    -0.204 NA
ATOM     80  H   UNL A   1      31.106  24.576  22.779  1.00  0.00     0.142 HD
BRANCH  79  81
ATOM     81  S   UNL A   1      32.353  26.007  21.690  1.00  0.00     0.244 S 
ATOM     82  O   UNL A   1      33.787  26.040  21.483  1.00  0.00    -0.207 OA
ATOM     83  O   UNL A   1      31.434  26.108  20.580  1.00  0.00    -0.207 OA
BRANCH  81  84
ATOM     84  C   UNL A   1      32.000  27.349  22.785  1.00  0.00     0.121 A 
ATOM     85  C   UNL A   1      30.742  27.968  22.669  1.00  0.00     0.028 A 
ATOM     86  C   UNL A   1      32.889  27.797  23.752  1.00  0.00     0.181 A 
ATOM     87  C   UNL A   1      30.388  29.010  23.532  1.00  0.00     0.044 A 
ATOM     88  C   UNL A   1      32.536  28.837  24.605  1.00  0.00     0.195 A 
ATOM     89  F   UNL A   1      34.093  27.255  23.919  1.00  0.00    -0.202 F 
ATOM     90  C   UNL A   1      31.290  29.436  24.500  1.00  0.00     0.161 A 
ATOM     91  F   UNL A   1      33.405  29.252  25.538  1.00  0.00    -0.200 F 
ATOM     92  F   UNL A   1      30.948  30.427  25.333  1.00  0.00    -0.204 F 
ENDBRANCH  81  84
ENDBRANCH  79  81
ENDBRANCH  78  79
ENDBRANCH  72  74
ENDBRANCH  71  72
ENDBRANCH  70  71
ENDBRANCH  69  70
ENDBRANCH  68  69
ENDBRANCH  67  68
ENDBRANCH   1  67
TORSDOF 23
ENDMDL
MODEL 3
REMARK VINA RESULT:     -10.5      2.296      3.846
REMARK SMILES O=C(OCCOCCOCCOCCOC(=O)[C@H]1C=C[C@H](NS(=O)(=O)c2ccc(F)c(F)c2F)C1)c1ccc(-c2c3nc(c(-c4c(F)cccc4F)c4ccc([nH]4)c(-c4c(F)cccc4F)c4nc(c(-c5c(F)cccc5F)c5ccc2[nH]5)C=C4)C=C3)cc1
REMARK SMILES IDX 10 1 9 2 8 3 7 4 6 5 5 6 4 7 3 8 2 9 1 10 36 11 37 12 89 13
REMARK SMILES IDX 38 14 88 15 39 16 40 17 41 18 82 19 42 20 87 21 81 22 83 23
REMARK SMILES IDX 43 24 86 25 80 26 79 27 44 29 70 30 53 31 69 32 54 33 57 34
REMARK SMILES IDX 68 35 84 36 55 37 56 38 67 40 85 41 58 42 45 43 46 44 51 45
REMARK SMILES IDX 47 46 48 47 50 48 52 49 49 50 71 51 72 52 77 53 73 54 74 55
REMARK SMILES IDX 76 56 78 57 75 58 59 59 60 60 65 61 61 62 62 63 64 64 66 65
REMARK SMILES IDX 63 66 11 67 12 68 13 69 14 70 15 71 16 72 17 73 18 74 19 75
REMARK SMILES IDX 35 76 20 77 21 78 22 79 23 81 24 82 25 83 26 84 27 85 33 86
REMARK SMILES IDX 28 87 31 88 34 89 29 90 32 91 30 92
REMARK H PARENT 83 28 57 39 22 80
REMARK Flexibility Score: inf
ROOT
ATOM      1  C   UNL A   1      42.504  20.008  26.252  1.00  0.00     0.188 C 
ENDROOT
BRANCH   1   2
ATOM      2  O   UNL A   1      43.016  19.592  24.993  1.00  0.00    -0.377 OA
BRANCH   2   3
ATOM      3  C   UNL A   1      44.211  18.812  25.011  1.00  0.00     0.188 C 
BRANCH   3   4
ATOM      4  C   UNL A   1      45.440  19.487  24.403  1.00  0.00     0.188 C 
BRANCH   4   5
ATOM      5  O   UNL A   1      45.862  20.570  25.238  1.00  0.00    -0.376 OA
BRANCH   5   6
ATOM      6  C   UNL A   1      45.673  21.872  24.687  1.00  0.00     0.202 C 
BRANCH   6   7
ATOM      7  C   UNL A   1      45.650  22.994  25.723  1.00  0.00     0.261 C 
BRANCH   7   8
ATOM      8  O   UNL A   1      44.631  23.962  25.448  1.00  0.00    -0.460 OA
BRANCH   8   9
ATOM      9  C   UNL A   1      44.691  25.310  25.586  1.00  0.00     0.338 C 
ATOM     10  O   UNL A   1      45.374  25.932  24.771  1.00  0.00    -0.246 OA
BRANCH   9  11
ATOM     11  C   UNL A   1      44.012  26.104  26.669  1.00  0.00     0.060 A 
ATOM     12  C   UNL A   1      44.199  27.460  26.954  1.00  0.00     0.016 A 
ATOM     13  C   UNL A   1      43.054  25.412  27.437  1.00  0.00     0.016 A 
ATOM     14  C   UNL A   1      43.498  28.103  27.970  1.00  0.00     0.010 A 
ATOM     15  C   UNL A   1      42.346  26.045  28.463  1.00  0.00     0.010 A 
ATOM     16  C   UNL A   1      42.589  27.391  28.740  1.00  0.00    -0.014 A 
BRANCH  16  17
ATOM     17  C   UNL A   1      42.041  28.038  29.941  1.00  0.00     0.031 A 
ATOM     18  C   UNL A   1      40.765  28.807  29.794  1.00  0.00     0.074 A 
ATOM     19  C   UNL A   1      42.622  27.848  31.138  1.00  0.00     0.049 A 
ATOM     20  N   UNL A   1      40.131  29.537  30.668  1.00  0.00    -0.248 NA
ATOM     21  C   UNL A   1      40.104  28.727  28.477  1.00  0.00     0.031 C 
ATOM     22  C   UNL A   1      43.787  26.997  31.383  1.00  0.00     0.029 A 
ATOM     23  N   UNL A   1      42.307  28.354  32.369  1.00  0.00    -0.354 N 
ATOM     24  C   UNL A   1      39.017  30.028  30.002  1.00  0.00     0.074 A 
ATOM     25  C   UNL A   1      39.046  29.501  28.658  1.00  0.00     0.031 C 
ATOM     26  C   UNL A   1      44.100  27.055  32.689  1.00  0.00     0.029 A 
ATOM     27  C   UNL A   1      43.197  27.992  33.351  1.00  0.00     0.049 A 
ATOM     28  H   UNL A   1      41.520  28.922  32.536  1.00  0.00     0.167 HD
ATOM     29  C   UNL A   1      38.069  30.866  30.477  1.00  0.00     0.037 A 
ATOM     30  C   UNL A   1      43.289  28.423  34.623  1.00  0.00     0.037 A 
ATOM     31  C   UNL A   1      38.076  31.376  31.819  1.00  0.00     0.049 A 
ATOM     32  C   UNL A   1      42.285  29.442  35.095  1.00  0.00     0.074 A 
ATOM     33  C   UNL A   1      37.198  32.259  32.415  1.00  0.00     0.029 A 
ATOM     34  N   UNL A   1      39.030  31.042  32.772  1.00  0.00    -0.354 N 
ATOM     35  N   UNL A   1      41.252  29.942  34.456  1.00  0.00    -0.248 NA
ATOM     36  C   UNL A   1      42.472  29.981  36.448  1.00  0.00     0.031 C 
ATOM     37  C   UNL A   1      37.650  32.498  33.718  1.00  0.00     0.029 A 
ATOM     38  C   UNL A   1      38.785  31.731  33.944  1.00  0.00     0.049 A 
ATOM     39  H   UNL A   1      39.770  30.408  32.633  1.00  0.00     0.167 HD
ATOM     40  C   UNL A   1      40.665  30.849  35.326  1.00  0.00     0.074 A 
ATOM     41  C   UNL A   1      41.443  30.812  36.550  1.00  0.00     0.031 C 
ATOM     42  C   UNL A   1      39.590  31.652  35.137  1.00  0.00     0.037 A 
BRANCH  29  43
ATOM     43  C   UNL A   1      37.026  31.336  29.512  1.00  0.00     0.057 A 
ATOM     44  C   UNL A   1      35.935  30.540  29.140  1.00  0.00     0.134 A 
ATOM     45  C   UNL A   1      37.138  32.600  28.919  1.00  0.00     0.134 A 
ATOM     46  F   UNL A   1      35.788  29.307  29.648  1.00  0.00    -0.206 F 
ATOM     47  C   UNL A   1      35.000  30.981  28.200  1.00  0.00     0.040 A 
ATOM     48  C   UNL A   1      36.201  33.057  27.993  1.00  0.00     0.040 A 
ATOM     49  F   UNL A   1      38.168  33.404  29.221  1.00  0.00    -0.206 F 
ATOM     50  C   UNL A   1      35.131  32.244  27.627  1.00  0.00     0.006 A 
ENDBRANCH  29  43
BRANCH  30  51
ATOM     51  C   UNL A   1      44.406  27.975  35.496  1.00  0.00     0.057 A 
ATOM     52  C   UNL A   1      45.638  28.637  35.514  1.00  0.00     0.134 A 
ATOM     53  C   UNL A   1      44.278  26.841  36.312  1.00  0.00     0.134 A 
ATOM     54  F   UNL A   1      45.838  29.713  34.737  1.00  0.00    -0.206 F 
ATOM     55  C   UNL A   1      46.704  28.184  36.295  1.00  0.00     0.040 A 
ATOM     56  C   UNL A   1      45.326  26.393  37.119  1.00  0.00     0.040 A 
ATOM     57  F   UNL A   1      43.128  26.153  36.341  1.00  0.00    -0.206 F 
ATOM     58  C   UNL A   1      46.547  27.061  37.106  1.00  0.00     0.006 A 
ENDBRANCH  30  51
BRANCH  42  59
ATOM     59  C   UNL A   1      39.200  32.543  36.274  1.00  0.00     0.057 A 
ATOM     60  C   UNL A   1      38.334  32.103  37.280  1.00  0.00     0.134 A 
ATOM     61  C   UNL A   1      39.758  33.820  36.402  1.00  0.00     0.134 A 
ATOM     62  F   UNL A   1      37.760  30.892  37.203  1.00  0.00    -0.206 F 
ATOM     63  C   UNL A   1      38.031  32.908  38.378  1.00  0.00     0.040 A 
ATOM     64  C   UNL A   1      39.481  34.625  37.505  1.00  0.00     0.040 A 
ATOM     65  F   UNL A   1      40.603  34.291  35.472  1.00  0.00    -0.206 F 
ATOM     66  C   UNL A   1      38.614  34.168  38.497  1.00  0.00     0.006 A 
ENDBRANCH  42  59
ENDBRANCH  16  17
ENDBRANCH   9  11
ENDBRANCH   8   9
ENDBRANCH   7   8
ENDBRANCH   6   7
ENDBRANCH   5   6
ENDBRANCH   4   5
ENDBRANCH   3   4
ENDBRANCH   2   3
ENDBRANCH   1   2
BRANCH   1  67
ATOM     67  C   UNL A   1      42.350  21.515  26.529  1.00  0.00     0.188 C 
BRANCH  67  68
ATOM     68  O   UNL A   1      41.172  22.126  26.061  1.00  0.00    -0.376 OA
BRANCH  68  69
ATOM     69  C   UNL A   1      39.900  21.546  26.277  1.00  0.00     0.202 C 
BRANCH  69  70
ATOM     70  C   UNL A   1      38.539  22.254  26.147  1.00  0.00     0.261 C 
BRANCH  70  71
ATOM     71  O   UNL A   1      37.776  22.074  24.955  1.00  0.00    -0.463 OA
BRANCH  71  72
ATOM     72  C   UNL A   1      36.661  21.301  24.998  1.00  0.00     0.312 C 
ATOM     73  O   UNL A   1      36.671  20.077  25.004  1.00  0.00    -0.252 OA
BRANCH  72  74
ATOM     74  C   UNL A   1      35.384  22.145  25.116  1.00  0.00     0.123 C 
ATOM     75  C   UNL A   1      35.529  23.361  25.985  1.00  0.00    -0.015 C 
ATOM     76  C   UNL A   1      34.865  22.719  23.789  1.00  0.00     0.043 C 
ATOM     77  C   UNL A   1      35.114  24.477  25.372  1.00  0.00    -0.011 C 
ATOM     78  C   UNL A   1      34.674  24.235  23.966  1.00  0.00     0.093 C 
BRANCH  78  79
ATOM     79  N   UNL A   1      33.263  24.565  23.827  1.00  0.00    -0.204 NA
ATOM     80  H   UNL A   1      32.976  24.996  24.706  1.00  0.00     0.142 HD
BRANCH  79  81
ATOM     81  S   UNL A   1      32.741  25.577  22.609  1.00  0.00     0.244 S 
ATOM     82  O   UNL A   1      33.946  25.908  21.876  1.00  0.00    -0.207 OA
ATOM     83  O   UNL A   1      31.607  24.969  21.952  1.00  0.00    -0.207 OA
BRANCH  81  84
ATOM     84  C   UNL A   1      32.182  27.098  23.317  1.00  0.00     0.121 A 
ATOM     85  C   UNL A   1      30.869  27.506  23.025  1.00  0.00     0.028 A 
ATOM     86  C   UNL A   1      32.966  27.883  24.150  1.00  0.00     0.181 A 
ATOM     87  C   UNL A   1      30.355  28.680  23.585  1.00  0.00     0.044 A 
ATOM     88  C   UNL A   1      32.455  29.052  24.701  1.00  0.00     0.195 A 
ATOM     89  F   UNL A   1      34.216  27.555  24.471  1.00  0.00    -0.202 F 
ATOM     90  C   UNL A   1      31.155  29.446  24.426  1.00  0.00     0.161 A 
ATOM     91  F   UNL A   1      33.225  29.796  25.510  1.00  0.00    -0.200 F 
ATOM     92  F   UNL A   1      30.660  30.565  24.970  1.00  0.00    -0.204 F 
ENDBRANCH  81  84
ENDBRANCH  79  81
ENDBRANCH  78  79
ENDBRANCH  72  74
ENDBRANCH  71  72
ENDBRANCH  70  71
ENDBRANCH  69  70
ENDBRANCH  68  69
ENDBRANCH  67  68
ENDBRANCH   1  67
TORSDOF 23
ENDMDL
