MODEL 1
REMARK VINA RESULT:      -7.8      0.000      0.000
REMARK SMILES CN(CCOCC1CC1)C(=O)N1CC[C@](C)(C(=O)OCCOCCOCCOCCOC(=O)c2ccc(-c3c4nc(c(-c5c(F)cccc5F)c5ccc([nH]5)c(-c5c(F)cccc5F)c5nc(c(-c6c(F)cccc6F)c6ccc3[nH]6)C=C5)C=C4)cc2)C1
REMARK SMILES IDX 23 1 22 2 21 3 20 4 19 5 17 6 18 7 15 8 12 9 13 10 88 11
REMARK SMILES IDX 14 12 16 13 10 14 11 15 2 16 1 17 3 18 4 19 5 20 6 21 7 22
REMARK SMILES IDX 8 23 9 24 24 25 25 26 26 27 27 28 28 29 29 30 30 31 31 32
REMARK SMILES IDX 32 33 33 34 34 35 35 36 87 37 36 38 86 39 37 40 38 41 39 42
REMARK SMILES IDX 80 43 40 44 85 45 79 46 81 47 41 48 84 49 78 50 77 51 42 53
REMARK SMILES IDX 68 54 51 55 67 56 52 57 55 58 66 59 82 60 53 61 54 62 65 64
REMARK SMILES IDX 83 65 56 66 43 67 44 68 49 69 45 70 46 71 48 72 50 73 47 74
REMARK SMILES IDX 69 75 70 76 75 77 71 78 72 79 74 80 76 81 73 82 57 83 58 84
REMARK SMILES IDX 63 85 59 86 60 87 62 88 64 89 61 90
REMARK H PARENT 81 52 55 63
REMARK Flexibility Score: inf
ROOT
ATOM      1  C   UNL A   1      36.874  33.800  35.382  1.00  0.00     0.188 C 
ENDROOT
BRANCH   1   2
ATOM      2  O   UNL A   1      37.176  32.849  36.385  1.00  0.00    -0.376 OA
BRANCH   2   3
ATOM      3  C   UNL A   1      37.244  33.264  37.743  1.00  0.00     0.202 C 
BRANCH   3   4
ATOM      4  C   UNL A   1      38.432  34.087  38.281  1.00  0.00     0.261 C 
BRANCH   4   5
ATOM      5  O   UNL A   1      38.593  34.171  39.718  1.00  0.00    -0.463 OA
BRANCH   5   6
ATOM      6  C   UNL A   1      38.742  32.987  40.358  1.00  0.00     0.313 C 
ATOM      7  O   UNL A   1      39.580  32.146  40.033  1.00  0.00    -0.252 OA
BRANCH   6   8
ATOM      8  C   UNL A   1      37.789  32.723  41.522  1.00  0.00     0.084 C 
ATOM      9  N   UNL A   1      35.507  32.911  42.302  1.00  0.00    -0.323 N 
ATOM     10  C   UNL A   1      36.280  33.931  42.987  1.00  0.00     0.122 C 
ATOM     11  C   UNL A   1      36.342  32.255  41.263  1.00  0.00     0.139 C 
ATOM     12  C   UNL A   1      37.568  34.079  42.212  1.00  0.00     0.042 C 
ATOM     13  C   UNL A   1      38.503  31.722  42.443  1.00  0.00     0.026 C 
BRANCH   9  14
ATOM     14  C   UNL A   1      34.156  32.890  42.580  1.00  0.00     0.319 C 
ATOM     15  O   UNL A   1      33.344  33.015  41.653  1.00  0.00    -0.248 OA
BRANCH  14  16
ATOM     16  N   UNL A   1      33.673  32.755  43.862  1.00  0.00    -0.325 N 
ATOM     17  C   UNL A   1      32.513  33.580  44.210  1.00  0.00     0.148 C 
BRANCH  16  18
ATOM     18  C   UNL A   1      34.261  31.985  44.948  1.00  0.00     0.149 C 
BRANCH  18  19
ATOM     19  C   UNL A   1      34.590  30.520  44.610  1.00  0.00     0.181 C 
BRANCH  19  20
ATOM     20  O   UNL A   1      35.274  29.782  45.616  1.00  0.00    -0.379 OA
BRANCH  20  21
ATOM     21  C   UNL A   1      34.445  29.021  46.491  1.00  0.00     0.163 C 
BRANCH  21  22
ATOM     22  C   UNL A   1      33.232  28.503  45.799  1.00  0.00     0.015 C 
ATOM     23  C   UNL A   1      32.686  27.116  46.017  1.00  0.00     0.006 C 
ATOM     24  C   UNL A   1      31.971  28.294  46.607  1.00  0.00     0.006 C 
ENDBRANCH  21  22
ENDBRANCH  20  21
ENDBRANCH  19  20
ENDBRANCH  18  19
ENDBRANCH  16  18
ENDBRANCH  14  16
ENDBRANCH   9  14
ENDBRANCH   6   8
ENDBRANCH   5   6
ENDBRANCH   4   5
ENDBRANCH   3   4
ENDBRANCH   2   3
ENDBRANCH   1   2
BRANCH   1  25
ATOM     25  C   UNL A   1      35.902  33.416  34.262  1.00  0.00     0.188 C 
BRANCH  25  26
ATOM     26  O   UNL A   1      34.786  34.270  34.103  1.00  0.00    -0.377 OA
BRANCH  26  27
ATOM     27  C   UNL A   1      34.845  35.361  33.190  1.00  0.00     0.188 C 
BRANCH  27  28
ATOM     28  C   UNL A   1      34.090  36.652  33.517  1.00  0.00     0.188 C 
BRANCH  28  29
ATOM     29  O   UNL A   1      32.783  36.807  32.962  1.00  0.00    -0.376 OA
BRANCH  29  30
ATOM     30  C   UNL A   1      32.383  35.935  31.904  1.00  0.00     0.202 C 
BRANCH  30  31
ATOM     31  C   UNL A   1      32.478  36.540  30.512  1.00  0.00     0.261 C 
BRANCH  31  32
ATOM     32  O   UNL A   1      33.606  35.972  29.822  1.00  0.00    -0.460 OA
BRANCH  32  33
ATOM     33  C   UNL A   1      33.356  34.850  29.125  1.00  0.00     0.338 C 
ATOM     34  O   UNL A   1      32.400  34.630  28.392  1.00  0.00    -0.246 OA
BRANCH  33  35
ATOM     35  C   UNL A   1      34.512  33.943  29.210  1.00  0.00     0.060 A 
ATOM     36  C   UNL A   1      34.524  33.037  30.275  1.00  0.00     0.016 A 
ATOM     37  C   UNL A   1      35.602  34.032  28.339  1.00  0.00     0.016 A 
ATOM     38  C   UNL A   1      35.663  32.284  30.534  1.00  0.00     0.010 A 
ATOM     39  C   UNL A   1      36.748  33.270  28.599  1.00  0.00     0.010 A 
ATOM     40  C   UNL A   1      36.803  32.442  29.735  1.00  0.00    -0.014 A 
BRANCH  40  41
ATOM     41  C   UNL A   1      38.092  31.909  30.242  1.00  0.00     0.031 A 
ATOM     42  C   UNL A   1      38.617  30.620  29.665  1.00  0.00     0.074 A 
ATOM     43  C   UNL A   1      38.837  32.610  31.116  1.00  0.00     0.049 A 
ATOM     44  N   UNL A   1      39.741  29.996  29.910  1.00  0.00    -0.248 NA
ATOM     45  C   UNL A   1      37.763  29.945  28.672  1.00  0.00     0.031 C 
ATOM     46  C   UNL A   1      38.470  33.899  31.697  1.00  0.00     0.029 A 
ATOM     47  N   UNL A   1      40.071  32.336  31.651  1.00  0.00    -0.354 N 
ATOM     48  C   UNL A   1      39.724  28.857  29.113  1.00  0.00     0.074 A 
ATOM     49  C   UNL A   1      38.468  28.858  28.397  1.00  0.00     0.031 C 
ATOM     50  C   UNL A   1      39.463  34.310  32.505  1.00  0.00     0.029 A 
ATOM     51  C   UNL A   1      40.518  33.297  32.524  1.00  0.00     0.049 A 
ATOM     52  H   UNL A   1      40.587  31.527  31.429  1.00  0.00     0.167 HD
ATOM     53  C   UNL A   1      40.673  27.901  28.980  1.00  0.00     0.037 A 
ATOM     54  C   UNL A   1      41.642  33.343  33.265  1.00  0.00     0.037 A 
ATOM     55  C   UNL A   1      41.932  27.909  29.677  1.00  0.00     0.049 A 
ATOM     56  C   UNL A   1      42.644  32.221  33.158  1.00  0.00     0.074 A 
ATOM     57  C   UNL A   1      42.973  27.001  29.583  1.00  0.00     0.029 A 
ATOM     58  N   UNL A   1      42.318  28.866  30.602  1.00  0.00    -0.354 N 
ATOM     59  N   UNL A   1      42.632  31.168  32.378  1.00  0.00    -0.248 NA
ATOM     60  C   UNL A   1      43.819  32.298  34.039  1.00  0.00     0.031 C 
ATOM     61  C   UNL A   1      43.959  27.370  30.502  1.00  0.00     0.029 A 
ATOM     62  C   UNL A   1      43.563  28.547  31.117  1.00  0.00     0.049 A 
ATOM     63  H   UNL A   1      41.785  29.655  30.855  1.00  0.00     0.167 HD
ATOM     64  C   UNL A   1      43.811  30.480  32.645  1.00  0.00     0.074 A 
ATOM     65  C   UNL A   1      44.520  31.243  33.650  1.00  0.00     0.031 C 
ATOM     66  C   UNL A   1      44.267  29.321  32.108  1.00  0.00     0.037 A 
BRANCH  53  67
ATOM     67  C   UNL A   1      40.376  26.741  28.075  1.00  0.00     0.057 A 
ATOM     68  C   UNL A   1      40.955  26.612  26.807  1.00  0.00     0.134 A 
ATOM     69  C   UNL A   1      39.534  25.707  28.507  1.00  0.00     0.134 A 
ATOM     70  F   UNL A   1      41.759  27.573  26.326  1.00  0.00    -0.206 F 
ATOM     71  C   UNL A   1      40.696  25.506  25.995  1.00  0.00     0.040 A 
ATOM     72  C   UNL A   1      39.290  24.584  27.718  1.00  0.00     0.040 A 
ATOM     73  F   UNL A   1      38.950  25.765  29.714  1.00  0.00    -0.206 F 
ATOM     74  C   UNL A   1      39.868  24.483  26.455  1.00  0.00     0.006 A 
ENDBRANCH  53  67
BRANCH  54  75
ATOM     75  C   UNL A   1      41.887  34.478  34.194  1.00  0.00     0.057 A 
ATOM     76  C   UNL A   1      41.440  34.442  35.521  1.00  0.00     0.134 A 
ATOM     77  C   UNL A   1      42.518  35.649  33.760  1.00  0.00     0.134 A 
ATOM     78  F   UNL A   1      40.805  33.360  35.991  1.00  0.00    -0.206 F 
ATOM     79  C   UNL A   1      41.583  35.541  36.371  1.00  0.00     0.040 A 
ATOM     80  C   UNL A   1      42.697  36.743  34.608  1.00  0.00     0.040 A 
ATOM     81  F   UNL A   1      42.968  35.750  32.500  1.00  0.00    -0.206 F 
ATOM     82  C   UNL A   1      42.217  36.695  35.915  1.00  0.00     0.006 A 
ENDBRANCH  54  75
BRANCH  66  83
ATOM     83  C   UNL A   1      45.614  28.832  32.556  1.00  0.00     0.057 A 
ATOM     84  C   UNL A   1      46.800  29.228  31.925  1.00  0.00     0.134 A 
ATOM     85  C   UNL A   1      45.729  27.979  33.664  1.00  0.00     0.134 A 
ATOM     86  F   UNL A   1      46.763  30.036  30.854  1.00  0.00    -0.206 F 
ATOM     87  C   UNL A   1      48.046  28.772  32.359  1.00  0.00     0.040 A 
ATOM     88  C   UNL A   1      46.971  27.542  34.126  1.00  0.00     0.040 A 
ATOM     89  F   UNL A   1      44.635  27.570  34.325  1.00  0.00    -0.206 F 
ATOM     90  C   UNL A   1      48.135  27.932  33.467  1.00  0.00     0.006 A 
ENDBRANCH  66  83
ENDBRANCH  40  41
ENDBRANCH  33  35
ENDBRANCH  32  33
ENDBRANCH  31  32
ENDBRANCH  30  31
ENDBRANCH  29  30
ENDBRANCH  28  29
ENDBRANCH  27  28
ENDBRANCH  26  27
ENDBRANCH  25  26
ENDBRANCH   1  25
TORSDOF 27
ENDMDL
MODEL 2
REMARK VINA RESULT:      -7.7      1.060      1.998
REMARK SMILES CN(CCOCC1CC1)C(=O)N1CC[C@](C)(C(=O)OCCOCCOCCOCCOC(=O)c2ccc(-c3c4nc(c(-c5c(F)cccc5F)c5ccc([nH]5)c(-c5c(F)cccc5F)c5nc(c(-c6c(F)cccc6F)c6ccc3[nH]6)C=C5)C=C4)cc2)C1
REMARK SMILES IDX 23 1 22 2 21 3 20 4 19 5 17 6 18 7 15 8 12 9 13 10 88 11
REMARK SMILES IDX 14 12 16 13 10 14 11 15 2 16 1 17 3 18 4 19 5 20 6 21 7 22
REMARK SMILES IDX 8 23 9 24 24 25 25 26 26 27 27 28 28 29 29 30 30 31 31 32
REMARK SMILES IDX 32 33 33 34 34 35 35 36 87 37 36 38 86 39 37 40 38 41 39 42
REMARK SMILES IDX 80 43 40 44 85 45 79 46 81 47 41 48 84 49 78 50 77 51 42 53
REMARK SMILES IDX 68 54 51 55 67 56 52 57 55 58 66 59 82 60 53 61 54 62 65 64
REMARK SMILES IDX 83 65 56 66 43 67 44 68 49 69 45 70 46 71 48 72 50 73 47 74
REMARK SMILES IDX 69 75 70 76 75 77 71 78 72 79 74 80 76 81 73 82 57 83 58 84
REMARK SMILES IDX 63 85 59 86 60 87 62 88 64 89 61 90
REMARK H PARENT 81 52 55 63
REMARK Flexibility Score: inf
ROOT
ATOM      1  C   UNL A   1      36.434  33.880  35.216  1.00  0.00     0.188 C 
ENDROOT
BRANCH   1   2
ATOM      2  O   UNL A   1      35.930  33.673  36.522  1.00  0.00    -0.376 OA
BRANCH   2   3
ATOM      3  C   UNL A   1      36.821  33.295  37.563  1.00  0.00     0.202 C 
BRANCH   3   4
ATOM      4  C   UNL A   1      36.310  32.885  38.959  1.00  0.00     0.261 C 
BRANCH   4   5
ATOM      5  O   UNL A   1      37.297  32.681  40.000  1.00  0.00    -0.463 OA
BRANCH   5   6
ATOM      6  C   UNL A   1      37.319  31.442  40.546  1.00  0.00     0.313 C 
ATOM      7  O   UNL A   1      37.323  30.410  39.875  1.00  0.00    -0.252 OA
BRANCH   6   8
ATOM      8  C   UNL A   1      37.323  31.375  42.072  1.00  0.00     0.084 C 
ATOM      9  N   UNL A   1      36.163  32.029  44.092  1.00  0.00    -0.323 N 
ATOM     10  C   UNL A   1      37.347  32.861  43.988  1.00  0.00     0.122 C 
ATOM     11  C   UNL A   1      36.002  31.221  42.855  1.00  0.00     0.139 C 
ATOM     12  C   UNL A   1      37.827  32.742  42.561  1.00  0.00     0.042 C 
ATOM     13  C   UNL A   1      38.288  30.241  42.450  1.00  0.00     0.026 C 
BRANCH   9  14
ATOM     14  C   UNL A   1      35.335  32.289  45.164  1.00  0.00     0.319 C 
ATOM     15  O   UNL A   1      35.236  33.449  45.587  1.00  0.00    -0.248 OA
BRANCH  14  16
ATOM     16  N   UNL A   1      34.625  31.296  45.800  1.00  0.00    -0.325 N 
ATOM     17  C   UNL A   1      35.322  30.584  46.874  1.00  0.00     0.148 C 
BRANCH  16  18
ATOM     18  C   UNL A   1      33.311  30.786  45.441  1.00  0.00     0.149 C 
BRANCH  18  19
ATOM     19  C   UNL A   1      32.767  29.671  46.353  1.00  0.00     0.181 C 
BRANCH  19  20
ATOM     20  O   UNL A   1      32.595  28.393  45.749  1.00  0.00    -0.379 OA
BRANCH  20  21
ATOM     21  C   UNL A   1      33.397  27.346  46.288  1.00  0.00     0.163 C 
BRANCH  21  22
ATOM     22  C   UNL A   1      32.746  26.690  47.456  1.00  0.00     0.015 C 
ATOM     23  C   UNL A   1      31.254  26.656  47.659  1.00  0.00     0.006 C 
ATOM     24  C   UNL A   1      31.971  25.411  47.230  1.00  0.00     0.006 C 
ENDBRANCH  21  22
ENDBRANCH  20  21
ENDBRANCH  19  20
ENDBRANCH  18  19
ENDBRANCH  16  18
ENDBRANCH  14  16
ENDBRANCH   9  14
ENDBRANCH   6   8
ENDBRANCH   5   6
ENDBRANCH   4   5
ENDBRANCH   3   4
ENDBRANCH   2   3
ENDBRANCH   1   2
BRANCH   1  25
ATOM     25  C   UNL A   1      35.583  33.459  34.015  1.00  0.00     0.188 C 
BRANCH  25  26
ATOM     26  O   UNL A   1      34.532  34.341  33.671  1.00  0.00    -0.377 OA
BRANCH  26  27
ATOM     27  C   UNL A   1      34.820  35.574  33.020  1.00  0.00     0.188 C 
BRANCH  27  28
ATOM     28  C   UNL A   1      34.004  36.819  33.378  1.00  0.00     0.188 C 
BRANCH  28  29
ATOM     29  O   UNL A   1      32.722  36.963  32.766  1.00  0.00    -0.376 OA
BRANCH  29  30
ATOM     30  C   UNL A   1      32.360  36.061  31.720  1.00  0.00     0.202 C 
BRANCH  30  31
ATOM     31  C   UNL A   1      32.497  36.628  30.316  1.00  0.00     0.261 C 
BRANCH  31  32
ATOM     32  O   UNL A   1      33.618  36.007  29.660  1.00  0.00    -0.460 OA
BRANCH  32  33
ATOM     33  C   UNL A   1      33.354  34.849  29.031  1.00  0.00     0.338 C 
ATOM     34  O   UNL A   1      32.381  34.589  28.333  1.00  0.00    -0.246 OA
BRANCH  33  35
ATOM     35  C   UNL A   1      34.513  33.949  29.138  1.00  0.00     0.060 A 
ATOM     36  C   UNL A   1      34.531  33.071  30.227  1.00  0.00     0.016 A 
ATOM     37  C   UNL A   1      35.602  34.019  28.263  1.00  0.00     0.016 A 
ATOM     38  C   UNL A   1      35.672  32.330  30.503  1.00  0.00     0.010 A 
ATOM     39  C   UNL A   1      36.751  33.268  28.542  1.00  0.00     0.010 A 
ATOM     40  C   UNL A   1      36.811  32.470  29.699  1.00  0.00    -0.014 A 
BRANCH  40  41
ATOM     41  C   UNL A   1      38.103  31.956  30.218  1.00  0.00     0.031 A 
ATOM     42  C   UNL A   1      38.634  30.656  29.672  1.00  0.00     0.074 A 
ATOM     43  C   UNL A   1      38.844  32.681  31.075  1.00  0.00     0.049 A 
ATOM     44  N   UNL A   1      39.761  30.044  29.931  1.00  0.00    -0.248 NA
ATOM     45  C   UNL A   1      37.783  29.955  28.695  1.00  0.00     0.031 C 
ATOM     46  C   UNL A   1      38.471  33.981  31.626  1.00  0.00     0.029 A 
ATOM     47  N   UNL A   1      40.080  32.425  31.616  1.00  0.00    -0.354 N 
ATOM     48  C   UNL A   1      39.750  28.887  29.161  1.00  0.00     0.074 A 
ATOM     49  C   UNL A   1      38.493  28.864  28.445  1.00  0.00     0.031 C 
ATOM     50  C   UNL A   1      39.462  34.416  32.425  1.00  0.00     0.029 A 
ATOM     51  C   UNL A   1      40.521  33.409  32.467  1.00  0.00     0.049 A 
ATOM     52  H   UNL A   1      40.600  31.614  31.414  1.00  0.00     0.167 HD
ATOM     53  C   UNL A   1      40.703  27.933  29.050  1.00  0.00     0.037 A 
ATOM     54  C   UNL A   1      41.646  33.478  33.206  1.00  0.00     0.037 A 
ATOM     55  C   UNL A   1      41.963  27.963  29.747  1.00  0.00     0.049 A 
ATOM     56  C   UNL A   1      42.654  32.358  33.126  1.00  0.00     0.074 A 
ATOM     57  C   UNL A   1      43.007  27.058  29.673  1.00  0.00     0.029 A 
ATOM     58  N   UNL A   1      42.344  28.943  30.649  1.00  0.00    -0.354 N 
ATOM     59  N   UNL A   1      42.647  31.287  32.370  1.00  0.00    -0.248 NA
ATOM     60  C   UNL A   1      43.828  32.462  34.005  1.00  0.00     0.031 C 
ATOM     61  C   UNL A   1      43.992  27.453  30.583  1.00  0.00     0.029 A 
ATOM     62  C   UNL A   1      43.590  28.642  31.171  1.00  0.00     0.049 A 
ATOM     63  H   UNL A   1      41.807  29.735  30.883  1.00  0.00     0.167 HD
ATOM     64  C   UNL A   1      43.829  30.612  32.653  1.00  0.00     0.074 A 
ATOM     65  C   UNL A   1      44.534  31.402  33.640  1.00  0.00     0.031 C 
ATOM     66  C   UNL A   1      44.290  29.443  32.143  1.00  0.00     0.037 A 
BRANCH  53  67
ATOM     67  C   UNL A   1      40.412  26.750  28.172  1.00  0.00     0.057 A 
ATOM     68  C   UNL A   1      39.520  25.740  28.548  1.00  0.00     0.134 A 
ATOM     69  C   UNL A   1      40.998  26.654  26.902  1.00  0.00     0.134 A 
ATOM     70  F   UNL A   1      38.934  25.763  29.755  1.00  0.00    -0.206 F 
ATOM     71  C   UNL A   1      39.233  24.667  27.701  1.00  0.00     0.040 A 
ATOM     72  C   UNL A   1      40.699  25.603  26.036  1.00  0.00     0.040 A 
ATOM     73  F   UNL A   1      41.859  27.591  26.478  1.00  0.00    -0.206 F 
ATOM     74  C   UNL A   1      39.816  24.602  26.436  1.00  0.00     0.006 A 
ENDBRANCH  53  67
BRANCH  54  75
ATOM     75  C   UNL A   1      41.885  34.635  34.109  1.00  0.00     0.057 A 
ATOM     76  C   UNL A   1      42.534  35.790  33.658  1.00  0.00     0.134 A 
ATOM     77  C   UNL A   1      41.524  34.586  35.461  1.00  0.00     0.134 A 
ATOM     78  F   UNL A   1      42.927  35.889  32.380  1.00  0.00    -0.206 F 
ATOM     79  C   UNL A   1      42.844  36.841  34.523  1.00  0.00     0.040 A 
ATOM     80  C   UNL A   1      41.799  35.642  36.331  1.00  0.00     0.040 A 
ATOM     81  F   UNL A   1      40.902  33.508  35.960  1.00  0.00    -0.206 F 
ATOM     82  C   UNL A   1      42.474  36.769  35.865  1.00  0.00     0.006 A 
ENDBRANCH  54  75
BRANCH  66  83
ATOM     83  C   UNL A   1      45.640  28.971  32.603  1.00  0.00     0.057 A 
ATOM     84  C   UNL A   1      45.798  28.121  33.705  1.00  0.00     0.134 A 
ATOM     85  C   UNL A   1      46.799  29.343  31.905  1.00  0.00     0.134 A 
ATOM     86  F   UNL A   1      44.733  27.734  34.422  1.00  0.00    -0.206 F 
ATOM     87  C   UNL A   1      47.059  27.684  34.115  1.00  0.00     0.040 A 
ATOM     88  C   UNL A   1      48.061  28.887  32.287  1.00  0.00     0.040 A 
ATOM     89  F   UNL A   1      46.720  30.144  30.832  1.00  0.00    -0.206 F 
ATOM     90  C   UNL A   1      48.195  28.061  33.401  1.00  0.00     0.006 A 
ENDBRANCH  66  83
ENDBRANCH  40  41
ENDBRANCH  33  35
ENDBRANCH  32  33
ENDBRANCH  31  32
ENDBRANCH  30  31
ENDBRANCH  29  30
ENDBRANCH  28  29
ENDBRANCH  27  28
ENDBRANCH  26  27
ENDBRANCH  25  26
ENDBRANCH   1  25
TORSDOF 27
ENDMDL
MODEL 3
REMARK VINA RESULT:      -7.6      6.014     13.399
REMARK SMILES CN(CCOCC1CC1)C(=O)N1CC[C@](C)(C(=O)OCCOCCOCCOCCOC(=O)c2ccc(-c3c4nc(c(-c5c(F)cccc5F)c5ccc([nH]5)c(-c5c(F)cccc5F)c5nc(c(-c6c(F)cccc6F)c6ccc3[nH]6)C=C5)C=C4)cc2)C1
REMARK SMILES IDX 23 1 22 2 21 3 20 4 19 5 17 6 18 7 15 8 12 9 13 10 88 11
REMARK SMILES IDX 14 12 16 13 10 14 11 15 2 16 1 17 3 18 4 19 5 20 6 21 7 22
REMARK SMILES IDX 8 23 9 24 24 25 25 26 26 27 27 28 28 29 29 30 30 31 31 32
REMARK SMILES IDX 32 33 33 34 34 35 35 36 87 37 36 38 86 39 37 40 38 41 39 42
REMARK SMILES IDX 80 43 40 44 85 45 79 46 81 47 41 48 84 49 78 50 77 51 42 53
REMARK SMILES IDX 68 54 51 55 67 56 52 57 55 58 66 59 82 60 53 61 54 62 65 64
REMARK SMILES IDX 83 65 56 66 43 67 44 68 49 69 45 70 46 71 48 72 50 73 47 74
REMARK SMILES IDX 69 75 70 76 75 77 71 78 72 79 74 80 76 81 73 82 57 83 58 84
REMARK SMILES IDX 63 85 59 86 60 87 62 88 64 89 61 90
REMARK H PARENT 81 52 55 63
REMARK Flexibility Score: inf
ROOT
ATOM      1  C   UNL A   1      45.881  19.398  25.026  1.00  0.00     0.188 C 
ENDROOT
BRANCH   1   2
ATOM      2  O   UNL A   1      46.335  20.647  24.541  1.00  0.00    -0.376 OA
BRANCH   2   3
ATOM      3  C   UNL A   1      45.835  21.845  25.122  1.00  0.00     0.202 C 
BRANCH   3   4
ATOM      4  C   UNL A   1      46.493  23.213  24.852  1.00  0.00     0.261 C 
BRANCH   4   5
ATOM      5  O   UNL A   1      46.376  24.227  25.880  1.00  0.00    -0.463 OA
BRANCH   5   6
ATOM      6  C   UNL A   1      46.230  25.496  25.432  1.00  0.00     0.313 C 
ATOM      7  O   UNL A   1      46.693  25.892  24.363  1.00  0.00    -0.252 OA
BRANCH   6   8
ATOM      8  C   UNL A   1      45.457  26.450  26.342  1.00  0.00     0.084 C 
ATOM      9  N   UNL A   1      44.511  28.667  26.551  1.00  0.00    -0.323 N 
ATOM     10  C   UNL A   1      45.707  28.631  27.373  1.00  0.00     0.122 C 
ATOM     11  C   UNL A   1      44.405  27.415  25.758  1.00  0.00     0.139 C 
ATOM     12  C   UNL A   1      46.495  27.423  26.924  1.00  0.00     0.042 C 
ATOM     13  C   UNL A   1      44.816  25.578  27.432  1.00  0.00     0.026 C 
BRANCH   9  14
ATOM     14  C   UNL A   1      43.851  29.876  26.499  1.00  0.00     0.319 C 
ATOM     15  O   UNL A   1      42.786  29.960  25.871  1.00  0.00    -0.248 OA
BRANCH  14  16
ATOM     16  N   UNL A   1      44.345  31.009  27.106  1.00  0.00    -0.325 N 
ATOM     17  C   UNL A   1      45.529  31.613  26.490  1.00  0.00     0.148 C 
BRANCH  16  18
ATOM     18  C   UNL A   1      43.905  31.597  28.362  1.00  0.00     0.149 C 
BRANCH  18  19
ATOM     19  C   UNL A   1      44.304  33.069  28.573  1.00  0.00     0.181 C 
BRANCH  19  20
ATOM     20  O   UNL A   1      43.238  34.011  28.605  1.00  0.00    -0.379 OA
BRANCH  20  21
ATOM     21  C   UNL A   1      43.621  35.364  28.841  1.00  0.00     0.163 C 
BRANCH  21  22
ATOM     22  C   UNL A   1      42.722  36.327  28.147  1.00  0.00     0.015 C 
ATOM     23  C   UNL A   1      43.227  37.452  27.282  1.00  0.00     0.006 C 
ATOM     24  C   UNL A   1      42.601  36.249  26.642  1.00  0.00     0.006 C 
ENDBRANCH  21  22
ENDBRANCH  20  21
ENDBRANCH  19  20
ENDBRANCH  18  19
ENDBRANCH  16  18
ENDBRANCH  14  16
ENDBRANCH   9  14
ENDBRANCH   6   8
ENDBRANCH   5   6
ENDBRANCH   4   5
ENDBRANCH   3   4
ENDBRANCH   2   3
ENDBRANCH   1   2
BRANCH   1  25
ATOM     25  C   UNL A   1      44.379  19.096  25.015  1.00  0.00     0.188 C 
BRANCH  25  26
ATOM     26  O   UNL A   1      43.957  18.064  25.886  1.00  0.00    -0.377 OA
BRANCH  26  27
ATOM     27  C   UNL A   1      42.760  18.213  26.640  1.00  0.00     0.188 C 
BRANCH  27  28
ATOM     28  C   UNL A   1      41.758  19.303  26.248  1.00  0.00     0.188 C 
BRANCH  28  29
ATOM     29  O   UNL A   1      41.100  20.002  27.305  1.00  0.00    -0.376 OA
BRANCH  29  30
ATOM     30  C   UNL A   1      41.597  21.285  27.688  1.00  0.00     0.202 C 
BRANCH  30  31
ATOM     31  C   UNL A   1      41.444  22.367  26.631  1.00  0.00     0.261 C 
BRANCH  31  32
ATOM     32  O   UNL A   1      41.792  23.642  27.201  1.00  0.00    -0.460 OA
BRANCH  32  33
ATOM     33  C   UNL A   1      41.453  24.717  26.469  1.00  0.00     0.338 C 
ATOM     34  O   UNL A   1      41.451  24.813  25.248  1.00  0.00    -0.246 OA
BRANCH  33  35
ATOM     35  C   UNL A   1      40.887  25.756  27.344  1.00  0.00     0.060 A 
ATOM     36  C   UNL A   1      41.309  27.070  27.116  1.00  0.00     0.016 A 
ATOM     37  C   UNL A   1      40.045  25.457  28.420  1.00  0.00     0.016 A 
ATOM     38  C   UNL A   1      40.972  28.074  28.014  1.00  0.00     0.010 A 
ATOM     39  C   UNL A   1      39.703  26.471  29.323  1.00  0.00     0.010 A 
ATOM     40  C   UNL A   1      40.219  27.769  29.156  1.00  0.00    -0.014 A 
BRANCH  40  41
ATOM     41  C   UNL A   1      40.185  28.763  30.258  1.00  0.00     0.031 A 
ATOM     42  C   UNL A   1      39.149  29.856  30.212  1.00  0.00     0.074 A 
ATOM     43  C   UNL A   1      40.983  28.635  31.333  1.00  0.00     0.049 A 
ATOM     44  N   UNL A   1      38.892  30.796  31.085  1.00  0.00    -0.248 NA
ATOM     45  C   UNL A   1      38.278  29.889  29.024  1.00  0.00     0.031 C 
ATOM     46  C   UNL A   1      41.980  27.585  31.527  1.00  0.00     0.029 A 
ATOM     47  N   UNL A   1      41.062  29.392  32.476  1.00  0.00    -0.354 N 
ATOM     48  C   UNL A   1      37.843  31.534  30.550  1.00  0.00     0.074 A 
ATOM     49  C   UNL A   1      37.527  30.954  29.264  1.00  0.00     0.031 C 
ATOM     50  C   UNL A   1      42.569  27.760  32.723  1.00  0.00     0.029 A 
ATOM     51  C   UNL A   1      42.014  28.952  33.362  1.00  0.00     0.049 A 
ATOM     52  H   UNL A   1      40.490  30.175  32.644  1.00  0.00     0.167 HD
ATOM     53  C   UNL A   1      37.193  32.594  31.084  1.00  0.00     0.037 A 
ATOM     54  C   UNL A   1      42.401  29.464  34.547  1.00  0.00     0.037 A 
ATOM     55  C   UNL A   1      37.493  33.162  32.373  1.00  0.00     0.049 A 
ATOM     56  C   UNL A   1      41.715  30.697  35.079  1.00  0.00     0.074 A 
ATOM     57  C   UNL A   1      36.868  34.216  33.015  1.00  0.00     0.029 A 
ATOM     58  N   UNL A   1      38.508  32.728  33.211  1.00  0.00    -0.354 N 
ATOM     59  N   UNL A   1      40.704  31.366  34.580  1.00  0.00    -0.248 NA
ATOM     60  C   UNL A   1      42.227  31.245  36.344  1.00  0.00     0.031 C 
ATOM     61  C   UNL A   1      37.548  34.466  34.210  1.00  0.00     0.029 A 
ATOM     62  C   UNL A   1      38.553  33.521  34.345  1.00  0.00     0.049 A 
ATOM     63  H   UNL A   1      39.108  31.969  33.026  1.00  0.00     0.167 HD
ATOM     64  C   UNL A   1      40.435  32.386  35.487  1.00  0.00     0.074 A 
ATOM     65  C   UNL A   1      41.381  32.238  36.572  1.00  0.00     0.031 C 
ATOM     66  C   UNL A   1      39.490  33.357  35.427  1.00  0.00     0.037 A 
BRANCH  53  67
ATOM     67  C   UNL A   1      36.115  33.241  30.264  1.00  0.00     0.057 A 
ATOM     68  C   UNL A   1      36.395  33.999  29.121  1.00  0.00     0.134 A 
ATOM     69  C   UNL A   1      34.766  33.053  30.599  1.00  0.00     0.134 A 
ATOM     70  F   UNL A   1      37.665  34.230  28.753  1.00  0.00    -0.206 F 
ATOM     71  C   UNL A   1      35.376  34.561  28.350  1.00  0.00     0.040 A 
ATOM     72  C   UNL A   1      33.738  33.584  29.820  1.00  0.00     0.040 A 
ATOM     73  F   UNL A   1      34.428  32.333  31.679  1.00  0.00    -0.206 F 
ATOM     74  C   UNL A   1      34.042  34.345  28.694  1.00  0.00     0.006 A 
ENDBRANCH  53  67
BRANCH  54  75
ATOM     75  C   UNL A   1      43.509  28.836  35.314  1.00  0.00     0.057 A 
ATOM     76  C   UNL A   1      43.263  27.844  36.271  1.00  0.00     0.134 A 
ATOM     77  C   UNL A   1      44.835  29.257  35.151  1.00  0.00     0.134 A 
ATOM     78  F   UNL A   1      42.013  27.415  36.493  1.00  0.00    -0.206 F 
ATOM     79  C   UNL A   1      44.288  27.318  37.060  1.00  0.00     0.040 A 
ATOM     80  C   UNL A   1      45.874  28.717  35.910  1.00  0.00     0.040 A 
ATOM     81  F   UNL A   1      45.140  30.206  34.253  1.00  0.00    -0.206 F 
ATOM     82  C   UNL A   1      45.599  27.753  36.878  1.00  0.00     0.006 A 
ENDBRANCH  54  75
BRANCH  66  83
ATOM     83  C   UNL A   1      39.398  34.306  36.587  1.00  0.00     0.057 A 
ATOM     84  C   UNL A   1      38.729  33.974  37.772  1.00  0.00     0.134 A 
ATOM     85  C   UNL A   1      40.023  35.561  36.531  1.00  0.00     0.134 A 
ATOM     86  F   UNL A   1      38.102  32.793  37.890  1.00  0.00    -0.206 F 
ATOM     87  C   UNL A   1      38.659  34.863  38.846  1.00  0.00     0.040 A 
ATOM     88  C   UNL A   1      39.987  36.445  37.610  1.00  0.00     0.040 A 
ATOM     89  F   UNL A   1      40.693  35.940  35.432  1.00  0.00    -0.206 F 
ATOM     90  C   UNL A   1      39.295  36.101  38.769  1.00  0.00     0.006 A 
ENDBRANCH  66  83
ENDBRANCH  40  41
ENDBRANCH  33  35
ENDBRANCH  32  33
ENDBRANCH  31  32
ENDBRANCH  30  31
ENDBRANCH  29  30
ENDBRANCH  28  29
ENDBRANCH  27  28
ENDBRANCH  26  27
ENDBRANCH  25  26
ENDBRANCH   1  25
TORSDOF 27
ENDMDL
