MODEL 1
REMARK VINA RESULT:     -10.1      0.000      0.000
REMARK SMILES CC(C)(C)c1ccc(NS(=O)(=O)c2cccc(C(=O)OCCOCCOCCOCCOC(=O)c3ccc(-c4c5nc(c(-c6c(F)cccc6F)c6ccc([nH]6)c(-c6c(F)cccc6F)c6nc(c(-c7c(F)cccc7F)c7ccc4[nH]7)C=C6)C=C5)cc3)c2)cc1
REMARK SMILES IDX 25 1 24 2 23 3 22 4 21 5 20 6 18 7 19 8 17 9 13 10 14 11
REMARK SMILES IDX 89 12 15 13 16 14 10 15 11 16 12 17 9 18 8 20 5 21 6 22
REMARK SMILES IDX 91 23 7 24 90 25 2 26 1 27 3 28 4 29 26 30 27 31 28 32 29 33
REMARK SMILES IDX 30 34 31 35 32 36 33 37 34 38 35 39 36 40 88 41 37 42 87 43
REMARK SMILES IDX 38 44 39 45 40 46 81 47 41 48 86 49 80 50 82 51 42 52 85 53
REMARK SMILES IDX 79 54 78 55 43 57 69 58 52 59 68 60 53 61 56 62 67 63 83 64
REMARK SMILES IDX 54 65 55 66 66 68 84 69 57 70 44 71 45 72 50 73 46 74 47 75
REMARK SMILES IDX 49 76 51 77 48 78 70 79 71 80 76 81 72 82 73 83 75 84 77 85
REMARK SMILES IDX 74 86 58 87 59 88 64 89 60 90 61 91 63 92 65 93 62 94
REMARK H PARENT 9 19 82 56 56 67
REMARK Flexibility Score: inf
ROOT
ATOM      1  C   UNL A   1      34.525  24.560  23.532  1.00  0.00     0.188 C 
ENDROOT
BRANCH   1   2
ATOM      2  C   UNL A   1      33.650  25.363  22.554  1.00  0.00     0.188 C 
BRANCH   2   3
ATOM      3  O   UNL A   1      32.278  24.982  22.615  1.00  0.00    -0.376 OA
BRANCH   3   4
ATOM      4  C   UNL A   1      31.349  25.740  21.854  1.00  0.00     0.202 C 
BRANCH   4   5
ATOM      5  C   UNL A   1      31.357  27.271  22.001  1.00  0.00     0.261 C 
BRANCH   5   6
ATOM      6  O   UNL A   1      30.326  27.826  22.823  1.00  0.00    -0.460 OA
BRANCH   6   7
ATOM      7  C   UNL A   1      30.686  28.618  23.847  1.00  0.00     0.338 C 
ATOM      8  O   UNL A   1      30.291  29.746  24.087  1.00  0.00    -0.246 OA
BRANCH   7   9
ATOM      9  C   UNL A   1      31.513  27.797  24.763  1.00  0.00     0.061 A 
ATOM     10  C   UNL A   1      31.826  25.835  26.127  1.00  0.00     0.088 A 
ATOM     11  C   UNL A   1      33.145  26.211  26.406  1.00  0.00     0.022 A 
ATOM     12  C   UNL A   1      30.971  26.673  25.396  1.00  0.00     0.038 A 
ATOM     13  C   UNL A   1      33.650  27.386  25.843  1.00  0.00     0.002 A 
ATOM     14  C   UNL A   1      32.854  28.149  24.981  1.00  0.00     0.016 A 
BRANCH  10  15
ATOM     15  S   UNL A   1      31.330  24.134  26.325  1.00  0.00     0.261 S 
ATOM     16  O   UNL A   1      29.943  24.013  25.935  1.00  0.00    -0.201 OA
ATOM     17  O   UNL A   1      31.777  23.715  27.637  1.00  0.00    -0.201 OA
BRANCH  15  18
ATOM     18  N   UNL A   1      32.249  23.272  25.209  1.00  0.00    -0.280 N 
ATOM     19  H   UNL A   1      32.874  23.794  24.656  1.00  0.00     0.180 HD
BRANCH  18  20
ATOM     20  C   UNL A   1      32.220  21.856  24.978  1.00  0.00     0.049 A 
ATOM     21  C   UNL A   1      33.016  19.154  24.480  1.00  0.00    -0.042 A 
ATOM     22  C   UNL A   1      32.586  19.983  23.453  1.00  0.00     0.006 A 
ATOM     23  C   UNL A   1      32.917  19.668  25.788  1.00  0.00     0.006 A 
ATOM     24  C   UNL A   1      32.172  21.288  23.714  1.00  0.00     0.027 A 
ATOM     25  C   UNL A   1      32.552  21.008  26.030  1.00  0.00     0.027 A 
BRANCH  21  26
ATOM     26  C   UNL A   1      33.637  17.782  24.190  1.00  0.00    -0.013 C 
ATOM     27  C   UNL A   1      33.382  17.267  22.750  1.00  0.00     0.016 C 
ATOM     28  C   UNL A   1      33.073  16.730  25.159  1.00  0.00     0.016 C 
ATOM     29  C   UNL A   1      35.167  17.894  24.358  1.00  0.00     0.016 C 
ENDBRANCH  21  26
ENDBRANCH  18  20
ENDBRANCH  15  18
ENDBRANCH  10  15
ENDBRANCH   7   9
ENDBRANCH   6   7
ENDBRANCH   5   6
ENDBRANCH   4   5
ENDBRANCH   3   4
ENDBRANCH   2   3
ENDBRANCH   1   2
BRANCH   1  30
ATOM     30  O   UNL A   1      35.291  23.550  22.900  1.00  0.00    -0.377 OA
BRANCH  30  31
ATOM     31  C   UNL A   1      36.412  23.027  23.611  1.00  0.00     0.188 C 
BRANCH  31  32
ATOM     32  C   UNL A   1      36.917  23.649  24.936  1.00  0.00     0.188 C 
BRANCH  32  33
ATOM     33  O   UNL A   1      37.440  22.723  25.883  1.00  0.00    -0.376 OA
BRANCH  33  34
ATOM     34  C   UNL A   1      38.060  21.549  25.375  1.00  0.00     0.202 C 
BRANCH  34  35
ATOM     35  C   UNL A   1      39.329  21.121  26.122  1.00  0.00     0.261 C 
BRANCH  35  36
ATOM     36  O   UNL A   1      40.097  20.097  25.472  1.00  0.00    -0.460 OA
BRANCH  36  37
ATOM     37  C   UNL A   1      41.206  19.663  26.106  1.00  0.00     0.338 C 
ATOM     38  O   UNL A   1      41.555  18.511  26.289  1.00  0.00    -0.246 OA
BRANCH  37  39
ATOM     39  C   UNL A   1      42.047  20.838  26.396  1.00  0.00     0.060 A 
ATOM     40  C   UNL A   1      42.216  21.235  27.728  1.00  0.00     0.016 A 
ATOM     41  C   UNL A   1      42.657  21.544  25.356  1.00  0.00     0.016 A 
ATOM     42  C   UNL A   1      42.959  22.377  28.022  1.00  0.00     0.010 A 
ATOM     43  C   UNL A   1      43.384  22.697  25.649  1.00  0.00     0.010 A 
ATOM     44  C   UNL A   1      43.504  23.138  26.978  1.00  0.00    -0.014 A 
BRANCH  44  45
ATOM     45  C   UNL A   1      43.997  24.506  27.249  1.00  0.00     0.031 A 
ATOM     46  C   UNL A   1      42.997  25.550  27.659  1.00  0.00     0.074 A 
ATOM     47  C   UNL A   1      45.300  24.817  27.140  1.00  0.00     0.049 A 
ATOM     48  N   UNL A   1      43.174  26.822  27.905  1.00  0.00    -0.248 NA
ATOM     49  C   UNL A   1      41.605  25.095  27.806  1.00  0.00     0.031 C 
ATOM     50  C   UNL A   1      46.366  23.886  26.779  1.00  0.00     0.029 A 
ATOM     51  N   UNL A   1      45.939  26.019  27.313  1.00  0.00    -0.354 N 
ATOM     52  C   UNL A   1      41.919  27.318  28.235  1.00  0.00     0.074 A 
ATOM     53  C   UNL A   1      40.984  26.219  28.125  1.00  0.00     0.031 C 
ATOM     54  C   UNL A   1      47.531  24.557  26.741  1.00  0.00     0.029 A 
ATOM     55  C   UNL A   1      47.285  25.966  27.049  1.00  0.00     0.049 A 
ATOM     56  H   UNL A   1      45.478  26.839  27.599  1.00  0.00     0.167 HD
ATOM     57  C   UNL A   1      41.577  28.573  28.606  1.00  0.00     0.037 A 
ATOM     58  C   UNL A   1      48.205  26.950  27.039  1.00  0.00     0.037 A 
ATOM     59  C   UNL A   1      42.504  29.667  28.699  1.00  0.00     0.049 A 
ATOM     60  C   UNL A   1      47.789  28.356  27.385  1.00  0.00     0.074 A 
ATOM     61  C   UNL A   1      42.258  30.976  29.072  1.00  0.00     0.029 A 
ATOM     62  N   UNL A   1      43.856  29.580  28.404  1.00  0.00    -0.354 N 
ATOM     63  N   UNL A   1      46.607  28.810  27.725  1.00  0.00    -0.248 NA
ATOM     64  C   UNL A   1      48.838  29.386  27.347  1.00  0.00     0.031 C 
ATOM     65  C   UNL A   1      43.455  31.693  28.958  1.00  0.00     0.029 A 
ATOM     66  C   UNL A   1      44.455  30.817  28.564  1.00  0.00     0.049 A 
ATOM     67  H   UNL A   1      44.321  28.759  28.122  1.00  0.00     0.167 HD
ATOM     68  C   UNL A   1      46.774  30.169  27.968  1.00  0.00     0.074 A 
ATOM     69  C   UNL A   1      48.175  30.462  27.746  1.00  0.00     0.031 C 
ATOM     70  C   UNL A   1      45.853  31.089  28.346  1.00  0.00     0.037 A 
BRANCH  57  71
ATOM     71  C   UNL A   1      40.129  28.824  28.908  1.00  0.00     0.057 A 
ATOM     72  C   UNL A   1      39.614  28.698  30.206  1.00  0.00     0.134 A 
ATOM     73  C   UNL A   1      39.242  29.193  27.892  1.00  0.00     0.134 A 
ATOM     74  F   UNL A   1      40.409  28.327  31.221  1.00  0.00    -0.206 F 
ATOM     75  C   UNL A   1      38.260  28.905  30.475  1.00  0.00     0.040 A 
ATOM     76  C   UNL A   1      37.891  29.428  28.153  1.00  0.00     0.040 A 
ATOM     77  F   UNL A   1      39.671  29.329  26.628  1.00  0.00    -0.206 F 
ATOM     78  C   UNL A   1      37.396  29.276  29.447  1.00  0.00     0.006 A 
ENDBRANCH  57  71
BRANCH  58  79
ATOM     79  C   UNL A   1      49.611  26.645  26.679  1.00  0.00     0.057 A 
ATOM     80  C   UNL A   1      50.039  26.658  25.347  1.00  0.00     0.134 A 
ATOM     81  C   UNL A   1      50.559  26.317  27.657  1.00  0.00     0.134 A 
ATOM     82  F   UNL A   1      49.172  26.940  24.363  1.00  0.00    -0.206 F 
ATOM     83  C   UNL A   1      51.353  26.345  24.997  1.00  0.00     0.040 A 
ATOM     84  C   UNL A   1      51.882  26.025  27.325  1.00  0.00     0.040 A 
ATOM     85  F   UNL A   1      50.210  26.283  28.952  1.00  0.00    -0.206 F 
ATOM     86  C   UNL A   1      52.281  26.032  25.989  1.00  0.00     0.006 A 
ENDBRANCH  58  79
BRANCH  70  87
ATOM     87  C   UNL A   1      46.333  32.492  28.581  1.00  0.00     0.057 A 
ATOM     88  C   UNL A   1      46.334  33.455  27.564  1.00  0.00     0.134 A 
ATOM     89  C   UNL A   1      46.753  32.896  29.854  1.00  0.00     0.134 A 
ATOM     90  F   UNL A   1      45.953  33.130  26.319  1.00  0.00    -0.206 F 
ATOM     91  C   UNL A   1      46.752  34.766  27.801  1.00  0.00     0.040 A 
ATOM     92  C   UNL A   1      47.151  34.209  30.110  1.00  0.00     0.040 A 
ATOM     93  F   UNL A   1      46.768  32.025  30.875  1.00  0.00    -0.206 F 
ATOM     94  C   UNL A   1      47.156  35.147  29.080  1.00  0.00     0.006 A 
ENDBRANCH  70  87
ENDBRANCH  44  45
ENDBRANCH  37  39
ENDBRANCH  36  37
ENDBRANCH  35  36
ENDBRANCH  34  35
ENDBRANCH  33  34
ENDBRANCH  32  33
ENDBRANCH  31  32
ENDBRANCH  30  31
ENDBRANCH   1  30
TORSDOF 24
ENDMDL
MODEL 2
REMARK VINA RESULT:     -10.0      0.861      5.902
REMARK SMILES CC(C)(C)c1ccc(NS(=O)(=O)c2cccc(C(=O)OCCOCCOCCOCCOC(=O)c3ccc(-c4c5nc(c(-c6c(F)cccc6F)c6ccc([nH]6)c(-c6c(F)cccc6F)c6nc(c(-c7c(F)cccc7F)c7ccc4[nH]7)C=C6)C=C5)cc3)c2)cc1
REMARK SMILES IDX 25 1 24 2 23 3 22 4 21 5 20 6 18 7 19 8 17 9 13 10 14 11
REMARK SMILES IDX 89 12 15 13 16 14 10 15 11 16 12 17 9 18 8 20 5 21 6 22
REMARK SMILES IDX 91 23 7 24 90 25 2 26 1 27 3 28 4 29 26 30 27 31 28 32 29 33
REMARK SMILES IDX 30 34 31 35 32 36 33 37 34 38 35 39 36 40 88 41 37 42 87 43
REMARK SMILES IDX 38 44 39 45 40 46 81 47 41 48 86 49 80 50 82 51 42 52 85 53
REMARK SMILES IDX 79 54 78 55 43 57 69 58 52 59 68 60 53 61 56 62 67 63 83 64
REMARK SMILES IDX 54 65 55 66 66 68 84 69 57 70 44 71 45 72 50 73 46 74 47 75
REMARK SMILES IDX 49 76 51 77 48 78 70 79 71 80 76 81 72 82 73 83 75 84 77 85
REMARK SMILES IDX 74 86 58 87 59 88 64 89 60 90 61 91 63 92 65 93 62 94
REMARK H PARENT 9 19 82 56 56 67
REMARK Flexibility Score: inf
ROOT
ATOM      1  C   UNL A   1      34.520  24.561  23.521  1.00  0.00     0.188 C 
ENDROOT
BRANCH   1   2
ATOM      2  C   UNL A   1      33.753  25.517  22.592  1.00  0.00     0.188 C 
BRANCH   2   3
ATOM      3  O   UNL A   1      32.421  25.075  22.339  1.00  0.00    -0.376 OA
BRANCH   3   4
ATOM      4  C   UNL A   1      31.537  25.981  21.694  1.00  0.00     0.202 C 
BRANCH   4   5
ATOM      5  C   UNL A   1      31.652  27.478  22.024  1.00  0.00     0.261 C 
BRANCH   5   6
ATOM      6  O   UNL A   1      30.588  28.030  22.804  1.00  0.00    -0.460 OA
BRANCH   6   7
ATOM      7  C   UNL A   1      30.904  28.742  23.900  1.00  0.00     0.338 C 
ATOM      8  O   UNL A   1      30.534  29.868  24.186  1.00  0.00    -0.246 OA
BRANCH   7   9
ATOM      9  C   UNL A   1      31.637  27.832  24.813  1.00  0.00     0.061 A 
ATOM     10  C   UNL A   1      31.831  25.737  25.986  1.00  0.00     0.088 A 
ATOM     11  C   UNL A   1      33.101  26.091  26.456  1.00  0.00     0.022 A 
ATOM     12  C   UNL A   1      31.049  26.642  25.255  1.00  0.00     0.038 A 
ATOM     13  C   UNL A   1      33.643  27.325  26.085  1.00  0.00     0.002 A 
ATOM     14  C   UNL A   1      32.936  28.170  25.222  1.00  0.00     0.016 A 
BRANCH  10  15
ATOM     15  S   UNL A   1      31.351  24.021  25.942  1.00  0.00     0.261 S 
ATOM     16  O   UNL A   1      30.568  23.794  24.747  1.00  0.00    -0.201 OA
ATOM     17  O   UNL A   1      30.827  23.696  27.252  1.00  0.00    -0.201 OA
BRANCH  15  18
ATOM     18  N   UNL A   1      32.790  23.162  25.777  1.00  0.00    -0.280 N 
ATOM     19  H   UNL A   1      33.612  23.696  25.682  1.00  0.00     0.180 HD
BRANCH  18  20
ATOM     20  C   UNL A   1      32.946  21.736  25.759  1.00  0.00     0.049 A 
ATOM     21  C   UNL A   1      33.443  19.054  24.896  1.00  0.00    -0.042 A 
ATOM     22  C   UNL A   1      32.153  19.559  24.986  1.00  0.00     0.006 A 
ATOM     23  C   UNL A   1      34.478  19.883  25.372  1.00  0.00     0.006 A 
ATOM     24  C   UNL A   1      31.924  20.858  25.437  1.00  0.00     0.027 A 
ATOM     25  C   UNL A   1      34.236  21.213  25.771  1.00  0.00     0.027 A 
BRANCH  21  26
ATOM     26  C   UNL A   1      33.724  17.697  24.240  1.00  0.00    -0.013 C 
ATOM     27  C   UNL A   1      33.020  16.503  24.935  1.00  0.00     0.016 C 
ATOM     28  C   UNL A   1      35.234  17.407  24.249  1.00  0.00     0.016 C 
ATOM     29  C   UNL A   1      33.199  17.739  22.789  1.00  0.00     0.016 C 
ENDBRANCH  21  26
ENDBRANCH  18  20
ENDBRANCH  15  18
ENDBRANCH  10  15
ENDBRANCH   7   9
ENDBRANCH   6   7
ENDBRANCH   5   6
ENDBRANCH   4   5
ENDBRANCH   3   4
ENDBRANCH   2   3
ENDBRANCH   1   2
BRANCH   1  30
ATOM     30  O   UNL A   1      35.264  23.577  22.825  1.00  0.00    -0.377 OA
BRANCH  30  31
ATOM     31  C   UNL A   1      36.354  22.964  23.511  1.00  0.00     0.188 C 
BRANCH  31  32
ATOM     32  C   UNL A   1      36.952  23.551  24.813  1.00  0.00     0.188 C 
BRANCH  32  33
ATOM     33  O   UNL A   1      37.455  22.594  25.738  1.00  0.00    -0.376 OA
BRANCH  33  34
ATOM     34  C   UNL A   1      38.061  21.424  25.204  1.00  0.00     0.202 C 
BRANCH  34  35
ATOM     35  C   UNL A   1      39.104  20.769  26.118  1.00  0.00     0.261 C 
BRANCH  35  36
ATOM     36  O   UNL A   1      39.964  19.819  25.471  1.00  0.00    -0.460 OA
BRANCH  36  37
ATOM     37  C   UNL A   1      41.139  19.541  26.075  1.00  0.00     0.338 C 
ATOM     38  O   UNL A   1      41.665  18.451  26.210  1.00  0.00    -0.246 OA
BRANCH  37  39
ATOM     39  C   UNL A   1      41.792  20.822  26.397  1.00  0.00     0.060 A 
ATOM     40  C   UNL A   1      41.976  21.166  27.742  1.00  0.00     0.016 A 
ATOM     41  C   UNL A   1      42.214  21.677  25.376  1.00  0.00     0.016 A 
ATOM     42  C   UNL A   1      42.539  22.398  28.071  1.00  0.00     0.010 A 
ATOM     43  C   UNL A   1      42.760  22.916  25.706  1.00  0.00     0.010 A 
ATOM     44  C   UNL A   1      42.887  23.296  27.053  1.00  0.00    -0.014 A 
BRANCH  44  45
ATOM     45  C   UNL A   1      43.167  24.710  27.387  1.00  0.00     0.031 A 
ATOM     46  C   UNL A   1      44.588  25.189  27.298  1.00  0.00     0.074 A 
ATOM     47  C   UNL A   1      42.187  25.550  27.758  1.00  0.00     0.049 A 
ATOM     48  N   UNL A   1      45.091  26.362  27.583  1.00  0.00    -0.248 NA
ATOM     49  C   UNL A   1      45.578  24.206  26.827  1.00  0.00     0.031 C 
ATOM     50  C   UNL A   1      40.770  25.211  27.854  1.00  0.00     0.029 A 
ATOM     51  N   UNL A   1      42.249  26.868  28.136  1.00  0.00    -0.354 N 
ATOM     52  C   UNL A   1      46.452  26.258  27.326  1.00  0.00     0.074 A 
ATOM     53  C   UNL A   1      46.703  24.899  26.895  1.00  0.00     0.031 C 
ATOM     54  C   UNL A   1      40.094  26.292  28.282  1.00  0.00     0.029 A 
ATOM     55  C   UNL A   1      41.036  27.387  28.513  1.00  0.00     0.049 A 
ATOM     56  H   UNL A   1      43.082  27.391  28.136  1.00  0.00     0.167 HD
ATOM     57  C   UNL A   1      47.408  27.211  27.429  1.00  0.00     0.037 A 
ATOM     58  C   UNL A   1      40.730  28.602  29.007  1.00  0.00     0.037 A 
ATOM     59  C   UNL A   1      47.160  28.555  27.872  1.00  0.00     0.049 A 
ATOM     60  C   UNL A   1      41.821  29.626  29.183  1.00  0.00     0.074 A 
ATOM     61  C   UNL A   1      48.059  29.598  28.006  1.00  0.00     0.029 A 
ATOM     62  N   UNL A   1      45.921  29.038  28.265  1.00  0.00    -0.354 N 
ATOM     63  N   UNL A   1      43.099  29.530  28.910  1.00  0.00    -0.248 NA
ATOM     64  C   UNL A   1      41.423  30.930  29.735  1.00  0.00     0.031 C 
ATOM     65  C   UNL A   1      47.371  30.702  28.524  1.00  0.00     0.029 A 
ATOM     66  C   UNL A   1      46.034  30.359  28.663  1.00  0.00     0.049 A 
ATOM     67  H   UNL A   1      45.085  28.519  28.261  1.00  0.00     0.167 HD
ATOM     68  C   UNL A   1      43.653  30.765  29.229  1.00  0.00     0.074 A 
ATOM     69  C   UNL A   1      42.568  31.597  29.707  1.00  0.00     0.031 C 
ATOM     70  C   UNL A   1      44.942  31.174  29.130  1.00  0.00     0.037 A 
BRANCH  57  71
ATOM     71  C   UNL A   1      48.810  26.810  27.081  1.00  0.00     0.057 A 
ATOM     72  C   UNL A   1      49.680  26.263  28.034  1.00  0.00     0.134 A 
ATOM     73  C   UNL A   1      49.297  26.974  25.779  1.00  0.00     0.134 A 
ATOM     74  F   UNL A   1      49.280  26.098  29.304  1.00  0.00    -0.206 F 
ATOM     75  C   UNL A   1      50.993  25.918  27.711  1.00  0.00     0.040 A 
ATOM     76  C   UNL A   1      50.600  26.610  25.437  1.00  0.00     0.040 A 
ATOM     77  F   UNL A   1      48.516  27.494  24.820  1.00  0.00    -0.206 F 
ATOM     78  C   UNL A   1      51.454  26.088  26.406  1.00  0.00     0.006 A 
ENDBRANCH  57  71
BRANCH  58  79
ATOM     79  C   UNL A   1      39.330  28.918  29.383  1.00  0.00     0.057 A 
ATOM     80  C   UNL A   1      38.852  28.676  30.675  1.00  0.00     0.134 A 
ATOM     81  C   UNL A   1      38.430  29.454  28.453  1.00  0.00     0.134 A 
ATOM     82  F   UNL A   1      39.660  28.139  31.603  1.00  0.00    -0.206 F 
ATOM     83  C   UNL A   1      37.529  28.943  31.029  1.00  0.00     0.040 A 
ATOM     84  C   UNL A   1      37.111  29.749  28.799  1.00  0.00     0.040 A 
ATOM     85  F   UNL A   1      38.825  29.706  27.196  1.00  0.00    -0.206 F 
ATOM     86  C   UNL A   1      36.655  29.487  30.089  1.00  0.00     0.006 A 
ENDBRANCH  58  79
BRANCH  70  87
ATOM     87  C   UNL A   1      45.247  32.595  29.510  1.00  0.00     0.057 A 
ATOM     88  C   UNL A   1      45.144  33.646  28.591  1.00  0.00     0.134 A 
ATOM     89  C   UNL A   1      45.600  32.918  30.826  1.00  0.00     0.134 A 
ATOM     90  F   UNL A   1      44.821  33.402  27.312  1.00  0.00    -0.206 F 
ATOM     91  C   UNL A   1      45.399  34.967  28.963  1.00  0.00     0.040 A 
ATOM     92  C   UNL A   1      45.834  34.237  31.217  1.00  0.00     0.040 A 
ATOM     93  F   UNL A   1      45.706  31.959  31.759  1.00  0.00    -0.206 F 
ATOM     94  C   UNL A   1      45.738  35.266  30.283  1.00  0.00     0.006 A 
ENDBRANCH  70  87
ENDBRANCH  44  45
ENDBRANCH  37  39
ENDBRANCH  36  37
ENDBRANCH  35  36
ENDBRANCH  34  35
ENDBRANCH  33  34
ENDBRANCH  32  33
ENDBRANCH  31  32
ENDBRANCH  30  31
ENDBRANCH   1  30
TORSDOF 24
ENDMDL
MODEL 3
REMARK VINA RESULT:      -9.7      4.977      7.980
REMARK SMILES CC(C)(C)c1ccc(NS(=O)(=O)c2cccc(C(=O)OCCOCCOCCOCCOC(=O)c3ccc(-c4c5nc(c(-c6c(F)cccc6F)c6ccc([nH]6)c(-c6c(F)cccc6F)c6nc(c(-c7c(F)cccc7F)c7ccc4[nH]7)C=C6)C=C5)cc3)c2)cc1
REMARK SMILES IDX 25 1 24 2 23 3 22 4 21 5 20 6 18 7 19 8 17 9 13 10 14 11
REMARK SMILES IDX 89 12 15 13 16 14 10 15 11 16 12 17 9 18 8 20 5 21 6 22
REMARK SMILES IDX 91 23 7 24 90 25 2 26 1 27 3 28 4 29 26 30 27 31 28 32 29 33
REMARK SMILES IDX 30 34 31 35 32 36 33 37 34 38 35 39 36 40 88 41 37 42 87 43
REMARK SMILES IDX 38 44 39 45 40 46 81 47 41 48 86 49 80 50 82 51 42 52 85 53
REMARK SMILES IDX 79 54 78 55 43 57 69 58 52 59 68 60 53 61 56 62 67 63 83 64
REMARK SMILES IDX 54 65 55 66 66 68 84 69 57 70 44 71 45 72 50 73 46 74 47 75
REMARK SMILES IDX 49 76 51 77 48 78 70 79 71 80 76 81 72 82 73 83 75 84 77 85
REMARK SMILES IDX 74 86 58 87 59 88 64 89 60 90 61 91 63 92 65 93 62 94
REMARK H PARENT 9 19 82 56 56 67
REMARK Flexibility Score: inf
ROOT
ATOM      1  C   UNL A   1      37.325  21.462  24.860  1.00  0.00     0.188 C 
ENDROOT
BRANCH   1   2
ATOM      2  C   UNL A   1      35.901  21.248  25.402  1.00  0.00     0.188 C 
BRANCH   2   3
ATOM      3  O   UNL A   1      34.994  22.252  24.954  1.00  0.00    -0.376 OA
BRANCH   3   4
ATOM      4  C   UNL A   1      35.457  23.168  23.972  1.00  0.00     0.202 C 
BRANCH   4   5
ATOM      5  C   UNL A   1      34.591  23.404  22.723  1.00  0.00     0.261 C 
BRANCH   5   6
ATOM      6  O   UNL A   1      34.357  24.772  22.374  1.00  0.00    -0.460 OA
BRANCH   6   7
ATOM      7  C   UNL A   1      33.256  25.067  21.660  1.00  0.00     0.338 C 
ATOM      8  O   UNL A   1      33.185  25.284  20.463  1.00  0.00    -0.246 OA
BRANCH   7   9
ATOM      9  C   UNL A   1      32.093  24.888  22.561  1.00  0.00     0.061 A 
ATOM     10  C   UNL A   1      30.943  23.676  24.298  1.00  0.00     0.088 A 
ATOM     11  C   UNL A   1      29.927  24.639  24.329  1.00  0.00     0.022 A 
ATOM     12  C   UNL A   1      31.970  23.736  23.345  1.00  0.00     0.038 A 
ATOM     13  C   UNL A   1      30.011  25.742  23.476  1.00  0.00     0.002 A 
ATOM     14  C   UNL A   1      31.117  25.894  22.632  1.00  0.00     0.016 A 
BRANCH  10  15
ATOM     15  S   UNL A   1      31.188  22.602  25.699  1.00  0.00     0.261 S 
ATOM     16  O   UNL A   1      31.798  21.376  25.236  1.00  0.00    -0.201 OA
ATOM     17  O   UNL A   1      29.945  22.585  26.440  1.00  0.00    -0.201 OA
BRANCH  15  18
ATOM     18  N   UNL A   1      32.313  23.393  26.671  1.00  0.00    -0.280 N 
ATOM     19  H   UNL A   1      32.804  22.836  27.317  1.00  0.00     0.180 HD
BRANCH  18  20
ATOM     20  C   UNL A   1      32.633  24.791  26.658  1.00  0.00     0.049 A 
ATOM     21  C   UNL A   1      32.836  27.539  25.887  1.00  0.00    -0.042 A 
ATOM     22  C   UNL A   1      33.866  26.641  25.644  1.00  0.00     0.006 A 
ATOM     23  C   UNL A   1      31.748  27.060  26.643  1.00  0.00     0.006 A 
ATOM     24  C   UNL A   1      33.766  25.311  26.052  1.00  0.00     0.027 A 
ATOM     25  C   UNL A   1      31.635  25.700  26.998  1.00  0.00     0.027 A 
BRANCH  21  26
ATOM     26  C   UNL A   1      32.855  28.953  25.293  1.00  0.00    -0.013 C 
ATOM     27  C   UNL A   1      31.447  29.529  24.992  1.00  0.00     0.016 C 
ATOM     28  C   UNL A   1      33.645  28.962  23.975  1.00  0.00     0.016 C 
ATOM     29  C   UNL A   1      33.514  29.903  26.315  1.00  0.00     0.016 C 
ENDBRANCH  21  26
ENDBRANCH  18  20
ENDBRANCH  15  18
ENDBRANCH  10  15
ENDBRANCH   7   9
ENDBRANCH   6   7
ENDBRANCH   5   6
ENDBRANCH   4   5
ENDBRANCH   3   4
ENDBRANCH   2   3
ENDBRANCH   1   2
BRANCH   1  30
ATOM     30  O   UNL A   1      38.202  22.052  25.802  1.00  0.00    -0.377 OA
BRANCH  30  31
ATOM     31  C   UNL A   1      39.446  21.399  26.048  1.00  0.00     0.188 C 
BRANCH  31  32
ATOM     32  C   UNL A   1      40.452  21.903  27.112  1.00  0.00     0.188 C 
BRANCH  32  33
ATOM     33  O   UNL A   1      41.822  21.856  26.725  1.00  0.00    -0.376 OA
BRANCH  33  34
ATOM     34  C   UNL A   1      42.267  22.820  25.781  1.00  0.00     0.202 C 
BRANCH  34  35
ATOM     35  C   UNL A   1      43.062  23.986  26.384  1.00  0.00     0.261 C 
BRANCH  35  36
ATOM     36  O   UNL A   1      42.907  25.240  25.701  1.00  0.00    -0.460 OA
BRANCH  36  37
ATOM     37  C   UNL A   1      41.719  25.867  25.828  1.00  0.00     0.338 C 
ATOM     38  O   UNL A   1      40.767  25.817  25.071  1.00  0.00    -0.246 OA
BRANCH  37  39
ATOM     39  C   UNL A   1      41.686  26.501  27.159  1.00  0.00     0.060 A 
ATOM     40  C   UNL A   1      40.685  26.122  28.062  1.00  0.00     0.016 A 
ATOM     41  C   UNL A   1      42.635  27.465  27.506  1.00  0.00     0.016 A 
ATOM     42  C   UNL A   1      40.599  26.749  29.303  1.00  0.00     0.010 A 
ATOM     43  C   UNL A   1      42.537  28.104  28.741  1.00  0.00     0.010 A 
ATOM     44  C   UNL A   1      41.496  27.776  29.626  1.00  0.00    -0.014 A 
BRANCH  44  45
ATOM     45  C   UNL A   1      41.213  28.661  30.777  1.00  0.00     0.031 A 
ATOM     46  C   UNL A   1      40.103  29.664  30.642  1.00  0.00     0.074 A 
ATOM     47  C   UNL A   1      41.919  28.577  31.917  1.00  0.00     0.049 A 
ATOM     48  N   UNL A   1      39.696  30.575  31.487  1.00  0.00    -0.248 NA
ATOM     49  C   UNL A   1      39.353  29.637  29.375  1.00  0.00     0.031 C 
ATOM     50  C   UNL A   1      42.998  27.627  32.178  1.00  0.00     0.029 A 
ATOM     51  N   UNL A   1      41.833  29.320  33.068  1.00  0.00    -0.354 N 
ATOM     52  C   UNL A   1      38.645  31.228  30.855  1.00  0.00     0.074 A 
ATOM     53  C   UNL A   1      38.499  30.633  29.544  1.00  0.00     0.031 C 
ATOM     54  C   UNL A   1      43.488  27.856  33.410  1.00  0.00     0.029 A 
ATOM     55  C   UNL A   1      42.773  28.983  34.009  1.00  0.00     0.049 A 
ATOM     56  H   UNL A   1      41.162  30.026  33.204  1.00  0.00     0.167 HD
ATOM     57  C   UNL A   1      37.865  32.228  31.328  1.00  0.00     0.037 A 
ATOM     58  C   UNL A   1      43.036  29.539  35.207  1.00  0.00     0.037 A 
ATOM     59  C   UNL A   1      38.022  32.828  32.624  1.00  0.00     0.049 A 
ATOM     60  C   UNL A   1      42.202  30.699  35.684  1.00  0.00     0.074 A 
ATOM     61  C   UNL A   1      37.278  33.843  33.200  1.00  0.00     0.029 A 
ATOM     62  N   UNL A   1      38.999  32.475  33.542  1.00  0.00    -0.354 N 
ATOM     63  N   UNL A   1      41.191  31.291  35.095  1.00  0.00    -0.248 NA
ATOM     64  C   UNL A   1      42.545  31.267  36.997  1.00  0.00     0.031 C 
ATOM     65  C   UNL A   1      37.836  34.135  34.450  1.00  0.00     0.029 A 
ATOM     66  C   UNL A   1      38.893  33.267  34.672  1.00  0.00     0.049 A 
ATOM     67  H   UNL A   1      39.669  31.766  33.409  1.00  0.00     0.167 HD
ATOM     68  C   UNL A   1      40.761  32.280  35.973  1.00  0.00     0.074 A 
ATOM     69  C   UNL A   1      41.615  32.200  37.140  1.00  0.00     0.031 C 
ATOM     70  C   UNL A   1      39.748  33.169  35.828  1.00  0.00     0.037 A 
BRANCH  57  71
ATOM     71  C   UNL A   1      36.792  32.745  30.416  1.00  0.00     0.057 A 
ATOM     72  C   UNL A   1      37.061  33.705  29.431  1.00  0.00     0.134 A 
ATOM     73  C   UNL A   1      35.478  32.279  30.524  1.00  0.00     0.134 A 
ATOM     74  F   UNL A   1      38.297  34.207  29.289  1.00  0.00    -0.206 F 
ATOM     75  C   UNL A   1      36.053  34.202  28.603  1.00  0.00     0.040 A 
ATOM     76  C   UNL A   1      34.466  32.749  29.685  1.00  0.00     0.040 A 
ATOM     77  F   UNL A   1      35.154  31.360  31.447  1.00  0.00    -0.206 F 
ATOM     78  C   UNL A   1      34.751  33.720  28.728  1.00  0.00     0.006 A 
ENDBRANCH  57  71
BRANCH  58  79
ATOM     79  C   UNL A   1      44.147  29.015  36.039  1.00  0.00     0.057 A 
ATOM     80  C   UNL A   1      45.428  29.573  35.976  1.00  0.00     0.134 A 
ATOM     81  C   UNL A   1      43.958  27.931  36.906  1.00  0.00     0.134 A 
ATOM     82  F   UNL A   1      45.678  30.597  35.145  1.00  0.00    -0.206 F 
ATOM     83  C   UNL A   1      46.485  29.068  36.734  1.00  0.00     0.040 A 
ATOM     84  C   UNL A   1      44.999  27.430  37.688  1.00  0.00     0.040 A 
ATOM     85  F   UNL A   1      42.754  27.349  37.009  1.00  0.00    -0.206 F 
ATOM     86  C   UNL A   1      46.270  27.995  37.598  1.00  0.00     0.006 A 
ENDBRANCH  58  79
BRANCH  70  87
ATOM     87  C   UNL A   1      39.479  34.103  36.972  1.00  0.00     0.057 A 
ATOM     88  C   UNL A   1      38.744  33.707  38.096  1.00  0.00     0.134 A 
ATOM     89  C   UNL A   1      40.007  35.400  36.970  1.00  0.00     0.134 A 
ATOM     90  F   UNL A   1      38.203  32.481  38.157  1.00  0.00    -0.206 F 
ATOM     91  C   UNL A   1      38.528  34.573  39.169  1.00  0.00     0.040 A 
ATOM     92  C   UNL A   1      39.819  36.269  38.046  1.00  0.00     0.040 A 
ATOM     93  F   UNL A   1      40.730  35.840  35.928  1.00  0.00    -0.206 F 
ATOM     94  C   UNL A   1      39.073  35.857  39.148  1.00  0.00     0.006 A 
ENDBRANCH  70  87
ENDBRANCH  44  45
ENDBRANCH  37  39
ENDBRANCH  36  37
ENDBRANCH  35  36
ENDBRANCH  34  35
ENDBRANCH  33  34
ENDBRANCH  32  33
ENDBRANCH  31  32
ENDBRANCH  30  31
ENDBRANCH   1  30
TORSDOF 24
ENDMDL
