MODEL 1
REMARK VINA RESULT:     -10.7      0.000      0.000
REMARK SMILES Cc1cccc(-c2ncc(C[NH+]3CCC4(CC3)NC(=O)C[C@H]4C(=O)OCCOCCOCCOCCOC(=O)c3ccc(-c4c5nc(c(-c6c(F)cccc6F)c6ccc([nH]6)c(-c6c(F)cccc6F)c6nc(c(-c7c(F)cccc7F)c7ccc4[nH]7)C=C6)C=C5)cc3)cn2)c1
REMARK SMILES IDX 30 1 29 2 28 3 27 4 26 5 25 6 23 7 24 8 22 9 12 10 13 11
REMARK SMILES IDX 17 12 14 14 16 15 15 16 18 17 19 18 21 20 20 21 11 22 10 23
REMARK SMILES IDX 7 24 8 25 95 26 9 27 94 28 6 29 1 30 2 31 3 32 96 33 4 34
REMARK SMILES IDX 5 35 31 36 32 37 33 38 34 39 35 40 36 41 37 42 38 43 39 44
REMARK SMILES IDX 40 45 41 46 93 47 42 48 92 49 43 50 44 51 45 52 86 53 46 54
REMARK SMILES IDX 91 55 85 56 87 57 47 58 90 59 84 60 83 61 48 63 74 64 57 65
REMARK SMILES IDX 73 66 58 67 61 68 72 69 88 70 59 71 60 72 71 74 89 75 62 76
REMARK SMILES IDX 49 77 50 78 55 79 51 80 52 81 54 82 56 83 53 84 75 85 76 86
REMARK SMILES IDX 81 87 77 88 78 89 80 90 82 91 79 92 63 93 64 94 69 95 65 96
REMARK SMILES IDX 66 97 68 98 70 99 67 100
REMARK H PARENT 12 13 18 19 87 62 61 73
REMARK Flexibility Score: inf
ROOT
ATOM      1  C   UNL A   1      28.821  31.937  23.458  1.00  0.00     0.188 C 
ENDROOT
BRANCH   1   2
ATOM      2  C   UNL A   1      27.756  31.091  22.777  1.00  0.00     0.188 C 
BRANCH   2   3
ATOM      3  O   UNL A   1      26.977  30.249  23.582  1.00  0.00    -0.376 OA
BRANCH   3   4
ATOM      4  C   UNL A   1      27.173  28.875  23.336  1.00  0.00     0.202 C 
BRANCH   4   5
ATOM      5  C   UNL A   1      28.461  28.442  22.630  1.00  0.00     0.261 C 
BRANCH   5   6
ATOM      6  O   UNL A   1      29.714  28.610  23.338  1.00  0.00    -0.463 OA
BRANCH   6   7
ATOM      7  C   UNL A   1      30.162  27.504  23.978  1.00  0.00     0.311 C 
ATOM      8  O   UNL A   1      29.432  26.771  24.642  1.00  0.00    -0.252 OA
BRANCH   7   9
ATOM      9  C   UNL A   1      31.675  27.294  23.993  1.00  0.00     0.134 C 
ATOM     10  N   UNL A   1      31.420  23.214  24.439  1.00  0.00    -0.331 N 
ATOM     11  C   UNL A   1      32.034  24.059  25.441  1.00  0.00     0.264 C 
ATOM     12  C   UNL A   1      30.842  24.014  23.393  1.00  0.00     0.264 C 
ATOM     13  H   UNL A   1      30.699  22.755  24.997  1.00  0.00     0.348 HD
ATOM     14  C   UNL A   1      32.938  25.167  24.886  1.00  0.00     0.091 C 
ATOM     15  C   UNL A   1      31.728  25.027  22.683  1.00  0.00     0.091 C 
ATOM     16  C   UNL A   1      32.419  25.966  23.653  1.00  0.00     0.064 C 
ATOM     17  N   UNL A   1      33.607  26.463  22.962  1.00  0.00    -0.349 N 
ATOM     18  C   UNL A   1      33.554  27.763  22.565  1.00  0.00     0.221 C 
ATOM     19  H   UNL A   1      34.393  25.894  22.795  1.00  0.00     0.164 HD
ATOM     20  C   UNL A   1      32.320  28.392  23.117  1.00  0.00     0.117 C 
ATOM     21  O   UNL A   1      34.410  28.310  21.874  1.00  0.00    -0.275 OA
BRANCH  10  22
ATOM     22  C   UNL A   1      31.980  21.923  24.034  1.00  0.00     0.302 C 
BRANCH  22  23
ATOM     23  C   UNL A   1      33.457  21.783  24.241  1.00  0.00     0.043 A 
ATOM     24  C   UNL A   1      36.039  22.104  24.971  1.00  0.00     0.159 A 
ATOM     25  N   UNL A   1      35.249  21.342  25.755  1.00  0.00    -0.236 NA
ATOM     26  N   UNL A   1      35.681  22.614  23.781  1.00  0.00    -0.236 NA
ATOM     27  C   UNL A   1      33.978  21.176  25.353  1.00  0.00     0.124 A 
ATOM     28  C   UNL A   1      34.391  22.421  23.447  1.00  0.00     0.124 A 
BRANCH  24  29
ATOM     29  C   UNL A   1      37.341  22.466  25.523  1.00  0.00     0.019 A 
ATOM     30  C   UNL A   1      38.949  25.360  27.450  1.00  0.00     0.044 C 
ATOM     31  C   UNL A   1      38.753  24.035  26.772  1.00  0.00    -0.050 A 
ATOM     32  C   UNL A   1      39.771  23.078  26.795  1.00  0.00     0.003 A 
ATOM     33  C   UNL A   1      37.544  23.719  26.137  1.00  0.00     0.015 A 
ATOM     34  C   UNL A   1      39.599  21.846  26.161  1.00  0.00     0.001 A 
ATOM     35  C   UNL A   1      38.396  21.546  25.522  1.00  0.00     0.012 A 
ENDBRANCH  24  29
ENDBRANCH  22  23
ENDBRANCH  10  22
ENDBRANCH   7   9
ENDBRANCH   6   7
ENDBRANCH   5   6
ENDBRANCH   4   5
ENDBRANCH   3   4
ENDBRANCH   2   3
ENDBRANCH   1   2
BRANCH   1  36
ATOM     36  O   UNL A   1      29.495  31.514  24.622  1.00  0.00    -0.377 OA
BRANCH  36  37
ATOM     37  C   UNL A   1      30.310  32.575  25.158  1.00  0.00     0.188 C 
BRANCH  37  38
ATOM     38  C   UNL A   1      31.056  32.127  26.395  1.00  0.00     0.188 C 
BRANCH  38  39
ATOM     39  O   UNL A   1      31.721  33.258  26.912  1.00  0.00    -0.376 OA
BRANCH  39  40
ATOM     40  C   UNL A   1      32.857  33.034  27.702  1.00  0.00     0.202 C 
BRANCH  40  41
ATOM     41  C   UNL A   1      33.305  34.286  28.455  1.00  0.00     0.261 C 
BRANCH  41  42
ATOM     42  O   UNL A   1      34.409  33.954  29.333  1.00  0.00    -0.460 OA
BRANCH  42  43
ATOM     43  C   UNL A   1      35.612  33.731  28.727  1.00  0.00     0.338 C 
ATOM     44  O   UNL A   1      35.755  33.365  27.570  1.00  0.00    -0.246 OA
BRANCH  43  45
ATOM     45  C   UNL A   1      36.717  33.633  29.745  1.00  0.00     0.060 A 
ATOM     46  C   UNL A   1      38.022  34.026  29.377  1.00  0.00     0.016 A 
ATOM     47  C   UNL A   1      36.556  32.845  30.878  1.00  0.00     0.016 A 
ATOM     48  C   UNL A   1      39.154  33.468  30.008  1.00  0.00     0.010 A 
ATOM     49  C   UNL A   1      37.682  32.289  31.485  1.00  0.00     0.010 A 
ATOM     50  C   UNL A   1      38.991  32.505  31.001  1.00  0.00    -0.014 A 
BRANCH  50  51
ATOM     51  C   UNL A   1      40.017  31.506  31.434  1.00  0.00     0.031 A 
ATOM     52  C   UNL A   1      40.058  30.152  30.769  1.00  0.00     0.074 A 
ATOM     53  C   UNL A   1      41.119  31.933  32.114  1.00  0.00     0.049 A 
ATOM     54  N   UNL A   1      40.987  29.261  30.906  1.00  0.00    -0.248 NA
ATOM     55  C   UNL A   1      38.999  29.680  29.877  1.00  0.00     0.031 C 
ATOM     56  C   UNL A   1      42.501  31.476  31.938  1.00  0.00     0.029 A 
ATOM     57  N   UNL A   1      41.294  32.932  33.055  1.00  0.00    -0.354 N 
ATOM     58  C   UNL A   1      40.844  28.303  29.908  1.00  0.00     0.074 A 
ATOM     59  C   UNL A   1      39.525  28.552  29.380  1.00  0.00     0.031 C 
ATOM     60  C   UNL A   1      43.334  32.096  32.785  1.00  0.00     0.029 A 
ATOM     61  C   UNL A   1      42.508  32.768  33.742  1.00  0.00     0.049 A 
ATOM     62  H   UNL A   1      40.653  33.660  33.221  1.00  0.00     0.167 HD
ATOM     63  C   UNL A   1      41.934  27.547  29.528  1.00  0.00     0.037 A 
ATOM     64  C   UNL A   1      42.473  32.433  35.067  1.00  0.00     0.037 A 
ATOM     65  C   UNL A   1      43.045  27.648  30.511  1.00  0.00     0.049 A 
ATOM     66  C   UNL A   1      42.780  30.946  35.313  1.00  0.00     0.074 A 
ATOM     67  C   UNL A   1      44.432  27.740  30.500  1.00  0.00     0.029 A 
ATOM     68  N   UNL A   1      42.710  27.777  31.853  1.00  0.00    -0.354 N 
ATOM     69  N   UNL A   1      43.217  30.111  34.392  1.00  0.00    -0.248 NA
ATOM     70  C   UNL A   1      42.586  30.260  36.587  1.00  0.00     0.031 C 
ATOM     71  C   UNL A   1      44.893  27.978  31.838  1.00  0.00     0.029 A 
ATOM     72  C   UNL A   1      43.799  27.913  32.675  1.00  0.00     0.049 A 
ATOM     73  H   UNL A   1      41.782  27.771  32.180  1.00  0.00     0.167 HD
ATOM     74  C   UNL A   1      43.256  28.824  34.869  1.00  0.00     0.074 A 
ATOM     75  C   UNL A   1      42.855  28.981  36.260  1.00  0.00     0.031 C 
ATOM     76  C   UNL A   1      43.556  27.726  34.095  1.00  0.00     0.037 A 
BRANCH  63  77
ATOM     77  C   UNL A   1      42.106  26.843  28.159  1.00  0.00     0.057 A 
ATOM     78  C   UNL A   1      42.549  25.503  28.077  1.00  0.00     0.134 A 
ATOM     79  C   UNL A   1      41.988  27.454  26.889  1.00  0.00     0.134 A 
ATOM     80  F   UNL A   1      42.681  24.740  29.170  1.00  0.00    -0.206 F 
ATOM     81  C   UNL A   1      42.887  24.854  26.870  1.00  0.00     0.040 A 
ATOM     82  C   UNL A   1      42.260  26.797  25.669  1.00  0.00     0.040 A 
ATOM     83  F   UNL A   1      41.650  28.739  26.742  1.00  0.00    -0.206 F 
ATOM     84  C   UNL A   1      42.732  25.496  25.656  1.00  0.00     0.006 A 
ENDBRANCH  63  77
BRANCH  64  85
ATOM     85  C   UNL A   1      41.606  33.450  35.780  1.00  0.00     0.057 A 
ATOM     86  C   UNL A   1      40.425  32.870  36.304  1.00  0.00     0.134 A 
ATOM     87  C   UNL A   1      42.210  34.428  36.588  1.00  0.00     0.134 A 
ATOM     88  F   UNL A   1      39.743  31.986  35.564  1.00  0.00    -0.206 F 
ATOM     89  C   UNL A   1      40.087  32.970  37.662  1.00  0.00     0.040 A 
ATOM     90  C   UNL A   1      41.849  34.570  37.945  1.00  0.00     0.040 A 
ATOM     91  F   UNL A   1      43.322  35.055  36.175  1.00  0.00    -0.206 F 
ATOM     92  C   UNL A   1      40.845  33.775  38.504  1.00  0.00     0.006 A 
ENDBRANCH  64  85
BRANCH  76  93
ATOM     93  C   UNL A   1      43.452  26.279  34.555  1.00  0.00     0.057 A 
ATOM     94  C   UNL A   1      42.254  25.676  34.927  1.00  0.00     0.134 A 
ATOM     95  C   UNL A   1      44.589  25.431  34.651  1.00  0.00     0.134 A 
ATOM     96  F   UNL A   1      41.148  26.405  35.133  1.00  0.00    -0.206 F 
ATOM     97  C   UNL A   1      42.151  24.296  35.143  1.00  0.00     0.040 A 
ATOM     98  C   UNL A   1      44.509  24.063  34.902  1.00  0.00     0.040 A 
ATOM     99  F   UNL A   1      45.846  25.871  34.518  1.00  0.00    -0.206 F 
ATOM    100  C   UNL A   1      43.275  23.478  35.094  1.00  0.00     0.006 A 
ENDBRANCH  76  93
ENDBRANCH  50  51
ENDBRANCH  43  45
ENDBRANCH  42  43
ENDBRANCH  41  42
ENDBRANCH  40  41
ENDBRANCH  39  40
ENDBRANCH  38  39
ENDBRANCH  37  38
ENDBRANCH  36  37
ENDBRANCH   1  36
TORSDOF 23
ENDMDL
MODEL 2
REMARK VINA RESULT:     -10.2      1.591      2.383
REMARK SMILES Cc1cccc(-c2ncc(C[NH+]3CCC4(CC3)NC(=O)C[C@H]4C(=O)OCCOCCOCCOCCOC(=O)c3ccc(-c4c5nc(c(-c6c(F)cccc6F)c6ccc([nH]6)c(-c6c(F)cccc6F)c6nc(c(-c7c(F)cccc7F)c7ccc4[nH]7)C=C6)C=C5)cc3)cn2)c1
REMARK SMILES IDX 30 1 29 2 28 3 27 4 26 5 25 6 23 7 24 8 22 9 12 10 13 11
REMARK SMILES IDX 17 12 14 14 16 15 15 16 18 17 19 18 21 20 20 21 11 22 10 23
REMARK SMILES IDX 7 24 8 25 95 26 9 27 94 28 6 29 1 30 2 31 3 32 96 33 4 34
REMARK SMILES IDX 5 35 31 36 32 37 33 38 34 39 35 40 36 41 37 42 38 43 39 44
REMARK SMILES IDX 40 45 41 46 93 47 42 48 92 49 43 50 44 51 45 52 86 53 46 54
REMARK SMILES IDX 91 55 85 56 87 57 47 58 90 59 84 60 83 61 48 63 74 64 57 65
REMARK SMILES IDX 73 66 58 67 61 68 72 69 88 70 59 71 60 72 71 74 89 75 62 76
REMARK SMILES IDX 49 77 50 78 55 79 51 80 52 81 54 82 56 83 53 84 75 85 76 86
REMARK SMILES IDX 81 87 77 88 78 89 80 90 82 91 79 92 63 93 64 94 69 95 65 96
REMARK SMILES IDX 66 97 68 98 70 99 67 100
REMARK H PARENT 12 13 18 19 87 62 61 73
REMARK Flexibility Score: inf
ROOT
ATOM      1  C   UNL A   1      28.327  31.466  23.345  1.00  0.00     0.188 C 
ENDROOT
BRANCH   1   2
ATOM      2  C   UNL A   1      27.679  30.260  22.683  1.00  0.00     0.188 C 
BRANCH   2   3
ATOM      3  O   UNL A   1      27.799  29.019  23.324  1.00  0.00    -0.376 OA
BRANCH   3   4
ATOM      4  C   UNL A   1      28.825  28.201  22.809  1.00  0.00     0.202 C 
BRANCH   4   5
ATOM      5  C   UNL A   1      30.180  28.846  22.505  1.00  0.00     0.261 C 
BRANCH   5   6
ATOM      6  O   UNL A   1      31.321  27.973  22.315  1.00  0.00    -0.463 OA
BRANCH   6   7
ATOM      7  C   UNL A   1      32.449  28.356  22.960  1.00  0.00     0.311 C 
ATOM      8  O   UNL A   1      33.516  28.555  22.384  1.00  0.00    -0.252 OA
BRANCH   7   9
ATOM      9  C   UNL A   1      32.390  28.358  24.486  1.00  0.00     0.134 C 
ATOM     10  N   UNL A   1      30.673  24.629  24.735  1.00  0.00    -0.331 N 
ATOM     11  C   UNL A   1      29.998  25.818  25.211  1.00  0.00     0.264 C 
ATOM     12  C   UNL A   1      31.909  24.977  24.090  1.00  0.00     0.264 C 
ATOM     13  H   UNL A   1      29.988  24.281  24.063  1.00  0.00     0.348 HD
ATOM     14  C   UNL A   1      30.887  26.801  25.983  1.00  0.00     0.091 C 
ATOM     15  C   UNL A   1      32.916  25.820  24.861  1.00  0.00     0.091 C 
ATOM     16  C   UNL A   1      32.302  27.097  25.401  1.00  0.00     0.064 C 
ATOM     17  N   UNL A   1      33.132  27.499  26.535  1.00  0.00    -0.349 N 
ATOM     18  C   UNL A   1      33.919  28.589  26.329  1.00  0.00     0.221 C 
ATOM     19  H   UNL A   1      33.122  27.012  27.391  1.00  0.00     0.164 HD
ATOM     20  C   UNL A   1      33.577  29.196  25.011  1.00  0.00     0.117 C 
ATOM     21  O   UNL A   1      34.760  28.995  27.128  1.00  0.00    -0.275 OA
BRANCH  10  22
ATOM     22  C   UNL A   1      30.656  23.360  25.465  1.00  0.00     0.302 C 
BRANCH  22  23
ATOM     23  C   UNL A   1      32.001  22.731  25.667  1.00  0.00     0.043 A 
ATOM     24  C   UNL A   1      34.642  22.158  25.714  1.00  0.00     0.159 A 
ATOM     25  N   UNL A   1      34.112  22.795  26.778  1.00  0.00    -0.236 NA
ATOM     26  N   UNL A   1      33.937  21.665  24.682  1.00  0.00    -0.236 NA
ATOM     27  C   UNL A   1      32.792  23.041  26.741  1.00  0.00     0.124 A 
ATOM     28  C   UNL A   1      32.622  21.959  24.703  1.00  0.00     0.124 A 
BRANCH  24  29
ATOM     29  C   UNL A   1      36.099  22.096  25.657  1.00  0.00     0.019 A 
ATOM     30  C   UNL A   1      39.114  24.239  26.653  1.00  0.00     0.044 C 
ATOM     31  C   UNL A   1      38.285  23.092  26.154  1.00  0.00    -0.050 A 
ATOM     32  C   UNL A   1      38.900  21.896  25.771  1.00  0.00     0.003 A 
ATOM     33  C   UNL A   1      36.887  23.180  26.096  1.00  0.00     0.015 A 
ATOM     34  C   UNL A   1      38.137  20.827  25.300  1.00  0.00     0.001 A 
ATOM     35  C   UNL A   1      36.747  20.930  25.235  1.00  0.00     0.012 A 
ENDBRANCH  24  29
ENDBRANCH  22  23
ENDBRANCH  10  22
ENDBRANCH   7   9
ENDBRANCH   6   7
ENDBRANCH   5   6
ENDBRANCH   4   5
ENDBRANCH   3   4
ENDBRANCH   2   3
ENDBRANCH   1   2
BRANCH   1  36
ATOM     36  O   UNL A   1      29.105  31.361  24.518  1.00  0.00    -0.377 OA
BRANCH  36  37
ATOM     37  C   UNL A   1      30.260  32.218  24.446  1.00  0.00     0.188 C 
BRANCH  37  38
ATOM     38  C   UNL A   1      30.666  32.714  25.815  1.00  0.00     0.188 C 
BRANCH  38  39
ATOM     39  O   UNL A   1      31.402  31.680  26.430  1.00  0.00    -0.376 OA
BRANCH  39  40
ATOM     40  C   UNL A   1      32.479  32.053  27.247  1.00  0.00     0.202 C 
BRANCH  40  41
ATOM     41  C   UNL A   1      32.471  33.543  27.585  1.00  0.00     0.261 C 
BRANCH  41  42
ATOM     42  O   UNL A   1      33.188  33.762  28.826  1.00  0.00    -0.460 OA
BRANCH  42  43
ATOM     43  C   UNL A   1      34.546  33.865  28.725  1.00  0.00     0.338 C 
ATOM     44  O   UNL A   1      35.139  34.793  28.195  1.00  0.00    -0.246 OA
BRANCH  43  45
ATOM     45  C   UNL A   1      35.208  32.543  29.009  1.00  0.00     0.060 A 
ATOM     46  C   UNL A   1      35.041  31.954  30.281  1.00  0.00     0.016 A 
ATOM     47  C   UNL A   1      36.245  32.093  28.200  1.00  0.00     0.016 A 
ATOM     48  C   UNL A   1      36.016  31.082  30.812  1.00  0.00     0.010 A 
ATOM     49  C   UNL A   1      37.209  31.242  28.741  1.00  0.00     0.010 A 
ATOM     50  C   UNL A   1      37.170  30.805  30.083  1.00  0.00    -0.014 A 
BRANCH  50  51
ATOM     51  C   UNL A   1      38.466  30.310  30.643  1.00  0.00     0.031 A 
ATOM     52  C   UNL A   1      39.007  28.977  30.190  1.00  0.00     0.074 A 
ATOM     53  C   UNL A   1      39.321  31.196  31.232  1.00  0.00     0.049 A 
ATOM     54  N   UNL A   1      40.186  28.504  30.444  1.00  0.00    -0.248 NA
ATOM     55  C   UNL A   1      38.217  28.033  29.398  1.00  0.00     0.031 C 
ATOM     56  C   UNL A   1      40.781  31.238  31.101  1.00  0.00     0.029 A 
ATOM     57  N   UNL A   1      39.096  32.319  32.007  1.00  0.00    -0.354 N 
ATOM     58  C   UNL A   1      40.428  27.422  29.604  1.00  0.00     0.074 A 
ATOM     59  C   UNL A   1      39.126  27.105  29.068  1.00  0.00     0.031 C 
ATOM     60  C   UNL A   1      41.309  32.231  31.830  1.00  0.00     0.029 A 
ATOM     61  C   UNL A   1      40.263  32.700  32.689  1.00  0.00     0.049 A 
ATOM     62  H   UNL A   1      38.233  32.788  32.073  1.00  0.00     0.167 HD
ATOM     63  C   UNL A   1      41.727  27.054  29.324  1.00  0.00     0.037 A 
ATOM     64  C   UNL A   1      40.299  32.574  34.050  1.00  0.00     0.037 A 
ATOM     65  C   UNL A   1      42.694  27.687  30.260  1.00  0.00     0.049 A 
ATOM     66  C   UNL A   1      41.103  31.346  34.512  1.00  0.00     0.074 A 
ATOM     67  C   UNL A   1      43.959  28.262  30.210  1.00  0.00     0.029 A 
ATOM     68  N   UNL A   1      42.286  27.885  31.573  1.00  0.00    -0.354 N 
ATOM     69  N   UNL A   1      41.840  30.594  33.720  1.00  0.00    -0.248 NA
ATOM     70  C   UNL A   1      41.116  30.832  35.879  1.00  0.00     0.031 C 
ATOM     71  C   UNL A   1      44.255  28.843  31.489  1.00  0.00     0.029 A 
ATOM     72  C   UNL A   1      43.224  28.518  32.346  1.00  0.00     0.049 A 
ATOM     73  H   UNL A   1      41.408  27.598  31.914  1.00  0.00     0.167 HD
ATOM     74  C   UNL A   1      42.314  29.491  34.386  1.00  0.00     0.074 A 
ATOM     75  C   UNL A   1      41.832  29.699  35.744  1.00  0.00     0.031 C 
ATOM     76  C   UNL A   1      43.011  28.469  33.782  1.00  0.00     0.037 A 
BRANCH  63  77
ATOM     77  C   UNL A   1      42.188  26.263  28.074  1.00  0.00     0.057 A 
ATOM     78  C   UNL A   1      41.983  26.772  26.770  1.00  0.00     0.134 A 
ATOM     79  C   UNL A   1      42.710  24.949  28.067  1.00  0.00     0.134 A 
ATOM     80  F   UNL A   1      41.537  28.019  26.567  1.00  0.00    -0.206 F 
ATOM     81  C   UNL A   1      42.223  26.040  25.588  1.00  0.00     0.040 A 
ATOM     82  C   UNL A   1      43.015  24.228  26.892  1.00  0.00     0.040 A 
ATOM     83  F   UNL A   1      42.913  24.254  29.190  1.00  0.00    -0.206 F 
ATOM     84  C   UNL A   1      42.753  24.764  25.644  1.00  0.00     0.006 A 
ENDBRANCH  63  77
BRANCH  64  85
ATOM     85  C   UNL A   1      39.104  33.311  34.616  1.00  0.00     0.057 A 
ATOM     86  C   UNL A   1      38.201  32.438  35.271  1.00  0.00     0.134 A 
ATOM     87  C   UNL A   1      39.289  34.562  35.229  1.00  0.00     0.134 A 
ATOM     88  F   UNL A   1      37.907  31.256  34.713  1.00  0.00    -0.206 F 
ATOM     89  C   UNL A   1      37.814  32.633  36.606  1.00  0.00     0.040 A 
ATOM     90  C   UNL A   1      38.864  34.787  36.557  1.00  0.00     0.040 A 
ATOM     91  F   UNL A   1      40.107  35.470  34.678  1.00  0.00    -0.206 F 
ATOM     92  C   UNL A   1      38.204  33.787  37.275  1.00  0.00     0.006 A 
ENDBRANCH  64  85
BRANCH  76  93
ATOM     93  C   UNL A   1      43.407  27.164  34.457  1.00  0.00     0.057 A 
ATOM     94  C   UNL A   1      44.727  26.803  34.714  1.00  0.00     0.134 A 
ATOM     95  C   UNL A   1      42.446  26.201  34.868  1.00  0.00     0.134 A 
ATOM     96  F   UNL A   1      45.747  27.476  34.164  1.00  0.00    -0.206 F 
ATOM     97  C   UNL A   1      45.055  25.703  35.517  1.00  0.00     0.040 A 
ATOM     98  C   UNL A   1      42.759  25.082  35.637  1.00  0.00     0.040 A 
ATOM     99  F   UNL A   1      41.149  26.275  34.547  1.00  0.00    -0.206 F 
ATOM    100  C   UNL A   1      44.067  24.860  36.014  1.00  0.00     0.006 A 
ENDBRANCH  76  93
ENDBRANCH  50  51
ENDBRANCH  43  45
ENDBRANCH  42  43
ENDBRANCH  41  42
ENDBRANCH  40  41
ENDBRANCH  39  40
ENDBRANCH  38  39
ENDBRANCH  37  38
ENDBRANCH  36  37
ENDBRANCH   1  36
TORSDOF 23
ENDMDL
MODEL 3
REMARK VINA RESULT:      -9.7      2.024      3.402
REMARK SMILES Cc1cccc(-c2ncc(C[NH+]3CCC4(CC3)NC(=O)C[C@H]4C(=O)OCCOCCOCCOCCOC(=O)c3ccc(-c4c5nc(c(-c6c(F)cccc6F)c6ccc([nH]6)c(-c6c(F)cccc6F)c6nc(c(-c7c(F)cccc7F)c7ccc4[nH]7)C=C6)C=C5)cc3)cn2)c1
REMARK SMILES IDX 30 1 29 2 28 3 27 4 26 5 25 6 23 7 24 8 22 9 12 10 13 11
REMARK SMILES IDX 17 12 14 14 16 15 15 16 18 17 19 18 21 20 20 21 11 22 10 23
REMARK SMILES IDX 7 24 8 25 95 26 9 27 94 28 6 29 1 30 2 31 3 32 96 33 4 34
REMARK SMILES IDX 5 35 31 36 32 37 33 38 34 39 35 40 36 41 37 42 38 43 39 44
REMARK SMILES IDX 40 45 41 46 93 47 42 48 92 49 43 50 44 51 45 52 86 53 46 54
REMARK SMILES IDX 91 55 85 56 87 57 47 58 90 59 84 60 83 61 48 63 74 64 57 65
REMARK SMILES IDX 73 66 58 67 61 68 72 69 88 70 59 71 60 72 71 74 89 75 62 76
REMARK SMILES IDX 49 77 50 78 55 79 51 80 52 81 54 82 56 83 53 84 75 85 76 86
REMARK SMILES IDX 81 87 77 88 78 89 80 90 82 91 79 92 63 93 64 94 69 95 65 96
REMARK SMILES IDX 66 97 68 98 70 99 67 100
REMARK H PARENT 12 13 18 19 87 62 61 73
REMARK Flexibility Score: inf
ROOT
ATOM      1  C   UNL A   1      29.324  31.152  23.748  1.00  0.00     0.188 C 
ENDROOT
BRANCH   1   2
ATOM      2  C   UNL A   1      28.803  29.758  23.433  1.00  0.00     0.188 C 
BRANCH   2   3
ATOM      3  O   UNL A   1      29.607  28.665  23.787  1.00  0.00    -0.376 OA
BRANCH   3   4
ATOM      4  C   UNL A   1      29.673  27.656  22.804  1.00  0.00     0.202 C 
BRANCH   4   5
ATOM      5  C   UNL A   1      31.006  27.434  22.085  1.00  0.00     0.261 C 
BRANCH   5   6
ATOM      6  O   UNL A   1      32.180  27.171  22.892  1.00  0.00    -0.463 OA
BRANCH   6   7
ATOM      7  C   UNL A   1      32.791  28.273  23.388  1.00  0.00     0.311 C 
ATOM      8  O   UNL A   1      33.466  29.033  22.698  1.00  0.00    -0.252 OA
BRANCH   7   9
ATOM      9  C   UNL A   1      32.759  28.443  24.906  1.00  0.00     0.134 C 
ATOM     10  N   UNL A   1      31.159  24.718  25.600  1.00  0.00    -0.331 N 
ATOM     11  C   UNL A   1      30.457  25.933  25.955  1.00  0.00     0.264 C 
ATOM     12  C   UNL A   1      32.373  25.027  24.895  1.00  0.00     0.264 C 
ATOM     13  H   UNL A   1      30.474  24.279  24.984  1.00  0.00     0.348 HD
ATOM     14  C   UNL A   1      31.330  27.020  26.596  1.00  0.00     0.091 C 
ATOM     15  C   UNL A   1      33.367  25.977  25.547  1.00  0.00     0.091 C 
ATOM     16  C   UNL A   1      32.725  27.289  25.956  1.00  0.00     0.064 C 
ATOM     17  N   UNL A   1      33.562  27.837  27.021  1.00  0.00    -0.349 N 
ATOM     18  C   UNL A   1      34.312  28.919  26.681  1.00  0.00     0.221 C 
ATOM     19  H   UNL A   1      33.581  27.448  27.926  1.00  0.00     0.164 HD
ATOM     20  C   UNL A   1      33.930  29.367  25.311  1.00  0.00     0.117 C 
ATOM     21  O   UNL A   1      35.154  29.435  27.412  1.00  0.00    -0.275 OA
BRANCH  10  22
ATOM     22  C   UNL A   1      31.193  23.537  26.465  1.00  0.00     0.302 C 
BRANCH  22  23
ATOM     23  C   UNL A   1      32.002  22.392  25.937  1.00  0.00     0.043 A 
ATOM     24  C   UNL A   1      33.027  19.959  25.356  1.00  0.00     0.159 A 
ATOM     25  N   UNL A   1      32.099  20.472  24.523  1.00  0.00    -0.236 NA
ATOM     26  N   UNL A   1      33.584  20.618  26.387  1.00  0.00    -0.236 NA
ATOM     27  C   UNL A   1      31.628  21.695  24.820  1.00  0.00     0.124 A 
ATOM     28  C   UNL A   1      33.056  21.832  26.635  1.00  0.00     0.124 A 
BRANCH  24  29
ATOM     29  C   UNL A   1      33.364  18.553  25.162  1.00  0.00     0.019 A 
ATOM     30  C   UNL A   1      31.975  15.103  26.079  1.00  0.00     0.044 C 
ATOM     31  C   UNL A   1      32.829  16.181  25.476  1.00  0.00    -0.050 A 
ATOM     32  C   UNL A   1      33.866  15.846  24.601  1.00  0.00     0.003 A 
ATOM     33  C   UNL A   1      32.586  17.534  25.748  1.00  0.00     0.015 A 
ATOM     34  C   UNL A   1      34.669  16.840  24.041  1.00  0.00     0.001 A 
ATOM     35  C   UNL A   1      34.426  18.184  24.327  1.00  0.00     0.012 A 
ENDBRANCH  24  29
ENDBRANCH  22  23
ENDBRANCH  10  22
ENDBRANCH   7   9
ENDBRANCH   6   7
ENDBRANCH   5   6
ENDBRANCH   4   5
ENDBRANCH   3   4
ENDBRANCH   2   3
ENDBRANCH   1   2
BRANCH   1  36
ATOM     36  O   UNL A   1      30.100  31.430  24.893  1.00  0.00    -0.377 OA
BRANCH  36  37
ATOM     37  C   UNL A   1      30.235  32.851  25.089  1.00  0.00     0.188 C 
BRANCH  37  38
ATOM     38  C   UNL A   1      31.340  33.170  26.070  1.00  0.00     0.188 C 
BRANCH  38  39
ATOM     39  O   UNL A   1      31.574  32.003  26.826  1.00  0.00    -0.376 OA
BRANCH  39  40
ATOM     40  C   UNL A   1      32.751  31.953  27.588  1.00  0.00     0.202 C 
BRANCH  40  41
ATOM     41  C   UNL A   1      33.256  33.341  27.979  1.00  0.00     0.261 C 
BRANCH  41  42
ATOM     42  O   UNL A   1      33.796  33.298  29.324  1.00  0.00    -0.460 OA
BRANCH  42  43
ATOM     43  C   UNL A   1      35.134  33.544  29.441  1.00  0.00     0.338 C 
ATOM     44  O   UNL A   1      35.653  34.647  29.353  1.00  0.00    -0.246 OA
BRANCH  43  45
ATOM     45  C   UNL A   1      35.928  32.270  29.325  1.00  0.00     0.060 A 
ATOM     46  C   UNL A   1      35.653  31.209  30.215  1.00  0.00     0.016 A 
ATOM     47  C   UNL A   1      37.131  32.257  28.628  1.00  0.00     0.016 A 
ATOM     48  C   UNL A   1      36.649  30.269  30.556  1.00  0.00     0.010 A 
ATOM     49  C   UNL A   1      38.112  31.331  28.984  1.00  0.00     0.010 A 
ATOM     50  C   UNL A   1      37.930  30.391  30.020  1.00  0.00    -0.014 A 
BRANCH  50  51
ATOM     51  C   UNL A   1      39.181  29.806  30.595  1.00  0.00     0.031 A 
ATOM     52  C   UNL A   1      39.720  28.513  30.033  1.00  0.00     0.074 A 
ATOM     53  C   UNL A   1      40.019  30.602  31.319  1.00  0.00     0.049 A 
ATOM     54  N   UNL A   1      40.872  27.986  30.298  1.00  0.00    -0.248 NA
ATOM     55  C   UNL A   1      38.957  27.679  29.103  1.00  0.00     0.031 C 
ATOM     56  C   UNL A   1      41.485  30.619  31.273  1.00  0.00     0.029 A 
ATOM     57  N   UNL A   1      39.774  31.643  32.196  1.00  0.00    -0.354 N 
ATOM     58  C   UNL A   1      41.139  26.991  29.363  1.00  0.00     0.074 A 
ATOM     59  C   UNL A   1      39.864  26.767  28.726  1.00  0.00     0.031 C 
ATOM     60  C   UNL A   1      41.991  31.516  32.131  1.00  0.00     0.029 A 
ATOM     61  C   UNL A   1      40.909  31.919  32.977  1.00  0.00     0.049 A 
ATOM     62  H   UNL A   1      38.919  32.126  32.264  1.00  0.00     0.167 HD
ATOM     63  C   UNL A   1      42.444  26.621  29.116  1.00  0.00     0.037 A 
ATOM     64  C   UNL A   1      40.865  31.651  34.316  1.00  0.00     0.037 A 
ATOM     65  C   UNL A   1      43.370  27.126  30.165  1.00  0.00     0.049 A 
ATOM     66  C   UNL A   1      41.615  30.360  34.689  1.00  0.00     0.074 A 
ATOM     67  C   UNL A   1      44.647  27.669  30.245  1.00  0.00     0.029 A 
ATOM     68  N   UNL A   1      42.891  27.196  31.467  1.00  0.00    -0.354 N 
ATOM     69  N   UNL A   1      42.380  29.676  33.863  1.00  0.00    -0.248 NA
ATOM     70  C   UNL A   1      41.540  29.705  35.992  1.00  0.00     0.031 C 
ATOM     71  C   UNL A   1      44.882  28.105  31.592  1.00  0.00     0.029 A 
ATOM     72  C   UNL A   1      43.798  27.720  32.353  1.00  0.00     0.049 A 
ATOM     73  H   UNL A   1      41.990  26.899  31.728  1.00  0.00     0.167 HD
ATOM     74  C   UNL A   1      42.793  28.497  34.432  1.00  0.00     0.074 A 
ATOM     75  C   UNL A   1      42.239  28.574  35.776  1.00  0.00     0.031 C 
ATOM     76  C   UNL A   1      43.502  27.526  33.762  1.00  0.00     0.037 A 
BRANCH  63  77
ATOM     77  C   UNL A   1      42.959  25.953  27.816  1.00  0.00     0.057 A 
ATOM     78  C   UNL A   1      43.535  26.722  26.778  1.00  0.00     0.134 A 
ATOM     79  C   UNL A   1      42.799  24.594  27.459  1.00  0.00     0.134 A 
ATOM     80  F   UNL A   1      43.809  28.024  26.939  1.00  0.00    -0.206 F 
ATOM     81  C   UNL A   1      43.871  26.210  25.507  1.00  0.00     0.040 A 
ATOM     82  C   UNL A   1      43.191  24.054  26.214  1.00  0.00     0.040 A 
ATOM     83  F   UNL A   1      42.212  23.707  28.267  1.00  0.00    -0.206 F 
ATOM     84  C   UNL A   1      43.711  24.866  25.222  1.00  0.00     0.006 A 
ENDBRANCH  63  77
BRANCH  64  85
ATOM     85  C   UNL A   1      39.654  32.355  34.892  1.00  0.00     0.057 A 
ATOM     86  C   UNL A   1      38.666  31.442  35.336  1.00  0.00     0.134 A 
ATOM     87  C   UNL A   1      39.834  33.491  35.699  1.00  0.00     0.134 A 
ATOM     88  F   UNL A   1      38.376  30.372  34.584  1.00  0.00    -0.206 F 
ATOM     89  C   UNL A   1      38.175  31.458  36.650  1.00  0.00     0.040 A 
ATOM     90  C   UNL A   1      39.307  33.540  37.009  1.00  0.00     0.040 A 
ATOM     91  F   UNL A   1      40.730  34.429  35.358  1.00  0.00    -0.206 F 
ATOM     92  C   UNL A   1      38.551  32.480  37.514  1.00  0.00     0.006 A 
ENDBRANCH  64  85
BRANCH  76  93
ATOM     93  C   UNL A   1      43.833  26.148  34.315  1.00  0.00     0.057 A 
ATOM     94  C   UNL A   1      45.114  25.604  34.305  1.00  0.00     0.134 A 
ATOM     95  C   UNL A   1      42.841  25.299  34.878  1.00  0.00     0.134 A 
ATOM     96  F   UNL A   1      46.097  26.165  33.587  1.00  0.00    -0.206 F 
ATOM     97  C   UNL A   1      45.430  24.431  35.003  1.00  0.00     0.040 A 
ATOM     98  C   UNL A   1      43.134  24.111  35.544  1.00  0.00     0.040 A 
ATOM     99  F   UNL A   1      41.530  25.559  34.813  1.00  0.00    -0.206 F 
ATOM    100  C   UNL A   1      44.445  23.700  35.658  1.00  0.00     0.006 A 
ENDBRANCH  76  93
ENDBRANCH  50  51
ENDBRANCH  43  45
ENDBRANCH  42  43
ENDBRANCH  41  42
ENDBRANCH  40  41
ENDBRANCH  39  40
ENDBRANCH  38  39
ENDBRANCH  37  38
ENDBRANCH  36  37
ENDBRANCH   1  36
TORSDOF 23
ENDMDL
