MODEL 1
REMARK VINA RESULT:     -11.2      0.000      0.000
REMARK SMILES Cc1cc(C(=O)OCCOCCOCCOCCOC(=O)c2ccc(-c3c4nc(c(-c5c(F)cccc5F)c5ccc([nH]5)c(-c5c(F)cccc5F)c5nc(c(-c6c(F)cccc6F)c6ccc3[nH]6)C=C5)C=C4)cc2)ccc1NC(=O)N1C[C@@H](C)[C@H](C)C1
REMARK SMILES IDX 14 1 13 2 12 3 11 4 10 5 9 6 8 7 7 8 5 9 6 10 4 11 1 12 2 13
REMARK SMILES IDX 3 14 78 15 77 16 76 17 79 18 80 19 81 21 82 22 83 23 88 24
REMARK SMILES IDX 84 25 86 26 85 27 87 28 15 29 16 30 17 31 18 32 19 33 20 34
REMARK SMILES IDX 21 35 22 36 23 37 75 38 24 39 74 40 25 41 26 42 27 43 68 44
REMARK SMILES IDX 28 45 73 46 67 47 69 48 29 49 72 50 66 51 65 52 30 54 56 55
REMARK SMILES IDX 39 56 55 57 40 58 43 59 54 60 70 61 41 62 42 63 53 65 71 66
REMARK SMILES IDX 44 67 31 68 32 69 37 70 33 71 34 72 36 73 38 74 35 75 57 76
REMARK SMILES IDX 58 77 63 78 59 79 60 80 62 81 64 82 61 83 45 84 46 85 51 86
REMARK SMILES IDX 47 87 48 88 50 89 52 90 49 91
REMARK H PARENT 79 20 69 53 43 64
REMARK Flexibility Score: inf
ROOT
ATOM      1  C   UNL A   1      34.016  33.751  28.321  1.00  0.00     0.188 C 
ENDROOT
BRANCH   1   2
ATOM      2  O   UNL A   1      34.776  32.768  27.618  1.00  0.00    -0.377 OA
BRANCH   2   3
ATOM      3  C   UNL A   1      34.616  31.403  28.001  1.00  0.00     0.188 C 
BRANCH   3   4
ATOM      4  C   UNL A   1      33.652  30.557  27.164  1.00  0.00     0.188 C 
BRANCH   4   5
ATOM      5  O   UNL A   1      34.129  29.315  26.659  1.00  0.00    -0.376 OA
BRANCH   5   6
ATOM      6  C   UNL A   1      33.268  28.646  25.733  1.00  0.00     0.202 C 
BRANCH   6   7
ATOM      7  C   UNL A   1      31.846  29.196  25.570  1.00  0.00     0.261 C 
BRANCH   7   8
ATOM      8  O   UNL A   1      31.590  29.405  24.179  1.00  0.00    -0.460 OA
BRANCH   8   9
ATOM      9  C   UNL A   1      30.376  29.014  23.743  1.00  0.00     0.338 C 
ATOM     10  O   UNL A   1      29.477  29.721  23.333  1.00  0.00    -0.246 OA
BRANCH   9  11
ATOM     11  C   UNL A   1      30.460  27.551  23.522  1.00  0.00     0.060 A 
ATOM     12  C   UNL A   1      32.851  25.431  21.534  1.00  0.00     0.046 C 
ATOM     13  C   UNL A   1      31.664  25.759  22.401  1.00  0.00    -0.027 A 
ATOM     14  C   UNL A   1      31.370  27.121  22.557  1.00  0.00     0.021 A 
ATOM     15  C   UNL A   1      30.965  24.815  23.181  1.00  0.00     0.045 A 
ATOM     16  C   UNL A   1      30.216  25.272  24.263  1.00  0.00     0.027 A 
ATOM     17  C   UNL A   1      29.910  26.623  24.405  1.00  0.00     0.018 A 
BRANCH  15  18
ATOM     18  N   UNL A   1      31.044  23.453  22.856  1.00  0.00    -0.308 N 
ATOM     19  C   UNL A   1      31.933  22.465  23.119  1.00  0.00     0.321 C 
ATOM     20  H   UNL A   1      30.282  23.146  22.313  1.00  0.00     0.171 HD
ATOM     21  O   UNL A   1      31.827  21.440  22.439  1.00  0.00    -0.248 OA
ATOM     22  N   UNL A   1      32.898  22.588  24.076  1.00  0.00    -0.324 N 
ATOM     23  C   UNL A   1      34.109  21.792  23.954  1.00  0.00     0.125 C 
ATOM     24  C   UNL A   1      32.681  22.968  25.476  1.00  0.00     0.125 C 
ATOM     25  C   UNL A   1      34.503  21.436  25.385  1.00  0.00     0.010 C 
ATOM     26  C   UNL A   1      34.014  22.660  26.172  1.00  0.00     0.010 C 
ATOM     27  C   UNL A   1      35.989  21.154  25.517  1.00  0.00     0.010 C 
ATOM     28  C   UNL A   1      33.870  22.422  27.669  1.00  0.00     0.010 C 
ENDBRANCH  15  18
ENDBRANCH   9  11
ENDBRANCH   8   9
ENDBRANCH   7   8
ENDBRANCH   6   7
ENDBRANCH   5   6
ENDBRANCH   4   5
ENDBRANCH   3   4
ENDBRANCH   2   3
ENDBRANCH   1   2
BRANCH   1  29
ATOM     29  C   UNL A   1      34.416  35.205  28.067  1.00  0.00     0.188 C 
BRANCH  29  30
ATOM     30  O   UNL A   1      33.779  36.032  29.043  1.00  0.00    -0.376 OA
BRANCH  30  31
ATOM     31  C   UNL A   1      32.842  35.373  29.892  1.00  0.00     0.202 C 
BRANCH  31  32
ATOM     32  C   UNL A   1      32.803  35.923  31.323  1.00  0.00     0.261 C 
BRANCH  32  33
ATOM     33  O   UNL A   1      34.141  36.238  31.748  1.00  0.00    -0.460 OA
BRANCH  33  34
ATOM     34  C   UNL A   1      34.595  35.500  32.793  1.00  0.00     0.338 C 
ATOM     35  O   UNL A   1      34.730  35.898  33.939  1.00  0.00    -0.246 OA
BRANCH  34  36
ATOM     36  C   UNL A   1      35.164  34.219  32.290  1.00  0.00     0.060 A 
ATOM     37  C   UNL A   1      34.955  33.038  33.019  1.00  0.00     0.016 A 
ATOM     38  C   UNL A   1      36.138  34.254  31.297  1.00  0.00     0.016 A 
ATOM     39  C   UNL A   1      35.840  31.961  32.875  1.00  0.00     0.010 A 
ATOM     40  C   UNL A   1      37.059  33.226  31.229  1.00  0.00     0.010 A 
ATOM     41  C   UNL A   1      36.965  32.101  32.059  1.00  0.00    -0.014 A 
BRANCH  41  42
ATOM     42  C   UNL A   1      38.197  31.294  32.182  1.00  0.00     0.031 A 
ATOM     43  C   UNL A   1      38.383  30.026  31.404  1.00  0.00     0.074 A 
ATOM     44  C   UNL A   1      39.297  31.915  32.688  1.00  0.00     0.049 A 
ATOM     45  N   UNL A   1      39.434  29.278  31.482  1.00  0.00    -0.248 NA
ATOM     46  C   UNL A   1      37.405  29.477  30.459  1.00  0.00     0.031 C 
ATOM     47  C   UNL A   1      40.696  31.605  32.393  1.00  0.00     0.029 A 
ATOM     48  N   UNL A   1      39.408  32.966  33.604  1.00  0.00    -0.354 N 
ATOM     49  C   UNL A   1      39.461  28.469  30.366  1.00  0.00     0.074 A 
ATOM     50  C   UNL A   1      38.116  28.513  29.857  1.00  0.00     0.031 C 
ATOM     51  C   UNL A   1      41.508  32.305  33.194  1.00  0.00     0.029 A 
ATOM     52  C   UNL A   1      40.666  32.875  34.217  1.00  0.00     0.049 A 
ATOM     53  H   UNL A   1      38.724  33.651  33.785  1.00  0.00     0.167 HD
ATOM     54  C   UNL A   1      40.661  28.007  29.902  1.00  0.00     0.037 A 
ATOM     55  C   UNL A   1      40.854  32.640  35.548  1.00  0.00     0.037 A 
ATOM     56  C   UNL A   1      41.764  28.272  30.842  1.00  0.00     0.049 A 
ATOM     57  C   UNL A   1      41.550  31.308  35.764  1.00  0.00     0.074 A 
ATOM     58  C   UNL A   1      43.019  28.845  30.724  1.00  0.00     0.029 A 
ATOM     59  N   UNL A   1      41.580  28.042  32.207  1.00  0.00    -0.354 N 
ATOM     60  N   UNL A   1      41.549  30.366  34.852  1.00  0.00    -0.248 NA
ATOM     61  C   UNL A   1      42.362  30.939  36.919  1.00  0.00     0.031 C 
ATOM     62  C   UNL A   1      43.517  29.087  32.037  1.00  0.00     0.029 A 
ATOM     63  C   UNL A   1      42.616  28.563  32.950  1.00  0.00     0.049 A 
ATOM     64  H   UNL A   1      40.808  27.568  32.589  1.00  0.00     0.167 HD
ATOM     65  C   UNL A   1      42.393  29.360  35.214  1.00  0.00     0.074 A 
ATOM     66  C   UNL A   1      42.832  29.731  36.548  1.00  0.00     0.031 C 
ATOM     67  C   UNL A   1      42.694  28.319  34.385  1.00  0.00     0.037 A 
BRANCH  54  68
ATOM     68  C   UNL A   1      40.909  27.492  28.487  1.00  0.00     0.057 A 
ATOM     69  C   UNL A   1      41.397  28.355  27.484  1.00  0.00     0.134 A 
ATOM     70  C   UNL A   1      40.570  26.205  28.019  1.00  0.00     0.134 A 
ATOM     71  F   UNL A   1      41.756  29.615  27.768  1.00  0.00    -0.206 F 
ATOM     72  C   UNL A   1      41.535  27.973  26.138  1.00  0.00     0.040 A 
ATOM     73  C   UNL A   1      40.765  25.790  26.690  1.00  0.00     0.040 A 
ATOM     74  F   UNL A   1      39.975  25.298  28.802  1.00  0.00    -0.206 F 
ATOM     75  C   UNL A   1      41.235  26.679  25.738  1.00  0.00     0.006 A 
ENDBRANCH  54  68
BRANCH  55  76
ATOM     76  C   UNL A   1      39.897  33.388  36.403  1.00  0.00     0.057 A 
ATOM     77  C   UNL A   1      38.880  32.601  36.980  1.00  0.00     0.134 A 
ATOM     78  C   UNL A   1      40.299  34.524  37.117  1.00  0.00     0.134 A 
ATOM     79  F   UNL A   1      38.420  31.522  36.328  1.00  0.00    -0.206 F 
ATOM     80  C   UNL A   1      38.457  32.796  38.298  1.00  0.00     0.040 A 
ATOM     81  C   UNL A   1      39.871  34.734  38.438  1.00  0.00     0.040 A 
ATOM     82  F   UNL A   1      41.285  35.305  36.652  1.00  0.00    -0.206 F 
ATOM     83  C   UNL A   1      38.996  33.834  39.049  1.00  0.00     0.006 A 
ENDBRANCH  55  76
BRANCH  67  84
ATOM     84  C   UNL A   1      43.119  26.948  34.844  1.00  0.00     0.057 A 
ATOM     85  C   UNL A   1      42.203  25.926  35.126  1.00  0.00     0.134 A 
ATOM     86  C   UNL A   1      44.470  26.540  34.753  1.00  0.00     0.134 A 
ATOM     87  F   UNL A   1      40.883  26.156  35.164  1.00  0.00    -0.206 F 
ATOM     88  C   UNL A   1      42.599  24.597  35.312  1.00  0.00     0.040 A 
ATOM     89  C   UNL A   1      44.869  25.209  34.886  1.00  0.00     0.040 A 
ATOM     90  F   UNL A   1      45.458  27.404  34.482  1.00  0.00    -0.206 F 
ATOM     91  C   UNL A   1      43.931  24.230  35.171  1.00  0.00     0.006 A 
ENDBRANCH  67  84
ENDBRANCH  41  42
ENDBRANCH  34  36
ENDBRANCH  33  34
ENDBRANCH  32  33
ENDBRANCH  31  32
ENDBRANCH  30  31
ENDBRANCH  29  30
ENDBRANCH   1  29
TORSDOF 21
ENDMDL
MODEL 2
REMARK VINA RESULT:     -10.4      1.449      2.319
REMARK SMILES Cc1cc(C(=O)OCCOCCOCCOCCOC(=O)c2ccc(-c3c4nc(c(-c5c(F)cccc5F)c5ccc([nH]5)c(-c5c(F)cccc5F)c5nc(c(-c6c(F)cccc6F)c6ccc3[nH]6)C=C5)C=C4)cc2)ccc1NC(=O)N1C[C@@H](C)[C@H](C)C1
REMARK SMILES IDX 14 1 13 2 12 3 11 4 10 5 9 6 8 7 7 8 5 9 6 10 4 11 1 12 2 13
REMARK SMILES IDX 3 14 78 15 77 16 76 17 79 18 80 19 81 21 82 22 83 23 88 24
REMARK SMILES IDX 84 25 86 26 85 27 87 28 15 29 16 30 17 31 18 32 19 33 20 34
REMARK SMILES IDX 21 35 22 36 23 37 75 38 24 39 74 40 25 41 26 42 27 43 68 44
REMARK SMILES IDX 28 45 73 46 67 47 69 48 29 49 72 50 66 51 65 52 30 54 56 55
REMARK SMILES IDX 39 56 55 57 40 58 43 59 54 60 70 61 41 62 42 63 53 65 71 66
REMARK SMILES IDX 44 67 31 68 32 69 37 70 33 71 34 72 36 73 38 74 35 75 57 76
REMARK SMILES IDX 58 77 63 78 59 79 60 80 62 81 64 82 61 83 45 84 46 85 51 86
REMARK SMILES IDX 47 87 48 88 50 89 52 90 49 91
REMARK H PARENT 79 20 69 53 43 64
REMARK Flexibility Score: inf
ROOT
ATOM      1  C   UNL A   1      33.978  32.712  28.199  1.00  0.00     0.188 C 
ENDROOT
BRANCH   1   2
ATOM      2  O   UNL A   1      34.557  31.460  27.833  1.00  0.00    -0.377 OA
BRANCH   2   3
ATOM      3  C   UNL A   1      33.674  30.370  27.567  1.00  0.00     0.188 C 
BRANCH   3   4
ATOM      4  C   UNL A   1      33.248  30.162  26.111  1.00  0.00     0.188 C 
BRANCH   4   5
ATOM      5  O   UNL A   1      32.590  28.944  25.781  1.00  0.00    -0.376 OA
BRANCH   5   6
ATOM      6  C   UNL A   1      32.285  28.754  24.397  1.00  0.00     0.202 C 
BRANCH   6   7
ATOM      7  C   UNL A   1      30.805  28.647  24.011  1.00  0.00     0.261 C 
BRANCH   7   8
ATOM      8  O   UNL A   1      30.574  27.366  23.420  1.00  0.00    -0.460 OA
BRANCH   8   9
ATOM      9  C   UNL A   1      29.514  26.685  23.898  1.00  0.00     0.338 C 
ATOM     10  O   UNL A   1      28.340  26.886  23.659  1.00  0.00    -0.246 OA
BRANCH   9  11
ATOM     11  C   UNL A   1      30.047  25.434  24.487  1.00  0.00     0.060 A 
ATOM     12  C   UNL A   1      31.857  22.503  22.972  1.00  0.00     0.046 C 
ATOM     13  C   UNL A   1      31.184  23.332  24.035  1.00  0.00    -0.027 A 
ATOM     14  C   UNL A   1      30.493  24.467  23.588  1.00  0.00     0.021 A 
ATOM     15  C   UNL A   1      31.355  23.137  25.421  1.00  0.00     0.045 A 
ATOM     16  C   UNL A   1      31.081  24.200  26.279  1.00  0.00     0.027 A 
ATOM     17  C   UNL A   1      30.378  25.317  25.837  1.00  0.00     0.018 A 
BRANCH  15  18
ATOM     18  N   UNL A   1      31.797  21.894  25.897  1.00  0.00    -0.308 N 
ATOM     19  C   UNL A   1      32.971  21.220  25.839  1.00  0.00     0.321 C 
ATOM     20  H   UNL A   1      31.096  21.401  26.381  1.00  0.00     0.171 HD
ATOM     21  O   UNL A   1      32.926  20.020  26.130  1.00  0.00    -0.248 OA
ATOM     22  N   UNL A   1      34.141  21.821  25.478  1.00  0.00    -0.324 N 
ATOM     23  C   UNL A   1      35.203  21.003  24.915  1.00  0.00     0.125 C 
ATOM     24  C   UNL A   1      34.702  23.042  26.066  1.00  0.00     0.125 C 
ATOM     25  C   UNL A   1      36.502  21.619  25.427  1.00  0.00     0.010 C 
ATOM     26  C   UNL A   1      36.138  23.107  25.530  1.00  0.00     0.010 C 
ATOM     27  C   UNL A   1      37.678  21.319  24.514  1.00  0.00     0.010 C 
ATOM     28  C   UNL A   1      37.075  23.919  26.414  1.00  0.00     0.010 C 
ENDBRANCH  15  18
ENDBRANCH   9  11
ENDBRANCH   8   9
ENDBRANCH   7   8
ENDBRANCH   6   7
ENDBRANCH   5   6
ENDBRANCH   4   5
ENDBRANCH   3   4
ENDBRANCH   2   3
ENDBRANCH   1   2
BRANCH   1  29
ATOM     29  C   UNL A   1      34.783  33.954  27.813  1.00  0.00     0.188 C 
BRANCH  29  30
ATOM     30  O   UNL A   1      34.223  35.088  28.477  1.00  0.00    -0.376 OA
BRANCH  30  31
ATOM     31  C   UNL A   1      33.084  34.823  29.294  1.00  0.00     0.202 C 
BRANCH  31  32
ATOM     32  C   UNL A   1      33.208  35.353  30.727  1.00  0.00     0.261 C 
BRANCH  32  33
ATOM     33  O   UNL A   1      34.599  35.433  31.086  1.00  0.00    -0.460 OA
BRANCH  33  34
ATOM     34  C   UNL A   1      34.978  34.592  32.083  1.00  0.00     0.338 C 
ATOM     35  O   UNL A   1      34.980  34.857  33.274  1.00  0.00    -0.246 OA
BRANCH  34  36
ATOM     36  C   UNL A   1      35.650  33.397  31.500  1.00  0.00     0.060 A 
ATOM     37  C   UNL A   1      35.387  32.128  32.038  1.00  0.00     0.016 A 
ATOM     38  C   UNL A   1      36.743  33.578  30.659  1.00  0.00     0.016 A 
ATOM     39  C   UNL A   1      36.319  31.093  31.876  1.00  0.00     0.010 A 
ATOM     40  C   UNL A   1      37.699  32.583  30.583  1.00  0.00     0.010 A 
ATOM     41  C   UNL A   1      37.536  31.358  31.243  1.00  0.00    -0.014 A 
BRANCH  41  42
ATOM     42  C   UNL A   1      38.767  30.562  31.424  1.00  0.00     0.031 A 
ATOM     43  C   UNL A   1      39.057  29.363  30.573  1.00  0.00     0.074 A 
ATOM     44  C   UNL A   1      39.798  31.157  32.084  1.00  0.00     0.049 A 
ATOM     45  N   UNL A   1      40.112  28.626  30.697  1.00  0.00    -0.248 NA
ATOM     46  C   UNL A   1      38.189  28.876  29.496  1.00  0.00     0.031 C 
ATOM     47  C   UNL A   1      41.226  30.892  31.906  1.00  0.00     0.029 A 
ATOM     48  N   UNL A   1      39.796  32.134  33.085  1.00  0.00    -0.354 N 
ATOM     49  C   UNL A   1      40.266  27.909  29.530  1.00  0.00     0.074 A 
ATOM     50  C   UNL A   1      38.977  27.973  28.895  1.00  0.00     0.031 C 
ATOM     51  C   UNL A   1      41.940  31.538  32.836  1.00  0.00     0.029 A 
ATOM     52  C   UNL A   1      40.989  32.013  33.811  1.00  0.00     0.049 A 
ATOM     53  H   UNL A   1      39.082  32.792  33.250  1.00  0.00     0.167 HD
ATOM     54  C   UNL A   1      41.517  27.502  29.153  1.00  0.00     0.037 A 
ATOM     55  C   UNL A   1      41.051  31.676  35.132  1.00  0.00     0.037 A 
ATOM     56  C   UNL A   1      42.516  27.709  30.216  1.00  0.00     0.049 A 
ATOM     57  C   UNL A   1      41.753  30.341  35.312  1.00  0.00     0.074 A 
ATOM     58  C   UNL A   1      43.763  28.307  30.268  1.00  0.00     0.029 A 
ATOM     59  N   UNL A   1      42.205  27.369  31.534  1.00  0.00    -0.354 N 
ATOM     60  N   UNL A   1      41.863  29.475  34.335  1.00  0.00    -0.248 NA
ATOM     61  C   UNL A   1      42.456  29.894  36.510  1.00  0.00     0.031 C 
ATOM     62  C   UNL A   1      44.125  28.452  31.638  1.00  0.00     0.029 A 
ATOM     63  C   UNL A   1      43.151  27.844  32.414  1.00  0.00     0.049 A 
ATOM     64  H   UNL A   1      41.409  26.855  31.799  1.00  0.00     0.167 HD
ATOM     65  C   UNL A   1      42.690  28.456  34.699  1.00  0.00     0.074 A 
ATOM     66  C   UNL A   1      42.987  28.726  36.095  1.00  0.00     0.031 C 
ATOM     67  C   UNL A   1      43.094  27.489  33.826  1.00  0.00     0.037 A 
BRANCH  54  68
ATOM     68  C   UNL A   1      41.913  27.105  27.735  1.00  0.00     0.057 A 
ATOM     69  C   UNL A   1      42.486  25.843  27.475  1.00  0.00     0.134 A 
ATOM     70  C   UNL A   1      41.878  27.959  26.611  1.00  0.00     0.134 A 
ATOM     71  F   UNL A   1      42.598  24.921  28.442  1.00  0.00    -0.206 F 
ATOM     72  C   UNL A   1      42.978  25.464  26.213  1.00  0.00     0.040 A 
ATOM     73  C   UNL A   1      42.306  27.568  25.330  1.00  0.00     0.040 A 
ATOM     74  F   UNL A   1      41.486  29.236  26.701  1.00  0.00    -0.206 F 
ATOM     75  C   UNL A   1      42.873  26.321  25.129  1.00  0.00     0.006 A 
ENDBRANCH  54  68
BRANCH  55  76
ATOM     76  C   UNL A   1      39.998  32.340  35.943  1.00  0.00     0.057 A 
ATOM     77  C   UNL A   1      40.073  33.747  35.969  1.00  0.00     0.134 A 
ATOM     78  C   UNL A   1      38.726  31.771  36.084  1.00  0.00     0.134 A 
ATOM     79  F   UNL A   1      41.267  34.355  35.881  1.00  0.00    -0.206 F 
ATOM     80  C   UNL A   1      38.929  34.547  35.898  1.00  0.00     0.040 A 
ATOM     81  C   UNL A   1      37.571  32.567  36.024  1.00  0.00     0.040 A 
ATOM     82  F   UNL A   1      38.568  30.441  36.034  1.00  0.00    -0.206 F 
ATOM     83  C   UNL A   1      37.672  33.951  35.869  1.00  0.00     0.006 A 
ENDBRANCH  55  76
BRANCH  67  84
ATOM     84  C   UNL A   1      43.502  26.092  34.218  1.00  0.00     0.057 A 
ATOM     85  C   UNL A   1      44.829  25.646  34.158  1.00  0.00     0.134 A 
ATOM     86  C   UNL A   1      42.612  25.249  34.925  1.00  0.00     0.134 A 
ATOM     87  F   UNL A   1      45.793  26.382  33.589  1.00  0.00    -0.206 F 
ATOM     88  C   UNL A   1      45.241  24.445  34.747  1.00  0.00     0.040 A 
ATOM     89  C   UNL A   1      43.024  24.076  35.559  1.00  0.00     0.040 A 
ATOM     90  F   UNL A   1      41.315  25.548  35.072  1.00  0.00    -0.206 F 
ATOM     91  C   UNL A   1      44.344  23.667  35.469  1.00  0.00     0.006 A 
ENDBRANCH  67  84
ENDBRANCH  41  42
ENDBRANCH  34  36
ENDBRANCH  33  34
ENDBRANCH  32  33
ENDBRANCH  31  32
ENDBRANCH  30  31
ENDBRANCH  29  30
ENDBRANCH   1  29
TORSDOF 21
ENDMDL
MODEL 3
REMARK VINA RESULT:      -9.7      5.011      9.149
REMARK SMILES Cc1cc(C(=O)OCCOCCOCCOCCOC(=O)c2ccc(-c3c4nc(c(-c5c(F)cccc5F)c5ccc([nH]5)c(-c5c(F)cccc5F)c5nc(c(-c6c(F)cccc6F)c6ccc3[nH]6)C=C5)C=C4)cc2)ccc1NC(=O)N1C[C@@H](C)[C@H](C)C1
REMARK SMILES IDX 14 1 13 2 12 3 11 4 10 5 9 6 8 7 7 8 5 9 6 10 4 11 1 12 2 13
REMARK SMILES IDX 3 14 78 15 77 16 76 17 79 18 80 19 81 21 82 22 83 23 88 24
REMARK SMILES IDX 84 25 86 26 85 27 87 28 15 29 16 30 17 31 18 32 19 33 20 34
REMARK SMILES IDX 21 35 22 36 23 37 75 38 24 39 74 40 25 41 26 42 27 43 68 44
REMARK SMILES IDX 28 45 73 46 67 47 69 48 29 49 72 50 66 51 65 52 30 54 56 55
REMARK SMILES IDX 39 56 55 57 40 58 43 59 54 60 70 61 41 62 42 63 53 65 71 66
REMARK SMILES IDX 44 67 31 68 32 69 37 70 33 71 34 72 36 73 38 74 35 75 57 76
REMARK SMILES IDX 58 77 63 78 59 79 60 80 62 81 64 82 61 83 45 84 46 85 51 86
REMARK SMILES IDX 47 87 48 88 50 89 52 90 49 91
REMARK H PARENT 79 20 69 53 43 64
REMARK Flexibility Score: inf
ROOT
ATOM      1  C   UNL A   1      37.617  33.751  30.755  1.00  0.00     0.188 C 
ENDROOT
BRANCH   1   2
ATOM      2  O   UNL A   1      37.479  34.173  29.398  1.00  0.00    -0.377 OA
BRANCH   2   3
ATOM      3  C   UNL A   1      36.631  33.405  28.545  1.00  0.00     0.188 C 
BRANCH   3   4
ATOM      4  C   UNL A   1      35.184  33.205  29.004  1.00  0.00     0.188 C 
BRANCH   4   5
ATOM      5  O   UNL A   1      34.559  31.962  28.702  1.00  0.00    -0.376 OA
BRANCH   5   6
ATOM      6  C   UNL A   1      35.245  31.130  27.763  1.00  0.00     0.202 C 
BRANCH   6   7
ATOM      7  C   UNL A   1      34.647  29.747  27.481  1.00  0.00     0.261 C 
BRANCH   7   8
ATOM      8  O   UNL A   1      33.545  29.897  26.581  1.00  0.00    -0.460 OA
BRANCH   8   9
ATOM      9  C   UNL A   1      32.521  29.040  26.764  1.00  0.00     0.338 C 
ATOM     10  O   UNL A   1      31.515  29.224  27.422  1.00  0.00    -0.246 OA
BRANCH   9  11
ATOM     11  C   UNL A   1      32.673  27.977  25.744  1.00  0.00     0.060 A 
ATOM     12  C   UNL A   1      30.195  25.641  24.143  1.00  0.00     0.046 C 
ATOM     13  C   UNL A   1      31.533  26.258  24.455  1.00  0.00    -0.027 A 
ATOM     14  C   UNL A   1      31.561  27.166  25.523  1.00  0.00     0.021 A 
ATOM     15  C   UNL A   1      32.682  26.113  23.650  1.00  0.00     0.045 A 
ATOM     16  C   UNL A   1      33.696  27.063  23.764  1.00  0.00     0.027 A 
ATOM     17  C   UNL A   1      33.730  27.951  24.835  1.00  0.00     0.018 A 
BRANCH  15  18
ATOM     18  N   UNL A   1      32.773  25.034  22.760  1.00  0.00    -0.308 N 
ATOM     19  C   UNL A   1      33.501  23.891  22.726  1.00  0.00     0.321 C 
ATOM     20  H   UNL A   1      32.173  25.127  21.985  1.00  0.00     0.171 HD
ATOM     21  O   UNL A   1      33.530  23.294  21.645  1.00  0.00    -0.248 OA
ATOM     22  N   UNL A   1      34.171  23.421  23.817  1.00  0.00    -0.324 N 
ATOM     23  C   UNL A   1      35.325  22.559  23.611  1.00  0.00     0.125 C 
ATOM     24  C   UNL A   1      33.601  23.192  25.149  1.00  0.00     0.125 C 
ATOM     25  C   UNL A   1      35.293  21.560  24.764  1.00  0.00     0.010 C 
ATOM     26  C   UNL A   1      34.673  22.389  25.897  1.00  0.00     0.010 C 
ATOM     27  C   UNL A   1      36.668  20.996  25.073  1.00  0.00     0.010 C 
ATOM     28  C   UNL A   1      34.112  21.559  27.043  1.00  0.00     0.010 C 
ENDBRANCH  15  18
ENDBRANCH   9  11
ENDBRANCH   8   9
ENDBRANCH   7   8
ENDBRANCH   6   7
ENDBRANCH   5   6
ENDBRANCH   4   5
ENDBRANCH   3   4
ENDBRANCH   2   3
ENDBRANCH   1   2
BRANCH   1  29
ATOM     29  C   UNL A   1      38.319  32.408  30.964  1.00  0.00     0.188 C 
BRANCH  29  30
ATOM     30  O   UNL A   1      37.611  31.672  31.963  1.00  0.00    -0.376 OA
BRANCH  30  31
ATOM     31  C   UNL A   1      36.579  30.813  31.480  1.00  0.00     0.202 C 
BRANCH  31  32
ATOM     32  C   UNL A   1      37.066  29.754  30.485  1.00  0.00     0.261 C 
BRANCH  32  33
ATOM     33  O   UNL A   1      37.984  28.865  31.146  1.00  0.00    -0.460 OA
BRANCH  33  34
ATOM     34  C   UNL A   1      38.621  27.991  30.325  1.00  0.00     0.338 C 
ATOM     35  O   UNL A   1      38.541  26.775  30.381  1.00  0.00    -0.246 OA
BRANCH  34  36
ATOM     36  C   UNL A   1      39.646  28.717  29.524  1.00  0.00     0.060 A 
ATOM     37  C   UNL A   1      39.724  28.494  28.141  1.00  0.00     0.016 A 
ATOM     38  C   UNL A   1      40.696  29.351  30.181  1.00  0.00     0.016 A 
ATOM     39  C   UNL A   1      40.923  28.744  27.458  1.00  0.00     0.010 A 
ATOM     40  C   UNL A   1      41.900  29.506  29.522  1.00  0.00     0.010 A 
ATOM     41  C   UNL A   1      42.052  29.143  28.176  1.00  0.00    -0.014 A 
BRANCH  41  42
ATOM     42  C   UNL A   1      43.445  28.971  27.715  1.00  0.00     0.031 A 
ATOM     43  C   UNL A   1      44.300  30.147  27.351  1.00  0.00     0.074 A 
ATOM     44  C   UNL A   1      44.053  27.789  28.007  1.00  0.00     0.049 A 
ATOM     45  N   UNL A   1      45.519  30.052  26.932  1.00  0.00    -0.248 NA
ATOM     46  C   UNL A   1      43.868  31.546  27.426  1.00  0.00     0.031 C 
ATOM     47  C   UNL A   1      45.484  27.563  28.212  1.00  0.00     0.029 A 
ATOM     48  N   UNL A   1      43.519  26.507  28.171  1.00  0.00    -0.354 N 
ATOM     49  C   UNL A   1      46.120  31.281  27.100  1.00  0.00     0.074 A 
ATOM     50  C   UNL A   1      45.024  32.201  27.250  1.00  0.00     0.031 C 
ATOM     51  C   UNL A   1      45.739  26.253  28.316  1.00  0.00     0.029 A 
ATOM     52  C   UNL A   1      44.535  25.578  27.903  1.00  0.00     0.049 A 
ATOM     53  H   UNL A   1      42.594  26.294  28.431  1.00  0.00     0.167 HD
ATOM     54  C   UNL A   1      47.475  31.346  27.276  1.00  0.00     0.037 A 
ATOM     55  C   UNL A   1      44.502  24.685  26.871  1.00  0.00     0.037 A 
ATOM     56  C   UNL A   1      48.135  30.054  27.020  1.00  0.00     0.049 A 
ATOM     57  C   UNL A   1      45.615  24.971  25.879  1.00  0.00     0.074 A 
ATOM     58  C   UNL A   1      49.038  29.274  27.721  1.00  0.00     0.029 A 
ATOM     59  N   UNL A   1      47.764  29.296  25.908  1.00  0.00    -0.354 N 
ATOM     60  N   UNL A   1      46.201  26.142  25.809  1.00  0.00    -0.248 NA
ATOM     61  C   UNL A   1      46.228  24.007  24.972  1.00  0.00     0.031 C 
ATOM     62  C   UNL A   1      49.090  27.993  27.099  1.00  0.00     0.029 A 
ATOM     63  C   UNL A   1      48.303  28.030  25.958  1.00  0.00     0.049 A 
ATOM     64  H   UNL A   1      47.189  29.625  25.181  1.00  0.00     0.167 HD
ATOM     65  C   UNL A   1      47.279  26.080  24.980  1.00  0.00     0.074 A 
ATOM     66  C   UNL A   1      47.221  24.739  24.425  1.00  0.00     0.031 C 
ATOM     67  C   UNL A   1      48.155  27.116  24.833  1.00  0.00     0.037 A 
BRANCH  54  68
ATOM     68  C   UNL A   1      48.218  32.526  27.894  1.00  0.00     0.057 A 
ATOM     69  C   UNL A   1      48.291  32.676  29.294  1.00  0.00     0.134 A 
ATOM     70  C   UNL A   1      48.767  33.609  27.174  1.00  0.00     0.134 A 
ATOM     71  F   UNL A   1      47.806  31.736  30.118  1.00  0.00    -0.206 F 
ATOM     72  C   UNL A   1      48.858  33.800  29.922  1.00  0.00     0.040 A 
ATOM     73  C   UNL A   1      49.396  34.706  27.789  1.00  0.00     0.040 A 
ATOM     74  F   UNL A   1      48.673  33.697  25.842  1.00  0.00    -0.206 F 
ATOM     75  C   UNL A   1      49.431  34.814  29.169  1.00  0.00     0.006 A 
ENDBRANCH  54  68
BRANCH  55  76
ATOM     76  C   UNL A   1      43.159  24.078  26.680  1.00  0.00     0.057 A 
ATOM     77  C   UNL A   1      42.750  23.211  27.714  1.00  0.00     0.134 A 
ATOM     78  C   UNL A   1      42.149  24.758  25.989  1.00  0.00     0.134 A 
ATOM     79  F   UNL A   1      43.666  22.497  28.388  1.00  0.00    -0.206 F 
ATOM     80  C   UNL A   1      41.437  23.202  28.191  1.00  0.00     0.040 A 
ATOM     81  C   UNL A   1      40.824  24.747  26.454  1.00  0.00     0.040 A 
ATOM     82  F   UNL A   1      42.458  25.627  25.016  1.00  0.00    -0.206 F 
ATOM     83  C   UNL A   1      40.481  24.016  27.593  1.00  0.00     0.006 A 
ENDBRANCH  55  76
BRANCH  67  84
ATOM     84  C   UNL A   1      48.989  27.370  23.604  1.00  0.00     0.057 A 
ATOM     85  C   UNL A   1      50.327  26.968  23.500  1.00  0.00     0.134 A 
ATOM     86  C   UNL A   1      48.386  27.782  22.392  1.00  0.00     0.134 A 
ATOM     87  F   UNL A   1      50.997  26.479  24.552  1.00  0.00    -0.206 F 
ATOM     88  C   UNL A   1      51.020  26.982  22.284  1.00  0.00     0.040 A 
ATOM     89  C   UNL A   1      49.054  27.753  21.166  1.00  0.00     0.040 A 
ATOM     90  F   UNL A   1      47.110  28.188  22.334  1.00  0.00    -0.206 F 
ATOM     91  C   UNL A   1      50.378  27.353  21.109  1.00  0.00     0.006 A 
ENDBRANCH  67  84
ENDBRANCH  41  42
ENDBRANCH  34  36
ENDBRANCH  33  34
ENDBRANCH  32  33
ENDBRANCH  31  32
ENDBRANCH  30  31
ENDBRANCH  29  30
ENDBRANCH   1  29
TORSDOF 21
ENDMDL
