MODEL 1
REMARK VINA RESULT:     -10.7      0.000      0.000
REMARK SMILES O=C(CCCN1C(=O)c2ccc3c4c(ccc(c24)C1=O)C(=O)NC3=O)OCCOCCOCCOCCOC(=O)c1ccc(-c2c3nc(c(-c4c(F)cccc4F)c4ccc([nH]4)c(-c4c(F)cccc4F)c4nc(c(-c5c(F)cccc5F)c5ccc2[nH]5)C=C4)C=C3)cc1
REMARK SMILES IDX 31 1 30 2 29 3 28 4 27 5 26 6 2 7 1 8 3 9 4 10 5 11 6 12
REMARK SMILES IDX 19 13 7 14 20 15 17 16 9 17 8 18 16 19 18 20 10 21 15 22
REMARK SMILES IDX 13 23 11 24 14 25 12 26 21 27 24 28 23 29 22 30 25 31 32 33
REMARK SMILES IDX 33 34 34 35 35 36 36 37 37 38 38 39 39 40 40 41 41 42 42 43
REMARK SMILES IDX 94 44 43 45 93 46 44 47 45 48 46 49 87 50 47 51 92 52 86 53
REMARK SMILES IDX 88 54 48 55 91 56 85 57 84 58 49 60 75 61 58 62 74 63 59 64
REMARK SMILES IDX 62 65 73 66 89 67 60 68 61 69 72 71 90 72 63 73 50 74 51 75
REMARK SMILES IDX 56 76 52 77 53 78 55 79 57 80 54 81 76 82 77 83 82 84 78 85
REMARK SMILES IDX 79 86 81 87 83 88 80 89 64 90 65 91 70 92 66 93 67 94 69 95
REMARK SMILES IDX 71 96 68 97
REMARK H PARENT 23 32 88 59 62 70
REMARK Flexibility Score: inf
ROOT
ATOM      1  C   UNL A   1      39.934  20.967  25.716  1.00  0.00     0.188 C 
ENDROOT
BRANCH   1   2
ATOM      2  C   UNL A   1      39.317  22.023  26.641  1.00  0.00     0.188 C 
BRANCH   2   3
ATOM      3  O   UNL A   1      39.392  23.375  26.215  1.00  0.00    -0.376 OA
BRANCH   3   4
ATOM      4  C   UNL A   1      38.194  24.130  26.174  1.00  0.00     0.202 C 
BRANCH   4   5
ATOM      5  C   UNL A   1      36.868  23.441  25.886  1.00  0.00     0.261 C 
BRANCH   5   6
ATOM      6  O   UNL A   1      36.671  22.833  24.600  1.00  0.00    -0.463 OA
BRANCH   6   7
ATOM      7  C   UNL A   1      35.501  22.797  23.942  1.00  0.00     0.305 C 
ATOM      8  O   UNL A   1      35.254  23.647  23.088  1.00  0.00    -0.252 OA
BRANCH   7   9
ATOM      9  C   UNL A   1      34.562  21.634  24.193  1.00  0.00     0.124 C 
BRANCH   9  10
ATOM     10  C   UNL A   1      33.063  21.831  23.938  1.00  0.00     0.034 C 
BRANCH  10  11
ATOM     11  C   UNL A   1      32.092  22.476  24.963  1.00  0.00     0.130 C 
BRANCH  11  12
ATOM     12  N   UNL A   1      31.780  23.923  24.935  1.00  0.00    -0.274 N 
ATOM     13  C   UNL A   1      31.015  24.455  23.896  1.00  0.00     0.261 C 
ATOM     14  C   UNL A   1      32.096  24.660  26.087  1.00  0.00     0.261 C 
ATOM     15  O   UNL A   1      30.522  23.786  22.994  1.00  0.00    -0.269 OA
ATOM     16  C   UNL A   1      30.774  25.926  23.904  1.00  0.00     0.049 A 
ATOM     17  C   UNL A   1      31.896  26.131  26.049  1.00  0.00     0.049 A 
ATOM     18  O   UNL A   1      32.554  24.170  27.116  1.00  0.00    -0.269 OA
ATOM     19  C   UNL A   1      30.080  26.525  22.844  1.00  0.00     0.015 A 
ATOM     20  C   UNL A   1      31.250  26.712  24.957  1.00  0.00     0.009 A 
ATOM     21  C   UNL A   1      32.374  26.929  27.101  1.00  0.00     0.015 A 
ATOM     22  C   UNL A   1      29.869  27.906  22.823  1.00  0.00     0.015 A 
ATOM     23  C   UNL A   1      31.071  28.123  24.924  1.00  0.00     0.009 A 
ATOM     24  C   UNL A   1      32.226  28.316  27.055  1.00  0.00     0.015 A 
ATOM     25  C   UNL A   1      30.373  28.703  23.854  1.00  0.00     0.048 A 
ATOM     26  C   UNL A   1      31.592  28.910  25.961  1.00  0.00     0.048 A 
ATOM     27  C   UNL A   1      30.160  30.171  23.828  1.00  0.00     0.258 C 
ATOM     28  C   UNL A   1      31.489  30.385  25.885  1.00  0.00     0.258 C 
ATOM     29  N   UNL A   1      30.761  30.890  24.835  1.00  0.00    -0.288 N 
ATOM     30  O   UNL A   1      29.489  30.707  22.956  1.00  0.00    -0.269 OA
ATOM     31  O   UNL A   1      32.047  31.103  26.706  1.00  0.00    -0.269 OA
ATOM     32  H   UNL A   1      30.659  31.869  24.799  1.00  0.00     0.173 HD
ENDBRANCH  11  12
ENDBRANCH  10  11
ENDBRANCH   9  10
ENDBRANCH   7   9
ENDBRANCH   6   7
ENDBRANCH   5   6
ENDBRANCH   4   5
ENDBRANCH   3   4
ENDBRANCH   2   3
ENDBRANCH   1   2
BRANCH   1  33
ATOM     33  O   UNL A   1      40.406  19.829  26.432  1.00  0.00    -0.377 OA
BRANCH  33  34
ATOM     34  C   UNL A   1      41.733  19.945  26.955  1.00  0.00     0.188 C 
BRANCH  34  35
ATOM     35  C   UNL A   1      42.829  19.012  26.367  1.00  0.00     0.188 C 
BRANCH  35  36
ATOM     36  O   UNL A   1      43.322  19.461  25.125  1.00  0.00    -0.376 OA
BRANCH  36  37
ATOM     37  C   UNL A   1      44.390  20.386  25.069  1.00  0.00     0.202 C 
BRANCH  37  38
ATOM     38  C   UNL A   1      44.172  21.897  24.834  1.00  0.00     0.261 C 
BRANCH  38  39
ATOM     39  O   UNL A   1      44.493  22.797  25.906  1.00  0.00    -0.460 OA
BRANCH  39  40
ATOM     40  C   UNL A   1      44.668  24.104  25.589  1.00  0.00     0.338 C 
ATOM     41  O   UNL A   1      45.251  24.535  24.617  1.00  0.00    -0.246 OA
BRANCH  40  42
ATOM     42  C   UNL A   1      43.805  24.939  26.472  1.00  0.00     0.060 A 
ATOM     43  C   UNL A   1      44.095  26.308  26.541  1.00  0.00     0.016 A 
ATOM     44  C   UNL A   1      42.745  24.419  27.218  1.00  0.00     0.016 A 
ATOM     45  C   UNL A   1      43.360  27.149  27.377  1.00  0.00     0.010 A 
ATOM     46  C   UNL A   1      42.025  25.261  28.085  1.00  0.00     0.010 A 
ATOM     47  C   UNL A   1      42.352  26.627  28.195  1.00  0.00    -0.014 A 
BRANCH  47  48
ATOM     48  C   UNL A   1      41.841  27.475  29.308  1.00  0.00     0.031 A 
ATOM     49  C   UNL A   1      42.593  27.460  30.615  1.00  0.00     0.074 A 
ATOM     50  C   UNL A   1      40.821  28.338  29.141  1.00  0.00     0.049 A 
ATOM     51  N   UNL A   1      42.343  28.096  31.731  1.00  0.00    -0.248 NA
ATOM     52  C   UNL A   1      43.801  26.620  30.661  1.00  0.00     0.031 C 
ATOM     53  C   UNL A   1      40.066  28.532  27.905  1.00  0.00     0.029 A 
ATOM     54  N   UNL A   1      40.252  29.228  30.022  1.00  0.00    -0.354 N 
ATOM     55  C   UNL A   1      43.356  27.730  32.610  1.00  0.00     0.074 A 
ATOM     56  C   UNL A   1      44.208  26.795  31.908  1.00  0.00     0.031 C 
ATOM     57  C   UNL A   1      39.126  29.473  28.109  1.00  0.00     0.029 A 
ATOM     58  C   UNL A   1      39.185  29.921  29.501  1.00  0.00     0.049 A 
ATOM     59  H   UNL A   1      40.578  29.356  30.943  1.00  0.00     0.167 HD
ATOM     60  C   UNL A   1      43.568  28.143  33.882  1.00  0.00     0.037 A 
ATOM     61  C   UNL A   1      38.335  30.789  30.088  1.00  0.00     0.037 A 
ATOM     62  C   UNL A   1      42.728  29.077  34.585  1.00  0.00     0.049 A 
ATOM     63  C   UNL A   1      38.529  31.147  31.542  1.00  0.00     0.074 A 
ATOM     64  C   UNL A   1      42.845  29.531  35.887  1.00  0.00     0.029 A 
ATOM     65  N   UNL A   1      41.617  29.701  34.042  1.00  0.00    -0.354 N 
ATOM     66  N   UNL A   1      39.471  30.770  32.373  1.00  0.00    -0.248 NA
ATOM     67  C   UNL A   1      37.536  32.055  32.140  1.00  0.00     0.031 C 
ATOM     68  C   UNL A   1      41.775  30.392  36.148  1.00  0.00     0.029 A 
ATOM     69  C   UNL A   1      41.028  30.522  34.989  1.00  0.00     0.049 A 
ATOM     70  H   UNL A   1      41.295  29.581  33.119  1.00  0.00     0.167 HD
ATOM     71  C   UNL A   1      39.200  31.412  33.577  1.00  0.00     0.074 A 
ATOM     72  C   UNL A   1      38.023  32.227  33.359  1.00  0.00     0.031 C 
ATOM     73  C   UNL A   1      39.859  31.333  34.759  1.00  0.00     0.037 A 
BRANCH  60  74
ATOM     74  C   UNL A   1      44.742  27.557  34.613  1.00  0.00     0.057 A 
ATOM     75  C   UNL A   1      44.612  26.449  35.460  1.00  0.00     0.134 A 
ATOM     76  C   UNL A   1      46.026  28.087  34.435  1.00  0.00     0.134 A 
ATOM     77  F   UNL A   1      43.407  25.905  35.689  1.00  0.00    -0.206 F 
ATOM     78  C   UNL A   1      45.715  25.899  36.116  1.00  0.00     0.040 A 
ATOM     79  C   UNL A   1      47.140  27.528  35.063  1.00  0.00     0.040 A 
ATOM     80  F   UNL A   1      46.221  29.148  33.637  1.00  0.00    -0.206 F 
ATOM     81  C   UNL A   1      46.985  26.433  35.910  1.00  0.00     0.006 A 
ENDBRANCH  60  74
BRANCH  61  82
ATOM     82  C   UNL A   1      37.178  31.346  29.334  1.00  0.00     0.057 A 
ATOM     83  C   UNL A   1      36.024  30.589  29.088  1.00  0.00     0.134 A 
ATOM     84  C   UNL A   1      37.233  32.627  28.767  1.00  0.00     0.134 A 
ATOM     85  F   UNL A   1      35.920  29.343  29.572  1.00  0.00    -0.206 F 
ATOM     86  C   UNL A   1      34.988  31.070  28.284  1.00  0.00     0.040 A 
ATOM     87  C   UNL A   1      36.189  33.133  27.992  1.00  0.00     0.040 A 
ATOM     88  F   UNL A   1      38.310  33.404  28.955  1.00  0.00    -0.206 F 
ATOM     89  C   UNL A   1      35.067  32.348  27.736  1.00  0.00     0.006 A 
ENDBRANCH  61  82
BRANCH  73  90
ATOM     90  C   UNL A   1      39.346  32.177  35.894  1.00  0.00     0.057 A 
ATOM     91  C   UNL A   1      39.807  33.481  36.118  1.00  0.00     0.134 A 
ATOM     92  C   UNL A   1      38.367  31.682  36.766  1.00  0.00     0.134 A 
ATOM     93  F   UNL A   1      40.750  34.016  35.327  1.00  0.00    -0.206 F 
ATOM     94  C   UNL A   1      39.346  34.245  37.193  1.00  0.00     0.040 A 
ATOM     95  C   UNL A   1      37.874  32.448  37.823  1.00  0.00     0.040 A 
ATOM     96  F   UNL A   1      37.868  30.447  36.602  1.00  0.00    -0.206 F 
ATOM     97  C   UNL A   1      38.372  33.729  38.046  1.00  0.00     0.006 A 
ENDBRANCH  73  90
ENDBRANCH  47  48
ENDBRANCH  40  42
ENDBRANCH  39  40
ENDBRANCH  38  39
ENDBRANCH  37  38
ENDBRANCH  36  37
ENDBRANCH  35  36
ENDBRANCH  34  35
ENDBRANCH  33  34
ENDBRANCH   1  33
TORSDOF 23
ENDMDL
MODEL 2
REMARK VINA RESULT:     -10.3      1.119      6.150
REMARK SMILES O=C(CCCN1C(=O)c2ccc3c4c(ccc(c24)C1=O)C(=O)NC3=O)OCCOCCOCCOCCOC(=O)c1ccc(-c2c3nc(c(-c4c(F)cccc4F)c4ccc([nH]4)c(-c4c(F)cccc4F)c4nc(c(-c5c(F)cccc5F)c5ccc2[nH]5)C=C4)C=C3)cc1
REMARK SMILES IDX 31 1 30 2 29 3 28 4 27 5 26 6 2 7 1 8 3 9 4 10 5 11 6 12
REMARK SMILES IDX 19 13 7 14 20 15 17 16 9 17 8 18 16 19 18 20 10 21 15 22
REMARK SMILES IDX 13 23 11 24 14 25 12 26 21 27 24 28 23 29 22 30 25 31 32 33
REMARK SMILES IDX 33 34 34 35 35 36 36 37 37 38 38 39 39 40 40 41 41 42 42 43
REMARK SMILES IDX 94 44 43 45 93 46 44 47 45 48 46 49 87 50 47 51 92 52 86 53
REMARK SMILES IDX 88 54 48 55 91 56 85 57 84 58 49 60 75 61 58 62 74 63 59 64
REMARK SMILES IDX 62 65 73 66 89 67 60 68 61 69 72 71 90 72 63 73 50 74 51 75
REMARK SMILES IDX 56 76 52 77 53 78 55 79 57 80 54 81 76 82 77 83 82 84 78 85
REMARK SMILES IDX 79 86 81 87 83 88 80 89 64 90 65 91 70 92 66 93 67 94 69 95
REMARK SMILES IDX 71 96 68 97
REMARK H PARENT 23 32 88 59 62 70
REMARK Flexibility Score: inf
ROOT
ATOM      1  C   UNL A   1      42.056  22.696  25.992  1.00  0.00     0.188 C 
ENDROOT
BRANCH   1   2
ATOM      2  C   UNL A   1      40.970  22.756  27.073  1.00  0.00     0.188 C 
BRANCH   2   3
ATOM      3  O   UNL A   1      39.626  22.597  26.645  1.00  0.00    -0.376 OA
BRANCH   3   4
ATOM      4  C   UNL A   1      39.245  21.350  26.090  1.00  0.00     0.202 C 
BRANCH   4   5
ATOM      5  C   UNL A   1      37.991  21.248  25.235  1.00  0.00     0.261 C 
BRANCH   5   6
ATOM      6  O   UNL A   1      36.894  22.134  25.509  1.00  0.00    -0.463 OA
BRANCH   6   7
ATOM      7  C   UNL A   1      35.701  22.087  24.895  1.00  0.00     0.305 C 
ATOM      8  O   UNL A   1      35.372  22.990  24.128  1.00  0.00    -0.252 OA
BRANCH   7   9
ATOM      9  C   UNL A   1      34.837  20.855  25.081  1.00  0.00     0.124 C 
BRANCH   9  10
ATOM     10  C   UNL A   1      33.425  20.850  24.484  1.00  0.00     0.034 C 
BRANCH  10  11
ATOM     11  C   UNL A   1      32.229  21.633  25.091  1.00  0.00     0.130 C 
BRANCH  11  12
ATOM     12  N   UNL A   1      32.088  23.096  24.913  1.00  0.00    -0.274 N 
ATOM     13  C   UNL A   1      32.265  23.955  25.998  1.00  0.00     0.261 C 
ATOM     14  C   UNL A   1      31.990  23.565  23.593  1.00  0.00     0.261 C 
ATOM     15  O   UNL A   1      32.588  23.585  27.122  1.00  0.00    -0.269 OA
ATOM     16  C   UNL A   1      32.066  25.413  25.760  1.00  0.00     0.049 A 
ATOM     17  C   UNL A   1      31.738  25.013  23.386  1.00  0.00     0.049 A 
ATOM     18  O   UNL A   1      32.071  22.849  22.598  1.00  0.00    -0.269 OA
ATOM     19  C   UNL A   1      32.155  26.314  26.830  1.00  0.00     0.015 A 
ATOM     20  C   UNL A   1      31.777  25.884  24.476  1.00  0.00     0.009 A 
ATOM     21  C   UNL A   1      31.444  25.496  22.100  1.00  0.00     0.015 A 
ATOM     22  C   UNL A   1      31.944  27.680  26.629  1.00  0.00     0.015 A 
ATOM     23  C   UNL A   1      31.525  27.269  24.271  1.00  0.00     0.009 A 
ATOM     24  C   UNL A   1      31.167  26.849  21.903  1.00  0.00     0.015 A 
ATOM     25  C   UNL A   1      31.619  28.154  25.355  1.00  0.00     0.048 A 
ATOM     26  C   UNL A   1      31.191  27.727  22.988  1.00  0.00     0.048 A 
ATOM     27  C   UNL A   1      31.384  29.603  25.141  1.00  0.00     0.258 C 
ATOM     28  C   UNL A   1      30.838  29.152  22.787  1.00  0.00     0.258 C 
ATOM     29  N   UNL A   1      30.987  29.974  23.877  1.00  0.00    -0.288 N 
ATOM     30  O   UNL A   1      31.534  30.418  26.042  1.00  0.00    -0.269 OA
ATOM     31  O   UNL A   1      30.416  29.554  21.711  1.00  0.00    -0.269 OA
ATOM     32  H   UNL A   1      30.788  30.928  23.741  1.00  0.00     0.173 HD
ENDBRANCH  11  12
ENDBRANCH  10  11
ENDBRANCH   9  10
ENDBRANCH   7   9
ENDBRANCH   6   7
ENDBRANCH   5   6
ENDBRANCH   4   5
ENDBRANCH   3   4
ENDBRANCH   2   3
ENDBRANCH   1   2
BRANCH   1  33
ATOM     33  O   UNL A   1      42.135  21.413  25.374  1.00  0.00    -0.377 OA
BRANCH  33  34
ATOM     34  C   UNL A   1      43.121  20.533  25.920  1.00  0.00     0.188 C 
BRANCH  34  35
ATOM     35  C   UNL A   1      44.343  20.170  25.030  1.00  0.00     0.188 C 
BRANCH  35  36
ATOM     36  O   UNL A   1      45.101  21.297  24.654  1.00  0.00    -0.376 OA
BRANCH  36  37
ATOM     37  C   UNL A   1      45.783  22.061  25.630  1.00  0.00     0.202 C 
BRANCH  37  38
ATOM     38  C   UNL A   1      46.094  23.563  25.443  1.00  0.00     0.261 C 
BRANCH  38  39
ATOM     39  O   UNL A   1      44.987  24.466  25.306  1.00  0.00    -0.460 OA
BRANCH  39  40
ATOM     40  C   UNL A   1      45.258  25.794  25.364  1.00  0.00     0.338 C 
ATOM     41  O   UNL A   1      45.936  26.423  24.580  1.00  0.00    -0.246 OA
BRANCH  40  42
ATOM     42  C   UNL A   1      44.376  26.427  26.386  1.00  0.00     0.060 A 
ATOM     43  C   UNL A   1      44.464  27.817  26.534  1.00  0.00     0.016 A 
ATOM     44  C   UNL A   1      43.488  25.701  27.183  1.00  0.00     0.016 A 
ATOM     45  C   UNL A   1      43.703  28.479  27.499  1.00  0.00     0.010 A 
ATOM     46  C   UNL A   1      42.744  26.365  28.177  1.00  0.00     0.010 A 
ATOM     47  C   UNL A   1      42.873  27.755  28.362  1.00  0.00    -0.014 A 
BRANCH  47  48
ATOM     48  C   UNL A   1      42.360  28.441  29.581  1.00  0.00     0.031 A 
ATOM     49  C   UNL A   1      41.033  29.152  29.490  1.00  0.00     0.074 A 
ATOM     50  C   UNL A   1      42.974  28.335  30.774  1.00  0.00     0.049 A 
ATOM     51  N   UNL A   1      40.383  29.829  30.402  1.00  0.00    -0.248 NA
ATOM     52  C   UNL A   1      40.340  29.074  28.194  1.00  0.00     0.031 C 
ATOM     53  C   UNL A   1      44.209  27.599  31.032  1.00  0.00     0.029 A 
ATOM     54  N   UNL A   1      42.628  28.846  32.004  1.00  0.00    -0.354 N 
ATOM     55  C   UNL A   1      39.212  30.260  29.790  1.00  0.00     0.074 A 
ATOM     56  C   UNL A   1      39.253  29.793  28.421  1.00  0.00     0.031 C 
ATOM     57  C   UNL A   1      44.523  27.713  32.336  1.00  0.00     0.029 A 
ATOM     58  C   UNL A   1      43.535  28.564  32.998  1.00  0.00     0.049 A 
ATOM     59  H   UNL A   1      41.806  29.367  32.159  1.00  0.00     0.167 HD
ATOM     60  C   UNL A   1      38.187  30.970  30.319  1.00  0.00     0.037 A 
ATOM     61  C   UNL A   1      43.579  28.972  34.284  1.00  0.00     0.037 A 
ATOM     62  C   UNL A   1      38.137  31.434  31.681  1.00  0.00     0.049 A 
ATOM     63  C   UNL A   1      42.478  29.857  34.818  1.00  0.00     0.074 A 
ATOM     64  C   UNL A   1      37.155  32.188  32.299  1.00  0.00     0.029 A 
ATOM     65  N   UNL A   1      39.110  31.185  32.635  1.00  0.00    -0.354 N 
ATOM     66  N   UNL A   1      41.392  30.285  34.221  1.00  0.00    -0.248 NA
ATOM     67  C   UNL A   1      42.613  30.315  36.210  1.00  0.00     0.031 C 
ATOM     68  C   UNL A   1      37.558  32.438  33.614  1.00  0.00     0.029 A 
ATOM     69  C   UNL A   1      38.761  31.788  33.833  1.00  0.00     0.049 A 
ATOM     70  H   UNL A   1      39.928  30.657  32.484  1.00  0.00     0.167 HD
ATOM     71  C   UNL A   1      40.706  31.037  35.169  1.00  0.00     0.074 A 
ATOM     72  C   UNL A   1      41.483  30.981  36.389  1.00  0.00     0.031 C 
ATOM     73  C   UNL A   1      39.540  31.719  35.043  1.00  0.00     0.037 A 
BRANCH  60  74
ATOM     74  C   UNL A   1      37.045  31.322  29.409  1.00  0.00     0.057 A 
ATOM     75  C   UNL A   1      36.952  32.571  28.782  1.00  0.00     0.134 A 
ATOM     76  C   UNL A   1      36.047  30.380  29.126  1.00  0.00     0.134 A 
ATOM     77  F   UNL A   1      37.865  33.524  29.024  1.00  0.00    -0.206 F 
ATOM     78  C   UNL A   1      35.897  32.877  27.919  1.00  0.00     0.040 A 
ATOM     79  C   UNL A   1      35.004  30.665  28.244  1.00  0.00     0.040 A 
ATOM     80  F   UNL A   1      36.077  29.165  29.693  1.00  0.00    -0.206 F 
ATOM     81  C   UNL A   1      34.925  31.919  27.641  1.00  0.00     0.006 A 
ENDBRANCH  60  74
BRANCH  61  82
ATOM     82  C   UNL A   1      44.731  28.610  35.156  1.00  0.00     0.057 A 
ATOM     83  C   UNL A   1      45.910  29.366  35.173  1.00  0.00     0.134 A 
ATOM     84  C   UNL A   1      44.708  27.445  35.936  1.00  0.00     0.134 A 
ATOM     85  F   UNL A   1      46.012  30.474  34.424  1.00  0.00    -0.206 F 
ATOM     86  C   UNL A   1      47.031  28.962  35.903  1.00  0.00     0.040 A 
ATOM     87  C   UNL A   1      45.808  27.050  36.698  1.00  0.00     0.040 A 
ATOM     88  F   UNL A   1      43.615  26.669  35.961  1.00  0.00    -0.206 F 
ATOM     89  C   UNL A   1      46.980  27.802  36.672  1.00  0.00     0.006 A 
ENDBRANCH  61  82
BRANCH  73  90
ATOM     90  C   UNL A   1      39.017  32.425  36.264  1.00  0.00     0.057 A 
ATOM     91  C   UNL A   1      38.146  31.801  37.167  1.00  0.00     0.134 A 
ATOM     92  C   UNL A   1      39.401  33.742  36.547  1.00  0.00     0.134 A 
ATOM     93  F   UNL A   1      37.731  30.543  36.954  1.00  0.00    -0.206 F 
ATOM     94  C   UNL A   1      37.643  32.475  38.282  1.00  0.00     0.040 A 
ATOM     95  C   UNL A   1      38.932  34.415  37.676  1.00  0.00     0.040 A 
ATOM     96  F   UNL A   1      40.245  34.397  35.734  1.00  0.00    -0.206 F 
ATOM     97  C   UNL A   1      38.040  33.785  38.541  1.00  0.00     0.006 A 
ENDBRANCH  73  90
ENDBRANCH  47  48
ENDBRANCH  40  42
ENDBRANCH  39  40
ENDBRANCH  38  39
ENDBRANCH  37  38
ENDBRANCH  36  37
ENDBRANCH  35  36
ENDBRANCH  34  35
ENDBRANCH  33  34
ENDBRANCH   1  33
TORSDOF 23
ENDMDL
MODEL 3
REMARK VINA RESULT:     -10.2      6.066     11.073
REMARK SMILES O=C(CCCN1C(=O)c2ccc3c4c(ccc(c24)C1=O)C(=O)NC3=O)OCCOCCOCCOCCOC(=O)c1ccc(-c2c3nc(c(-c4c(F)cccc4F)c4ccc([nH]4)c(-c4c(F)cccc4F)c4nc(c(-c5c(F)cccc5F)c5ccc2[nH]5)C=C4)C=C3)cc1
REMARK SMILES IDX 31 1 30 2 29 3 28 4 27 5 26 6 2 7 1 8 3 9 4 10 5 11 6 12
REMARK SMILES IDX 19 13 7 14 20 15 17 16 9 17 8 18 16 19 18 20 10 21 15 22
REMARK SMILES IDX 13 23 11 24 14 25 12 26 21 27 24 28 23 29 22 30 25 31 32 33
REMARK SMILES IDX 33 34 34 35 35 36 36 37 37 38 38 39 39 40 40 41 41 42 42 43
REMARK SMILES IDX 94 44 43 45 93 46 44 47 45 48 46 49 87 50 47 51 92 52 86 53
REMARK SMILES IDX 88 54 48 55 91 56 85 57 84 58 49 60 75 61 58 62 74 63 59 64
REMARK SMILES IDX 62 65 73 66 89 67 60 68 61 69 72 71 90 72 63 73 50 74 51 75
REMARK SMILES IDX 56 76 52 77 53 78 55 79 57 80 54 81 76 82 77 83 82 84 78 85
REMARK SMILES IDX 79 86 81 87 83 88 80 89 64 90 65 91 70 92 66 93 67 94 69 95
REMARK SMILES IDX 71 96 68 97
REMARK H PARENT 23 32 88 59 62 70
REMARK Flexibility Score: inf
ROOT
ATOM      1  C   UNL A   1      41.970  35.700  28.718  1.00  0.00     0.188 C 
ENDROOT
BRANCH   1   2
ATOM      2  C   UNL A   1      41.790  34.479  29.629  1.00  0.00     0.188 C 
BRANCH   2   3
ATOM      3  O   UNL A   1      40.668  34.485  30.497  1.00  0.00    -0.376 OA
BRANCH   3   4
ATOM      4  C   UNL A   1      40.904  34.489  31.895  1.00  0.00     0.202 C 
BRANCH   4   5
ATOM      5  C   UNL A   1      42.165  33.848  32.456  1.00  0.00     0.261 C 
BRANCH   5   6
ATOM      6  O   UNL A   1      42.119  32.470  32.857  1.00  0.00    -0.463 OA
BRANCH   6   7
ATOM      7  C   UNL A   1      41.644  32.031  34.034  1.00  0.00     0.305 C 
ATOM      8  O   UNL A   1      41.678  30.830  34.297  1.00  0.00    -0.252 OA
BRANCH   7   9
ATOM      9  C   UNL A   1      41.179  33.050  35.055  1.00  0.00     0.124 C 
BRANCH   9  10
ATOM     10  C   UNL A   1      39.716  33.019  35.513  1.00  0.00     0.034 C 
BRANCH  10  11
ATOM     11  C   UNL A   1      38.628  32.125  34.861  1.00  0.00     0.130 C 
BRANCH  11  12
ATOM     12  N   UNL A   1      37.714  32.647  33.819  1.00  0.00    -0.274 N 
ATOM     13  C   UNL A   1      37.948  32.361  32.474  1.00  0.00     0.261 C 
ATOM     14  C   UNL A   1      36.519  33.235  34.264  1.00  0.00     0.261 C 
ATOM     15  O   UNL A   1      38.859  31.645  32.072  1.00  0.00    -0.269 OA
ATOM     16  C   UNL A   1      37.015  32.953  31.473  1.00  0.00     0.049 A 
ATOM     17  C   UNL A   1      35.634  33.865  33.252  1.00  0.00     0.049 A 
ATOM     18  O   UNL A   1      36.173  33.287  35.441  1.00  0.00    -0.269 OA
ATOM     19  C   UNL A   1      37.248  32.764  30.104  1.00  0.00     0.015 A 
ATOM     20  C   UNL A   1      35.917  33.709  31.894  1.00  0.00     0.009 A 
ATOM     21  C   UNL A   1      34.530  34.628  33.666  1.00  0.00     0.015 A 
ATOM     22  C   UNL A   1      36.399  33.335  29.153  1.00  0.00     0.015 A 
ATOM     23  C   UNL A   1      35.070  34.323  30.931  1.00  0.00     0.009 A 
ATOM     24  C   UNL A   1      33.717  35.257  32.723  1.00  0.00     0.015 A 
ATOM     25  C   UNL A   1      35.320  34.121  29.566  1.00  0.00     0.048 A 
ATOM     26  C   UNL A   1      33.997  35.117  31.362  1.00  0.00     0.048 A 
ATOM     27  C   UNL A   1      34.424  34.737  28.557  1.00  0.00     0.258 C 
ATOM     28  C   UNL A   1      33.168  35.833  30.364  1.00  0.00     0.258 C 
ATOM     29  N   UNL A   1      33.438  35.564  29.045  1.00  0.00    -0.288 N 
ATOM     30  O   UNL A   1      34.559  34.521  27.360  1.00  0.00    -0.269 OA
ATOM     31  O   UNL A   1      32.311  36.635  30.712  1.00  0.00    -0.269 OA
ATOM     32  H   UNL A   1      32.867  36.009  28.378  1.00  0.00     0.173 HD
ENDBRANCH  11  12
ENDBRANCH  10  11
ENDBRANCH   9  10
ENDBRANCH   7   9
ENDBRANCH   6   7
ENDBRANCH   5   6
ENDBRANCH   4   5
ENDBRANCH   3   4
ENDBRANCH   2   3
ENDBRANCH   1   2
BRANCH   1  33
ATOM     33  O   UNL A   1      42.604  35.367  27.485  1.00  0.00    -0.377 OA
BRANCH  33  34
ATOM     34  C   UNL A   1      42.610  36.407  26.502  1.00  0.00     0.188 C 
BRANCH  34  35
ATOM     35  C   UNL A   1      42.268  37.850  26.969  1.00  0.00     0.188 C 
BRANCH  35  36
ATOM     36  O   UNL A   1      43.351  38.742  26.829  1.00  0.00    -0.376 OA
BRANCH  36  37
ATOM     37  C   UNL A   1      44.671  38.317  27.102  1.00  0.00     0.202 C 
BRANCH  37  38
ATOM     38  C   UNL A   1      45.205  38.129  28.539  1.00  0.00     0.261 C 
BRANCH  38  39
ATOM     39  O   UNL A   1      45.049  36.838  29.150  1.00  0.00    -0.460 OA
BRANCH  39  40
ATOM     40  C   UNL A   1      46.170  36.231  29.613  1.00  0.00     0.338 C 
ATOM     41  O   UNL A   1      47.039  36.744  30.284  1.00  0.00    -0.246 OA
BRANCH  40  42
ATOM     42  C   UNL A   1      46.048  34.760  29.404  1.00  0.00     0.060 A 
ATOM     43  C   UNL A   1      45.764  34.320  28.105  1.00  0.00     0.016 A 
ATOM     44  C   UNL A   1      46.202  33.827  30.432  1.00  0.00     0.016 A 
ATOM     45  C   UNL A   1      45.593  32.961  27.836  1.00  0.00     0.010 A 
ATOM     46  C   UNL A   1      45.999  32.460  30.166  1.00  0.00     0.010 A 
ATOM     47  C   UNL A   1      45.659  32.023  28.871  1.00  0.00    -0.014 A 
BRANCH  47  48
ATOM     48  C   UNL A   1      45.132  30.654  28.612  1.00  0.00     0.031 A 
ATOM     49  C   UNL A   1      46.110  29.581  28.204  1.00  0.00     0.074 A 
ATOM     50  C   UNL A   1      43.849  30.322  28.853  1.00  0.00     0.049 A 
ATOM     51  N   UNL A   1      45.899  28.323  27.912  1.00  0.00    -0.248 NA
ATOM     52  C   UNL A   1      47.524  29.984  28.131  1.00  0.00     0.031 C 
ATOM     53  C   UNL A   1      42.815  31.231  29.343  1.00  0.00     0.029 A 
ATOM     54  N   UNL A   1      43.201  29.116  28.727  1.00  0.00    -0.354 N 
ATOM     55  C   UNL A   1      47.148  27.789  27.617  1.00  0.00     0.074 A 
ATOM     56  C   UNL A   1      48.108  28.864  27.737  1.00  0.00     0.031 C 
ATOM     57  C   UNL A   1      41.659  30.552  29.467  1.00  0.00     0.029 A 
ATOM     58  C   UNL A   1      41.860  29.172  29.026  1.00  0.00     0.049 A 
ATOM     59  H   UNL A   1      43.654  28.288  28.446  1.00  0.00     0.167 HD
ATOM     60  C   UNL A   1      47.471  26.516  27.287  1.00  0.00     0.037 A 
ATOM     61  C   UNL A   1      40.901  28.228  28.925  1.00  0.00     0.037 A 
ATOM     62  C   UNL A   1      46.522  25.440  27.170  1.00  0.00     0.049 A 
ATOM     63  C   UNL A   1      41.271  26.844  28.447  1.00  0.00     0.074 A 
ATOM     64  C   UNL A   1      46.752  24.123  26.810  1.00  0.00     0.029 A 
ATOM     65  N   UNL A   1      45.164  25.556  27.415  1.00  0.00    -0.354 N 
ATOM     66  N   UNL A   1      42.450  26.358  28.139  1.00  0.00    -0.248 NA
ATOM     67  C   UNL A   1      40.172  25.876  28.303  1.00  0.00     0.031 C 
ATOM     68  C   UNL A   1      45.524  23.455  26.787  1.00  0.00     0.029 A 
ATOM     69  C   UNL A   1      44.539  24.340  27.194  1.00  0.00     0.049 A 
ATOM     70  H   UNL A   1      44.710  26.381  27.704  1.00  0.00     0.167 HD
ATOM     71  C   UNL A   1      42.237  25.028  27.792  1.00  0.00     0.074 A 
ATOM     72  C   UNL A   1      40.821  24.775  27.957  1.00  0.00     0.031 C 
ATOM     73  C   UNL A   1      43.129  24.098  27.368  1.00  0.00     0.037 A 
BRANCH  60  74
ATOM     74  C   UNL A   1      48.914  26.222  26.992  1.00  0.00     0.057 A 
ATOM     75  C   UNL A   1      49.791  25.744  27.974  1.00  0.00     0.134 A 
ATOM     76  C   UNL A   1      49.421  26.384  25.696  1.00  0.00     0.134 A 
ATOM     77  F   UNL A   1      49.374  25.586  29.240  1.00  0.00    -0.206 F 
ATOM     78  C   UNL A   1      51.126  25.453  27.681  1.00  0.00     0.040 A 
ATOM     79  C   UNL A   1      50.744  26.069  25.385  1.00  0.00     0.040 A 
ATOM     80  F   UNL A   1      48.635  26.837  24.708  1.00  0.00    -0.206 F 
ATOM     81  C   UNL A   1      51.602  25.606  26.381  1.00  0.00     0.006 A 
ENDBRANCH  60  74
BRANCH  61  82
ATOM     82  C   UNL A   1      39.478  28.556  29.219  1.00  0.00     0.057 A 
ATOM     83  C   UNL A   1      38.640  29.133  28.256  1.00  0.00     0.134 A 
ATOM     84  C   UNL A   1      38.946  28.376  30.503  1.00  0.00     0.134 A 
ATOM     85  F   UNL A   1      39.095  29.364  27.016  1.00  0.00    -0.206 F 
ATOM     86  C   UNL A   1      37.341  29.546  28.566  1.00  0.00     0.040 A 
ATOM     87  C   UNL A   1      37.639  28.751  30.817  1.00  0.00     0.040 A 
ATOM     88  F   UNL A   1      39.695  27.837  31.477  1.00  0.00    -0.206 F 
ATOM     89  C   UNL A   1      36.836  29.351  29.850  1.00  0.00     0.006 A 
ENDBRANCH  61  82
BRANCH  73  90
ATOM     90  C   UNL A   1      42.607  22.715  27.093  1.00  0.00     0.057 A 
ATOM     91  C   UNL A   1      42.457  22.222  25.791  1.00  0.00     0.134 A 
ATOM     92  C   UNL A   1      42.262  21.859  28.148  1.00  0.00     0.134 A 
ATOM     93  F   UNL A   1      42.760  22.989  24.733  1.00  0.00    -0.206 F 
ATOM     94  C   UNL A   1      41.943  20.946  25.546  1.00  0.00     0.040 A 
ATOM     95  C   UNL A   1      41.780  20.570  27.918  1.00  0.00     0.040 A 
ATOM     96  F   UNL A   1      42.395  22.259  29.423  1.00  0.00    -0.206 F 
ATOM     97  C   UNL A   1      41.608  20.115  26.613  1.00  0.00     0.006 A 
ENDBRANCH  73  90
ENDBRANCH  47  48
ENDBRANCH  40  42
ENDBRANCH  39  40
ENDBRANCH  38  39
ENDBRANCH  37  38
ENDBRANCH  36  37
ENDBRANCH  35  36
ENDBRANCH  34  35
ENDBRANCH  33  34
ENDBRANCH   1  33
TORSDOF 23
ENDMDL
