MODEL 1
REMARK VINA RESULT:     -10.4      0.000      0.000
REMARK SMILES O=C(OCCOCCOCCOCCOC(=O)c1noc(-c2ccccc2C(F)(F)F)n1)c1ccc(-c2c3nc(c(-c4c(F)cccc4F)c4ccc([nH]4)c(-c4c(F)cccc4F)c4nc(c(-c5c(F)cccc5F)c5ccc2[nH]5)C=C4)C=C3)cc1
REMARK SMILES IDX 9 1 8 2 7 3 6 4 5 5 4 6 3 7 2 8 1 9 33 10 34 11 86 12 35 13
REMARK SMILES IDX 85 14 36 15 37 16 38 17 79 18 39 19 84 20 78 21 80 22 40 23
REMARK SMILES IDX 83 24 77 25 76 26 41 28 67 29 50 30 66 31 51 32 54 33 65 34
REMARK SMILES IDX 81 35 52 36 53 37 64 39 82 40 55 41 42 42 43 43 48 44 44 45
REMARK SMILES IDX 45 46 47 47 49 48 46 49 68 50 69 51 74 52 70 53 71 54 73 55
REMARK SMILES IDX 75 56 72 57 56 58 57 59 62 60 58 61 59 62 61 63 63 64 60 65
REMARK SMILES IDX 10 66 11 67 12 68 13 69 14 70 15 71 16 72 17 73 18 74 19 75
REMARK SMILES IDX 32 76 20 77 21 78 22 79 23 80 27 81 24 82 26 83 25 84 28 85
REMARK SMILES IDX 29 86 30 87 31 88
REMARK H PARENT 80 27 54 38
REMARK Flexibility Score: inf
ROOT
ATOM      1  O   UNL A   1      33.917  31.836  28.228  1.00  0.00    -0.377 OA
ENDROOT
BRANCH   1   2
ATOM      2  C   UNL A   1      35.154  32.531  28.051  1.00  0.00     0.188 C 
BRANCH   2   3
ATOM      3  C   UNL A   1      35.066  34.054  28.156  1.00  0.00     0.188 C 
BRANCH   3   4
ATOM      4  O   UNL A   1      33.730  34.458  28.477  1.00  0.00    -0.376 OA
BRANCH   4   5
ATOM      5  C   UNL A   1      33.562  35.855  28.716  1.00  0.00     0.202 C 
BRANCH   5   6
ATOM      6  C   UNL A   1      32.254  36.206  29.426  1.00  0.00     0.261 C 
BRANCH   6   7
ATOM      7  O   UNL A   1      32.493  36.863  30.678  1.00  0.00    -0.460 OA
BRANCH   7   8
ATOM      8  C   UNL A   1      32.692  36.285  31.888  1.00  0.00     0.338 C 
ATOM      9  O   UNL A   1      31.967  36.630  32.822  1.00  0.00    -0.246 OA
BRANCH   8  10
ATOM     10  C   UNL A   1      33.702  35.211  32.155  1.00  0.00     0.060 A 
ATOM     11  C   UNL A   1      33.484  34.034  32.880  1.00  0.00     0.016 A 
ATOM     12  C   UNL A   1      34.967  35.394  31.571  1.00  0.00     0.016 A 
ATOM     13  C   UNL A   1      34.504  33.115  33.105  1.00  0.00     0.010 A 
ATOM     14  C   UNL A   1      35.992  34.467  31.769  1.00  0.00     0.010 A 
ATOM     15  C   UNL A   1      35.768  33.347  32.576  1.00  0.00    -0.014 A 
BRANCH  15  16
ATOM     16  C   UNL A   1      36.900  32.529  33.042  1.00  0.00     0.031 A 
ATOM     17  C   UNL A   1      37.460  32.839  34.394  1.00  0.00     0.074 A 
ATOM     18  C   UNL A   1      37.365  31.511  32.303  1.00  0.00     0.049 A 
ATOM     19  N   UNL A   1      38.547  32.402  34.965  1.00  0.00    -0.248 NA
ATOM     20  C   UNL A   1      36.678  33.779  35.217  1.00  0.00     0.031 C 
ATOM     21  C   UNL A   1      36.794  31.058  31.035  1.00  0.00     0.029 A 
ATOM     22  N   UNL A   1      38.429  30.676  32.514  1.00  0.00    -0.354 N 
ATOM     23  C   UNL A   1      38.606  33.051  36.191  1.00  0.00     0.074 A 
ATOM     24  C   UNL A   1      37.442  33.900  36.290  1.00  0.00     0.031 C 
ATOM     25  C   UNL A   1      37.529  30.035  30.569  1.00  0.00     0.029 A 
ATOM     26  C   UNL A   1      38.655  29.812  31.472  1.00  0.00     0.049 A 
ATOM     27  H   UNL A   1      38.978  30.696  33.331  1.00  0.00     0.167 HD
ATOM     28  C   UNL A   1      39.568  32.955  37.137  1.00  0.00     0.037 A 
ATOM     29  C   UNL A   1      39.690  28.979  31.259  1.00  0.00     0.037 A 
ATOM     30  C   UNL A   1      40.716  32.103  37.000  1.00  0.00     0.049 A 
ATOM     31  C   UNL A   1      40.788  28.933  32.286  1.00  0.00     0.074 A 
ATOM     32  C   UNL A   1      41.793  31.951  37.850  1.00  0.00     0.029 A 
ATOM     33  N   UNL A   1      40.925  31.251  35.922  1.00  0.00    -0.354 N 
ATOM     34  N   UNL A   1      40.890  29.601  33.413  1.00  0.00    -0.248 NA
ATOM     35  C   UNL A   1      41.923  28.043  32.011  1.00  0.00     0.031 C 
ATOM     36  C   UNL A   1      42.674  31.032  37.266  1.00  0.00     0.029 A 
ATOM     37  C   UNL A   1      42.122  30.579  36.076  1.00  0.00     0.049 A 
ATOM     38  H   UNL A   1      40.311  31.143  35.161  1.00  0.00     0.167 HD
ATOM     39  C   UNL A   1      42.088  29.204  33.990  1.00  0.00     0.074 A 
ATOM     40  C   UNL A   1      42.675  28.230  33.089  1.00  0.00     0.031 C 
ATOM     41  C   UNL A   1      42.655  29.606  35.154  1.00  0.00     0.037 A 
BRANCH  28  42
ATOM     42  C   UNL A   1      39.439  33.865  38.322  1.00  0.00     0.057 A 
ATOM     43  C   UNL A   1      38.773  33.482  39.493  1.00  0.00     0.134 A 
ATOM     44  C   UNL A   1      39.913  35.182  38.251  1.00  0.00     0.134 A 
ATOM     45  F   UNL A   1      38.263  32.246  39.611  1.00  0.00    -0.206 F 
ATOM     46  C   UNL A   1      38.547  34.386  40.534  1.00  0.00     0.040 A 
ATOM     47  C   UNL A   1      39.715  36.088  39.295  1.00  0.00     0.040 A 
ATOM     48  F   UNL A   1      40.551  35.618  37.155  1.00  0.00    -0.206 F 
ATOM     49  C   UNL A   1      39.019  35.694  40.435  1.00  0.00     0.006 A 
ENDBRANCH  28  42
BRANCH  29  50
ATOM     50  C   UNL A   1      39.746  28.184  30.007  1.00  0.00     0.057 A 
ATOM     51  C   UNL A   1      40.411  28.655  28.870  1.00  0.00     0.134 A 
ATOM     52  C   UNL A   1      39.176  26.905  29.933  1.00  0.00     0.134 A 
ATOM     53  F   UNL A   1      40.961  29.878  28.869  1.00  0.00    -0.206 F 
ATOM     54  C   UNL A   1      40.512  27.884  27.709  1.00  0.00     0.040 A 
ATOM     55  C   UNL A   1      39.290  26.113  28.789  1.00  0.00     0.040 A 
ATOM     56  F   UNL A   1      38.528  26.392  30.989  1.00  0.00    -0.206 F 
ATOM     57  C   UNL A   1      39.959  26.605  27.671  1.00  0.00     0.006 A 
ENDBRANCH  29  50
BRANCH  41  58
ATOM     58  C   UNL A   1      43.955  28.968  35.535  1.00  0.00     0.057 A 
ATOM     59  C   UNL A   1      44.000  27.793  36.293  1.00  0.00     0.134 A 
ATOM     60  C   UNL A   1      45.163  29.485  35.052  1.00  0.00     0.134 A 
ATOM     61  F   UNL A   1      42.874  27.259  36.789  1.00  0.00    -0.206 F 
ATOM     62  C   UNL A   1      45.209  27.150  36.558  1.00  0.00     0.040 A 
ATOM     63  C   UNL A   1      46.375  28.840  35.294  1.00  0.00     0.040 A 
ATOM     64  F   UNL A   1      45.178  30.603  34.312  1.00  0.00    -0.206 F 
ATOM     65  C   UNL A   1      46.399  27.668  36.048  1.00  0.00     0.006 A 
ENDBRANCH  41  58
ENDBRANCH  15  16
ENDBRANCH   8  10
ENDBRANCH   7   8
ENDBRANCH   6   7
ENDBRANCH   5   6
ENDBRANCH   4   5
ENDBRANCH   3   4
ENDBRANCH   2   3
ENDBRANCH   1   2
BRANCH   1  66
ATOM     66  C   UNL A   1      33.614  30.820  27.280  1.00  0.00     0.188 C 
BRANCH  66  67
ATOM     67  C   UNL A   1      34.513  29.567  27.229  1.00  0.00     0.188 C 
BRANCH  67  68
ATOM     68  O   UNL A   1      34.282  28.705  26.120  1.00  0.00    -0.376 OA
BRANCH  68  69
ATOM     69  C   UNL A   1      32.979  28.779  25.546  1.00  0.00     0.202 C 
BRANCH  69  70
ATOM     70  C   UNL A   1      32.959  28.854  24.009  1.00  0.00     0.261 C 
BRANCH  70  71
ATOM     71  O   UNL A   1      32.549  27.646  23.350  1.00  0.00    -0.457 OA
BRANCH  71  72
ATOM     72  C   UNL A   1      33.359  27.182  22.357  1.00  0.00     0.380 C 
ATOM     73  O   UNL A   1      34.030  27.908  21.629  1.00  0.00    -0.242 OA
BRANCH  72  74
ATOM     74  C   UNL A   1      33.474  25.722  22.396  1.00  0.00     0.281 A 
ATOM     75  N   UNL A   1      33.280  24.976  21.289  1.00  0.00    -0.049 NA
ATOM     76  N   UNL A   1      33.892  24.991  23.495  1.00  0.00    -0.181 NA
ATOM     77  O   UNL A   1      33.572  23.681  21.709  1.00  0.00    -0.333 OA
ATOM     78  C   UNL A   1      33.888  23.763  23.033  1.00  0.00     0.259 A 
BRANCH  78  79
ATOM     79  C   UNL A   1      33.824  22.504  23.752  1.00  0.00     0.052 A 
ATOM     80  C   UNL A   1      32.589  21.895  24.026  1.00  0.00     0.014 A 
ATOM     81  C   UNL A   1      35.015  21.923  24.241  1.00  0.00     0.068 A 
ATOM     82  C   UNL A   1      32.534  20.719  24.779  1.00  0.00     0.001 A 
ATOM     83  C   UNL A   1      34.938  20.738  24.993  1.00  0.00     0.014 A 
ATOM     84  C   UNL A   1      33.706  20.146  25.265  1.00  0.00     0.001 A 
BRANCH  81  85
ATOM     85  C   UNL A   1      36.369  22.542  23.965  1.00  0.00     0.417 C 
ATOM     86  F   UNL A   1      36.601  23.654  24.721  1.00  0.00    -0.166 F 
ATOM     87  F   UNL A   1      37.395  21.692  24.236  1.00  0.00    -0.166 F 
ATOM     88  F   UNL A   1      36.538  22.955  22.679  1.00  0.00    -0.166 F 
ENDBRANCH  81  85
ENDBRANCH  78  79
ENDBRANCH  72  74
ENDBRANCH  71  72
ENDBRANCH  70  71
ENDBRANCH  69  70
ENDBRANCH  68  69
ENDBRANCH  67  68
ENDBRANCH  66  67
ENDBRANCH   1  66
TORSDOF 22
ENDMDL
MODEL 2
REMARK VINA RESULT:     -10.2      1.783      2.832
REMARK SMILES O=C(OCCOCCOCCOCCOC(=O)c1noc(-c2ccccc2C(F)(F)F)n1)c1ccc(-c2c3nc(c(-c4c(F)cccc4F)c4ccc([nH]4)c(-c4c(F)cccc4F)c4nc(c(-c5c(F)cccc5F)c5ccc2[nH]5)C=C4)C=C3)cc1
REMARK SMILES IDX 9 1 8 2 7 3 6 4 5 5 4 6 3 7 2 8 1 9 33 10 34 11 86 12 35 13
REMARK SMILES IDX 85 14 36 15 37 16 38 17 79 18 39 19 84 20 78 21 80 22 40 23
REMARK SMILES IDX 83 24 77 25 76 26 41 28 67 29 50 30 66 31 51 32 54 33 65 34
REMARK SMILES IDX 81 35 52 36 53 37 64 39 82 40 55 41 42 42 43 43 48 44 44 45
REMARK SMILES IDX 45 46 47 47 49 48 46 49 68 50 69 51 74 52 70 53 71 54 73 55
REMARK SMILES IDX 75 56 72 57 56 58 57 59 62 60 58 61 59 62 61 63 63 64 60 65
REMARK SMILES IDX 10 66 11 67 12 68 13 69 14 70 15 71 16 72 17 73 18 74 19 75
REMARK SMILES IDX 32 76 20 77 21 78 22 79 23 80 27 81 24 82 26 83 25 84 28 85
REMARK SMILES IDX 29 86 30 87 31 88
REMARK H PARENT 80 27 54 38
REMARK Flexibility Score: inf
ROOT
ATOM      1  O   UNL A   1      33.903  28.233  25.971  1.00  0.00    -0.377 OA
ENDROOT
BRANCH   1   2
ATOM      2  C   UNL A   1      34.757  28.944  26.871  1.00  0.00     0.188 C 
BRANCH   2   3
ATOM      3  C   UNL A   1      34.268  30.339  27.267  1.00  0.00     0.188 C 
BRANCH   3   4
ATOM      4  O   UNL A   1      33.220  30.770  26.391  1.00  0.00    -0.376 OA
BRANCH   4   5
ATOM      5  C   UNL A   1      31.961  31.000  27.023  1.00  0.00     0.202 C 
BRANCH   5   6
ATOM      6  C   UNL A   1      31.483  32.449  26.936  1.00  0.00     0.261 C 
BRANCH   6   7
ATOM      7  O   UNL A   1      32.583  33.369  26.949  1.00  0.00    -0.460 OA
BRANCH   7   8
ATOM      8  C   UNL A   1      33.143  33.970  28.027  1.00  0.00     0.338 C 
ATOM      9  O   UNL A   1      32.595  34.974  28.482  1.00  0.00    -0.246 OA
BRANCH   8  10
ATOM     10  C   UNL A   1      34.360  33.462  28.739  1.00  0.00     0.060 A 
ATOM     11  C   UNL A   1      35.690  33.708  28.381  1.00  0.00     0.016 A 
ATOM     12  C   UNL A   1      34.125  32.712  29.904  1.00  0.00     0.016 A 
ATOM     13  C   UNL A   1      36.752  33.154  29.089  1.00  0.00     0.010 A 
ATOM     14  C   UNL A   1      35.183  32.172  30.637  1.00  0.00     0.010 A 
ATOM     15  C   UNL A   1      36.498  32.359  30.200  1.00  0.00    -0.014 A 
BRANCH  15  16
ATOM     16  C   UNL A   1      37.592  31.558  30.772  1.00  0.00     0.031 A 
ATOM     17  C   UNL A   1      37.987  31.845  32.186  1.00  0.00     0.074 A 
ATOM     18  C   UNL A   1      38.166  30.572  30.066  1.00  0.00     0.049 A 
ATOM     19  N   UNL A   1      39.015  31.420  32.866  1.00  0.00    -0.248 NA
ATOM     20  C   UNL A   1      37.092  32.743  32.938  1.00  0.00     0.031 C 
ATOM     21  C   UNL A   1      37.754  30.139  28.731  1.00  0.00     0.029 A 
ATOM     22  N   UNL A   1      39.222  29.758  30.376  1.00  0.00    -0.354 N 
ATOM     23  C   UNL A   1      38.917  32.037  34.106  1.00  0.00     0.074 A 
ATOM     24  C   UNL A   1      37.727  32.854  34.092  1.00  0.00     0.031 C 
ATOM     25  C   UNL A   1      38.565  29.148  28.327  1.00  0.00     0.029 A 
ATOM     26  C   UNL A   1      39.588  28.928  29.347  1.00  0.00     0.049 A 
ATOM     27  H   UNL A   1      39.674  29.769  31.251  1.00  0.00     0.167 HD
ATOM     28  C   UNL A   1      39.769  31.940  35.152  1.00  0.00     0.037 A 
ATOM     29  C   UNL A   1      40.663  28.127  29.233  1.00  0.00     0.037 A 
ATOM     30  C   UNL A   1      40.948  31.120  35.126  1.00  0.00     0.049 A 
ATOM     31  C   UNL A   1      41.639  28.081  30.376  1.00  0.00     0.074 A 
ATOM     32  C   UNL A   1      41.926  30.972  36.089  1.00  0.00     0.029 A 
ATOM     33  N   UNL A   1      41.301  30.303  34.058  1.00  0.00    -0.354 N 
ATOM     34  N   UNL A   1      41.594  28.721  31.523  1.00  0.00    -0.248 NA
ATOM     35  C   UNL A   1      42.822  27.228  30.211  1.00  0.00     0.031 C 
ATOM     36  C   UNL A   1      42.892  30.092  35.587  1.00  0.00     0.029 A 
ATOM     37  C   UNL A   1      42.491  29.657  34.331  1.00  0.00     0.049 A 
ATOM     38  H   UNL A   1      40.779  30.200  33.230  1.00  0.00     0.167 HD
ATOM     39  C   UNL A   1      42.730  28.338  32.222  1.00  0.00     0.074 A 
ATOM     40  C   UNL A   1      43.442  27.404  31.371  1.00  0.00     0.031 C 
ATOM     41  C   UNL A   1      43.152  28.722  33.452  1.00  0.00     0.037 A 
BRANCH  28  42
ATOM     42  C   UNL A   1      39.482  32.814  36.336  1.00  0.00     0.057 A 
ATOM     43  C   UNL A   1      38.574  32.446  37.338  1.00  0.00     0.134 A 
ATOM     44  C   UNL A   1      40.059  34.087  36.426  1.00  0.00     0.134 A 
ATOM     45  F   UNL A   1      37.958  31.255  37.292  1.00  0.00    -0.206 F 
ATOM     46  C   UNL A   1      38.220  33.328  38.362  1.00  0.00     0.040 A 
ATOM     47  C   UNL A   1      39.732  34.968  37.458  1.00  0.00     0.040 A 
ATOM     48  F   UNL A   1      40.930  34.508  35.495  1.00  0.00    -0.206 F 
ATOM     49  C   UNL A   1      38.800  34.594  38.422  1.00  0.00     0.006 A 
ENDBRANCH  28  42
BRANCH  29  50
ATOM     50  C   UNL A   1      40.882  27.368  27.976  1.00  0.00     0.057 A 
ATOM     51  C   UNL A   1      41.592  27.916  26.904  1.00  0.00     0.134 A 
ATOM     52  C   UNL A   1      40.427  26.049  27.837  1.00  0.00     0.134 A 
ATOM     53  F   UNL A   1      42.038  29.180  26.966  1.00  0.00    -0.206 F 
ATOM     54  C   UNL A   1      41.847  27.183  25.742  1.00  0.00     0.040 A 
ATOM     55  C   UNL A   1      40.695  25.295  26.692  1.00  0.00     0.040 A 
ATOM     56  F   UNL A   1      39.742  25.462  28.829  1.00  0.00    -0.206 F 
ATOM     57  C   UNL A   1      41.406  25.864  25.639  1.00  0.00     0.006 A 
ENDBRANCH  29  50
BRANCH  41  58
ATOM     58  C   UNL A   1      44.417  28.107  33.963  1.00  0.00     0.057 A 
ATOM     59  C   UNL A   1      45.654  28.744  33.814  1.00  0.00     0.134 A 
ATOM     60  C   UNL A   1      44.376  26.917  34.699  1.00  0.00     0.134 A 
ATOM     61  F   UNL A   1      45.754  29.882  33.112  1.00  0.00    -0.206 F 
ATOM     62  C   UNL A   1      46.812  28.215  34.383  1.00  0.00     0.040 A 
ATOM     63  C   UNL A   1      45.524  26.389  35.288  1.00  0.00     0.040 A 
ATOM     64  F   UNL A   1      43.216  26.270  34.883  1.00  0.00    -0.206 F 
ATOM     65  C   UNL A   1      46.746  27.040  35.131  1.00  0.00     0.006 A 
ENDBRANCH  41  58
ENDBRANCH  15  16
ENDBRANCH   8  10
ENDBRANCH   7   8
ENDBRANCH   6   7
ENDBRANCH   5   6
ENDBRANCH   4   5
ENDBRANCH   3   4
ENDBRANCH   2   3
ENDBRANCH   1   2
BRANCH   1  66
ATOM     66  C   UNL A   1      33.267  27.067  26.480  1.00  0.00     0.188 C 
BRANCH  66  67
ATOM     67  C   UNL A   1      31.730  27.067  26.617  1.00  0.00     0.188 C 
BRANCH  67  68
ATOM     68  O   UNL A   1      31.082  25.899  26.126  1.00  0.00    -0.376 OA
BRANCH  68  69
ATOM     69  C   UNL A   1      29.917  26.129  25.337  1.00  0.00     0.202 C 
BRANCH  69  70
ATOM     70  C   UNL A   1      30.147  27.009  24.096  1.00  0.00     0.261 C 
BRANCH  70  71
ATOM     71  O   UNL A   1      31.462  26.920  23.526  1.00  0.00    -0.457 OA
BRANCH  71  72
ATOM     72  C   UNL A   1      31.566  26.309  22.313  1.00  0.00     0.380 C 
ATOM     73  O   UNL A   1      31.132  26.787  21.269  1.00  0.00    -0.242 OA
BRANCH  72  74
ATOM     74  C   UNL A   1      32.419  25.120  22.383  1.00  0.00     0.281 A 
ATOM     75  N   UNL A   1      33.116  24.696  21.309  1.00  0.00    -0.049 NA
ATOM     76  N   UNL A   1      32.684  24.404  23.538  1.00  0.00    -0.181 NA
ATOM     77  O   UNL A   1      33.861  23.627  21.800  1.00  0.00    -0.333 OA
ATOM     78  C   UNL A   1      33.524  23.490  23.114  1.00  0.00     0.259 A 
BRANCH  78  79
ATOM     79  C   UNL A   1      33.865  22.205  23.698  1.00  0.00     0.052 A 
ATOM     80  C   UNL A   1      32.915  21.174  23.770  1.00  0.00     0.014 A 
ATOM     81  C   UNL A   1      35.146  22.018  24.261  1.00  0.00     0.068 A 
ATOM     82  C   UNL A   1      33.232  19.966  24.396  1.00  0.00     0.001 A 
ATOM     83  C   UNL A   1      35.447  20.793  24.882  1.00  0.00     0.014 A 
ATOM     84  C   UNL A   1      34.494  19.779  24.955  1.00  0.00     0.001 A 
BRANCH  81  85
ATOM     85  C   UNL A   1      36.204  23.099  24.200  1.00  0.00     0.417 C 
ATOM     86  F   UNL A   1      37.267  22.839  25.015  1.00  0.00    -0.166 F 
ATOM     87  F   UNL A   1      36.725  23.250  22.953  1.00  0.00    -0.166 F 
ATOM     88  F   UNL A   1      35.763  24.328  24.586  1.00  0.00    -0.166 F 
ENDBRANCH  81  85
ENDBRANCH  78  79
ENDBRANCH  72  74
ENDBRANCH  71  72
ENDBRANCH  70  71
ENDBRANCH  69  70
ENDBRANCH  68  69
ENDBRANCH  67  68
ENDBRANCH  66  67
ENDBRANCH   1  66
TORSDOF 22
ENDMDL
MODEL 3
REMARK VINA RESULT:      -9.9      1.883      3.043
REMARK SMILES O=C(OCCOCCOCCOCCOC(=O)c1noc(-c2ccccc2C(F)(F)F)n1)c1ccc(-c2c3nc(c(-c4c(F)cccc4F)c4ccc([nH]4)c(-c4c(F)cccc4F)c4nc(c(-c5c(F)cccc5F)c5ccc2[nH]5)C=C4)C=C3)cc1
REMARK SMILES IDX 9 1 8 2 7 3 6 4 5 5 4 6 3 7 2 8 1 9 33 10 34 11 86 12 35 13
REMARK SMILES IDX 85 14 36 15 37 16 38 17 79 18 39 19 84 20 78 21 80 22 40 23
REMARK SMILES IDX 83 24 77 25 76 26 41 28 67 29 50 30 66 31 51 32 54 33 65 34
REMARK SMILES IDX 81 35 52 36 53 37 64 39 82 40 55 41 42 42 43 43 48 44 44 45
REMARK SMILES IDX 45 46 47 47 49 48 46 49 68 50 69 51 74 52 70 53 71 54 73 55
REMARK SMILES IDX 75 56 72 57 56 58 57 59 62 60 58 61 59 62 61 63 63 64 60 65
REMARK SMILES IDX 10 66 11 67 12 68 13 69 14 70 15 71 16 72 17 73 18 74 19 75
REMARK SMILES IDX 32 76 20 77 21 78 22 79 23 80 27 81 24 82 26 83 25 84 28 85
REMARK SMILES IDX 29 86 30 87 31 88
REMARK H PARENT 80 27 54 38
REMARK Flexibility Score: inf
ROOT
ATOM      1  O   UNL A   1      34.170  28.597  25.840  1.00  0.00    -0.377 OA
ENDROOT
BRANCH   1   2
ATOM      2  C   UNL A   1      34.789  28.998  27.065  1.00  0.00     0.188 C 
BRANCH   2   3
ATOM      3  C   UNL A   1      34.360  30.369  27.593  1.00  0.00     0.188 C 
BRANCH   3   4
ATOM      4  O   UNL A   1      33.487  31.014  26.660  1.00  0.00    -0.376 OA
BRANCH   4   5
ATOM      5  C   UNL A   1      32.164  31.256  27.136  1.00  0.00     0.202 C 
BRANCH   5   6
ATOM      6  C   UNL A   1      31.659  32.673  26.863  1.00  0.00     0.261 C 
BRANCH   6   7
ATOM      7  O   UNL A   1      32.692  33.648  27.058  1.00  0.00    -0.460 OA
BRANCH   7   8
ATOM      8  C   UNL A   1      33.139  34.153  28.234  1.00  0.00     0.338 C 
ATOM      9  O   UNL A   1      32.489  35.054  28.763  1.00  0.00    -0.246 OA
BRANCH   8  10
ATOM     10  C   UNL A   1      34.346  33.648  28.964  1.00  0.00     0.060 A 
ATOM     11  C   UNL A   1      35.677  33.977  28.687  1.00  0.00     0.016 A 
ATOM     12  C   UNL A   1      34.096  32.806  30.062  1.00  0.00     0.016 A 
ATOM     13  C   UNL A   1      36.732  33.420  29.403  1.00  0.00     0.010 A 
ATOM     14  C   UNL A   1      35.145  32.261  30.804  1.00  0.00     0.010 A 
ATOM     15  C   UNL A   1      36.468  32.537  30.442  1.00  0.00    -0.014 A 
BRANCH  15  16
ATOM     16  C   UNL A   1      37.572  31.744  31.007  1.00  0.00     0.031 A 
ATOM     17  C   UNL A   1      38.003  32.063  32.404  1.00  0.00     0.074 A 
ATOM     18  C   UNL A   1      38.125  30.739  30.312  1.00  0.00     0.049 A 
ATOM     19  N   UNL A   1      39.045  31.650  33.069  1.00  0.00    -0.248 NA
ATOM     20  C   UNL A   1      37.129  32.982  33.155  1.00  0.00     0.031 C 
ATOM     21  C   UNL A   1      37.680  30.277  28.997  1.00  0.00     0.029 A 
ATOM     22  N   UNL A   1      39.185  29.929  30.616  1.00  0.00    -0.354 N 
ATOM     23  C   UNL A   1      38.979  32.297  34.296  1.00  0.00     0.074 A 
ATOM     24  C   UNL A   1      37.792  33.118  34.291  1.00  0.00     0.031 C 
ATOM     25  C   UNL A   1      38.478  29.272  28.598  1.00  0.00     0.029 A 
ATOM     26  C   UNL A   1      39.523  29.073  29.598  1.00  0.00     0.049 A 
ATOM     27  H   UNL A   1      39.659  29.959  31.478  1.00  0.00     0.167 HD
ATOM     28  C   UNL A   1      39.855  32.221  35.324  1.00  0.00     0.037 A 
ATOM     29  C   UNL A   1      40.592  28.265  29.477  1.00  0.00     0.037 A 
ATOM     30  C   UNL A   1      41.030  31.396  35.289  1.00  0.00     0.049 A 
ATOM     31  C   UNL A   1      41.596  28.242  30.598  1.00  0.00     0.074 A 
ATOM     32  C   UNL A   1      42.031  31.267  36.231  1.00  0.00     0.029 A 
ATOM     33  N   UNL A   1      41.354  30.553  34.233  1.00  0.00    -0.354 N 
ATOM     34  N   UNL A   1      41.581  28.909  31.730  1.00  0.00    -0.248 NA
ATOM     35  C   UNL A   1      42.771  27.380  30.425  1.00  0.00     0.031 C 
ATOM     36  C   UNL A   1      42.981  30.371  35.727  1.00  0.00     0.029 A 
ATOM     37  C   UNL A   1      42.548  29.908  34.492  1.00  0.00     0.049 A 
ATOM     38  H   UNL A   1      40.813  30.432  33.420  1.00  0.00     0.167 HD
ATOM     39  C   UNL A   1      42.732  28.538  32.410  1.00  0.00     0.074 A 
ATOM     40  C   UNL A   1      43.420  27.581  31.565  1.00  0.00     0.031 C 
ATOM     41  C   UNL A   1      43.184  28.950  33.620  1.00  0.00     0.037 A 
BRANCH  28  42
ATOM     42  C   UNL A   1      39.600  33.125  36.492  1.00  0.00     0.057 A 
ATOM     43  C   UNL A   1      40.258  34.352  36.649  1.00  0.00     0.134 A 
ATOM     44  C   UNL A   1      38.747  32.715  37.525  1.00  0.00     0.134 A 
ATOM     45  F   UNL A   1      41.117  34.787  35.714  1.00  0.00    -0.206 F 
ATOM     46  C   UNL A   1      40.108  35.118  37.808  1.00  0.00     0.040 A 
ATOM     47  C   UNL A   1      38.570  33.484  38.677  1.00  0.00     0.040 A 
ATOM     48  F   UNL A   1      38.093  31.546  37.444  1.00  0.00    -0.206 F 
ATOM     49  C   UNL A   1      39.262  34.682  38.826  1.00  0.00     0.006 A 
ENDBRANCH  28  42
BRANCH  29  50
ATOM     50  C   UNL A   1      40.779  27.475  28.235  1.00  0.00     0.057 A 
ATOM     51  C   UNL A   1      40.201  26.211  28.076  1.00  0.00     0.134 A 
ATOM     52  C   UNL A   1      41.503  27.989  27.150  1.00  0.00     0.134 A 
ATOM     53  F   UNL A   1      39.512  25.653  29.083  1.00  0.00    -0.206 F 
ATOM     54  C   UNL A   1      40.330  25.490  26.886  1.00  0.00     0.040 A 
ATOM     55  C   UNL A   1      41.621  27.291  25.946  1.00  0.00     0.040 A 
ATOM     56  F   UNL A   1      42.080  29.197  27.234  1.00  0.00    -0.206 F 
ATOM     57  C   UNL A   1      41.033  26.036  25.813  1.00  0.00     0.006 A 
ENDBRANCH  29  50
BRANCH  41  58
ATOM     58  C   UNL A   1      44.459  28.342  34.116  1.00  0.00     0.057 A 
ATOM     59  C   UNL A   1      44.470  27.133  34.820  1.00  0.00     0.134 A 
ATOM     60  C   UNL A   1      45.691  28.925  33.794  1.00  0.00     0.134 A 
ATOM     61  F   UNL A   1      43.320  26.534  35.162  1.00  0.00    -0.206 F 
ATOM     62  C   UNL A   1      45.668  26.522  35.188  1.00  0.00     0.040 A 
ATOM     63  C   UNL A   1      46.895  28.314  34.141  1.00  0.00     0.040 A 
ATOM     64  F   UNL A   1      45.740  30.079  33.112  1.00  0.00    -0.206 F 
ATOM     65  C   UNL A   1      46.885  27.108  34.839  1.00  0.00     0.006 A 
ENDBRANCH  41  58
ENDBRANCH  15  16
ENDBRANCH   8  10
ENDBRANCH   7   8
ENDBRANCH   6   7
ENDBRANCH   5   6
ENDBRANCH   4   5
ENDBRANCH   3   4
ENDBRANCH   2   3
ENDBRANCH   1   2
BRANCH   1  66
ATOM     66  C   UNL A   1      33.501  27.342  25.843  1.00  0.00     0.188 C 
BRANCH  66  67
ATOM     67  C   UNL A   1      32.179  27.214  26.628  1.00  0.00     0.188 C 
BRANCH  67  68
ATOM     68  O   UNL A   1      31.609  25.909  26.638  1.00  0.00    -0.376 OA
BRANCH  68  69
ATOM     69  C   UNL A   1      30.401  25.762  25.895  1.00  0.00     0.202 C 
BRANCH  69  70
ATOM     70  C   UNL A   1      30.600  25.395  24.413  1.00  0.00     0.261 C 
BRANCH  70  71
ATOM     71  O   UNL A   1      31.326  26.365  23.642  1.00  0.00    -0.457 OA
BRANCH  71  72
ATOM     72  C   UNL A   1      31.717  25.989  22.392  1.00  0.00     0.380 C 
ATOM     73  O   UNL A   1      31.370  26.567  21.366  1.00  0.00    -0.242 OA
BRANCH  72  74
ATOM     74  C   UNL A   1      32.742  24.943  22.442  1.00  0.00     0.281 A 
ATOM     75  N   UNL A   1      33.014  24.180  21.365  1.00  0.00    -0.049 NA
ATOM     76  N   UNL A   1      33.587  24.716  23.515  1.00  0.00    -0.181 NA
ATOM     77  O   UNL A   1      34.089  23.397  21.778  1.00  0.00    -0.333 OA
ATOM     78  C   UNL A   1      34.346  23.742  23.072  1.00  0.00     0.259 A 
BRANCH  78  79
ATOM     79  C   UNL A   1      35.141  22.778  23.812  1.00  0.00     0.052 A 
ATOM     80  C   UNL A   1      36.530  22.938  23.936  1.00  0.00     0.014 A 
ATOM     81  C   UNL A   1      34.516  21.634  24.352  1.00  0.00     0.068 A 
ATOM     82  C   UNL A   1      37.295  21.969  24.591  1.00  0.00     0.001 A 
ATOM     83  C   UNL A   1      35.302  20.673  25.010  1.00  0.00     0.014 A 
ATOM     84  C   UNL A   1      36.682  20.837  25.122  1.00  0.00     0.001 A 
BRANCH  81  85
ATOM     85  C   UNL A   1      33.020  21.424  24.246  1.00  0.00     0.417 C 
ATOM     86  F   UNL A   1      32.602  20.299  24.894  1.00  0.00    -0.166 F 
ATOM     87  F   UNL A   1      32.311  22.448  24.793  1.00  0.00    -0.166 F 
ATOM     88  F   UNL A   1      32.569  21.279  22.971  1.00  0.00    -0.166 F 
ENDBRANCH  81  85
ENDBRANCH  78  79
ENDBRANCH  72  74
ENDBRANCH  71  72
ENDBRANCH  70  71
ENDBRANCH  69  70
ENDBRANCH  68  69
ENDBRANCH  67  68
ENDBRANCH  66  67
ENDBRANCH   1  66
TORSDOF 22
ENDMDL
