MODEL 1
REMARK VINA RESULT:     -11.6      0.000      0.000
REMARK SMILES Cc1ccccc1-c1c(Cl)ccc2c1C=C(C(=O)OCCOCCOCCOCCOC(=O)c1ccc(-c3c4nc(c(-c5c(F)cccc5F)c5ccc([nH]5)c(-c5c(F)cccc5F)c5nc(c(-c6c(F)cccc6F)c6ccc3[nH]6)C=C5)C=C4)cc1)[C@@H](C(F)(F)F)O2
REMARK SMILES IDX 26 1 25 2 24 3 23 4 22 5 21 6 20 7 19 8 17 9 18 10 16 11
REMARK SMILES IDX 8 12 9 13 14 14 10 15 11 16 13 17 15 18 12 19 93 20 88 21
REMARK SMILES IDX 7 22 1 23 2 24 3 25 4 26 6 27 5 28 89 29 90 30 91 31 92 32
REMARK SMILES IDX 27 33 28 34 29 35 30 36 31 37 32 38 33 39 34 40 35 41 87 42
REMARK SMILES IDX 36 43 86 44 37 45 38 46 39 47 80 48 40 49 85 50 79 51 81 52
REMARK SMILES IDX 41 53 84 54 78 55 77 56 42 58 68 59 51 60 67 61 52 62 55 63
REMARK SMILES IDX 66 64 82 65 53 66 54 67 65 69 83 70 56 71 43 72 44 73 49 74
REMARK SMILES IDX 45 75 46 76 48 77 50 78 47 79 69 80 70 81 75 82 71 83 72 84
REMARK SMILES IDX 74 85 76 86 73 87 57 88 58 89 63 90 59 91 60 92 62 93 64 94
REMARK SMILES IDX 61 95
REMARK H PARENT 81 57 55 68
REMARK Flexibility Score: inf
ROOT
ATOM      1  C   UNL A   1      33.517  33.821  28.173  1.00  0.00     0.188 C 
ENDROOT
BRANCH   1   2
ATOM      2  O   UNL A   1      34.806  33.677  27.572  1.00  0.00    -0.377 OA
BRANCH   2   3
ATOM      3  C   UNL A   1      35.482  32.518  28.041  1.00  0.00     0.188 C 
BRANCH   3   4
ATOM      4  C   UNL A   1      34.665  31.224  28.029  1.00  0.00     0.188 C 
BRANCH   4   5
ATOM      5  O   UNL A   1      35.174  30.090  27.339  1.00  0.00    -0.376 OA
BRANCH   5   6
ATOM      6  C   UNL A   1      34.347  28.924  27.331  1.00  0.00     0.202 C 
BRANCH   6   7
ATOM      7  C   UNL A   1      33.426  28.792  26.126  1.00  0.00     0.261 C 
BRANCH   7   8
ATOM      8  O   UNL A   1      33.264  27.407  25.788  1.00  0.00    -0.460 OA
BRANCH   8   9
ATOM      9  C   UNL A   1      32.399  27.215  24.779  1.00  0.00     0.338 C 
ATOM     10  O   UNL A   1      31.356  27.830  24.612  1.00  0.00    -0.246 OA
BRANCH   9  11
ATOM     11  C   UNL A   1      33.091  26.406  23.708  1.00  0.00     0.087 C 
ATOM     12  C   UNL A   1      33.792  23.557  25.754  1.00  0.00     0.012 A 
ATOM     13  C   UNL A   1      32.922  23.078  26.754  1.00  0.00     0.049 A 
ATOM     14  C   UNL A   1      33.201  24.350  24.759  1.00  0.00     0.027 A 
ATOM     15  Cl  UNL A   1      33.518  22.206  28.124  1.00  0.00    -0.084 Cl
ATOM     16  C   UNL A   1      31.536  23.291  26.676  1.00  0.00     0.025 A 
ATOM     17  C   UNL A   1      31.808  24.309  24.528  1.00  0.00     0.128 A 
ATOM     18  C   UNL A   1      33.948  25.423  24.061  1.00  0.00     0.028 C 
ATOM     19  C   UNL A   1      30.970  23.830  25.520  1.00  0.00     0.049 A 
ATOM     20  O   UNL A   1      31.233  24.848  23.388  1.00  0.00    -0.475 OA
ATOM     21  C   UNL A   1      31.982  25.945  22.776  1.00  0.00     0.316 C 
BRANCH  12  22
ATOM     22  C   UNL A   1      35.156  23.005  25.554  1.00  0.00    -0.013 A 
ATOM     23  C   UNL A   1      34.453  20.714  24.657  1.00  0.00     0.045 C 
ATOM     24  C   UNL A   1      35.481  21.727  25.058  1.00  0.00    -0.043 A 
ATOM     25  C   UNL A   1      36.831  21.327  24.988  1.00  0.00     0.004 A 
ATOM     26  C   UNL A   1      37.861  22.176  25.385  1.00  0.00     0.000 A 
ATOM     27  C   UNL A   1      36.226  23.842  25.954  1.00  0.00     0.009 A 
ATOM     28  C   UNL A   1      37.557  23.438  25.870  1.00  0.00     0.001 A 
ENDBRANCH  12  22
BRANCH  21  29
ATOM     29  C   UNL A   1      32.484  25.650  21.360  1.00  0.00     0.430 C 
ATOM     30  F   UNL A   1      31.520  25.878  20.436  1.00  0.00    -0.167 F 
ATOM     31  F   UNL A   1      33.520  26.470  21.038  1.00  0.00    -0.167 F 
ATOM     32  F   UNL A   1      32.915  24.381  21.202  1.00  0.00    -0.167 F 
ENDBRANCH  21  29
ENDBRANCH   9  11
ENDBRANCH   8   9
ENDBRANCH   7   8
ENDBRANCH   6   7
ENDBRANCH   5   6
ENDBRANCH   4   5
ENDBRANCH   3   4
ENDBRANCH   2   3
ENDBRANCH   1   2
BRANCH   1  33
ATOM     33  C   UNL A   1      33.361  35.205  28.784  1.00  0.00     0.188 C 
BRANCH  33  34
ATOM     34  O   UNL A   1      32.535  35.291  29.938  1.00  0.00    -0.376 OA
BRANCH  34  35
ATOM     35  C   UNL A   1      32.606  36.460  30.744  1.00  0.00     0.202 C 
BRANCH  35  36
ATOM     36  C   UNL A   1      32.339  36.237  32.240  1.00  0.00     0.261 C 
BRANCH  36  37
ATOM     37  O   UNL A   1      32.944  35.000  32.658  1.00  0.00    -0.460 OA
BRANCH  37  38
ATOM     38  C   UNL A   1      34.288  35.050  32.866  1.00  0.00     0.338 C 
ATOM     39  O   UNL A   1      34.891  35.984  33.377  1.00  0.00    -0.246 OA
BRANCH  38  40
ATOM     40  C   UNL A   1      34.951  33.982  32.061  1.00  0.00     0.060 A 
ATOM     41  C   UNL A   1      34.676  32.636  32.366  1.00  0.00     0.016 A 
ATOM     42  C   UNL A   1      36.087  34.301  31.324  1.00  0.00     0.016 A 
ATOM     43  C   UNL A   1      35.639  31.646  32.119  1.00  0.00     0.010 A 
ATOM     44  C   UNL A   1      37.066  33.336  31.164  1.00  0.00     0.010 A 
ATOM     45  C   UNL A   1      36.891  32.016  31.622  1.00  0.00    -0.014 A 
BRANCH  45  46
ATOM     46  C   UNL A   1      38.136  31.229  31.815  1.00  0.00     0.031 A 
ATOM     47  C   UNL A   1      38.389  29.985  31.006  1.00  0.00     0.074 A 
ATOM     48  C   UNL A   1      39.177  31.851  32.432  1.00  0.00     0.049 A 
ATOM     49  N   UNL A   1      39.474  29.283  31.026  1.00  0.00    -0.248 NA
ATOM     50  C   UNL A   1      37.397  29.401  30.100  1.00  0.00     0.031 C 
ATOM     51  C   UNL A   1      40.594  31.669  32.121  1.00  0.00     0.029 A 
ATOM     52  N   UNL A   1      39.214  32.865  33.389  1.00  0.00    -0.354 N 
ATOM     53  C   UNL A   1      39.459  28.408  29.950  1.00  0.00     0.074 A 
ATOM     54  C   UNL A   1      38.101  28.444  29.484  1.00  0.00     0.031 C 
ATOM     55  C   UNL A   1      41.346  32.520  32.828  1.00  0.00     0.029 A 
ATOM     56  C   UNL A   1      40.519  32.983  33.904  1.00  0.00     0.049 A 
ATOM     57  H   UNL A   1      38.445  33.414  33.664  1.00  0.00     0.167 HD
ATOM     58  C   UNL A   1      40.632  27.862  29.499  1.00  0.00     0.037 A 
ATOM     59  C   UNL A   1      40.795  32.612  35.193  1.00  0.00     0.037 A 
ATOM     60  C   UNL A   1      41.742  28.132  30.427  1.00  0.00     0.049 A 
ATOM     61  C   UNL A   1      41.564  31.297  35.326  1.00  0.00     0.074 A 
ATOM     62  C   UNL A   1      43.011  28.657  30.275  1.00  0.00     0.029 A 
ATOM     63  N   UNL A   1      41.561  27.958  31.802  1.00  0.00    -0.354 N 
ATOM     64  N   UNL A   1      41.738  30.448  34.338  1.00  0.00    -0.248 NA
ATOM     65  C   UNL A   1      42.234  30.842  36.541  1.00  0.00     0.031 C 
ATOM     66  C   UNL A   1      43.555  28.855  31.566  1.00  0.00     0.029 A 
ATOM     67  C   UNL A   1      42.629  28.456  32.515  1.00  0.00     0.049 A 
ATOM     68  H   UNL A   1      40.772  27.534  32.209  1.00  0.00     0.167 HD
ATOM     69  C   UNL A   1      42.447  29.358  34.757  1.00  0.00     0.074 A 
ATOM     70  C   UNL A   1      42.758  29.667  36.141  1.00  0.00     0.031 C 
ATOM     71  C   UNL A   1      42.711  28.276  33.960  1.00  0.00     0.037 A 
BRANCH  58  72
ATOM     72  C   UNL A   1      40.883  27.244  28.111  1.00  0.00     0.057 A 
ATOM     73  C   UNL A   1      40.475  25.918  27.824  1.00  0.00     0.134 A 
ATOM     74  C   UNL A   1      41.630  27.828  27.066  1.00  0.00     0.134 A 
ATOM     75  F   UNL A   1      39.703  25.224  28.672  1.00  0.00    -0.206 F 
ATOM     76  C   UNL A   1      40.834  25.224  26.654  1.00  0.00     0.040 A 
ATOM     77  C   UNL A   1      41.939  27.166  25.862  1.00  0.00     0.040 A 
ATOM     78  F   UNL A   1      42.152  29.055  27.158  1.00  0.00    -0.206 F 
ATOM     79  C   UNL A   1      41.567  25.849  25.661  1.00  0.00     0.006 A 
ENDBRANCH  58  72
BRANCH  59  80
ATOM     80  C   UNL A   1      39.883  33.318  36.144  1.00  0.00     0.057 A 
ATOM     81  C   UNL A   1      38.970  32.454  36.784  1.00  0.00     0.134 A 
ATOM     82  C   UNL A   1      40.379  34.383  36.907  1.00  0.00     0.134 A 
ATOM     83  F   UNL A   1      38.406  31.450  36.093  1.00  0.00    -0.206 F 
ATOM     84  C   UNL A   1      38.821  32.450  38.173  1.00  0.00     0.040 A 
ATOM     85  C   UNL A   1      40.213  34.404  38.301  1.00  0.00     0.040 A 
ATOM     86  F   UNL A   1      41.206  35.286  36.358  1.00  0.00    -0.206 F 
ATOM     87  C   UNL A   1      39.499  33.390  38.942  1.00  0.00     0.006 A 
ENDBRANCH  59  80
BRANCH  71  88
ATOM     88  C   UNL A   1      43.111  26.906  34.468  1.00  0.00     0.057 A 
ATOM     89  C   UNL A   1      44.440  26.536  34.722  1.00  0.00     0.134 A 
ATOM     90  C   UNL A   1      42.138  25.987  34.930  1.00  0.00     0.134 A 
ATOM     91  F   UNL A   1      45.462  27.357  34.448  1.00  0.00    -0.206 F 
ATOM     92  C   UNL A   1      44.779  25.324  35.337  1.00  0.00     0.040 A 
ATOM     93  C   UNL A   1      42.465  24.801  35.592  1.00  0.00     0.040 A 
ATOM     94  F   UNL A   1      40.824  26.211  34.794  1.00  0.00    -0.206 F 
ATOM     95  C   UNL A   1      43.792  24.458  35.788  1.00  0.00     0.006 A 
ENDBRANCH  71  88
ENDBRANCH  45  46
ENDBRANCH  38  40
ENDBRANCH  37  38
ENDBRANCH  36  37
ENDBRANCH  35  36
ENDBRANCH  34  35
ENDBRANCH  33  34
ENDBRANCH   1  33
TORSDOF 22
ENDMDL
MODEL 2
REMARK VINA RESULT:     -11.0      1.308      2.022
REMARK SMILES Cc1ccccc1-c1c(Cl)ccc2c1C=C(C(=O)OCCOCCOCCOCCOC(=O)c1ccc(-c3c4nc(c(-c5c(F)cccc5F)c5ccc([nH]5)c(-c5c(F)cccc5F)c5nc(c(-c6c(F)cccc6F)c6ccc3[nH]6)C=C5)C=C4)cc1)[C@@H](C(F)(F)F)O2
REMARK SMILES IDX 26 1 25 2 24 3 23 4 22 5 21 6 20 7 19 8 17 9 18 10 16 11
REMARK SMILES IDX 8 12 9 13 14 14 10 15 11 16 13 17 15 18 12 19 93 20 88 21
REMARK SMILES IDX 7 22 1 23 2 24 3 25 4 26 6 27 5 28 89 29 90 30 91 31 92 32
REMARK SMILES IDX 27 33 28 34 29 35 30 36 31 37 32 38 33 39 34 40 35 41 87 42
REMARK SMILES IDX 36 43 86 44 37 45 38 46 39 47 80 48 40 49 85 50 79 51 81 52
REMARK SMILES IDX 41 53 84 54 78 55 77 56 42 58 68 59 51 60 67 61 52 62 55 63
REMARK SMILES IDX 66 64 82 65 53 66 54 67 65 69 83 70 56 71 43 72 44 73 49 74
REMARK SMILES IDX 45 75 46 76 48 77 50 78 47 79 69 80 70 81 75 82 71 83 72 84
REMARK SMILES IDX 74 85 76 86 73 87 57 88 58 89 63 90 59 91 60 92 62 93 64 94
REMARK SMILES IDX 61 95
REMARK H PARENT 81 57 55 68
REMARK Flexibility Score: inf
ROOT
ATOM      1  C   UNL A   1      34.447  35.402  28.287  1.00  0.00     0.188 C 
ENDROOT
BRANCH   1   2
ATOM      2  O   UNL A   1      34.798  34.265  27.495  1.00  0.00    -0.377 OA
BRANCH   2   3
ATOM      3  C   UNL A   1      35.902  33.559  28.043  1.00  0.00     0.188 C 
BRANCH   3   4
ATOM      4  C   UNL A   1      35.692  32.057  28.249  1.00  0.00     0.188 C 
BRANCH   4   5
ATOM      5  O   UNL A   1      34.369  31.555  28.382  1.00  0.00    -0.376 OA
BRANCH   5   6
ATOM      6  C   UNL A   1      33.702  31.188  27.171  1.00  0.00     0.202 C 
BRANCH   6   7
ATOM      7  C   UNL A   1      32.299  30.625  27.351  1.00  0.00     0.261 C 
BRANCH   7   8
ATOM      8  O   UNL A   1      32.042  29.634  26.345  1.00  0.00    -0.460 OA
BRANCH   8   9
ATOM      9  C   UNL A   1      32.867  28.577  26.434  1.00  0.00     0.338 C 
ATOM     10  O   UNL A   1      32.977  27.842  27.404  1.00  0.00    -0.246 OA
BRANCH   9  11
ATOM     11  C   UNL A   1      33.344  28.229  25.044  1.00  0.00     0.087 C 
ATOM     12  C   UNL A   1      33.437  24.687  25.534  1.00  0.00     0.012 A 
ATOM     13  C   UNL A   1      32.502  23.979  26.314  1.00  0.00     0.049 A 
ATOM     14  C   UNL A   1      33.017  25.941  25.064  1.00  0.00     0.027 A 
ATOM     15  Cl  UNL A   1      32.915  22.485  27.082  1.00  0.00    -0.084 Cl
ATOM     16  C   UNL A   1      31.195  24.461  26.499  1.00  0.00     0.025 A 
ATOM     17  C   UNL A   1      31.646  26.272  25.002  1.00  0.00     0.128 A 
ATOM     18  C   UNL A   1      33.970  27.051  24.827  1.00  0.00     0.028 C 
ATOM     19  C   UNL A   1      30.741  25.562  25.772  1.00  0.00     0.049 A 
ATOM     20  O   UNL A   1      31.183  27.367  24.290  1.00  0.00    -0.475 OA
ATOM     21  C   UNL A   1      32.144  28.460  24.140  1.00  0.00     0.316 C 
BRANCH  12  22
ATOM     22  C   UNL A   1      34.642  24.040  24.955  1.00  0.00    -0.013 A 
ATOM     23  C   UNL A   1      33.540  23.140  22.828  1.00  0.00     0.045 C 
ATOM     24  C   UNL A   1      34.715  23.339  23.734  1.00  0.00    -0.043 A 
ATOM     25  C   UNL A   1      35.925  22.724  23.353  1.00  0.00     0.004 A 
ATOM     26  C   UNL A   1      37.064  22.806  24.151  1.00  0.00     0.000 A 
ATOM     27  C   UNL A   1      35.815  24.100  25.745  1.00  0.00     0.009 A 
ATOM     28  C   UNL A   1      37.009  23.497  25.351  1.00  0.00     0.001 A 
ENDBRANCH  12  22
BRANCH  21  29
ATOM     29  C   UNL A   1      32.543  28.752  22.691  1.00  0.00     0.430 C 
ATOM     30  F   UNL A   1      33.720  29.417  22.627  1.00  0.00    -0.167 F 
ATOM     31  F   UNL A   1      32.723  27.594  22.001  1.00  0.00    -0.167 F 
ATOM     32  F   UNL A   1      31.622  29.476  22.021  1.00  0.00    -0.167 F 
ENDBRANCH  21  29
ENDBRANCH   9  11
ENDBRANCH   8   9
ENDBRANCH   7   8
ENDBRANCH   6   7
ENDBRANCH   5   6
ENDBRANCH   4   5
ENDBRANCH   3   4
ENDBRANCH   2   3
ENDBRANCH   1   2
BRANCH   1  33
ATOM     33  C   UNL A   1      33.349  35.047  29.278  1.00  0.00     0.188 C 
BRANCH  33  34
ATOM     34  O   UNL A   1      32.556  36.129  29.748  1.00  0.00    -0.376 OA
BRANCH  34  35
ATOM     35  C   UNL A   1      32.384  36.293  31.150  1.00  0.00     0.202 C 
BRANCH  35  36
ATOM     36  C   UNL A   1      33.678  36.240  31.975  1.00  0.00     0.261 C 
BRANCH  36  37
ATOM     37  O   UNL A   1      33.778  34.965  32.634  1.00  0.00    -0.460 OA
BRANCH  37  38
ATOM     38  C   UNL A   1      35.007  34.659  33.131  1.00  0.00     0.338 C 
ATOM     39  O   UNL A   1      35.629  35.330  33.944  1.00  0.00    -0.246 OA
BRANCH  38  40
ATOM     40  C   UNL A   1      35.635  33.605  32.280  1.00  0.00     0.060 A 
ATOM     41  C   UNL A   1      35.322  32.257  32.534  1.00  0.00     0.016 A 
ATOM     42  C   UNL A   1      36.775  33.920  31.549  1.00  0.00     0.016 A 
ATOM     43  C   UNL A   1      36.254  31.250  32.242  1.00  0.00     0.010 A 
ATOM     44  C   UNL A   1      37.725  32.934  31.345  1.00  0.00     0.010 A 
ATOM     45  C   UNL A   1      37.514  31.603  31.751  1.00  0.00    -0.014 A 
BRANCH  45  46
ATOM     46  C   UNL A   1      38.737  30.774  31.906  1.00  0.00     0.031 A 
ATOM     47  C   UNL A   1      38.988  29.603  30.992  1.00  0.00     0.074 A 
ATOM     48  C   UNL A   1      39.772  31.313  32.605  1.00  0.00     0.049 A 
ATOM     49  N   UNL A   1      40.058  28.878  30.977  1.00  0.00    -0.248 NA
ATOM     50  C   UNL A   1      38.012  29.127  30.010  1.00  0.00     0.031 C 
ATOM     51  C   UNL A   1      41.193  31.127  32.317  1.00  0.00     0.029 A 
ATOM     52  N   UNL A   1      39.801  32.233  33.652  1.00  0.00    -0.354 N 
ATOM     53  C   UNL A   1      40.057  28.106  29.825  1.00  0.00     0.074 A 
ATOM     54  C   UNL A   1      38.714  28.215  29.327  1.00  0.00     0.031 C 
ATOM     55  C   UNL A   1      41.941  31.893  33.120  1.00  0.00     0.029 A 
ATOM     56  C   UNL A   1      41.092  32.274  34.211  1.00  0.00     0.049 A 
ATOM     57  H   UNL A   1      39.035  32.772  33.955  1.00  0.00     0.167 HD
ATOM     58  C   UNL A   1      41.231  27.577  29.358  1.00  0.00     0.037 A 
ATOM     59  C   UNL A   1      41.322  31.780  35.468  1.00  0.00     0.037 A 
ATOM     60  C   UNL A   1      42.319  27.736  30.337  1.00  0.00     0.049 A 
ATOM     61  C   UNL A   1      42.061  30.442  35.500  1.00  0.00     0.074 A 
ATOM     62  C   UNL A   1      43.602  28.243  30.268  1.00  0.00     0.029 A 
ATOM     63  N   UNL A   1      42.094  27.441  31.684  1.00  0.00    -0.354 N 
ATOM     64  N   UNL A   1      42.246  29.684  34.443  1.00  0.00    -0.248 NA
ATOM     65  C   UNL A   1      42.686  29.862  36.685  1.00  0.00     0.031 C 
ATOM     66  C   UNL A   1      44.112  28.310  31.586  1.00  0.00     0.029 A 
ATOM     67  C   UNL A   1      43.151  27.847  32.469  1.00  0.00     0.049 A 
ATOM     68  H   UNL A   1      41.285  26.999  32.028  1.00  0.00     0.167 HD
ATOM     69  C   UNL A   1      42.922  28.543  34.779  1.00  0.00     0.074 A 
ATOM     70  C   UNL A   1      43.198  28.717  36.194  1.00  0.00     0.031 C 
ATOM     71  C   UNL A   1      43.187  27.533  33.893  1.00  0.00     0.037 A 
BRANCH  58  72
ATOM     72  C   UNL A   1      41.510  27.084  27.926  1.00  0.00     0.057 A 
ATOM     73  C   UNL A   1      41.882  25.738  27.684  1.00  0.00     0.134 A 
ATOM     74  C   UNL A   1      41.570  27.888  26.768  1.00  0.00     0.134 A 
ATOM     75  F   UNL A   1      41.826  24.810  28.650  1.00  0.00    -0.206 F 
ATOM     76  C   UNL A   1      42.333  25.262  26.438  1.00  0.00     0.040 A 
ATOM     77  C   UNL A   1      41.957  27.407  25.502  1.00  0.00     0.040 A 
ATOM     78  F   UNL A   1      41.308  29.198  26.793  1.00  0.00    -0.206 F 
ATOM     79  C   UNL A   1      42.368  26.097  25.336  1.00  0.00     0.006 A 
ENDBRANCH  58  72
BRANCH  59  80
ATOM     80  C   UNL A   1      40.397  32.417  36.454  1.00  0.00     0.057 A 
ATOM     81  C   UNL A   1      40.615  33.803  36.606  1.00  0.00     0.134 A 
ATOM     82  C   UNL A   1      39.069  31.978  36.531  1.00  0.00     0.134 A 
ATOM     83  F   UNL A   1      41.869  34.284  36.608  1.00  0.00    -0.206 F 
ATOM     84  C   UNL A   1      39.567  34.721  36.505  1.00  0.00     0.040 A 
ATOM     85  C   UNL A   1      38.007  32.894  36.457  1.00  0.00     0.040 A 
ATOM     86  F   UNL A   1      38.779  30.671  36.456  1.00  0.00    -0.206 F 
ATOM     87  C   UNL A   1      38.262  34.264  36.363  1.00  0.00     0.006 A 
ENDBRANCH  59  80
BRANCH  71  88
ATOM     88  C   UNL A   1      43.544  26.114  34.284  1.00  0.00     0.057 A 
ATOM     89  C   UNL A   1      42.612  25.196  34.789  1.00  0.00     0.134 A 
ATOM     90  C   UNL A   1      44.804  25.561  33.951  1.00  0.00     0.134 A 
ATOM     91  F   UNL A   1      41.343  25.548  35.039  1.00  0.00    -0.206 F 
ATOM     92  C   UNL A   1      42.922  23.846  34.998  1.00  0.00     0.040 A 
ATOM     93  C   UNL A   1      45.105  24.205  34.105  1.00  0.00     0.040 A 
ATOM     94  F   UNL A   1      45.790  26.300  33.425  1.00  0.00    -0.206 F 
ATOM     95  C   UNL A   1      44.165  23.343  34.643  1.00  0.00     0.006 A 
ENDBRANCH  71  88
ENDBRANCH  45  46
ENDBRANCH  38  40
ENDBRANCH  37  38
ENDBRANCH  36  37
ENDBRANCH  35  36
ENDBRANCH  34  35
ENDBRANCH  33  34
ENDBRANCH   1  33
TORSDOF 22
ENDMDL
MODEL 3
REMARK VINA RESULT:     -10.7      5.136     10.649
REMARK SMILES Cc1ccccc1-c1c(Cl)ccc2c1C=C(C(=O)OCCOCCOCCOCCOC(=O)c1ccc(-c3c4nc(c(-c5c(F)cccc5F)c5ccc([nH]5)c(-c5c(F)cccc5F)c5nc(c(-c6c(F)cccc6F)c6ccc3[nH]6)C=C5)C=C4)cc1)[C@@H](C(F)(F)F)O2
REMARK SMILES IDX 26 1 25 2 24 3 23 4 22 5 21 6 20 7 19 8 17 9 18 10 16 11
REMARK SMILES IDX 8 12 9 13 14 14 10 15 11 16 13 17 15 18 12 19 93 20 88 21
REMARK SMILES IDX 7 22 1 23 2 24 3 25 4 26 6 27 5 28 89 29 90 30 91 31 92 32
REMARK SMILES IDX 27 33 28 34 29 35 30 36 31 37 32 38 33 39 34 40 35 41 87 42
REMARK SMILES IDX 36 43 86 44 37 45 38 46 39 47 80 48 40 49 85 50 79 51 81 52
REMARK SMILES IDX 41 53 84 54 78 55 77 56 42 58 68 59 51 60 67 61 52 62 55 63
REMARK SMILES IDX 66 64 82 65 53 66 54 67 65 69 83 70 56 71 43 72 44 73 49 74
REMARK SMILES IDX 45 75 46 76 48 77 50 78 47 79 69 80 70 81 75 82 71 83 72 84
REMARK SMILES IDX 74 85 76 86 73 87 57 88 58 89 63 90 59 91 60 92 62 93 64 94
REMARK SMILES IDX 61 95
REMARK H PARENT 81 57 55 68
REMARK Flexibility Score: inf
ROOT
ATOM      1  C   UNL A   1      41.995  18.870  26.085  1.00  0.00     0.188 C 
ENDROOT
BRANCH   1   2
ATOM      2  O   UNL A   1      41.886  20.293  26.171  1.00  0.00    -0.377 OA
BRANCH   2   3
ATOM      3  C   UNL A   1      41.016  20.694  27.221  1.00  0.00     0.188 C 
BRANCH   3   4
ATOM      4  C   UNL A   1      40.972  22.197  27.507  1.00  0.00     0.188 C 
BRANCH   4   5
ATOM      5  O   UNL A   1      39.744  22.895  27.347  1.00  0.00    -0.376 OA
BRANCH   5   6
ATOM      6  C   UNL A   1      38.951  22.539  26.211  1.00  0.00     0.202 C 
BRANCH   6   7
ATOM      7  C   UNL A   1      37.588  23.213  26.137  1.00  0.00     0.261 C 
BRANCH   7   8
ATOM      8  O   UNL A   1      37.361  23.703  24.807  1.00  0.00    -0.460 OA
BRANCH   8   9
ATOM      9  C   UNL A   1      36.263  23.177  24.239  1.00  0.00     0.338 C 
ATOM     10  O   UNL A   1      36.227  22.606  23.159  1.00  0.00    -0.246 OA
BRANCH   9  11
ATOM     11  C   UNL A   1      35.187  23.072  25.293  1.00  0.00     0.087 C 
ATOM     12  C   UNL A   1      33.411  26.028  24.341  1.00  0.00     0.012 A 
ATOM     13  C   UNL A   1      33.257  26.453  23.006  1.00  0.00     0.049 A 
ATOM     14  C   UNL A   1      33.703  24.667  24.519  1.00  0.00     0.027 A 
ATOM     15  Cl  UNL A   1      33.033  28.122  22.612  1.00  0.00    -0.084 Cl
ATOM     16  C   UNL A   1      33.278  25.534  21.943  1.00  0.00     0.025 A 
ATOM     17  C   UNL A   1      33.433  23.726  23.501  1.00  0.00     0.128 A 
ATOM     18  C   UNL A   1      34.506  24.178  25.666  1.00  0.00     0.028 C 
ATOM     19  C   UNL A   1      33.279  24.162  22.198  1.00  0.00     0.049 A 
ATOM     20  O   UNL A   1      33.438  22.360  23.739  1.00  0.00    -0.475 OA
ATOM     21  C   UNL A   1      34.295  21.927  24.842  1.00  0.00     0.316 C 
BRANCH  12  22
ATOM     22  C   UNL A   1      32.970  26.852  25.495  1.00  0.00    -0.013 A 
ATOM     23  C   UNL A   1      30.558  26.006  25.599  1.00  0.00     0.045 C 
ATOM     24  C   UNL A   1      31.690  26.858  26.083  1.00  0.00    -0.043 A 
ATOM     25  C   UNL A   1      31.409  27.751  27.138  1.00  0.00     0.004 A 
ATOM     26  C   UNL A   1      32.379  28.622  27.628  1.00  0.00     0.000 A 
ATOM     27  C   UNL A   1      33.931  27.754  26.013  1.00  0.00     0.009 A 
ATOM     28  C   UNL A   1      33.645  28.624  27.063  1.00  0.00     0.001 A 
ENDBRANCH  12  22
BRANCH  21  29
ATOM     29  C   UNL A   1      33.542  21.271  26.003  1.00  0.00     0.430 C 
ATOM     30  F   UNL A   1      34.216  21.408  27.170  1.00  0.00    -0.167 F 
ATOM     31  F   UNL A   1      32.335  21.869  26.190  1.00  0.00    -0.167 F 
ATOM     32  F   UNL A   1      33.311  19.956  25.812  1.00  0.00    -0.167 F 
ENDBRANCH  21  29
ENDBRANCH   9  11
ENDBRANCH   8   9
ENDBRANCH   7   8
ENDBRANCH   6   7
ENDBRANCH   5   6
ENDBRANCH   4   5
ENDBRANCH   3   4
ENDBRANCH   2   3
ENDBRANCH   1   2
BRANCH   1  33
ATOM     33  C   UNL A   1      43.452  18.450  25.963  1.00  0.00     0.188 C 
BRANCH  33  34
ATOM     34  O   UNL A   1      43.922  18.197  24.645  1.00  0.00    -0.376 OA
BRANCH  34  35
ATOM     35  C   UNL A   1      45.142  18.796  24.227  1.00  0.00     0.202 C 
BRANCH  35  36
ATOM     36  C   UNL A   1      45.631  19.956  25.106  1.00  0.00     0.261 C 
BRANCH  36  37
ATOM     37  O   UNL A   1      44.862  21.138  24.816  1.00  0.00    -0.460 OA
BRANCH  37  38
ATOM     38  C   UNL A   1      45.415  22.310  25.229  1.00  0.00     0.338 C 
ATOM     39  O   UNL A   1      46.610  22.507  25.403  1.00  0.00    -0.246 OA
BRANCH  38  40
ATOM     40  C   UNL A   1      44.345  23.190  25.786  1.00  0.00     0.060 A 
ATOM     41  C   UNL A   1      43.683  24.079  24.920  1.00  0.00     0.016 A 
ATOM     42  C   UNL A   1      44.296  23.404  27.159  1.00  0.00     0.016 A 
ATOM     43  C   UNL A   1      43.159  25.284  25.411  1.00  0.00     0.010 A 
ATOM     44  C   UNL A   1      43.857  24.633  27.623  1.00  0.00     0.010 A 
ATOM     45  C   UNL A   1      43.351  25.618  26.754  1.00  0.00    -0.014 A 
BRANCH  45  46
ATOM     46  C   UNL A   1      43.357  27.007  27.281  1.00  0.00     0.031 A 
ATOM     47  C   UNL A   1      42.064  27.704  27.614  1.00  0.00     0.074 A 
ATOM     48  C   UNL A   1      44.523  27.471  27.804  1.00  0.00     0.049 A 
ATOM     49  N   UNL A   1      41.959  28.870  28.164  1.00  0.00    -0.248 NA
ATOM     50  C   UNL A   1      40.746  27.136  27.322  1.00  0.00     0.031 C 
ATOM     51  C   UNL A   1      44.654  28.365  28.954  1.00  0.00     0.029 A 
ATOM     52  N   UNL A   1      45.853  27.169  27.513  1.00  0.00    -0.354 N 
ATOM     53  C   UNL A   1      40.650  29.047  28.588  1.00  0.00     0.074 A 
ATOM     54  C   UNL A   1      39.922  27.993  27.936  1.00  0.00     0.031 C 
ATOM     55  C   UNL A   1      45.942  28.526  29.282  1.00  0.00     0.029 A 
ATOM     56  C   UNL A   1      46.700  28.102  28.142  1.00  0.00     0.049 A 
ATOM     57  H   UNL A   1      46.154  26.417  26.953  1.00  0.00     0.167 HD
ATOM     58  C   UNL A   1      40.365  29.981  29.547  1.00  0.00     0.037 A 
ATOM     59  C   UNL A   1      47.398  29.017  27.400  1.00  0.00     0.037 A 
ATOM     60  C   UNL A   1      41.525  30.846  29.817  1.00  0.00     0.049 A 
ATOM     61  C   UNL A   1      46.853  30.444  27.474  1.00  0.00     0.074 A 
ATOM     62  C   UNL A   1      42.189  31.226  30.967  1.00  0.00     0.029 A 
ATOM     63  N   UNL A   1      42.264  31.373  28.755  1.00  0.00    -0.354 N 
ATOM     64  N   UNL A   1      45.683  30.755  27.982  1.00  0.00    -0.248 NA
ATOM     65  C   UNL A   1      47.574  31.636  27.034  1.00  0.00     0.031 C 
ATOM     66  C   UNL A   1      43.358  31.924  30.582  1.00  0.00     0.029 A 
ATOM     67  C   UNL A   1      43.421  31.975  29.199  1.00  0.00     0.049 A 
ATOM     68  H   UNL A   1      41.994  31.322  27.810  1.00  0.00     0.167 HD
ATOM     69  C   UNL A   1      45.460  32.101  27.895  1.00  0.00     0.074 A 
ATOM     70  C   UNL A   1      46.690  32.612  27.317  1.00  0.00     0.031 C 
ATOM     71  C   UNL A   1      44.288  32.699  28.276  1.00  0.00     0.037 A 
BRANCH  58  72
ATOM     72  C   UNL A   1      39.108  30.031  30.435  1.00  0.00     0.057 A 
ATOM     73  C   UNL A   1      39.026  29.258  31.619  1.00  0.00     0.134 A 
ATOM     74  C   UNL A   1      37.902  30.696  30.128  1.00  0.00     0.134 A 
ATOM     75  F   UNL A   1      40.091  28.606  32.106  1.00  0.00    -0.206 F 
ATOM     76  C   UNL A   1      37.849  29.106  32.376  1.00  0.00     0.040 A 
ATOM     77  C   UNL A   1      36.736  30.603  30.914  1.00  0.00     0.040 A 
ATOM     78  F   UNL A   1      37.753  31.436  29.026  1.00  0.00    -0.206 F 
ATOM     79  C   UNL A   1      36.695  29.784  32.028  1.00  0.00     0.006 A 
ENDBRANCH  58  72
BRANCH  59  80
ATOM     80  C   UNL A   1      48.209  28.327  26.351  1.00  0.00     0.057 A 
ATOM     81  C   UNL A   1      49.240  27.524  26.884  1.00  0.00     0.134 A 
ATOM     82  C   UNL A   1      47.573  27.848  25.198  1.00  0.00     0.134 A 
ATOM     83  F   UNL A   1      49.935  27.953  27.950  1.00  0.00    -0.206 F 
ATOM     84  C   UNL A   1      49.399  26.191  26.498  1.00  0.00     0.040 A 
ATOM     85  C   UNL A   1      47.746  26.517  24.785  1.00  0.00     0.040 A 
ATOM     86  F   UNL A   1      46.623  28.576  24.593  1.00  0.00    -0.206 F 
ATOM     87  C   UNL A   1      48.602  25.666  25.487  1.00  0.00     0.006 A 
ENDBRANCH  59  80
BRANCH  71  88
ATOM     88  C   UNL A   1      43.837  34.074  27.831  1.00  0.00     0.057 A 
ATOM     89  C   UNL A   1      43.447  34.370  26.516  1.00  0.00     0.134 A 
ATOM     90  C   UNL A   1      43.570  35.095  28.774  1.00  0.00     0.134 A 
ATOM     91  F   UNL A   1      43.530  33.458  25.537  1.00  0.00    -0.206 F 
ATOM     92  C   UNL A   1      42.886  35.601  26.156  1.00  0.00     0.040 A 
ATOM     93  C   UNL A   1      42.960  36.306  28.434  1.00  0.00     0.040 A 
ATOM     94  F   UNL A   1      43.851  34.954  30.077  1.00  0.00    -0.206 F 
ATOM     95  C   UNL A   1      42.627  36.569  27.117  1.00  0.00     0.006 A 
ENDBRANCH  71  88
ENDBRANCH  45  46
ENDBRANCH  38  40
ENDBRANCH  37  38
ENDBRANCH  36  37
ENDBRANCH  35  36
ENDBRANCH  34  35
ENDBRANCH  33  34
ENDBRANCH   1  33
TORSDOF 22
ENDMDL
