MODEL 1
REMARK VINA RESULT:     -12.7      0.000      0.000
REMARK SMILES Cc1ccc(C(=O)NC2(CC(=O)OCCOCCOCCOCCOC(=O)c3ccc(-c4c5nc(c(-c6c(F)cccc6F)c6ccc([nH]6)c(-c6c(F)cccc6F)c6nc(c(-c7c(F)cccc7F)c7ccc4[nH]7)C=C6)C=C5)cc3)CCC2)cc1
REMARK SMILES IDX 18 1 17 2 16 3 15 4 14 5 13 6 11 7 12 8 10 9 9 10 82 11
REMARK SMILES IDX 84 12 83 13 8 14 6 15 7 16 5 18 1 19 2 20 3 21 86 22 4 23
REMARK SMILES IDX 85 24 19 25 20 26 21 27 22 28 23 29 24 30 25 31 26 32 27 33
REMARK SMILES IDX 28 34 29 35 81 36 30 37 80 38 31 39 32 40 33 41 74 42 34 43
REMARK SMILES IDX 79 44 73 45 75 46 35 47 78 48 72 49 71 50 36 52 62 53 45 54
REMARK SMILES IDX 61 55 46 56 49 57 60 58 76 59 47 60 48 61 59 63 77 64 50 65
REMARK SMILES IDX 37 66 38 67 43 68 39 69 40 70 42 71 44 72 41 73 63 74 64 75
REMARK SMILES IDX 69 76 65 77 66 78 68 79 70 80 67 81 51 82 52 83 57 84 53 85
REMARK SMILES IDX 54 86 56 87 58 88 55 89
REMARK H PARENT 8 17 75 51 49 62
REMARK Flexibility Score: inf
ROOT
ATOM      1  C   UNL A   1      33.981  34.462  29.772  1.00  0.00     0.188 C 
ENDROOT
BRANCH   1   2
ATOM      2  C   UNL A   1      33.427  34.192  28.201  1.00  0.00     0.188 C 
BRANCH   2   3
ATOM      3  O   UNL A   1      31.940  33.492  27.561  1.00  0.00    -0.376 OA
BRANCH   3   4
ATOM      4  C   UNL A   1      31.405  32.181  26.498  1.00  0.00     0.202 C 
BRANCH   4   5
ATOM      5  C   UNL A   1      31.823  30.349  26.024  1.00  0.00     0.261 C 
BRANCH   5   6
ATOM      6  O   UNL A   1      30.972  28.776  24.965  1.00  0.00    -0.463 OA
BRANCH   6   7
ATOM      7  C   UNL A   1      30.932  28.262  23.259  1.00  0.00     0.308 C 
ATOM      8  O   UNL A   1      31.226  29.058  22.349  1.00  0.00    -0.252 OA
BRANCH   7   9
ATOM      9  C   UNL A   1      31.147  26.725  22.534  1.00  0.00     0.151 C 
BRANCH   9  10
ATOM     10  C   UNL A   1      31.832  25.573  23.317  1.00  0.00     0.051 C 
ATOM     11  C   UNL A   1      33.384  25.355  22.990  1.00  0.00     0.029 C 
ATOM     12  C   UNL A   1      31.855  23.956  23.058  1.00  0.00     0.029 C 
ATOM     13  C   UNL A   1      32.999  24.164  22.105  1.00  0.00     0.005 C 
BRANCH  10  14
ATOM     14  N   UNL A   1      31.608  25.722  24.727  1.00  0.00    -0.346 N 
ATOM     15  C   UNL A   1      31.675  24.868  25.783  1.00  0.00     0.251 C 
ATOM     16  O   UNL A   1      30.734  25.225  26.502  1.00  0.00    -0.269 OA
ATOM     17  H   UNL A   1      31.352  26.637  24.985  1.00  0.00     0.164 HD
BRANCH  15  18
ATOM     18  C   UNL A   1      32.921  23.656  26.019  1.00  0.00     0.039 A 
ATOM     19  C   UNL A   1      36.731  20.343  25.020  1.00  0.00     0.044 C 
ATOM     20  C   UNL A   1      35.611  21.287  25.328  1.00  0.00    -0.051 A 
ATOM     21  C   UNL A   1      34.064  20.720  25.416  1.00  0.00     0.004 A 
ATOM     22  C   UNL A   1      35.937  22.898  25.689  1.00  0.00     0.004 A 
ATOM     23  C   UNL A   1      32.737  21.803  25.783  1.00  0.00     0.014 A 
ATOM     24  C   UNL A   1      34.635  24.139  25.961  1.00  0.00     0.014 A 
ENDBRANCH  15  18
ENDBRANCH  10  14
ENDBRANCH   9  10
ENDBRANCH   7   9
ENDBRANCH   6   7
ENDBRANCH   5   6
ENDBRANCH   4   5
ENDBRANCH   3   4
ENDBRANCH   2   3
ENDBRANCH   1   2
BRANCH   1  25
ATOM     25  O   UNL A   1      33.473  35.507  30.615  1.00  0.00    -0.377 OA
BRANCH  25  26
ATOM     26  C   UNL A   1      33.607  35.448  32.025  1.00  0.00     0.188 C 
BRANCH  26  27
ATOM     27  C   UNL A   1      34.914  34.888  32.457  1.00  0.00     0.188 C 
BRANCH  27  28
ATOM     28  O   UNL A   1      34.511  33.822  33.257  1.00  0.00    -0.376 OA
BRANCH  28  29
ATOM     29  C   UNL A   1      35.565  33.016  33.716  1.00  0.00     0.202 C 
BRANCH  29  30
ATOM     30  C   UNL A   1      36.371  32.745  32.468  1.00  0.00     0.261 C 
BRANCH  30  31
ATOM     31  O   UNL A   1      35.929  31.455  31.948  1.00  0.00    -0.460 OA
BRANCH  31  32
ATOM     32  C   UNL A   1      36.846  30.443  32.063  1.00  0.00     0.338 C 
ATOM     33  O   UNL A   1      37.485  30.199  33.079  1.00  0.00    -0.246 OA
BRANCH  32  34
ATOM     34  C   UNL A   1      37.219  29.866  30.725  1.00  0.00     0.060 A 
ATOM     35  C   UNL A   1      37.696  28.573  30.630  1.00  0.00     0.016 A 
ATOM     36  C   UNL A   1      37.308  30.574  29.553  1.00  0.00     0.016 A 
ATOM     37  C   UNL A   1      38.603  28.207  29.591  1.00  0.00     0.010 A 
ATOM     38  C   UNL A   1      38.174  30.112  28.503  1.00  0.00     0.010 A 
ATOM     39  C   UNL A   1      39.193  29.117  28.697  1.00  0.00    -0.014 A 
BRANCH  39  40
ATOM     40  C   UNL A   1      41.015  29.138  28.368  1.00  0.00     0.031 A 
ATOM     41  C   UNL A   1      42.060  28.016  27.068  1.00  0.00     0.074 A 
ATOM     42  C   UNL A   1      41.456  30.163  29.299  1.00  0.00     0.049 A 
ATOM     43  N   UNL A   1      42.903  27.013  27.392  1.00  0.00    -0.248 NA
ATOM     44  C   UNL A   1      42.026  27.464  25.567  1.00  0.00     0.031 C 
ATOM     45  C   UNL A   1      42.543  31.155  29.275  1.00  0.00     0.029 A 
ATOM     46  N   UNL A   1      41.069  30.379  30.765  1.00  0.00    -0.354 N 
ATOM     47  C   UNL A   1      43.639  26.118  26.623  1.00  0.00     0.074 A 
ATOM     48  C   UNL A   1      42.877  26.392  25.424  1.00  0.00     0.031 C 
ATOM     49  C   UNL A   1      42.803  31.675  30.513  1.00  0.00     0.029 A 
ATOM     50  C   UNL A   1      42.124  30.979  31.599  1.00  0.00     0.049 A 
ATOM     51  H   UNL A   1      40.184  30.135  31.122  1.00  0.00     0.167 HD
ATOM     52  C   UNL A   1      44.672  25.177  27.084  1.00  0.00     0.037 A 
ATOM     53  C   UNL A   1      42.789  30.558  32.822  1.00  0.00     0.037 A 
ATOM     54  C   UNL A   1      45.597  25.211  28.506  1.00  0.00     0.049 A 
ATOM     55  C   UNL A   1      43.902  29.204  33.348  1.00  0.00     0.074 A 
ATOM     56  C   UNL A   1      46.976  25.373  28.774  1.00  0.00     0.029 A 
ATOM     57  N   UNL A   1      45.255  24.881  29.914  1.00  0.00    -0.354 N 
ATOM     58  N   UNL A   1      44.805  28.463  32.673  1.00  0.00    -0.248 NA
ATOM     59  C   UNL A   1      43.785  28.560  34.662  1.00  0.00     0.031 C 
ATOM     60  C   UNL A   1      47.255  25.543  30.249  1.00  0.00     0.029 A 
ATOM     61  C   UNL A   1      46.052  25.555  30.982  1.00  0.00     0.049 A 
ATOM     62  H   UNL A   1      44.535  24.246  30.134  1.00  0.00     0.167 HD
ATOM     63  C   UNL A   1      45.072  27.129  33.181  1.00  0.00     0.074 A 
ATOM     64  C   UNL A   1      44.438  27.374  34.515  1.00  0.00     0.031 C 
ATOM     65  C   UNL A   1      45.590  25.871  32.551  1.00  0.00     0.037 A 
BRANCH  52  66
ATOM     66  C   UNL A   1      44.912  23.997  26.129  1.00  0.00     0.057 A 
ATOM     67  C   UNL A   1      45.959  23.946  25.196  1.00  0.00     0.134 A 
ATOM     68  C   UNL A   1      44.119  22.833  26.165  1.00  0.00     0.134 A 
ATOM     69  F   UNL A   1      46.876  24.906  25.114  1.00  0.00    -0.206 F 
ATOM     70  C   UNL A   1      46.118  22.893  24.286  1.00  0.00     0.040 A 
ATOM     71  C   UNL A   1      44.233  21.796  25.234  1.00  0.00     0.040 A 
ATOM     72  F   UNL A   1      43.207  22.651  27.131  1.00  0.00    -0.206 F 
ATOM     73  C   UNL A   1      45.227  21.839  24.273  1.00  0.00     0.006 A 
ENDBRANCH  52  66
BRANCH  53  74
ATOM     74  C   UNL A   1      41.849  31.217  33.830  1.00  0.00     0.057 A 
ATOM     75  C   UNL A   1      41.019  30.276  34.479  1.00  0.00     0.134 A 
ATOM     76  C   UNL A   1      42.369  32.247  34.634  1.00  0.00     0.134 A 
ATOM     77  F   UNL A   1      40.477  29.270  33.776  1.00  0.00    -0.206 F 
ATOM     78  C   UNL A   1      41.021  30.163  35.868  1.00  0.00     0.040 A 
ATOM     79  C   UNL A   1      42.363  32.149  36.025  1.00  0.00     0.040 A 
ATOM     80  F   UNL A   1      43.067  33.252  34.094  1.00  0.00    -0.206 F 
ATOM     81  C   UNL A   1      41.748  31.066  36.638  1.00  0.00     0.006 A 
ENDBRANCH  53  74
BRANCH  65  82
ATOM     82  C   UNL A   1      45.636  24.574  33.419  1.00  0.00     0.057 A 
ATOM     83  C   UNL A   1      46.766  24.084  34.075  1.00  0.00     0.134 A 
ATOM     84  C   UNL A   1      44.500  23.755  33.615  1.00  0.00     0.134 A 
ATOM     85  F   UNL A   1      47.998  24.467  33.719  1.00  0.00    -0.206 F 
ATOM     86  C   UNL A   1      46.706  23.107  35.083  1.00  0.00     0.040 A 
ATOM     87  C   UNL A   1      44.439  22.713  34.548  1.00  0.00     0.040 A 
ATOM     88  F   UNL A   1      43.389  23.890  32.898  1.00  0.00    -0.206 F 
ATOM     89  C   UNL A   1      45.522  22.441  35.346  1.00  0.00     0.006 A 
ENDBRANCH  65  82
ENDBRANCH  39  40
ENDBRANCH  32  34
ENDBRANCH  31  32
ENDBRANCH  30  31
ENDBRANCH  29  30
ENDBRANCH  28  29
ENDBRANCH  27  28
ENDBRANCH  26  27
ENDBRANCH  25  26
ENDBRANCH   1  25
TORSDOF 23
ENDMDL
MODEL 2
REMARK VINA RESULT:     -12.6      1.316      2.262
REMARK SMILES Cc1ccc(C(=O)NC2(CC(=O)OCCOCCOCCOCCOC(=O)c3ccc(-c4c5nc(c(-c6c(F)cccc6F)c6ccc([nH]6)c(-c6c(F)cccc6F)c6nc(c(-c7c(F)cccc7F)c7ccc4[nH]7)C=C6)C=C5)cc3)CCC2)cc1
REMARK SMILES IDX 18 1 17 2 16 3 15 4 14 5 13 6 11 7 12 8 10 9 9 10 82 11
REMARK SMILES IDX 84 12 83 13 8 14 6 15 7 16 5 18 1 19 2 20 3 21 86 22 4 23
REMARK SMILES IDX 85 24 19 25 20 26 21 27 22 28 23 29 24 30 25 31 26 32 27 33
REMARK SMILES IDX 28 34 29 35 81 36 30 37 80 38 31 39 32 40 33 41 74 42 34 43
REMARK SMILES IDX 79 44 73 45 75 46 35 47 78 48 72 49 71 50 36 52 62 53 45 54
REMARK SMILES IDX 61 55 46 56 49 57 60 58 76 59 47 60 48 61 59 63 77 64 50 65
REMARK SMILES IDX 37 66 38 67 43 68 39 69 40 70 42 71 44 72 41 73 63 74 64 75
REMARK SMILES IDX 69 76 65 77 66 78 68 79 70 80 67 81 51 82 52 83 57 84 53 85
REMARK SMILES IDX 54 86 56 87 58 88 55 89
REMARK H PARENT 8 17 75 51 49 62
REMARK Flexibility Score: inf
ROOT
ATOM      1  C   UNL A   1      34.157  34.311  29.660  1.00  0.00     0.188 C 
ENDROOT
BRANCH   1   2
ATOM      2  C   UNL A   1      33.608  33.864  28.128  1.00  0.00     0.188 C 
BRANCH   2   3
ATOM      3  O   UNL A   1      32.055  33.269  27.540  1.00  0.00    -0.376 OA
BRANCH   3   4
ATOM      4  C   UNL A   1      31.396  32.012  26.482  1.00  0.00     0.202 C 
BRANCH   4   5
ATOM      5  C   UNL A   1      31.856  30.305  25.687  1.00  0.00     0.261 C 
BRANCH   5   6
ATOM      6  O   UNL A   1      30.976  28.456  25.336  1.00  0.00    -0.463 OA
BRANCH   6   7
ATOM      7  C   UNL A   1      30.281  27.623  23.922  1.00  0.00     0.308 C 
ATOM      8  O   UNL A   1      29.871  28.270  22.942  1.00  0.00    -0.252 OA
BRANCH   7   9
ATOM      9  C   UNL A   1      30.554  26.057  23.284  1.00  0.00     0.151 C 
BRANCH   9  10
ATOM     10  C   UNL A   1      31.902  25.328  23.534  1.00  0.00     0.051 C 
ATOM     11  C   UNL A   1      33.195  26.271  23.551  1.00  0.00     0.029 C 
ATOM     12  C   UNL A   1      32.884  24.499  22.519  1.00  0.00     0.029 C 
ATOM     13  C   UNL A   1      33.515  25.807  22.125  1.00  0.00     0.005 C 
BRANCH  10  14
ATOM     14  N   UNL A   1      31.823  24.522  24.719  1.00  0.00    -0.346 N 
ATOM     15  C   UNL A   1      32.466  23.397  25.133  1.00  0.00     0.251 C 
ATOM     16  O   UNL A   1      31.583  22.760  25.719  1.00  0.00    -0.269 OA
ATOM     17  H   UNL A   1      31.165  24.853  25.372  1.00  0.00     0.164 HD
BRANCH  15  18
ATOM     18  C   UNL A   1      34.179  23.083  24.924  1.00  0.00     0.039 A 
ATOM     19  C   UNL A   1      39.014  21.638  25.935  1.00  0.00     0.044 C 
ATOM     20  C   UNL A   1      37.619  22.082  25.628  1.00  0.00    -0.051 A 
ATOM     21  C   UNL A   1      37.216  23.674  25.771  1.00  0.00     0.004 A 
ATOM     22  C   UNL A   1      36.491  20.980  25.036  1.00  0.00     0.004 A 
ATOM     23  C   UNL A   1      35.592  24.220  25.409  1.00  0.00     0.014 A 
ATOM     24  C   UNL A   1      34.747  21.403  24.745  1.00  0.00     0.014 A 
ENDBRANCH  15  18
ENDBRANCH  10  14
ENDBRANCH   9  10
ENDBRANCH   7   9
ENDBRANCH   6   7
ENDBRANCH   5   6
ENDBRANCH   4   5
ENDBRANCH   3   4
ENDBRANCH   2   3
ENDBRANCH   1   2
BRANCH   1  25
ATOM     25  O   UNL A   1      33.681  35.472  30.356  1.00  0.00    -0.377 OA
BRANCH  25  26
ATOM     26  C   UNL A   1      33.303  35.411  31.721  1.00  0.00     0.188 C 
BRANCH  26  27
ATOM     27  C   UNL A   1      34.463  35.491  32.645  1.00  0.00     0.188 C 
BRANCH  27  28
ATOM     28  O   UNL A   1      34.511  34.194  33.149  1.00  0.00    -0.376 OA
BRANCH  28  29
ATOM     29  C   UNL A   1      35.189  34.076  34.373  1.00  0.00     0.202 C 
BRANCH  29  30
ATOM     30  C   UNL A   1      36.386  33.221  34.031  1.00  0.00     0.261 C 
BRANCH  30  31
ATOM     31  O   UNL A   1      35.920  32.179  33.121  1.00  0.00    -0.460 OA
BRANCH  31  32
ATOM     32  C   UNL A   1      36.794  31.140  32.939  1.00  0.00     0.338 C 
ATOM     33  O   UNL A   1      37.488  30.655  33.825  1.00  0.00    -0.246 OA
BRANCH  32  34
ATOM     34  C   UNL A   1      37.050  30.867  31.483  1.00  0.00     0.060 A 
ATOM     35  C   UNL A   1      37.221  29.571  31.034  1.00  0.00     0.016 A 
ATOM     36  C   UNL A   1      37.320  31.820  30.533  1.00  0.00     0.016 A 
ATOM     37  C   UNL A   1      38.039  29.298  29.897  1.00  0.00     0.010 A 
ATOM     38  C   UNL A   1      38.076  31.468  29.363  1.00  0.00     0.010 A 
ATOM     39  C   UNL A   1      38.838  30.253  29.247  1.00  0.00    -0.014 A 
BRANCH  39  40
ATOM     40  C   UNL A   1      40.621  29.949  28.856  1.00  0.00     0.031 A 
ATOM     41  C   UNL A   1      41.413  28.551  27.649  1.00  0.00     0.074 A 
ATOM     42  C   UNL A   1      41.263  30.978  29.657  1.00  0.00     0.049 A 
ATOM     43  N   UNL A   1      42.104  27.463  28.050  1.00  0.00    -0.248 NA
ATOM     44  C   UNL A   1      41.218  27.864  26.217  1.00  0.00     0.031 C 
ATOM     45  C   UNL A   1      42.488  31.776  29.491  1.00  0.00     0.029 A 
ATOM     46  N   UNL A   1      40.988  31.398  31.104  1.00  0.00    -0.354 N 
ATOM     47  C   UNL A   1      42.652  26.389  27.355  1.00  0.00     0.074 A 
ATOM     48  C   UNL A   1      41.883  26.660  26.161  1.00  0.00     0.031 C 
ATOM     49  C   UNL A   1      42.889  32.369  30.657  1.00  0.00     0.029 A 
ATOM     50  C   UNL A   1      42.164  31.903  31.834  1.00  0.00     0.049 A 
ATOM     51  H   UNL A   1      40.095  31.336  31.514  1.00  0.00     0.167 HD
ATOM     52  C   UNL A   1      43.548  25.346  27.879  1.00  0.00     0.037 A 
ATOM     53  C   UNL A   1      42.816  31.505  33.072  1.00  0.00     0.037 A 
ATOM     54  C   UNL A   1      44.537  25.373  29.258  1.00  0.00     0.049 A 
ATOM     55  C   UNL A   1      43.730  30.049  33.701  1.00  0.00     0.074 A 
ATOM     56  C   UNL A   1      45.936  25.338  29.461  1.00  0.00     0.029 A 
ATOM     57  N   UNL A   1      44.219  25.244  30.704  1.00  0.00    -0.354 N 
ATOM     58  N   UNL A   1      44.471  29.109  33.079  1.00  0.00    -0.248 NA
ATOM     59  C   UNL A   1      43.579  29.566  35.080  1.00  0.00     0.031 C 
ATOM     60  C   UNL A   1      46.311  25.607  30.899  1.00  0.00     0.029 A 
ATOM     61  C   UNL A   1      45.163  25.885  31.666  1.00  0.00     0.049 A 
ATOM     62  H   UNL A   1      43.420  24.758  31.014  1.00  0.00     0.167 HD
ATOM     63  C   UNL A   1      44.552  27.808  33.717  1.00  0.00     0.074 A 
ATOM     64  C   UNL A   1      44.032  28.283  35.038  1.00  0.00     0.031 C 
ATOM     65  C   UNL A   1      44.835  26.426  33.207  1.00  0.00     0.037 A 
BRANCH  52  66
ATOM     66  C   UNL A   1      43.553  24.053  27.048  1.00  0.00     0.057 A 
ATOM     67  C   UNL A   1      42.488  23.142  27.012  1.00  0.00     0.134 A 
ATOM     68  C   UNL A   1      44.625  23.714  26.198  1.00  0.00     0.134 A 
ATOM     69  F   UNL A   1      41.346  23.369  27.657  1.00  0.00    -0.206 F 
ATOM     70  C   UNL A   1      42.540  21.935  26.304  1.00  0.00     0.040 A 
ATOM     71  C   UNL A   1      44.716  22.493  25.524  1.00  0.00     0.040 A 
ATOM     72  F   UNL A   1      45.627  24.578  25.975  1.00  0.00    -0.206 F 
ATOM     73  C   UNL A   1      43.674  21.588  25.597  1.00  0.00     0.006 A 
ENDBRANCH  52  66
BRANCH  53  74
ATOM     74  C   UNL A   1      42.041  32.403  34.034  1.00  0.00     0.057 A 
ATOM     75  C   UNL A   1      42.429  33.756  33.930  1.00  0.00     0.134 A 
ATOM     76  C   UNL A   1      40.665  32.161  34.191  1.00  0.00     0.134 A 
ATOM     77  F   UNL A   1      43.727  34.068  33.789  1.00  0.00    -0.206 F 
ATOM     78  C   UNL A   1      41.494  34.745  33.630  1.00  0.00     0.040 A 
ATOM     79  C   UNL A   1      39.722  33.147  33.906  1.00  0.00     0.040 A 
ATOM     80  F   UNL A   1      40.208  30.924  34.417  1.00  0.00    -0.206 F 
ATOM     81  C   UNL A   1      40.142  34.424  33.556  1.00  0.00     0.006 A 
ENDBRANCH  53  74
BRANCH  65  82
ATOM     82  C   UNL A   1      44.722  25.231  34.207  1.00  0.00     0.057 A 
ATOM     83  C   UNL A   1      43.526  24.684  34.674  1.00  0.00     0.134 A 
ATOM     84  C   UNL A   1      45.858  24.588  34.747  1.00  0.00     0.134 A 
ATOM     85  F   UNL A   1      42.375  25.365  34.605  1.00  0.00    -0.206 F 
ATOM     86  C   UNL A   1      43.450  23.436  35.314  1.00  0.00     0.040 A 
ATOM     87  C   UNL A   1      45.808  23.390  35.471  1.00  0.00     0.040 A 
ATOM     88  F   UNL A   1      47.084  25.089  34.638  1.00  0.00    -0.206 F 
ATOM     89  C   UNL A   1      44.603  22.767  35.684  1.00  0.00     0.006 A 
ENDBRANCH  65  82
ENDBRANCH  39  40
ENDBRANCH  32  34
ENDBRANCH  31  32
ENDBRANCH  30  31
ENDBRANCH  29  30
ENDBRANCH  28  29
ENDBRANCH  27  28
ENDBRANCH  26  27
ENDBRANCH  25  26
ENDBRANCH   1  25
TORSDOF 23
ENDMDL
MODEL 3
REMARK VINA RESULT:     -12.5      1.553      3.365
REMARK SMILES Cc1ccc(C(=O)NC2(CC(=O)OCCOCCOCCOCCOC(=O)c3ccc(-c4c5nc(c(-c6c(F)cccc6F)c6ccc([nH]6)c(-c6c(F)cccc6F)c6nc(c(-c7c(F)cccc7F)c7ccc4[nH]7)C=C6)C=C5)cc3)CCC2)cc1
REMARK SMILES IDX 18 1 17 2 16 3 15 4 14 5 13 6 11 7 12 8 10 9 9 10 82 11
REMARK SMILES IDX 84 12 83 13 8 14 6 15 7 16 5 18 1 19 2 20 3 21 86 22 4 23
REMARK SMILES IDX 85 24 19 25 20 26 21 27 22 28 23 29 24 30 25 31 26 32 27 33
REMARK SMILES IDX 28 34 29 35 81 36 30 37 80 38 31 39 32 40 33 41 74 42 34 43
REMARK SMILES IDX 79 44 73 45 75 46 35 47 78 48 72 49 71 50 36 52 62 53 45 54
REMARK SMILES IDX 61 55 46 56 49 57 60 58 76 59 47 60 48 61 59 63 77 64 50 65
REMARK SMILES IDX 37 66 38 67 43 68 39 69 40 70 42 71 44 72 41 73 63 74 64 75
REMARK SMILES IDX 69 76 65 77 66 78 68 79 70 80 67 81 51 82 52 83 57 84 53 85
REMARK SMILES IDX 54 86 56 87 58 88 55 89
REMARK H PARENT 8 17 75 51 49 62
REMARK Flexibility Score: inf
ROOT
ATOM      1  C   UNL A   1      33.783  34.491  29.934  1.00  0.00     0.188 C 
ENDROOT
BRANCH   1   2
ATOM      2  C   UNL A   1      33.340  34.290  28.318  1.00  0.00     0.188 C 
BRANCH   2   3
ATOM      3  O   UNL A   1      31.890  33.647  27.547  1.00  0.00    -0.376 OA
BRANCH   3   4
ATOM      4  C   UNL A   1      31.401  32.352  26.443  1.00  0.00     0.202 C 
BRANCH   4   5
ATOM      5  C   UNL A   1      31.886  30.554  25.907  1.00  0.00     0.261 C 
BRANCH   5   6
ATOM      6  O   UNL A   1      31.804  28.622  26.666  1.00  0.00    -0.463 OA
BRANCH   6   7
ATOM      7  C   UNL A   1      32.580  27.065  26.275  1.00  0.00     0.308 C 
ATOM      8  O   UNL A   1      33.816  26.939  26.333  1.00  0.00    -0.252 OA
BRANCH   7   9
ATOM      9  C   UNL A   1      32.006  25.455  26.386  1.00  0.00     0.151 C 
BRANCH   9  10
ATOM     10  C   UNL A   1      32.640  24.331  25.523  1.00  0.00     0.051 C 
ATOM     11  C   UNL A   1      31.635  23.171  25.068  1.00  0.00     0.029 C 
ATOM     12  C   UNL A   1      33.508  23.007  25.943  1.00  0.00     0.029 C 
ATOM     13  C   UNL A   1      32.212  22.279  26.173  1.00  0.00     0.005 C 
BRANCH  10  14
ATOM     14  N   UNL A   1      33.336  24.893  24.401  1.00  0.00    -0.346 N 
ATOM     15  C   UNL A   1      32.945  25.305  23.165  1.00  0.00     0.251 C 
ATOM     16  O   UNL A   1      33.884  24.961  22.437  1.00  0.00    -0.269 OA
ATOM     17  H   UNL A   1      34.301  25.004  24.558  1.00  0.00     0.164 HD
BRANCH  15  18
ATOM     18  C   UNL A   1      31.481  26.207  22.822  1.00  0.00     0.039 A 
ATOM     19  C   UNL A   1      27.642  29.604  23.289  1.00  0.00     0.044 C 
ATOM     20  C   UNL A   1      28.739  28.596  23.145  1.00  0.00    -0.051 A 
ATOM     21  C   UNL A   1      28.497  27.045  23.651  1.00  0.00     0.004 A 
ATOM     22  C   UNL A   1      30.176  29.013  22.373  1.00  0.00     0.004 A 
ATOM     23  C   UNL A   1      29.762  25.845  23.486  1.00  0.00     0.014 A 
ATOM     24  C   UNL A   1      31.602  27.892  22.254  1.00  0.00     0.014 A 
ENDBRANCH  15  18
ENDBRANCH  10  14
ENDBRANCH   9  10
ENDBRANCH   7   9
ENDBRANCH   6   7
ENDBRANCH   5   6
ENDBRANCH   4   5
ENDBRANCH   3   4
ENDBRANCH   2   3
ENDBRANCH   1   2
BRANCH   1  25
ATOM     25  O   UNL A   1      33.402  35.633  30.716  1.00  0.00    -0.377 OA
BRANCH  25  26
ATOM     26  C   UNL A   1      33.377  35.582  32.132  1.00  0.00     0.188 C 
BRANCH  26  27
ATOM     27  C   UNL A   1      34.729  35.696  32.737  1.00  0.00     0.188 C 
BRANCH  27  28
ATOM     28  O   UNL A   1      34.961  34.388  33.154  1.00  0.00    -0.376 OA
BRANCH  28  29
ATOM     29  C   UNL A   1      35.377  34.274  34.490  1.00  0.00     0.202 C 
BRANCH  29  30
ATOM     30  C   UNL A   1      36.469  33.232  34.431  1.00  0.00     0.261 C 
BRANCH  30  31
ATOM     31  O   UNL A   1      36.027  32.204  33.493  1.00  0.00    -0.460 OA
BRANCH  31  32
ATOM     32  C   UNL A   1      36.958  31.237  33.218  1.00  0.00     0.338 C 
ATOM     33  O   UNL A   1      37.708  30.740  34.050  1.00  0.00    -0.246 OA
BRANCH  32  34
ATOM     34  C   UNL A   1      37.185  31.077  31.740  1.00  0.00     0.060 A 
ATOM     35  C   UNL A   1      37.287  29.816  31.182  1.00  0.00     0.016 A 
ATOM     36  C   UNL A   1      37.491  32.092  30.870  1.00  0.00     0.016 A 
ATOM     37  C   UNL A   1      38.078  29.602  30.014  1.00  0.00     0.010 A 
ATOM     38  C   UNL A   1      38.216  31.805  29.663  1.00  0.00     0.010 A 
ATOM     39  C   UNL A   1      38.916  30.569  29.434  1.00  0.00    -0.014 A 
BRANCH  39  40
ATOM     40  C   UNL A   1      40.678  30.214  28.993  1.00  0.00     0.031 A 
ATOM     41  C   UNL A   1      41.390  28.836  27.715  1.00  0.00     0.074 A 
ATOM     42  C   UNL A   1      41.374  31.186  29.819  1.00  0.00     0.049 A 
ATOM     43  N   UNL A   1      42.047  27.708  28.058  1.00  0.00    -0.248 NA
ATOM     44  C   UNL A   1      41.140  28.214  26.262  1.00  0.00     0.031 C 
ATOM     45  C   UNL A   1      42.626  31.943  29.657  1.00  0.00     0.029 A 
ATOM     46  N   UNL A   1      41.146  31.558  31.287  1.00  0.00    -0.354 N 
ATOM     47  C   UNL A   1      42.539  26.643  27.310  1.00  0.00     0.074 A 
ATOM     48  C   UNL A   1      41.757  26.990  26.144  1.00  0.00     0.031 C 
ATOM     49  C   UNL A   1      43.073  32.473  30.836  1.00  0.00     0.029 A 
ATOM     50  C   UNL A   1      42.356  31.989  32.010  1.00  0.00     0.049 A 
ATOM     51  H   UNL A   1      40.260  31.513  31.714  1.00  0.00     0.167 HD
ATOM     52  C   UNL A   1      43.405  25.547  27.773  1.00  0.00     0.037 A 
ATOM     53  C   UNL A   1      43.017  31.517  33.216  1.00  0.00     0.037 A 
ATOM     54  C   UNL A   1      44.422  25.481  29.130  1.00  0.00     0.049 A 
ATOM     55  C   UNL A   1      43.887  30.005  33.768  1.00  0.00     0.074 A 
ATOM     56  C   UNL A   1      45.822  25.386  29.300  1.00  0.00     0.029 A 
ATOM     57  N   UNL A   1      44.129  25.307  30.576  1.00  0.00    -0.354 N 
ATOM     58  N   UNL A   1      44.578  29.063  33.094  1.00  0.00    -0.248 NA
ATOM     59  C   UNL A   1      43.746  29.474  35.130  1.00  0.00     0.031 C 
ATOM     60  C   UNL A   1      46.237  25.583  30.739  1.00  0.00     0.029 A 
ATOM     61  C   UNL A   1      45.117  25.873  31.542  1.00  0.00     0.049 A 
ATOM     62  H   UNL A   1      43.319  24.839  30.885  1.00  0.00     0.167 HD
ATOM     63  C   UNL A   1      44.622  27.735  33.679  1.00  0.00     0.074 A 
ATOM     64  C   UNL A   1      44.148  28.176  35.028  1.00  0.00     0.031 C 
ATOM     65  C   UNL A   1      44.842  26.365  33.110  1.00  0.00     0.037 A 
BRANCH  52  66
ATOM     66  C   UNL A   1      43.343  24.289  26.892  1.00  0.00     0.057 A 
ATOM     67  C   UNL A   1      43.937  24.191  25.625  1.00  0.00     0.134 A 
ATOM     68  C   UNL A   1      42.726  23.100  27.329  1.00  0.00     0.134 A 
ATOM     69  F   UNL A   1      44.667  25.178  25.112  1.00  0.00    -0.206 F 
ATOM     70  C   UNL A   1      43.809  23.060  24.808  1.00  0.00     0.040 A 
ATOM     71  C   UNL A   1      42.547  21.980  26.510  1.00  0.00     0.040 A 
ATOM     72  F   UNL A   1      42.287  22.974  28.590  1.00  0.00    -0.206 F 
ATOM     73  C   UNL A   1      43.073  21.972  25.232  1.00  0.00     0.006 A 
ENDBRANCH  52  66
BRANCH  53  74
ATOM     74  C   UNL A   1      42.297  32.405  34.230  1.00  0.00     0.057 A 
ATOM     75  C   UNL A   1      42.708  33.753  34.145  1.00  0.00     0.134 A 
ATOM     76  C   UNL A   1      40.923  32.185  34.433  1.00  0.00     0.134 A 
ATOM     77  F   UNL A   1      44.005  34.043  33.962  1.00  0.00    -0.206 F 
ATOM     78  C   UNL A   1      41.782  34.767  33.905  1.00  0.00     0.040 A 
ATOM     79  C   UNL A   1      39.990  33.197  34.209  1.00  0.00     0.040 A 
ATOM     80  F   UNL A   1      40.451  30.952  34.646  1.00  0.00    -0.206 F 
ATOM     81  C   UNL A   1      40.422  34.473  33.875  1.00  0.00     0.006 A 
ENDBRANCH  53  74
BRANCH  65  82
ATOM     82  C   UNL A   1      44.703  25.137  34.064  1.00  0.00     0.057 A 
ATOM     83  C   UNL A   1      43.499  24.638  34.563  1.00  0.00     0.134 A 
ATOM     84  C   UNL A   1      45.823  24.407  34.525  1.00  0.00     0.134 A 
ATOM     85  F   UNL A   1      42.388  25.385  34.576  1.00  0.00    -0.206 F 
ATOM     86  C   UNL A   1      43.379  23.370  35.156  1.00  0.00     0.040 A 
ATOM     87  C   UNL A   1      45.734  23.184  35.200  1.00  0.00     0.040 A 
ATOM     88  F   UNL A   1      47.070  24.843  34.379  1.00  0.00    -0.206 F 
ATOM     89  C   UNL A   1      44.506  22.621  35.444  1.00  0.00     0.006 A 
ENDBRANCH  65  82
ENDBRANCH  39  40
ENDBRANCH  32  34
ENDBRANCH  31  32
ENDBRANCH  30  31
ENDBRANCH  29  30
ENDBRANCH  28  29
ENDBRANCH  27  28
ENDBRANCH  26  27
ENDBRANCH  25  26
ENDBRANCH   1  25
TORSDOF 23
ENDMDL
