MODEL 1
REMARK VINA RESULT:     -11.0      0.000      0.000
REMARK SMILES Cc1cc(OC(F)(F)F)cc2c1O[C@@H](C(F)(F)F)C(C(=O)OCCOCCOCCOCCOC(=O)c1ccc(-c3c4nc(c(-c5c(F)cccc5F)c5ccc([nH]5)c(-c5c(F)cccc5F)c5nc(c(-c6c(F)cccc6F)c6ccc3[nH]6)C=C5)C=C4)cc1)=C2
REMARK SMILES IDX 28 1 27 2 26 3 25 4 24 5 23 6 22 7 20 8 21 9 19 10 1 11 2 12
REMARK SMILES IDX 3 13 12 14 4 15 11 16 13 17 10 18 91 19 14 20 5 21 6 22 7 23
REMARK SMILES IDX 8 24 9 25 15 26 16 27 17 28 18 29 29 30 30 31 31 32 32 33
REMARK SMILES IDX 33 34 34 35 35 36 36 37 37 38 38 39 90 40 39 41 89 42 40 43
REMARK SMILES IDX 41 44 42 45 83 46 43 47 88 48 82 49 84 50 44 51 87 52 81 53
REMARK SMILES IDX 80 54 45 56 71 57 54 58 70 59 55 60 58 61 69 62 85 63 56 64
REMARK SMILES IDX 57 65 68 67 86 68 59 69 46 70 47 71 52 72 48 73 49 74 51 75
REMARK SMILES IDX 53 76 50 77 72 78 73 79 78 80 74 81 75 82 77 83 79 84 76 85
REMARK SMILES IDX 60 86 61 87 66 88 62 89 63 90 65 91 67 92 64 93
REMARK H PARENT 84 55 58 66
REMARK Flexibility Score: inf
ROOT
ATOM      1  O   UNL A   1      43.266  18.121  25.394  1.00  0.00    -0.377 OA
ENDROOT
BRANCH   1   2
ATOM      2  C   UNL A   1      42.599  18.748  26.473  1.00  0.00     0.188 C 
BRANCH   2   3
ATOM      3  C   UNL A   1      41.304  19.499  26.149  1.00  0.00     0.188 C 
BRANCH   3   4
ATOM      4  O   UNL A   1      41.275  20.887  26.407  1.00  0.00    -0.376 OA
BRANCH   4   5
ATOM      5  C   UNL A   1      40.055  21.531  26.758  1.00  0.00     0.202 C 
BRANCH   5   6
ATOM      6  C   UNL A   1      38.906  21.783  25.763  1.00  0.00     0.261 C 
BRANCH   6   7
ATOM      7  O   UNL A   1      37.620  22.065  26.344  1.00  0.00    -0.460 OA
BRANCH   7   8
ATOM      8  C   UNL A   1      36.917  23.047  25.736  1.00  0.00     0.338 C 
ATOM      9  O   UNL A   1      37.328  24.169  25.475  1.00  0.00    -0.246 OA
BRANCH   8  10
ATOM     10  C   UNL A   1      35.587  22.590  25.299  1.00  0.00     0.087 C 
ATOM     11  C   UNL A   1      31.772  21.418  22.061  1.00  0.00     0.048 C 
ATOM     12  C   UNL A   1      32.483  20.747  23.202  1.00  0.00    -0.005 A 
ATOM     13  C   UNL A   1      32.044  19.472  23.609  1.00  0.00     0.054 A 
ATOM     14  C   UNL A   1      33.548  21.355  23.881  1.00  0.00     0.131 A 
ATOM     15  C   UNL A   1      32.654  18.809  24.674  1.00  0.00     0.130 A 
ATOM     16  C   UNL A   1      34.128  20.718  24.983  1.00  0.00     0.021 A 
ATOM     17  O   UNL A   1      34.042  22.532  23.372  1.00  0.00    -0.475 OA
ATOM     18  C   UNL A   1      33.678  19.452  25.375  1.00  0.00     0.058 A 
ATOM     19  C   UNL A   1      35.269  21.333  25.644  1.00  0.00     0.027 C 
ATOM     20  C   UNL A   1      34.842  23.370  24.256  1.00  0.00     0.316 C 
BRANCH  15  21
ATOM     21  O   UNL A   1      32.351  17.556  25.125  1.00  0.00    -0.406 OA
BRANCH  21  22
ATOM     22  C   UNL A   1      33.127  16.475  24.633  1.00  0.00     0.573 C 
ATOM     23  F   UNL A   1      34.381  16.515  25.131  1.00  0.00    -0.132 F 
ATOM     24  F   UNL A   1      32.561  15.286  24.931  1.00  0.00    -0.132 F 
ATOM     25  F   UNL A   1      33.206  16.575  23.287  1.00  0.00    -0.132 F 
ENDBRANCH  21  22
ENDBRANCH  15  21
BRANCH  20  26
ATOM     26  C   UNL A   1      33.969  24.543  24.736  1.00  0.00     0.430 C 
ATOM     27  F   UNL A   1      34.493  25.747  24.407  1.00  0.00    -0.167 F 
ATOM     28  F   UNL A   1      32.707  24.510  24.270  1.00  0.00    -0.167 F 
ATOM     29  F   UNL A   1      33.871  24.515  26.093  1.00  0.00    -0.167 F 
ENDBRANCH  20  26
ENDBRANCH   8  10
ENDBRANCH   7   8
ENDBRANCH   6   7
ENDBRANCH   5   6
ENDBRANCH   4   5
ENDBRANCH   3   4
ENDBRANCH   2   3
ENDBRANCH   1   2
BRANCH   1  30
ATOM     30  C   UNL A   1      44.159  18.884  24.585  1.00  0.00     0.188 C 
BRANCH  30  31
ATOM     31  C   UNL A   1      44.815  20.140  25.179  1.00  0.00     0.188 C 
BRANCH  31  32
ATOM     32  O   UNL A   1      45.501  21.024  24.292  1.00  0.00    -0.376 OA
BRANCH  32  33
ATOM     33  C   UNL A   1      44.875  22.248  23.921  1.00  0.00     0.202 C 
BRANCH  33  34
ATOM     34  C   UNL A   1      43.864  22.774  24.934  1.00  0.00     0.261 C 
BRANCH  34  35
ATOM     35  O   UNL A   1      43.416  24.092  24.582  1.00  0.00    -0.460 OA
BRANCH  35  36
ATOM     36  C   UNL A   1      44.171  25.107  25.060  1.00  0.00     0.338 C 
ATOM     37  O   UNL A   1      45.304  25.414  24.744  1.00  0.00    -0.246 OA
BRANCH  36  38
ATOM     38  C   UNL A   1      43.343  25.913  25.969  1.00  0.00     0.060 A 
ATOM     39  C   UNL A   1      43.728  27.232  26.234  1.00  0.00     0.016 A 
ATOM     40  C   UNL A   1      42.253  25.336  26.624  1.00  0.00     0.016 A 
ATOM     41  C   UNL A   1      43.054  27.968  27.204  1.00  0.00     0.010 A 
ATOM     42  C   UNL A   1      41.593  26.064  27.610  1.00  0.00     0.010 A 
ATOM     43  C   UNL A   1      42.025  27.362  27.934  1.00  0.00    -0.014 A 
BRANCH  43  44
ATOM     44  C   UNL A   1      41.571  27.970  29.201  1.00  0.00     0.031 A 
ATOM     45  C   UNL A   1      40.361  28.858  29.157  1.00  0.00     0.074 A 
ATOM     46  C   UNL A   1      42.224  27.748  30.351  1.00  0.00     0.049 A 
ATOM     47  N   UNL A   1      39.823  29.581  30.103  1.00  0.00    -0.248 NA
ATOM     48  C   UNL A   1      39.667  28.947  27.859  1.00  0.00     0.031 C 
ATOM     49  C   UNL A   1      43.375  26.863  30.517  1.00  0.00     0.029 A 
ATOM     50  N   UNL A   1      42.013  28.275  31.598  1.00  0.00    -0.354 N 
ATOM     51  C   UNL A   1      38.730  30.208  29.518  1.00  0.00     0.074 A 
ATOM     52  C   UNL A   1      38.703  29.812  28.128  1.00  0.00     0.031 C 
ATOM     53  C   UNL A   1      43.783  26.922  31.797  1.00  0.00     0.029 A 
ATOM     54  C   UNL A   1      42.946  27.877  32.522  1.00  0.00     0.049 A 
ATOM     55  H   UNL A   1      41.265  28.878  31.811  1.00  0.00     0.167 HD
ATOM     56  C   UNL A   1      37.825  31.037  30.091  1.00  0.00     0.037 A 
ATOM     57  C   UNL A   1      43.114  28.271  33.798  1.00  0.00     0.037 A 
ATOM     58  C   UNL A   1      37.885  31.456  31.465  1.00  0.00     0.049 A 
ATOM     59  C   UNL A   1      42.169  29.291  34.380  1.00  0.00     0.074 A 
ATOM     60  C   UNL A   1      37.032  32.302  32.150  1.00  0.00     0.029 A 
ATOM     61  N   UNL A   1      38.874  31.073  32.360  1.00  0.00    -0.354 N 
ATOM     62  N   UNL A   1      41.127  29.869  33.831  1.00  0.00    -0.248 NA
ATOM     63  C   UNL A   1      42.431  29.717  35.761  1.00  0.00     0.031 C 
ATOM     64  C   UNL A   1      37.538  32.477  33.443  1.00  0.00     0.029 A 
ATOM     65  C   UNL A   1      38.669  31.689  33.584  1.00  0.00     0.049 A 
ATOM     66  H   UNL A   1      39.611  30.454  32.155  1.00  0.00     0.167 HD
ATOM     67  C   UNL A   1      40.587  30.695  34.810  1.00  0.00     0.074 A 
ATOM     68  C   UNL A   1      41.413  30.535  35.989  1.00  0.00     0.031 C 
ATOM     69  C   UNL A   1      39.505  31.511  34.746  1.00  0.00     0.037 A 
BRANCH  56  70
ATOM     70  C   UNL A   1      36.732  31.568  29.208  1.00  0.00     0.057 A 
ATOM     71  C   UNL A   1      35.664  30.750  28.823  1.00  0.00     0.134 A 
ATOM     72  C   UNL A   1      36.722  32.896  28.757  1.00  0.00     0.134 A 
ATOM     73  F   UNL A   1      35.610  29.469  29.217  1.00  0.00    -0.206 F 
ATOM     74  C   UNL A   1      34.622  31.233  28.029  1.00  0.00     0.040 A 
ATOM     75  C   UNL A   1      35.670  33.399  27.990  1.00  0.00     0.040 A 
ATOM     76  F   UNL A   1      37.705  33.740  29.107  1.00  0.00    -0.206 F 
ATOM     77  C   UNL A   1      34.617  32.565  27.620  1.00  0.00     0.006 A 
ENDBRANCH  56  70
BRANCH  57  78
ATOM     78  C   UNL A   1      44.221  27.717  34.616  1.00  0.00     0.057 A 
ATOM     79  C   UNL A   1      44.015  26.664  35.516  1.00  0.00     0.134 A 
ATOM     80  C   UNL A   1      45.526  28.206  34.485  1.00  0.00     0.134 A 
ATOM     81  F   UNL A   1      42.788  26.151  35.689  1.00  0.00    -0.206 F 
ATOM     82  C   UNL A   1      45.065  26.119  36.256  1.00  0.00     0.040 A 
ATOM     83  C   UNL A   1      46.591  27.652  35.199  1.00  0.00     0.040 A 
ATOM     84  F   UNL A   1      45.791  29.198  33.624  1.00  0.00    -0.206 F 
ATOM     85  C   UNL A   1      46.359  26.606  36.090  1.00  0.00     0.006 A 
ENDBRANCH  57  78
BRANCH  69  86
ATOM     86  C   UNL A   1      39.127  32.249  35.999  1.00  0.00     0.057 A 
ATOM     87  C   UNL A   1      38.276  31.657  36.941  1.00  0.00     0.134 A 
ATOM     88  C   UNL A   1      39.584  33.546  36.268  1.00  0.00     0.134 A 
ATOM     89  F   UNL A   1      37.792  30.422  36.742  1.00  0.00    -0.206 F 
ATOM     90  C   UNL A   1      37.892  32.327  38.104  1.00  0.00     0.040 A 
ATOM     91  C   UNL A   1      39.235  34.213  37.444  1.00  0.00     0.040 A 
ATOM     92  F   UNL A   1      40.413  34.167  35.414  1.00  0.00    -0.206 F 
ATOM     93  C   UNL A   1      38.382  33.605  38.363  1.00  0.00     0.006 A 
ENDBRANCH  69  86
ENDBRANCH  43  44
ENDBRANCH  36  38
ENDBRANCH  35  36
ENDBRANCH  34  35
ENDBRANCH  33  34
ENDBRANCH  32  33
ENDBRANCH  31  32
ENDBRANCH  30  31
ENDBRANCH   1  30
TORSDOF 23
ENDMDL
MODEL 2
REMARK VINA RESULT:     -10.9      4.961     10.629
REMARK SMILES Cc1cc(OC(F)(F)F)cc2c1O[C@@H](C(F)(F)F)C(C(=O)OCCOCCOCCOCCOC(=O)c1ccc(-c3c4nc(c(-c5c(F)cccc5F)c5ccc([nH]5)c(-c5c(F)cccc5F)c5nc(c(-c6c(F)cccc6F)c6ccc3[nH]6)C=C5)C=C4)cc1)=C2
REMARK SMILES IDX 28 1 27 2 26 3 25 4 24 5 23 6 22 7 20 8 21 9 19 10 1 11 2 12
REMARK SMILES IDX 3 13 12 14 4 15 11 16 13 17 10 18 91 19 14 20 5 21 6 22 7 23
REMARK SMILES IDX 8 24 9 25 15 26 16 27 17 28 18 29 29 30 30 31 31 32 32 33
REMARK SMILES IDX 33 34 34 35 35 36 36 37 37 38 38 39 90 40 39 41 89 42 40 43
REMARK SMILES IDX 41 44 42 45 83 46 43 47 88 48 82 49 84 50 44 51 87 52 81 53
REMARK SMILES IDX 80 54 45 56 71 57 54 58 70 59 55 60 58 61 69 62 85 63 56 64
REMARK SMILES IDX 57 65 68 67 86 68 59 69 46 70 47 71 52 72 48 73 49 74 51 75
REMARK SMILES IDX 53 76 50 77 72 78 73 79 78 80 74 81 75 82 77 83 79 84 76 85
REMARK SMILES IDX 60 86 61 87 66 88 62 89 63 90 65 91 67 92 64 93
REMARK H PARENT 84 55 58 66
REMARK Flexibility Score: inf
ROOT
ATOM      1  O   UNL A   1      33.700  35.617  29.458  1.00  0.00    -0.377 OA
ENDROOT
BRANCH   1   2
ATOM      2  C   UNL A   1      33.475  34.471  28.659  1.00  0.00     0.188 C 
BRANCH   2   3
ATOM      3  C   UNL A   1      34.601  33.434  28.596  1.00  0.00     0.188 C 
BRANCH   3   4
ATOM      4  O   UNL A   1      34.338  32.229  27.907  1.00  0.00    -0.376 OA
BRANCH   4   5
ATOM      5  C   UNL A   1      35.095  31.057  28.188  1.00  0.00     0.202 C 
BRANCH   5   6
ATOM      6  C   UNL A   1      34.844  29.695  27.512  1.00  0.00     0.261 C 
BRANCH   6   7
ATOM      7  O   UNL A   1      34.125  29.734  26.267  1.00  0.00    -0.460 OA
BRANCH   7   8
ATOM      8  C   UNL A   1      32.877  29.214  26.306  1.00  0.00     0.338 C 
ATOM      9  O   UNL A   1      31.937  29.652  26.954  1.00  0.00    -0.246 OA
BRANCH   8  10
ATOM     10  C   UNL A   1      32.715  28.087  25.373  1.00  0.00     0.087 C 
ATOM     11  C   UNL A   1      32.804  25.539  20.910  1.00  0.00     0.048 C 
ATOM     12  C   UNL A   1      33.313  25.318  22.307  1.00  0.00    -0.005 A 
ATOM     13  C   UNL A   1      33.967  24.105  22.597  1.00  0.00     0.054 A 
ATOM     14  C   UNL A   1      33.141  26.266  23.324  1.00  0.00     0.131 A 
ATOM     15  C   UNL A   1      34.445  23.837  23.880  1.00  0.00     0.130 A 
ATOM     16  C   UNL A   1      33.570  25.980  24.625  1.00  0.00     0.021 A 
ATOM     17  O   UNL A   1      32.627  27.492  22.977  1.00  0.00    -0.475 OA
ATOM     18  C   UNL A   1      34.217  24.769  24.896  1.00  0.00     0.058 A 
ATOM     19  C   UNL A   1      33.436  26.993  25.660  1.00  0.00     0.027 C 
ATOM     20  C   UNL A   1      32.068  28.319  24.039  1.00  0.00     0.316 C 
BRANCH  15  21
ATOM     21  O   UNL A   1      35.135  22.725  24.268  1.00  0.00    -0.406 OA
BRANCH  21  22
ATOM     22  C   UNL A   1      36.520  22.670  23.960  1.00  0.00     0.573 C 
ATOM     23  F   UNL A   1      37.099  21.593  24.532  1.00  0.00    -0.132 F 
ATOM     24  F   UNL A   1      36.728  22.638  22.626  1.00  0.00    -0.132 F 
ATOM     25  F   UNL A   1      37.118  23.778  24.450  1.00  0.00    -0.132 F 
ENDBRANCH  21  22
ENDBRANCH  15  21
BRANCH  20  26
ATOM     26  C   UNL A   1      30.533  28.231  23.968  1.00  0.00     0.430 C 
ATOM     27  F   UNL A   1      30.033  27.250  24.756  1.00  0.00    -0.167 F 
ATOM     28  F   UNL A   1      29.905  29.374  24.298  1.00  0.00    -0.167 F 
ATOM     29  F   UNL A   1      30.150  27.944  22.694  1.00  0.00    -0.167 F 
ENDBRANCH  20  26
ENDBRANCH   8  10
ENDBRANCH   7   8
ENDBRANCH   6   7
ENDBRANCH   5   6
ENDBRANCH   4   5
ENDBRANCH   3   4
ENDBRANCH   2   3
ENDBRANCH   1   2
BRANCH   1  30
ATOM     30  C   UNL A   1      32.883  35.840  30.606  1.00  0.00     0.188 C 
BRANCH  30  31
ATOM     31  C   UNL A   1      33.460  36.629  31.791  1.00  0.00     0.188 C 
BRANCH  31  32
ATOM     32  O   UNL A   1      34.247  35.922  32.751  1.00  0.00    -0.376 OA
BRANCH  32  33
ATOM     33  C   UNL A   1      34.315  34.502  32.671  1.00  0.00     0.202 C 
BRANCH  33  34
ATOM     34  C   UNL A   1      35.675  33.956  32.248  1.00  0.00     0.261 C 
BRANCH  34  35
ATOM     35  O   UNL A   1      35.718  32.527  32.367  1.00  0.00    -0.460 OA
BRANCH  35  36
ATOM     36  C   UNL A   1      36.708  32.040  33.150  1.00  0.00     0.338 C 
ATOM     37  O   UNL A   1      36.815  32.113  34.359  1.00  0.00    -0.246 OA
BRANCH  36  38
ATOM     38  C   UNL A   1      37.622  31.255  32.307  1.00  0.00     0.060 A 
ATOM     39  C   UNL A   1      38.738  30.657  32.905  1.00  0.00     0.016 A 
ATOM     40  C   UNL A   1      37.426  31.194  30.926  1.00  0.00     0.016 A 
ATOM     41  C   UNL A   1      39.699  30.038  32.112  1.00  0.00     0.010 A 
ATOM     42  C   UNL A   1      38.399  30.594  30.131  1.00  0.00     0.010 A 
ATOM     43  C   UNL A   1      39.558  30.060  30.720  1.00  0.00    -0.014 A 
BRANCH  43  44
ATOM     44  C   UNL A   1      40.725  29.768  29.862  1.00  0.00     0.031 A 
ATOM     45  C   UNL A   1      40.834  28.391  29.274  1.00  0.00     0.074 A 
ATOM     46  C   UNL A   1      41.664  30.697  29.627  1.00  0.00     0.049 A 
ATOM     47  N   UNL A   1      41.799  27.857  28.574  1.00  0.00    -0.248 NA
ATOM     48  C   UNL A   1      39.693  27.489  29.517  1.00  0.00     0.031 C 
ATOM     49  C   UNL A   1      41.631  32.077  30.103  1.00  0.00     0.029 A 
ATOM     50  N   UNL A   1      42.844  30.599  28.937  1.00  0.00    -0.354 N 
ATOM     51  C   UNL A   1      41.385  26.562  28.292  1.00  0.00     0.074 A 
ATOM     52  C   UNL A   1      40.100  26.376  28.929  1.00  0.00     0.031 C 
ATOM     53  C   UNL A   1      42.755  32.698  29.704  1.00  0.00     0.029 A 
ATOM     54  C   UNL A   1      43.596  31.746  28.982  1.00  0.00     0.049 A 
ATOM     55  H   UNL A   1      43.122  29.788  28.455  1.00  0.00     0.167 HD
ATOM     56  C   UNL A   1      42.017  25.612  27.563  1.00  0.00     0.037 A 
ATOM     57  C   UNL A   1      44.838  31.977  28.515  1.00  0.00     0.037 A 
ATOM     58  C   UNL A   1      43.314  25.794  26.969  1.00  0.00     0.049 A 
ATOM     59  C   UNL A   1      45.576  30.864  27.815  1.00  0.00     0.074 A 
ATOM     60  C   UNL A   1      44.057  24.899  26.221  1.00  0.00     0.029 A 
ATOM     61  N   UNL A   1      44.072  26.952  27.077  1.00  0.00    -0.354 N 
ATOM     62  N   UNL A   1      45.176  29.646  27.535  1.00  0.00    -0.248 NA
ATOM     63  C   UNL A   1      46.944  31.161  27.371  1.00  0.00     0.031 C 
ATOM     64  C   UNL A   1      45.289  25.495  25.927  1.00  0.00     0.029 A 
ATOM     65  C   UNL A   1      45.287  26.785  26.435  1.00  0.00     0.049 A 
ATOM     66  H   UNL A   1      43.786  27.771  27.542  1.00  0.00     0.167 HD
ATOM     67  C   UNL A   1      46.226  29.046  26.850  1.00  0.00     0.074 A 
ATOM     68  C   UNL A   1      47.276  30.039  26.749  1.00  0.00     0.031 C 
ATOM     69  C   UNL A   1      46.317  27.790  26.345  1.00  0.00     0.037 A 
BRANCH  56  70
ATOM     70  C   UNL A   1      41.324  24.288  27.419  1.00  0.00     0.057 A 
ATOM     71  C   UNL A   1      41.761  23.170  28.139  1.00  0.00     0.134 A 
ATOM     72  C   UNL A   1      40.207  24.122  26.587  1.00  0.00     0.134 A 
ATOM     73  F   UNL A   1      42.823  23.257  28.953  1.00  0.00    -0.206 F 
ATOM     74  C   UNL A   1      41.111  21.938  28.043  1.00  0.00     0.040 A 
ATOM     75  C   UNL A   1      39.529  22.904  26.507  1.00  0.00     0.040 A 
ATOM     76  F   UNL A   1      39.723  25.158  25.884  1.00  0.00    -0.206 F 
ATOM     77  C   UNL A   1      39.984  21.806  27.235  1.00  0.00     0.006 A 
ENDBRANCH  56  70
BRANCH  57  78
ATOM     78  C   UNL A   1      45.474  33.304  28.699  1.00  0.00     0.057 A 
ATOM     79  C   UNL A   1      46.281  33.584  29.808  1.00  0.00     0.134 A 
ATOM     80  C   UNL A   1      45.319  34.315  27.744  1.00  0.00     0.134 A 
ATOM     81  F   UNL A   1      46.469  32.659  30.761  1.00  0.00    -0.206 F 
ATOM     82  C   UNL A   1      46.910  34.821  29.961  1.00  0.00     0.040 A 
ATOM     83  C   UNL A   1      45.964  35.547  27.870  1.00  0.00     0.040 A 
ATOM     84  F   UNL A   1      44.576  34.100  26.649  1.00  0.00    -0.206 F 
ATOM     85  C   UNL A   1      46.760  35.803  28.985  1.00  0.00     0.006 A 
ENDBRANCH  57  78
BRANCH  69  86
ATOM     86  C   UNL A   1      47.572  27.441  25.597  1.00  0.00     0.057 A 
ATOM     87  C   UNL A   1      47.635  27.598  24.205  1.00  0.00     0.134 A 
ATOM     88  C   UNL A   1      48.708  26.933  26.240  1.00  0.00     0.134 A 
ATOM     89  F   UNL A   1      46.580  28.068  23.524  1.00  0.00    -0.206 F 
ATOM     90  C   UNL A   1      48.780  27.263  23.482  1.00  0.00     0.040 A 
ATOM     91  C   UNL A   1      49.872  26.628  25.532  1.00  0.00     0.040 A 
ATOM     92  F   UNL A   1      48.721  26.771  27.572  1.00  0.00    -0.206 F 
ATOM     93  C   UNL A   1      49.908  26.787  24.147  1.00  0.00     0.006 A 
ENDBRANCH  69  86
ENDBRANCH  43  44
ENDBRANCH  36  38
ENDBRANCH  35  36
ENDBRANCH  34  35
ENDBRANCH  33  34
ENDBRANCH  32  33
ENDBRANCH  31  32
ENDBRANCH  30  31
ENDBRANCH   1  30
TORSDOF 23
ENDMDL
MODEL 3
REMARK VINA RESULT:     -10.8      1.714      3.543
REMARK SMILES Cc1cc(OC(F)(F)F)cc2c1O[C@@H](C(F)(F)F)C(C(=O)OCCOCCOCCOCCOC(=O)c1ccc(-c3c4nc(c(-c5c(F)cccc5F)c5ccc([nH]5)c(-c5c(F)cccc5F)c5nc(c(-c6c(F)cccc6F)c6ccc3[nH]6)C=C5)C=C4)cc1)=C2
REMARK SMILES IDX 28 1 27 2 26 3 25 4 24 5 23 6 22 7 20 8 21 9 19 10 1 11 2 12
REMARK SMILES IDX 3 13 12 14 4 15 11 16 13 17 10 18 91 19 14 20 5 21 6 22 7 23
REMARK SMILES IDX 8 24 9 25 15 26 16 27 17 28 18 29 29 30 30 31 31 32 32 33
REMARK SMILES IDX 33 34 34 35 35 36 36 37 37 38 38 39 90 40 39 41 89 42 40 43
REMARK SMILES IDX 41 44 42 45 83 46 43 47 88 48 82 49 84 50 44 51 87 52 81 53
REMARK SMILES IDX 80 54 45 56 71 57 54 58 70 59 55 60 58 61 69 62 85 63 56 64
REMARK SMILES IDX 57 65 68 67 86 68 59 69 46 70 47 71 52 72 48 73 49 74 51 75
REMARK SMILES IDX 53 76 50 77 72 78 73 79 78 80 74 81 75 82 77 83 79 84 76 85
REMARK SMILES IDX 60 86 61 87 66 88 62 89 63 90 65 91 67 92 64 93
REMARK H PARENT 84 55 58 66
REMARK Flexibility Score: inf
ROOT
ATOM      1  O   UNL A   1      44.578  17.981  25.783  1.00  0.00    -0.377 OA
ENDROOT
BRANCH   1   2
ATOM      2  C   UNL A   1      43.380  18.204  26.503  1.00  0.00     0.188 C 
BRANCH   2   3
ATOM      3  C   UNL A   1      42.332  19.109  25.848  1.00  0.00     0.188 C 
BRANCH   3   4
ATOM      4  O   UNL A   1      41.640  20.014  26.684  1.00  0.00    -0.376 OA
BRANCH   4   5
ATOM      5  C   UNL A   1      40.272  20.321  26.438  1.00  0.00     0.202 C 
BRANCH   5   6
ATOM      6  C   UNL A   1      39.766  21.729  26.069  1.00  0.00     0.261 C 
BRANCH   6   7
ATOM      7  O   UNL A   1      38.338  21.887  25.998  1.00  0.00    -0.460 OA
BRANCH   7   8
ATOM      8  C   UNL A   1      37.895  23.162  26.075  1.00  0.00     0.338 C 
ATOM      9  O   UNL A   1      38.583  24.151  26.286  1.00  0.00    -0.246 OA
BRANCH   8  10
ATOM     10  C   UNL A   1      36.461  23.272  25.758  1.00  0.00     0.087 C 
ATOM     11  C   UNL A   1      31.386  22.742  26.374  1.00  0.00     0.048 C 
ATOM     12  C   UNL A   1      32.338  23.857  26.042  1.00  0.00    -0.005 A 
ATOM     13  C   UNL A   1      31.806  25.131  25.763  1.00  0.00     0.054 A 
ATOM     14  C   UNL A   1      33.725  23.664  25.982  1.00  0.00     0.131 A 
ATOM     15  C   UNL A   1      32.639  26.199  25.430  1.00  0.00     0.130 A 
ATOM     16  C   UNL A   1      34.560  24.717  25.597  1.00  0.00     0.021 A 
ATOM     17  O   UNL A   1      34.220  22.451  26.395  1.00  0.00    -0.475 OA
ATOM     18  C   UNL A   1      34.015  25.977  25.321  1.00  0.00     0.058 A 
ATOM     19  C   UNL A   1      36.002  24.521  25.593  1.00  0.00     0.027 C 
ATOM     20  C   UNL A   1      35.565  22.087  25.969  1.00  0.00     0.316 C 
BRANCH  15  21
ATOM     21  O   UNL A   1      32.246  27.485  25.189  1.00  0.00    -0.406 OA
BRANCH  21  22
ATOM     22  C   UNL A   1      32.470  28.442  26.212  1.00  0.00     0.573 C 
ATOM     23  F   UNL A   1      31.451  29.325  26.278  1.00  0.00    -0.132 F 
ATOM     24  F   UNL A   1      32.632  27.850  27.415  1.00  0.00    -0.132 F 
ATOM     25  F   UNL A   1      33.601  29.127  25.928  1.00  0.00    -0.132 F 
ENDBRANCH  21  22
ENDBRANCH  15  21
BRANCH  20  26
ATOM     26  C   UNL A   1      35.453  21.068  24.821  1.00  0.00     0.430 C 
ATOM     27  F   UNL A   1      35.935  19.850  25.159  1.00  0.00    -0.167 F 
ATOM     28  F   UNL A   1      34.198  20.895  24.366  1.00  0.00    -0.167 F 
ATOM     29  F   UNL A   1      36.183  21.497  23.755  1.00  0.00    -0.167 F 
ENDBRANCH  20  26
ENDBRANCH   8  10
ENDBRANCH   7   8
ENDBRANCH   6   7
ENDBRANCH   5   6
ENDBRANCH   4   5
ENDBRANCH   3   4
ENDBRANCH   2   3
ENDBRANCH   1   2
BRANCH   1  30
ATOM     30  C   UNL A   1      44.897  18.825  24.678  1.00  0.00     0.188 C 
BRANCH  30  31
ATOM     31  C   UNL A   1      45.064  20.333  24.914  1.00  0.00     0.188 C 
BRANCH  31  32
ATOM     32  O   UNL A   1      45.432  21.152  23.804  1.00  0.00    -0.376 OA
BRANCH  32  33
ATOM     33  C   UNL A   1      44.997  22.507  23.776  1.00  0.00     0.202 C 
BRANCH  33  34
ATOM     34  C   UNL A   1      43.998  22.875  24.868  1.00  0.00     0.261 C 
BRANCH  34  35
ATOM     35  O   UNL A   1      43.453  24.184  24.651  1.00  0.00    -0.460 OA
BRANCH  35  36
ATOM     36  C   UNL A   1      44.184  25.206  25.150  1.00  0.00     0.338 C 
ATOM     37  O   UNL A   1      45.318  25.532  24.856  1.00  0.00    -0.246 OA
BRANCH  36  38
ATOM     38  C   UNL A   1      43.329  25.993  26.051  1.00  0.00     0.060 A 
ATOM     39  C   UNL A   1      43.659  27.332  26.289  1.00  0.00     0.016 A 
ATOM     40  C   UNL A   1      42.269  25.382  26.724  1.00  0.00     0.016 A 
ATOM     41  C   UNL A   1      42.961  28.056  27.250  1.00  0.00     0.010 A 
ATOM     42  C   UNL A   1      41.585  26.100  27.702  1.00  0.00     0.010 A 
ATOM     43  C   UNL A   1      41.964  27.421  27.999  1.00  0.00    -0.014 A 
BRANCH  43  44
ATOM     44  C   UNL A   1      41.493  28.032  29.258  1.00  0.00     0.031 A 
ATOM     45  C   UNL A   1      40.272  28.904  29.199  1.00  0.00     0.074 A 
ATOM     46  C   UNL A   1      42.141  27.827  30.415  1.00  0.00     0.049 A 
ATOM     47  N   UNL A   1      39.718  29.627  30.136  1.00  0.00    -0.248 NA
ATOM     48  C   UNL A   1      39.586  28.973  27.897  1.00  0.00     0.031 C 
ATOM     49  C   UNL A   1      43.302  26.959  30.595  1.00  0.00     0.029 A 
ATOM     50  N   UNL A   1      41.915  28.360  31.656  1.00  0.00    -0.354 N 
ATOM     51  C   UNL A   1      38.620  30.234  29.540  1.00  0.00     0.074 A 
ATOM     52  C   UNL A   1      38.608  29.827  28.152  1.00  0.00     0.031 C 
ATOM     53  C   UNL A   1      43.700  27.033  31.877  1.00  0.00     0.029 A 
ATOM     54  C   UNL A   1      42.846  27.982  32.590  1.00  0.00     0.049 A 
ATOM     55  H   UNL A   1      41.157  28.955  31.859  1.00  0.00     0.167 HD
ATOM     56  C   UNL A   1      37.700  31.055  30.099  1.00  0.00     0.037 A 
ATOM     57  C   UNL A   1      43.000  28.387  33.864  1.00  0.00     0.037 A 
ATOM     58  C   UNL A   1      37.745  31.486  31.470  1.00  0.00     0.049 A 
ATOM     59  C   UNL A   1      42.037  29.400  34.431  1.00  0.00     0.074 A 
ATOM     60  C   UNL A   1      36.877  32.325  32.144  1.00  0.00     0.029 A 
ATOM     61  N   UNL A   1      38.733  31.123  32.376  1.00  0.00    -0.354 N 
ATOM     62  N   UNL A   1      40.992  29.959  33.871  1.00  0.00    -0.248 NA
ATOM     63  C   UNL A   1      42.285  29.839  35.811  1.00  0.00     0.031 C 
ATOM     64  C   UNL A   1      37.372  32.517  33.438  1.00  0.00     0.029 A 
ATOM     65  C   UNL A   1      38.512  31.745  33.593  1.00  0.00     0.049 A 
ATOM     66  H   UNL A   1      39.480  30.512  32.181  1.00  0.00     0.167 HD
ATOM     67  C   UNL A   1      40.434  30.786  34.840  1.00  0.00     0.074 A 
ATOM     68  C   UNL A   1      41.254  30.645  36.026  1.00  0.00     0.031 C 
ATOM     69  C   UNL A   1      39.342  31.587  34.762  1.00  0.00     0.037 A 
BRANCH  56  70
ATOM     70  C   UNL A   1      36.607  31.565  29.206  1.00  0.00     0.057 A 
ATOM     71  C   UNL A   1      35.552  30.730  28.819  1.00  0.00     0.134 A 
ATOM     72  C   UNL A   1      36.582  32.890  28.744  1.00  0.00     0.134 A 
ATOM     73  F   UNL A   1      35.512  29.452  29.222  1.00  0.00    -0.206 F 
ATOM     74  C   UNL A   1      34.510  31.193  28.014  1.00  0.00     0.040 A 
ATOM     75  C   UNL A   1      35.530  33.373  27.966  1.00  0.00     0.040 A 
ATOM     76  F   UNL A   1      37.552  33.749  29.094  1.00  0.00    -0.206 F 
ATOM     77  C   UNL A   1      34.490  32.522  27.596  1.00  0.00     0.006 A 
ENDBRANCH  56  70
BRANCH  57  78
ATOM     78  C   UNL A   1      44.109  27.854  34.693  1.00  0.00     0.057 A 
ATOM     79  C   UNL A   1      43.940  26.730  35.510  1.00  0.00     0.134 A 
ATOM     80  C   UNL A   1      45.380  28.439  34.656  1.00  0.00     0.134 A 
ATOM     81  F   UNL A   1      42.747  26.124  35.592  1.00  0.00    -0.206 F 
ATOM     82  C   UNL A   1      44.994  26.207  36.261  1.00  0.00     0.040 A 
ATOM     83  C   UNL A   1      46.451  27.910  35.379  1.00  0.00     0.040 A 
ATOM     84  F   UNL A   1      45.610  29.504  33.875  1.00  0.00    -0.206 F 
ATOM     85  C   UNL A   1      46.257  26.791  36.188  1.00  0.00     0.006 A 
ENDBRANCH  57  78
BRANCH  69  86
ATOM     86  C   UNL A   1      38.946  32.329  36.007  1.00  0.00     0.057 A 
ATOM     87  C   UNL A   1      39.351  33.656  36.200  1.00  0.00     0.134 A 
ATOM     88  C   UNL A   1      38.187  31.732  37.022  1.00  0.00     0.134 A 
ATOM     89  F   UNL A   1      40.090  34.286  35.274  1.00  0.00    -0.206 F 
ATOM     90  C   UNL A   1      39.016  34.363  37.356  1.00  0.00     0.040 A 
ATOM     91  C   UNL A   1      37.816  32.440  38.167  1.00  0.00     0.040 A 
ATOM     92  F   UNL A   1      37.755  30.468  36.896  1.00  0.00    -0.206 F 
ATOM     93  C   UNL A   1      38.236  33.758  38.339  1.00  0.00     0.006 A 
ENDBRANCH  69  86
ENDBRANCH  43  44
ENDBRANCH  36  38
ENDBRANCH  35  36
ENDBRANCH  34  35
ENDBRANCH  33  34
ENDBRANCH  32  33
ENDBRANCH  31  32
ENDBRANCH  30  31
ENDBRANCH   1  30
TORSDOF 23
ENDMDL
