MODEL 1
REMARK VINA RESULT:     -11.6      0.000      0.000
REMARK SMILES Cc1cccc(-n2c(C)cc(/C=N\c3ccc(O)c(C(=O)OCCOCCOCCOCCOC(=O)c4ccc(-c5c6nc(c(-c7c(F)cccc7F)c7ccc([nH]7)c(-c7c(F)cccc7F)c7nc(c(-c8c(F)cccc8F)c8ccc5[nH]8)C=C7)C=C6)cc4)c3)c2C)c1
REMARK SMILES IDX 27 1 26 2 25 3 24 4 23 5 22 6 20 7 21 8 19 9 14 10 15 11
REMARK SMILES IDX 91 12 16 13 17 14 13 15 12 16 11 17 7 18 8 19 92 20 9 21
REMARK SMILES IDX 10 22 93 23 6 24 1 25 2 26 3 27 94 28 4 29 5 30 18 31 28 33
REMARK SMILES IDX 29 34 30 35 31 36 32 37 33 38 34 39 35 40 36 41 37 42 38 43
REMARK SMILES IDX 90 44 39 45 89 46 40 47 41 48 42 49 83 50 43 51 88 52 82 53
REMARK SMILES IDX 84 54 44 55 87 56 81 57 80 58 45 60 71 61 54 62 70 63 55 64
REMARK SMILES IDX 58 65 69 66 85 67 56 68 57 69 68 71 86 72 59 73 46 74 47 75
REMARK SMILES IDX 52 76 48 77 49 78 51 79 53 80 50 81 72 82 73 83 78 84 74 85
REMARK SMILES IDX 75 86 77 87 79 88 76 89 60 90 61 91 66 92 62 93 63 94 65 95
REMARK SMILES IDX 67 96 64 97
REMARK H PARENT 18 32 84 59 58 70
REMARK Flexibility Score: inf
ROOT
ATOM      1  C   UNL A   1      40.576  22.615  27.185  1.00  0.00     0.188 C 
ENDROOT
BRANCH   1   2
ATOM      2  C   UNL A   1      39.446  23.668  27.252  1.00  0.00     0.188 C 
BRANCH   2   3
ATOM      3  O   UNL A   1      38.688  24.025  26.112  1.00  0.00    -0.376 OA
BRANCH   3   4
ATOM      4  C   UNL A   1      37.310  23.706  26.124  1.00  0.00     0.202 C 
BRANCH   4   5
ATOM      5  C   UNL A   1      36.822  22.441  25.457  1.00  0.00     0.261 C 
BRANCH   5   6
ATOM      6  O   UNL A   1      35.555  22.778  24.905  1.00  0.00    -0.460 OA
BRANCH   6   7
ATOM      7  C   UNL A   1      34.763  21.706  24.885  1.00  0.00     0.342 C 
ATOM      8  O   UNL A   1      35.091  20.573  24.616  1.00  0.00    -0.246 OA
BRANCH   7   9
ATOM      9  C   UNL A   1      33.496  22.115  25.520  1.00  0.00     0.103 A 
ATOM     10  C   UNL A   1      31.378  23.033  24.949  1.00  0.00     0.064 A 
ATOM     11  C   UNL A   1      31.080  23.273  26.289  1.00  0.00     0.032 A 
ATOM     12  C   UNL A   1      32.497  22.312  24.589  1.00  0.00     0.048 A 
ATOM     13  C   UNL A   1      32.033  22.965  27.263  1.00  0.00     0.049 A 
ATOM     14  C   UNL A   1      33.274  22.455  26.864  1.00  0.00     0.130 A 
BRANCH  10  15
ATOM     15  N   UNL A   1      30.658  23.545  23.893  1.00  0.00    -0.256 NA
ATOM     16  C   UNL A   1      30.991  24.686  23.357  1.00  0.00     0.121 C 
BRANCH  16  17
ATOM     17  C   UNL A   1      31.866  25.812  23.747  1.00  0.00     0.014 A 
ATOM     18  N   UNL A   1      32.915  27.693  24.506  1.00  0.00    -0.318 N 
ATOM     19  C   UNL A   1      33.260  27.541  23.185  1.00  0.00     0.021 A 
ATOM     20  C   UNL A   1      32.106  26.619  24.871  1.00  0.00     0.029 A 
ATOM     21  C   UNL A   1      34.085  28.514  22.437  1.00  0.00     0.065 C 
ATOM     22  C   UNL A   1      32.721  26.357  22.741  1.00  0.00     0.033 A 
ATOM     23  C   UNL A   1      31.601  26.601  26.255  1.00  0.00     0.065 C 
BRANCH  18  24
ATOM     24  C   UNL A   1      33.116  28.855  25.310  1.00  0.00     0.046 A 
ATOM     25  C   UNL A   1      31.020  31.830  26.413  1.00  0.00     0.044 C 
ATOM     26  C   UNL A   1      32.105  30.797  26.348  1.00  0.00    -0.049 A 
ATOM     27  C   UNL A   1      33.132  30.804  27.303  1.00  0.00     0.003 A 
ATOM     28  C   UNL A   1      32.098  29.812  25.351  1.00  0.00     0.030 A 
ATOM     29  C   UNL A   1      34.159  29.861  27.248  1.00  0.00     0.002 A 
ATOM     30  C   UNL A   1      34.168  28.899  26.237  1.00  0.00     0.026 A 
ENDBRANCH  18  24
ENDBRANCH  16  17
ENDBRANCH  10  15
BRANCH  14  31
ATOM     31  O   UNL A   1      34.238  22.421  27.826  1.00  0.00    -0.507 OA
ATOM     32  H   UNL A   1      34.687  21.620  28.012  1.00  0.00     0.293 HD
ENDBRANCH  14  31
ENDBRANCH   7   9
ENDBRANCH   6   7
ENDBRANCH   5   6
ENDBRANCH   4   5
ENDBRANCH   3   4
ENDBRANCH   2   3
ENDBRANCH   1   2
BRANCH   1  33
ATOM     33  O   UNL A   1      40.267  21.230  27.115  1.00  0.00    -0.377 OA
BRANCH  33  34
ATOM     34  C   UNL A   1      40.865  20.488  26.062  1.00  0.00     0.188 C 
BRANCH  34  35
ATOM     35  C   UNL A   1      41.873  19.444  26.426  1.00  0.00     0.188 C 
BRANCH  35  36
ATOM     36  O   UNL A   1      42.557  19.139  25.214  1.00  0.00    -0.376 OA
BRANCH  36  37
ATOM     37  C   UNL A   1      43.778  18.446  25.386  1.00  0.00     0.202 C 
BRANCH  37  38
ATOM     38  C   UNL A   1      44.847  18.946  24.413  1.00  0.00     0.261 C 
BRANCH  38  39
ATOM     39  O   UNL A   1      44.602  20.349  24.157  1.00  0.00    -0.460 OA
BRANCH  39  40
ATOM     40  C   UNL A   1      45.314  21.227  24.917  1.00  0.00     0.338 C 
ATOM     41  O   UNL A   1      46.416  21.008  25.394  1.00  0.00    -0.246 OA
BRANCH  40  42
ATOM     42  C   UNL A   1      44.450  22.373  25.345  1.00  0.00     0.060 A 
ATOM     43  C   UNL A   1      44.100  23.376  24.425  1.00  0.00     0.016 A 
ATOM     44  C   UNL A   1      44.274  22.618  26.699  1.00  0.00     0.016 A 
ATOM     45  C   UNL A   1      43.770  24.675  24.864  1.00  0.00     0.010 A 
ATOM     46  C   UNL A   1      44.017  23.913  27.118  1.00  0.00     0.010 A 
ATOM     47  C   UNL A   1      43.826  24.981  26.221  1.00  0.00    -0.014 A 
BRANCH  47  48
ATOM     48  C   UNL A   1      43.805  26.353  26.796  1.00  0.00     0.031 A 
ATOM     49  C   UNL A   1      42.482  27.063  26.891  1.00  0.00     0.074 A 
ATOM     50  C   UNL A   1      44.844  26.800  27.565  1.00  0.00     0.049 A 
ATOM     51  N   UNL A   1      42.296  28.188  27.488  1.00  0.00    -0.248 NA
ATOM     52  C   UNL A   1      41.217  26.500  26.432  1.00  0.00     0.031 C 
ATOM     53  C   UNL A   1      44.851  27.884  28.552  1.00  0.00     0.029 A 
ATOM     54  N   UNL A   1      46.152  26.318  27.710  1.00  0.00    -0.354 N 
ATOM     55  C   UNL A   1      40.959  28.333  27.804  1.00  0.00     0.074 A 
ATOM     56  C   UNL A   1      40.322  27.286  27.048  1.00  0.00     0.031 C 
ATOM     57  C   UNL A   1      46.088  28.151  28.999  1.00  0.00     0.029 A 
ATOM     58  C   UNL A   1      46.960  27.389  28.153  1.00  0.00     0.049 A 
ATOM     59  H   UNL A   1      46.454  25.398  27.534  1.00  0.00     0.167 HD
ATOM     60  C   UNL A   1      40.615  29.261  28.759  1.00  0.00     0.037 A 
ATOM     61  C   UNL A   1      47.887  27.926  27.322  1.00  0.00     0.037 A 
ATOM     62  C   UNL A   1      41.807  30.067  29.143  1.00  0.00     0.049 A 
ATOM     63  C   UNL A   1      47.384  29.330  26.983  1.00  0.00     0.074 A 
ATOM     64  C   UNL A   1      42.489  30.329  30.323  1.00  0.00     0.029 A 
ATOM     65  N   UNL A   1      42.630  30.577  28.128  1.00  0.00    -0.354 N 
ATOM     66  N   UNL A   1      46.104  29.654  26.881  1.00  0.00    -0.248 NA
ATOM     67  C   UNL A   1      48.231  30.507  27.164  1.00  0.00     0.031 C 
ATOM     68  C   UNL A   1      43.776  30.865  29.984  1.00  0.00     0.029 A 
ATOM     69  C   UNL A   1      43.872  30.965  28.598  1.00  0.00     0.049 A 
ATOM     70  H   UNL A   1      42.354  30.649  27.185  1.00  0.00     0.167 HD
ATOM     71  C   UNL A   1      45.945  30.984  27.216  1.00  0.00     0.074 A 
ATOM     72  C   UNL A   1      47.316  31.481  27.317  1.00  0.00     0.031 C 
ATOM     73  C   UNL A   1      44.823  31.624  27.700  1.00  0.00     0.037 A 
BRANCH  60  74
ATOM     74  C   UNL A   1      39.255  29.389  29.476  1.00  0.00     0.057 A 
ATOM     75  C   UNL A   1      38.105  29.842  28.786  1.00  0.00     0.134 A 
ATOM     76  C   UNL A   1      39.000  29.130  30.840  1.00  0.00     0.134 A 
ATOM     77  F   UNL A   1      38.137  30.129  27.478  1.00  0.00    -0.206 F 
ATOM     78  C   UNL A   1      36.843  30.020  29.391  1.00  0.00     0.040 A 
ATOM     79  C   UNL A   1      37.736  29.272  31.450  1.00  0.00     0.040 A 
ATOM     80  F   UNL A   1      39.952  28.744  31.688  1.00  0.00    -0.206 F 
ATOM     81  C   UNL A   1      36.650  29.725  30.729  1.00  0.00     0.006 A 
ENDBRANCH  60  74
BRANCH  61  82
ATOM     82  C   UNL A   1      48.614  26.792  26.648  1.00  0.00     0.057 A 
ATOM     83  C   UNL A   1      48.852  26.996  25.259  1.00  0.00     0.134 A 
ATOM     84  C   UNL A   1      49.571  26.011  27.308  1.00  0.00     0.134 A 
ATOM     85  F   UNL A   1      47.989  27.731  24.537  1.00  0.00    -0.206 F 
ATOM     86  C   UNL A   1      50.058  26.642  24.629  1.00  0.00     0.040 A 
ATOM     87  C   UNL A   1      50.773  25.624  26.672  1.00  0.00     0.040 A 
ATOM     88  F   UNL A   1      49.460  25.768  28.621  1.00  0.00    -0.206 F 
ATOM     89  C   UNL A   1      51.047  25.995  25.355  1.00  0.00     0.006 A 
ENDBRANCH  61  82
BRANCH  73  90
ATOM     90  C   UNL A   1      44.470  33.039  27.268  1.00  0.00     0.057 A 
ATOM     91  C   UNL A   1      43.905  33.351  26.025  1.00  0.00     0.134 A 
ATOM     92  C   UNL A   1      44.486  34.115  28.197  1.00  0.00     0.134 A 
ATOM     93  F   UNL A   1      43.762  32.434  25.060  1.00  0.00    -0.206 F 
ATOM     94  C   UNL A   1      43.411  34.623  25.725  1.00  0.00     0.040 A 
ATOM     95  C   UNL A   1      43.935  35.366  27.928  1.00  0.00     0.040 A 
ATOM     96  F   UNL A   1      45.001  34.004  29.430  1.00  0.00    -0.206 F 
ATOM     97  C   UNL A   1      43.401  35.628  26.683  1.00  0.00     0.006 A 
ENDBRANCH  73  90
ENDBRANCH  47  48
ENDBRANCH  40  42
ENDBRANCH  39  40
ENDBRANCH  38  39
ENDBRANCH  37  38
ENDBRANCH  36  37
ENDBRANCH  35  36
ENDBRANCH  34  35
ENDBRANCH  33  34
ENDBRANCH   1  33
TORSDOF 24
ENDMDL
MODEL 2
REMARK VINA RESULT:     -11.3      5.185     10.962
REMARK SMILES Cc1cccc(-n2c(C)cc(/C=N\c3ccc(O)c(C(=O)OCCOCCOCCOCCOC(=O)c4ccc(-c5c6nc(c(-c7c(F)cccc7F)c7ccc([nH]7)c(-c7c(F)cccc7F)c7nc(c(-c8c(F)cccc8F)c8ccc5[nH]8)C=C7)C=C6)cc4)c3)c2C)c1
REMARK SMILES IDX 27 1 26 2 25 3 24 4 23 5 22 6 20 7 21 8 19 9 14 10 15 11
REMARK SMILES IDX 91 12 16 13 17 14 13 15 12 16 11 17 7 18 8 19 92 20 9 21
REMARK SMILES IDX 10 22 93 23 6 24 1 25 2 26 3 27 94 28 4 29 5 30 18 31 28 33
REMARK SMILES IDX 29 34 30 35 31 36 32 37 33 38 34 39 35 40 36 41 37 42 38 43
REMARK SMILES IDX 90 44 39 45 89 46 40 47 41 48 42 49 83 50 43 51 88 52 82 53
REMARK SMILES IDX 84 54 44 55 87 56 81 57 80 58 45 60 71 61 54 62 70 63 55 64
REMARK SMILES IDX 58 65 69 66 85 67 56 68 57 69 68 71 86 72 59 73 46 74 47 75
REMARK SMILES IDX 52 76 48 77 49 78 51 79 53 80 50 81 72 82 73 83 78 84 74 85
REMARK SMILES IDX 75 86 77 87 79 88 76 89 60 90 61 91 66 92 62 93 63 94 65 95
REMARK SMILES IDX 67 96 64 97
REMARK H PARENT 18 32 84 59 58 70
REMARK Flexibility Score: inf
ROOT
ATOM      1  C   UNL A   1      34.055  33.802  28.331  1.00  0.00     0.188 C 
ENDROOT
BRANCH   1   2
ATOM      2  C   UNL A   1      35.270  32.931  27.938  1.00  0.00     0.188 C 
BRANCH   2   3
ATOM      3  O   UNL A   1      35.465  31.634  28.469  1.00  0.00    -0.376 OA
BRANCH   3   4
ATOM      4  C   UNL A   1      35.611  30.572  27.549  1.00  0.00     0.202 C 
BRANCH   4   5
ATOM      5  C   UNL A   1      34.692  29.375  27.625  1.00  0.00     0.261 C 
BRANCH   5   6
ATOM      6  O   UNL A   1      33.679  29.623  26.657  1.00  0.00    -0.460 OA
BRANCH   6   7
ATOM      7  C   UNL A   1      32.782  28.637  26.670  1.00  0.00     0.342 C 
ATOM      8  O   UNL A   1      32.356  28.063  27.646  1.00  0.00    -0.246 OA
BRANCH   7   9
ATOM      9  C   UNL A   1      32.211  28.580  25.311  1.00  0.00     0.103 A 
ATOM     10  C   UNL A   1      30.442  27.535  24.113  1.00  0.00     0.064 A 
ATOM     11  C   UNL A   1      30.983  27.934  22.893  1.00  0.00     0.032 A 
ATOM     12  C   UNL A   1      30.960  27.997  25.305  1.00  0.00     0.048 A 
ATOM     13  C   UNL A   1      32.191  28.637  22.883  1.00  0.00     0.049 A 
ATOM     14  C   UNL A   1      32.841  28.891  24.095  1.00  0.00     0.130 A 
BRANCH  10  15
ATOM     15  N   UNL A   1      29.430  26.610  24.245  1.00  0.00    -0.256 NA
ATOM     16  C   UNL A   1      29.707  25.353  24.450  1.00  0.00     0.121 C 
BRANCH  16  17
ATOM     17  C   UNL A   1      30.919  24.514  24.339  1.00  0.00     0.014 A 
ATOM     18  N   UNL A   1      32.942  23.457  24.406  1.00  0.00    -0.318 N 
ATOM     19  C   UNL A   1      32.603  23.598  23.083  1.00  0.00     0.021 A 
ATOM     20  C   UNL A   1      31.902  23.968  25.180  1.00  0.00     0.029 A 
ATOM     21  C   UNL A   1      33.484  23.201  21.965  1.00  0.00     0.065 C 
ATOM     22  C   UNL A   1      31.340  24.139  23.027  1.00  0.00     0.033 A 
ATOM     23  C   UNL A   1      32.077  23.935  26.643  1.00  0.00     0.065 C 
BRANCH  18  24
ATOM     24  C   UNL A   1      34.223  23.097  24.923  1.00  0.00     0.046 A 
ATOM     25  C   UNL A   1      36.374  19.962  25.000  1.00  0.00     0.044 C 
ATOM     26  C   UNL A   1      35.945  21.397  25.062  1.00  0.00    -0.049 A 
ATOM     27  C   UNL A   1      36.896  22.399  25.302  1.00  0.00     0.003 A 
ATOM     28  C   UNL A   1      34.603  21.752  24.865  1.00  0.00     0.030 A 
ATOM     29  C   UNL A   1      36.512  23.738  25.381  1.00  0.00     0.002 A 
ATOM     30  C   UNL A   1      35.171  24.089  25.215  1.00  0.00     0.026 A 
ENDBRANCH  18  24
ENDBRANCH  16  17
ENDBRANCH  10  15
BRANCH  14  31
ATOM     31  O   UNL A   1      34.123  29.344  23.998  1.00  0.00    -0.507 OA
ATOM     32  H   UNL A   1      34.288  30.240  23.782  1.00  0.00     0.293 HD
ENDBRANCH  14  31
ENDBRANCH   7   9
ENDBRANCH   6   7
ENDBRANCH   5   6
ENDBRANCH   4   5
ENDBRANCH   3   4
ENDBRANCH   2   3
ENDBRANCH   1   2
BRANCH   1  33
ATOM     33  O   UNL A   1      34.243  35.129  28.802  1.00  0.00    -0.377 OA
BRANCH  33  34
ATOM     34  C   UNL A   1      33.106  35.790  29.340  1.00  0.00     0.188 C 
BRANCH  34  35
ATOM     35  C   UNL A   1      33.269  37.206  29.795  1.00  0.00     0.188 C 
BRANCH  35  36
ATOM     36  O   UNL A   1      32.765  37.236  31.127  1.00  0.00    -0.376 OA
BRANCH  36  37
ATOM     37  C   UNL A   1      33.669  37.746  32.087  1.00  0.00     0.202 C 
BRANCH  37  38
ATOM     38  C   UNL A   1      33.966  36.717  33.179  1.00  0.00     0.261 C 
BRANCH  38  39
ATOM     39  O   UNL A   1      34.787  35.674  32.603  1.00  0.00    -0.460 OA
BRANCH  39  40
ATOM     40  C   UNL A   1      34.181  34.468  32.422  1.00  0.00     0.338 C 
ATOM     41  O   UNL A   1      33.115  34.139  32.918  1.00  0.00    -0.246 OA
BRANCH  40  42
ATOM     42  C   UNL A   1      35.127  33.492  31.793  1.00  0.00     0.060 A 
ATOM     43  C   UNL A   1      34.924  32.110  31.951  1.00  0.00     0.016 A 
ATOM     44  C   UNL A   1      36.360  33.939  31.344  1.00  0.00     0.016 A 
ATOM     45  C   UNL A   1      36.004  31.208  31.855  1.00  0.00     0.010 A 
ATOM     46  C   UNL A   1      37.426  33.054  31.320  1.00  0.00     0.010 A 
ATOM     47  C   UNL A   1      37.291  31.690  31.638  1.00  0.00    -0.014 A 
BRANCH  47  48
ATOM     48  C   UNL A   1      38.545  30.908  31.814  1.00  0.00     0.031 A 
ATOM     49  C   UNL A   1      38.775  29.723  30.915  1.00  0.00     0.074 A 
ATOM     50  C   UNL A   1      39.616  31.452  32.467  1.00  0.00     0.049 A 
ATOM     51  N   UNL A   1      39.868  29.046  30.864  1.00  0.00    -0.248 NA
ATOM     52  C   UNL A   1      37.835  29.275  29.895  1.00  0.00     0.031 C 
ATOM     53  C   UNL A   1      41.030  31.070  32.383  1.00  0.00     0.029 A 
ATOM     54  N   UNL A   1      39.704  32.560  33.320  1.00  0.00    -0.354 N 
ATOM     55  C   UNL A   1      39.938  28.363  29.664  1.00  0.00     0.074 A 
ATOM     56  C   UNL A   1      38.603  28.480  29.136  1.00  0.00     0.031 C 
ATOM     57  C   UNL A   1      41.780  31.716  33.287  1.00  0.00     0.029 A 
ATOM     58  C   UNL A   1      40.841  32.386  34.140  1.00  0.00     0.049 A 
ATOM     59  H   UNL A   1      39.085  33.325  33.343  1.00  0.00     0.167 HD
ATOM     60  C   UNL A   1      41.165  27.897  29.253  1.00  0.00     0.037 A 
ATOM     61  C   UNL A   1      40.689  32.133  35.463  1.00  0.00     0.037 A 
ATOM     62  C   UNL A   1      42.175  28.096  30.329  1.00  0.00     0.049 A 
ATOM     63  C   UNL A   1      41.149  30.689  35.671  1.00  0.00     0.074 A 
ATOM     64  C   UNL A   1      43.389  28.759  30.438  1.00  0.00     0.029 A 
ATOM     65  N   UNL A   1      41.841  27.730  31.641  1.00  0.00    -0.354 N 
ATOM     66  N   UNL A   1      41.007  29.729  34.769  1.00  0.00    -0.248 NA
ATOM     67  C   UNL A   1      42.151  30.346  36.678  1.00  0.00     0.031 C 
ATOM     68  C   UNL A   1      43.693  28.904  31.834  1.00  0.00     0.029 A 
ATOM     69  C   UNL A   1      42.683  28.299  32.580  1.00  0.00     0.049 A 
ATOM     70  H   UNL A   1      41.089  27.135  31.869  1.00  0.00     0.167 HD
ATOM     71  C   UNL A   1      42.021  28.805  34.927  1.00  0.00     0.074 A 
ATOM     72  C   UNL A   1      42.663  29.207  36.178  1.00  0.00     0.031 C 
ATOM     73  C   UNL A   1      42.555  27.941  33.993  1.00  0.00     0.037 A 
BRANCH  60  74
ATOM     74  C   UNL A   1      41.533  27.383  27.847  1.00  0.00     0.057 A 
ATOM     75  C   UNL A   1      41.124  26.101  27.406  1.00  0.00     0.134 A 
ATOM     76  C   UNL A   1      42.315  28.060  26.885  1.00  0.00     0.134 A 
ATOM     77  F   UNL A   1      40.363  25.305  28.169  1.00  0.00    -0.206 F 
ATOM     78  C   UNL A   1      41.462  25.555  26.150  1.00  0.00     0.040 A 
ATOM     79  C   UNL A   1      42.632  27.541  25.613  1.00  0.00     0.040 A 
ATOM     80  F   UNL A   1      42.848  29.260  27.109  1.00  0.00    -0.206 F 
ATOM     81  C   UNL A   1      42.211  26.279  25.240  1.00  0.00     0.006 A 
ENDBRANCH  60  74
BRANCH  61  82
ATOM     82  C   UNL A   1      39.637  33.071  35.993  1.00  0.00     0.057 A 
ATOM     83  C   UNL A   1      38.439  32.427  36.413  1.00  0.00     0.134 A 
ATOM     84  C   UNL A   1      39.954  34.247  36.685  1.00  0.00     0.134 A 
ATOM     85  F   UNL A   1      38.047  31.291  35.810  1.00  0.00    -0.206 F 
ATOM     86  C   UNL A   1      37.736  32.797  37.573  1.00  0.00     0.040 A 
ATOM     87  C   UNL A   1      39.233  34.643  37.834  1.00  0.00     0.040 A 
ATOM     88  F   UNL A   1      41.069  34.928  36.388  1.00  0.00    -0.206 F 
ATOM     89  C   UNL A   1      38.166  33.885  38.318  1.00  0.00     0.006 A 
ENDBRANCH  61  82
BRANCH  73  90
ATOM     90  C   UNL A   1      42.979  26.530  34.371  1.00  0.00     0.057 A 
ATOM     91  C   UNL A   1      44.296  26.064  34.270  1.00  0.00     0.134 A 
ATOM     92  C   UNL A   1      42.095  25.660  35.065  1.00  0.00     0.134 A 
ATOM     93  F   UNL A   1      45.263  26.789  33.696  1.00  0.00    -0.206 F 
ATOM     94  C   UNL A   1      44.698  24.835  34.802  1.00  0.00     0.040 A 
ATOM     95  C   UNL A   1      42.503  24.466  35.656  1.00  0.00     0.040 A 
ATOM     96  F   UNL A   1      40.795  25.936  35.245  1.00  0.00    -0.206 F 
ATOM     97  C   UNL A   1      43.810  24.044  35.517  1.00  0.00     0.006 A 
ENDBRANCH  73  90
ENDBRANCH  47  48
ENDBRANCH  40  42
ENDBRANCH  39  40
ENDBRANCH  38  39
ENDBRANCH  37  38
ENDBRANCH  36  37
ENDBRANCH  35  36
ENDBRANCH  34  35
ENDBRANCH  33  34
ENDBRANCH   1  33
TORSDOF 24
ENDMDL
MODEL 3
REMARK VINA RESULT:     -10.4      4.883     10.666
REMARK SMILES Cc1cccc(-n2c(C)cc(/C=N\c3ccc(O)c(C(=O)OCCOCCOCCOCCOC(=O)c4ccc(-c5c6nc(c(-c7c(F)cccc7F)c7ccc([nH]7)c(-c7c(F)cccc7F)c7nc(c(-c8c(F)cccc8F)c8ccc5[nH]8)C=C7)C=C6)cc4)c3)c2C)c1
REMARK SMILES IDX 27 1 26 2 25 3 24 4 23 5 22 6 20 7 21 8 19 9 14 10 15 11
REMARK SMILES IDX 91 12 16 13 17 14 13 15 12 16 11 17 7 18 8 19 92 20 9 21
REMARK SMILES IDX 10 22 93 23 6 24 1 25 2 26 3 27 94 28 4 29 5 30 18 31 28 33
REMARK SMILES IDX 29 34 30 35 31 36 32 37 33 38 34 39 35 40 36 41 37 42 38 43
REMARK SMILES IDX 90 44 39 45 89 46 40 47 41 48 42 49 83 50 43 51 88 52 82 53
REMARK SMILES IDX 84 54 44 55 87 56 81 57 80 58 45 60 71 61 54 62 70 63 55 64
REMARK SMILES IDX 58 65 69 66 85 67 56 68 57 69 68 71 86 72 59 73 46 74 47 75
REMARK SMILES IDX 52 76 48 77 49 78 51 79 53 80 50 81 72 82 73 83 78 84 74 85
REMARK SMILES IDX 75 86 77 87 79 88 76 89 60 90 61 91 66 92 62 93 63 94 65 95
REMARK SMILES IDX 67 96 64 97
REMARK H PARENT 18 32 84 59 58 70
REMARK Flexibility Score: inf
ROOT
ATOM      1  C   UNL A   1      33.180  35.521  28.953  1.00  0.00     0.188 C 
ENDROOT
BRANCH   1   2
ATOM      2  C   UNL A   1      33.345  34.317  27.996  1.00  0.00     0.188 C 
BRANCH   2   3
ATOM      3  O   UNL A   1      32.374  33.292  27.908  1.00  0.00    -0.376 OA
BRANCH   3   4
ATOM      4  C   UNL A   1      32.819  32.010  27.513  1.00  0.00     0.202 C 
BRANCH   4   5
ATOM      5  C   UNL A   1      32.059  31.238  26.460  1.00  0.00     0.261 C 
BRANCH   5   6
ATOM      6  O   UNL A   1      32.084  29.886  26.899  1.00  0.00    -0.460 OA
BRANCH   6   7
ATOM      7  C   UNL A   1      33.073  29.225  26.297  1.00  0.00     0.342 C 
ATOM      8  O   UNL A   1      34.133  28.911  26.787  1.00  0.00    -0.246 OA
BRANCH   7   9
ATOM      9  C   UNL A   1      32.518  28.716  25.029  1.00  0.00     0.103 A 
ATOM     10  C   UNL A   1      30.743  27.352  24.226  1.00  0.00     0.064 A 
ATOM     11  C   UNL A   1      31.307  27.302  22.954  1.00  0.00     0.032 A 
ATOM     12  C   UNL A   1      31.256  28.185  25.198  1.00  0.00     0.048 A 
ATOM     13  C   UNL A   1      32.530  27.940  22.727  1.00  0.00     0.049 A 
ATOM     14  C   UNL A   1      33.170  28.583  23.792  1.00  0.00     0.130 A 
BRANCH  10  15
ATOM     15  N   UNL A   1      29.710  26.543  24.647  1.00  0.00    -0.256 NA
ATOM     16  C   UNL A   1      29.959  25.416  25.253  1.00  0.00     0.121 C 
BRANCH  16  17
ATOM     17  C   UNL A   1      31.151  24.561  25.429  1.00  0.00     0.014 A 
ATOM     18  N   UNL A   1      32.840  23.023  25.445  1.00  0.00    -0.318 N 
ATOM     19  C   UNL A   1      32.494  23.259  26.753  1.00  0.00     0.021 A 
ATOM     20  C   UNL A   1      32.061  23.845  24.634  1.00  0.00     0.029 A 
ATOM     21  C   UNL A   1      33.087  22.538  27.900  1.00  0.00     0.065 C 
ATOM     22  C   UNL A   1      31.551  24.259  26.767  1.00  0.00     0.033 A 
ATOM     23  C   UNL A   1      32.258  23.730  23.178  1.00  0.00     0.065 C 
BRANCH  18  24
ATOM     24  C   UNL A   1      33.653  21.955  24.959  1.00  0.00     0.046 A 
ATOM     25  C   UNL A   1      37.371  21.165  24.845  1.00  0.00     0.044 C 
ATOM     26  C   UNL A   1      35.880  21.010  24.819  1.00  0.00    -0.049 A 
ATOM     27  C   UNL A   1      35.314  19.739  24.644  1.00  0.00     0.003 A 
ATOM     28  C   UNL A   1      35.041  22.121  24.983  1.00  0.00     0.030 A 
ATOM     29  C   UNL A   1      33.929  19.578  24.599  1.00  0.00     0.002 A 
ATOM     30  C   UNL A   1      33.094  20.688  24.732  1.00  0.00     0.026 A 
ENDBRANCH  18  24
ENDBRANCH  16  17
ENDBRANCH  10  15
BRANCH  14  31
ATOM     31  O   UNL A   1      34.462  28.955  23.570  1.00  0.00    -0.507 OA
ATOM     32  H   UNL A   1      35.089  28.322  23.281  1.00  0.00     0.293 HD
ENDBRANCH  14  31
ENDBRANCH   7   9
ENDBRANCH   6   7
ENDBRANCH   5   6
ENDBRANCH   4   5
ENDBRANCH   3   4
ENDBRANCH   2   3
ENDBRANCH   1   2
BRANCH   1  33
ATOM     33  O   UNL A   1      32.575  35.350  30.226  1.00  0.00    -0.377 OA
BRANCH  33  34
ATOM     34  C   UNL A   1      32.626  36.455  31.118  1.00  0.00     0.188 C 
BRANCH  34  35
ATOM     35  C   UNL A   1      33.242  36.240  32.465  1.00  0.00     0.188 C 
BRANCH  35  36
ATOM     36  O   UNL A   1      34.610  35.937  32.212  1.00  0.00    -0.376 OA
BRANCH  36  37
ATOM     37  C   UNL A   1      35.180  34.997  33.102  1.00  0.00     0.202 C 
BRANCH  37  38
ATOM     38  C   UNL A   1      36.324  34.224  32.445  1.00  0.00     0.261 C 
BRANCH  38  39
ATOM     39  O   UNL A   1      35.984  34.014  31.054  1.00  0.00    -0.460 OA
BRANCH  39  40
ATOM     40  C   UNL A   1      35.272  32.886  30.778  1.00  0.00     0.338 C 
ATOM     41  O   UNL A   1      34.084  32.732  31.013  1.00  0.00    -0.246 OA
BRANCH  40  42
ATOM     42  C   UNL A   1      36.190  31.755  30.431  1.00  0.00     0.060 A 
ATOM     43  C   UNL A   1      36.033  30.502  31.050  1.00  0.00     0.016 A 
ATOM     44  C   UNL A   1      37.376  32.026  29.765  1.00  0.00     0.016 A 
ATOM     45  C   UNL A   1      37.123  29.616  31.171  1.00  0.00     0.010 A 
ATOM     46  C   UNL A   1      38.457  31.180  29.949  1.00  0.00     0.010 A 
ATOM     47  C   UNL A   1      38.378  29.996  30.707  1.00  0.00    -0.014 A 
BRANCH  47  48
ATOM     48  C   UNL A   1      39.660  29.314  31.031  1.00  0.00     0.031 A 
ATOM     49  C   UNL A   1      40.049  28.110  30.216  1.00  0.00     0.074 A 
ATOM     50  C   UNL A   1      40.630  29.960  31.747  1.00  0.00     0.049 A 
ATOM     51  N   UNL A   1      41.184  27.509  30.294  1.00  0.00    -0.248 NA
ATOM     52  C   UNL A   1      39.236  27.552  29.141  1.00  0.00     0.031 C 
ATOM     53  C   UNL A   1      42.067  29.675  31.806  1.00  0.00     0.029 A 
ATOM     54  N   UNL A   1      40.567  31.108  32.548  1.00  0.00    -0.354 N 
ATOM     55  C   UNL A   1      41.407  26.781  29.141  1.00  0.00     0.074 A 
ATOM     56  C   UNL A   1      40.121  26.781  28.493  1.00  0.00     0.031 C 
ATOM     57  C   UNL A   1      42.689  30.411  32.739  1.00  0.00     0.029 A 
ATOM     58  C   UNL A   1      41.634  31.050  33.471  1.00  0.00     0.049 A 
ATOM     59  H   UNL A   1      39.899  31.827  32.478  1.00  0.00     0.167 HD
ATOM     60  C   UNL A   1      42.694  26.384  28.862  1.00  0.00     0.037 A 
ATOM     61  C   UNL A   1      41.380  30.845  34.787  1.00  0.00     0.037 A 
ATOM     62  C   UNL A   1      43.588  26.701  30.011  1.00  0.00     0.049 A 
ATOM     63  C   UNL A   1      41.914  29.447  35.106  1.00  0.00     0.074 A 
ATOM     64  C   UNL A   1      44.740  27.452  30.192  1.00  0.00     0.029 A 
ATOM     65  N   UNL A   1      43.161  26.370  31.305  1.00  0.00    -0.354 N 
ATOM     66  N   UNL A   1      41.918  28.441  34.245  1.00  0.00    -0.248 NA
ATOM     67  C   UNL A   1      42.841  29.220  36.213  1.00  0.00     0.031 C 
ATOM     68  C   UNL A   1      44.907  27.678  31.600  1.00  0.00     0.029 A 
ATOM     69  C   UNL A   1      43.876  27.038  32.284  1.00  0.00     0.049 A 
ATOM     70  H   UNL A   1      42.433  25.735  31.496  1.00  0.00     0.167 HD
ATOM     71  C   UNL A   1      42.972  27.598  34.537  1.00  0.00     0.074 A 
ATOM     72  C   UNL A   1      43.470  28.099  35.817  1.00  0.00     0.031 C 
ATOM     73  C   UNL A   1      43.644  26.734  33.697  1.00  0.00     0.037 A 
BRANCH  60  74
ATOM     74  C   UNL A   1      43.222  25.836  27.521  1.00  0.00     0.057 A 
ATOM     75  C   UNL A   1      43.981  26.650  26.646  1.00  0.00     0.134 A 
ATOM     76  C   UNL A   1      42.998  24.544  26.997  1.00  0.00     0.134 A 
ATOM     77  F   UNL A   1      44.313  27.908  26.966  1.00  0.00    -0.206 F 
ATOM     78  C   UNL A   1      44.458  26.224  25.388  1.00  0.00     0.040 A 
ATOM     79  C   UNL A   1      43.497  24.094  25.757  1.00  0.00     0.040 A 
ATOM     80  F   UNL A   1      42.264  23.630  27.630  1.00  0.00    -0.206 F 
ATOM     81  C   UNL A   1      44.227  24.936  24.941  1.00  0.00     0.006 A 
ENDBRANCH  60  74
BRANCH  61  82
ATOM     82  C   UNL A   1      40.225  31.729  35.176  1.00  0.00     0.057 A 
ATOM     83  C   UNL A   1      39.006  31.030  35.404  1.00  0.00     0.134 A 
ATOM     84  C   UNL A   1      40.389  32.898  35.930  1.00  0.00     0.134 A 
ATOM     85  F   UNL A   1      38.752  29.896  34.727  1.00  0.00    -0.206 F 
ATOM     86  C   UNL A   1      38.127  31.344  36.455  1.00  0.00     0.040 A 
ATOM     87  C   UNL A   1      39.493  33.238  36.969  1.00  0.00     0.040 A 
ATOM     88  F   UNL A   1      41.507  33.628  35.813  1.00  0.00    -0.206 F 
ATOM     89  C   UNL A   1      38.399  32.428  37.276  1.00  0.00     0.006 A 
ENDBRANCH  61  82
BRANCH  73  90
ATOM     90  C   UNL A   1      44.124  25.374  34.180  1.00  0.00     0.057 A 
ATOM     91  C   UNL A   1      45.474  25.006  34.240  1.00  0.00     0.134 A 
ATOM     92  C   UNL A   1      43.235  24.466  34.816  1.00  0.00     0.134 A 
ATOM     93  F   UNL A   1      46.444  25.781  33.740  1.00  0.00    -0.206 F 
ATOM     94  C   UNL A   1      45.903  23.832  34.866  1.00  0.00     0.040 A 
ATOM     95  C   UNL A   1      43.661  23.329  35.499  1.00  0.00     0.040 A 
ATOM     96  F   UNL A   1      41.907  24.649  34.845  1.00  0.00    -0.206 F 
ATOM     97  C   UNL A   1      45.002  23.002  35.519  1.00  0.00     0.006 A 
ENDBRANCH  73  90
ENDBRANCH  47  48
ENDBRANCH  40  42
ENDBRANCH  39  40
ENDBRANCH  38  39
ENDBRANCH  37  38
ENDBRANCH  36  37
ENDBRANCH  35  36
ENDBRANCH  34  35
ENDBRANCH  33  34
ENDBRANCH   1  33
TORSDOF 24
ENDMDL
