MODEL 1
REMARK VINA RESULT:     -10.4      0.000      0.000
REMARK SMILES O=C(OCCOCCOCCOCCOC(=O)c1ccccc1/C=N/n1cnnc1SCc1ccccc1)c1ccc(-c2c3nc(c(-c4c(F)cccc4F)c4ccc([nH]4)c(-c4c(F)cccc4F)c4nc(c(-c5c(F)cccc5F)c5ccc2[nH]5)C=C4)C=C3)cc1
REMARK SMILES IDX 10 1 9 2 8 3 7 4 6 5 5 6 4 7 3 8 2 9 1 10 39 11 40 12 92 13
REMARK SMILES IDX 41 14 91 15 42 16 43 17 44 18 85 19 45 20 90 21 84 22 86 23
REMARK SMILES IDX 46 24 89 25 83 26 82 27 47 29 73 30 56 31 72 32 57 33 60 34
REMARK SMILES IDX 71 35 87 36 58 37 59 38 70 40 88 41 61 42 48 43 49 44 54 45
REMARK SMILES IDX 50 46 51 47 53 48 55 49 52 50 74 51 75 52 80 53 76 54 77 55
REMARK SMILES IDX 79 56 81 57 78 58 62 59 63 60 68 61 64 62 65 63 67 64 69 65
REMARK SMILES IDX 66 66 11 67 12 68 13 69 14 70 15 71 16 72 17 73 18 74 19 75
REMARK SMILES IDX 23 76 20 77 22 78 21 79 24 80 25 81 26 82 27 83 30 84 28 85
REMARK SMILES IDX 29 86 31 87 32 88 33 89 34 90 38 91 35 92 37 93 36 94
REMARK H PARENT 86 28 60 39
REMARK Flexibility Score: inf
ROOT
ATOM      1  C   UNL A   1      34.615  32.767  29.296  1.00  0.00     0.188 C 
ENDROOT
BRANCH   1   2
ATOM      2  O   UNL A   1      34.983  34.100  29.561  1.00  0.00    -0.377 OA
BRANCH   2   3
ATOM      3  C   UNL A   1      34.358  35.037  28.700  1.00  0.00     0.188 C 
BRANCH   3   4
ATOM      4  C   UNL A   1      32.927  35.489  29.057  1.00  0.00     0.188 C 
BRANCH   4   5
ATOM      5  O   UNL A   1      32.555  36.459  30.026  1.00  0.00    -0.376 OA
BRANCH   5   6
ATOM      6  C   UNL A   1      33.355  37.248  30.880  1.00  0.00     0.202 C 
BRANCH   6   7
ATOM      7  C   UNL A   1      33.256  37.234  32.400  1.00  0.00     0.261 C 
BRANCH   7   8
ATOM      8  O   UNL A   1      34.101  36.305  33.059  1.00  0.00    -0.460 OA
BRANCH   8   9
ATOM      9  C   UNL A   1      34.179  34.973  32.890  1.00  0.00     0.338 C 
ATOM     10  O   UNL A   1      33.130  34.365  32.675  1.00  0.00    -0.246 OA
BRANCH   9  11
ATOM     11  C   UNL A   1      35.429  34.167  32.994  1.00  0.00     0.060 A 
ATOM     12  C   UNL A   1      36.739  34.646  33.001  1.00  0.00     0.016 A 
ATOM     13  C   UNL A   1      35.222  32.773  33.037  1.00  0.00     0.016 A 
ATOM     14  C   UNL A   1      37.791  33.769  32.807  1.00  0.00     0.010 A 
ATOM     15  C   UNL A   1      36.271  31.889  32.880  1.00  0.00     0.010 A 
ATOM     16  C   UNL A   1      37.534  32.406  32.662  1.00  0.00    -0.014 A 
BRANCH  16  17
ATOM     17  C   UNL A   1      38.657  31.553  32.336  1.00  0.00     0.031 A 
ATOM     18  C   UNL A   1      39.507  31.227  33.503  1.00  0.00     0.074 A 
ATOM     19  C   UNL A   1      38.904  31.129  31.082  1.00  0.00     0.049 A 
ATOM     20  N   UNL A   1      40.682  31.696  33.758  1.00  0.00    -0.248 NA
ATOM     21  C   UNL A   1      38.917  30.449  34.601  1.00  0.00     0.031 C 
ATOM     22  C   UNL A   1      38.036  31.198  29.905  1.00  0.00     0.029 A 
ATOM     23  N   UNL A   1      40.000  30.474  30.611  1.00  0.00    -0.354 N 
ATOM     24  C   UNL A   1      41.079  31.093  34.945  1.00  0.00     0.074 A 
ATOM     25  C   UNL A   1      39.900  30.483  35.502  1.00  0.00     0.031 C 
ATOM     26  C   UNL A   1      38.542  30.408  28.929  1.00  0.00     0.029 A 
ATOM     27  C   UNL A   1      39.836  29.904  29.354  1.00  0.00     0.049 A 
ATOM     28  H   UNL A   1      40.841  30.410  31.119  1.00  0.00     0.167 HD
ATOM     29  C   UNL A   1      42.401  30.933  35.223  1.00  0.00     0.037 A 
ATOM     30  C   UNL A   1      40.692  29.042  28.747  1.00  0.00     0.037 A 
ATOM     31  C   UNL A   1      43.204  31.840  34.438  1.00  0.00     0.049 A 
ATOM     32  C   UNL A   1      42.020  29.205  29.392  1.00  0.00     0.074 A 
ATOM     33  C   UNL A   1      43.269  33.214  34.307  1.00  0.00     0.029 A 
ATOM     34  N   UNL A   1      43.851  31.330  33.338  1.00  0.00    -0.354 N 
ATOM     35  N   UNL A   1      42.765  30.265  29.250  1.00  0.00    -0.248 NA
ATOM     36  C   UNL A   1      42.298  28.400  30.573  1.00  0.00     0.031 C 
ATOM     37  C   UNL A   1      43.502  33.441  32.918  1.00  0.00     0.029 A 
ATOM     38  C   UNL A   1      43.650  32.200  32.299  1.00  0.00     0.049 A 
ATOM     39  H   UNL A   1      44.367  30.492  33.303  1.00  0.00     0.167 HD
ATOM     40  C   UNL A   1      43.263  30.513  30.519  1.00  0.00     0.074 A 
ATOM     41  C   UNL A   1      43.006  29.288  31.275  1.00  0.00     0.031 C 
ATOM     42  C   UNL A   1      43.566  31.783  30.920  1.00  0.00     0.037 A 
BRANCH  29  43
ATOM     43  C   UNL A   1      42.976  29.682  35.845  1.00  0.00     0.057 A 
ATOM     44  C   UNL A   1      43.897  29.812  36.900  1.00  0.00     0.134 A 
ATOM     45  C   UNL A   1      42.922  28.402  35.255  1.00  0.00     0.134 A 
ATOM     46  F   UNL A   1      44.045  30.979  37.545  1.00  0.00    -0.206 F 
ATOM     47  C   UNL A   1      44.772  28.782  37.264  1.00  0.00     0.040 A 
ATOM     48  C   UNL A   1      43.758  27.353  35.643  1.00  0.00     0.040 A 
ATOM     49  F   UNL A   1      42.140  28.117  34.208  1.00  0.00    -0.206 F 
ATOM     50  C   UNL A   1      44.714  27.551  36.624  1.00  0.00     0.006 A 
ENDBRANCH  29  43
BRANCH  30  51
ATOM     51  C   UNL A   1      40.384  27.873  27.892  1.00  0.00     0.057 A 
ATOM     52  C   UNL A   1      41.011  27.700  26.648  1.00  0.00     0.134 A 
ATOM     53  C   UNL A   1      39.711  26.750  28.403  1.00  0.00     0.134 A 
ATOM     54  F   UNL A   1      41.712  28.700  26.094  1.00  0.00    -0.206 F 
ATOM     55  C   UNL A   1      40.997  26.474  25.968  1.00  0.00     0.040 A 
ATOM     56  C   UNL A   1      39.686  25.522  27.733  1.00  0.00     0.040 A 
ATOM     57  F   UNL A   1      39.136  26.779  29.614  1.00  0.00    -0.206 F 
ATOM     58  C   UNL A   1      40.345  25.375  26.519  1.00  0.00     0.006 A 
ENDBRANCH  30  51
BRANCH  42  59
ATOM     59  C   UNL A   1      43.611  32.862  29.874  1.00  0.00     0.057 A 
ATOM     60  C   UNL A   1      42.536  33.704  29.547  1.00  0.00     0.134 A 
ATOM     61  C   UNL A   1      44.837  33.137  29.259  1.00  0.00     0.134 A 
ATOM     62  F   UNL A   1      41.350  33.589  30.159  1.00  0.00    -0.206 F 
ATOM     63  C   UNL A   1      42.667  34.734  28.610  1.00  0.00     0.040 A 
ATOM     64  C   UNL A   1      44.992  34.185  28.351  1.00  0.00     0.040 A 
ATOM     65  F   UNL A   1      45.924  32.411  29.564  1.00  0.00    -0.206 F 
ATOM     66  C   UNL A   1      43.900  34.980  28.012  1.00  0.00     0.006 A 
ENDBRANCH  42  59
ENDBRANCH  16  17
ENDBRANCH   9  11
ENDBRANCH   8   9
ENDBRANCH   7   8
ENDBRANCH   6   7
ENDBRANCH   5   6
ENDBRANCH   4   5
ENDBRANCH   3   4
ENDBRANCH   2   3
ENDBRANCH   1   2
BRANCH   1  67
ATOM     67  C   UNL A   1      35.241  32.202  28.003  1.00  0.00     0.188 C 
BRANCH  67  68
ATOM     68  O   UNL A   1      34.530  31.307  27.161  1.00  0.00    -0.376 OA
BRANCH  68  69
ATOM     69  C   UNL A   1      33.625  30.347  27.681  1.00  0.00     0.202 C 
BRANCH  69  70
ATOM     70  C   UNL A   1      33.243  29.089  26.891  1.00  0.00     0.261 C 
BRANCH  70  71
ATOM     71  O   UNL A   1      32.081  29.198  26.069  1.00  0.00    -0.460 OA
BRANCH  71  72
ATOM     72  C   UNL A   1      32.234  28.945  24.742  1.00  0.00     0.338 C 
ATOM     73  O   UNL A   1      33.258  28.832  24.123  1.00  0.00    -0.246 OA
BRANCH  72  74
ATOM     74  C   UNL A   1      30.876  28.688  24.199  1.00  0.00     0.068 A 
ATOM     75  C   UNL A   1      30.182  29.755  23.609  1.00  0.00     0.016 A 
ATOM     76  C   UNL A   1      30.336  27.399  24.170  1.00  0.00     0.009 A 
ATOM     77  C   UNL A   1      28.954  29.533  22.988  1.00  0.00     0.001 A 
ATOM     78  C   UNL A   1      29.093  27.187  23.563  1.00  0.00     0.010 A 
ATOM     79  C   UNL A   1      28.403  28.253  22.978  1.00  0.00     0.001 A 
BRANCH  76  80
ATOM     80  C   UNL A   1      31.030  26.306  24.886  1.00  0.00     0.143 C 
ATOM     81  N   UNL A   1      30.892  25.058  24.574  1.00  0.00    -0.172 NA
BRANCH  81  82
ATOM     82  N   UNL A   1      31.456  24.162  25.460  1.00  0.00    -0.195 N 
ATOM     83  C   UNL A   1      31.272  24.038  26.820  1.00  0.00     0.251 A 
ATOM     84  C   UNL A   1      32.249  23.070  25.141  1.00  0.00     0.212 A 
ATOM     85  N   UNL A   1      31.893  22.983  27.288  1.00  0.00    -0.136 NA
ATOM     86  N   UNL A   1      32.521  22.381  26.230  1.00  0.00    -0.122 NA
BRANCH  84  87
ATOM     87  S   UNL A   1      32.770  22.562  23.569  1.00  0.00    -0.080 SA
BRANCH  87  88
ATOM     88  C   UNL A   1      34.368  23.323  23.256  1.00  0.00     0.113 C 
BRANCH  88  89
ATOM     89  C   UNL A   1      35.507  22.983  24.198  1.00  0.00    -0.038 A 
ATOM     90  C   UNL A   1      36.086  21.707  24.274  1.00  0.00     0.004 A 
ATOM     91  C   UNL A   1      36.097  23.999  24.962  1.00  0.00     0.004 A 
ATOM     92  C   UNL A   1      37.251  21.464  25.003  1.00  0.00     0.000 A 
ATOM     93  C   UNL A   1      37.239  23.752  25.730  1.00  0.00     0.000 A 
ATOM     94  C   UNL A   1      37.830  22.491  25.731  1.00  0.00     0.000 A 
ENDBRANCH  88  89
ENDBRANCH  87  88
ENDBRANCH  84  87
ENDBRANCH  81  82
ENDBRANCH  76  80
ENDBRANCH  72  74
ENDBRANCH  71  72
ENDBRANCH  70  71
ENDBRANCH  69  70
ENDBRANCH  68  69
ENDBRANCH  67  68
ENDBRANCH   1  67
TORSDOF 25
ENDMDL
MODEL 2
REMARK VINA RESULT:     -10.2      1.558      2.869
REMARK SMILES O=C(OCCOCCOCCOCCOC(=O)c1ccccc1/C=N/n1cnnc1SCc1ccccc1)c1ccc(-c2c3nc(c(-c4c(F)cccc4F)c4ccc([nH]4)c(-c4c(F)cccc4F)c4nc(c(-c5c(F)cccc5F)c5ccc2[nH]5)C=C4)C=C3)cc1
REMARK SMILES IDX 10 1 9 2 8 3 7 4 6 5 5 6 4 7 3 8 2 9 1 10 39 11 40 12 92 13
REMARK SMILES IDX 41 14 91 15 42 16 43 17 44 18 85 19 45 20 90 21 84 22 86 23
REMARK SMILES IDX 46 24 89 25 83 26 82 27 47 29 73 30 56 31 72 32 57 33 60 34
REMARK SMILES IDX 71 35 87 36 58 37 59 38 70 40 88 41 61 42 48 43 49 44 54 45
REMARK SMILES IDX 50 46 51 47 53 48 55 49 52 50 74 51 75 52 80 53 76 54 77 55
REMARK SMILES IDX 79 56 81 57 78 58 62 59 63 60 68 61 64 62 65 63 67 64 69 65
REMARK SMILES IDX 66 66 11 67 12 68 13 69 14 70 15 71 16 72 17 73 18 74 19 75
REMARK SMILES IDX 23 76 20 77 22 78 21 79 24 80 25 81 26 82 27 83 30 84 28 85
REMARK SMILES IDX 29 86 31 87 32 88 33 89 34 90 38 91 35 92 37 93 36 94
REMARK H PARENT 86 28 60 39
REMARK Flexibility Score: inf
ROOT
ATOM      1  C   UNL A   1      34.418  32.246  28.987  1.00  0.00     0.188 C 
ENDROOT
BRANCH   1   2
ATOM      2  O   UNL A   1      35.484  33.165  29.020  1.00  0.00    -0.377 OA
BRANCH   2   3
ATOM      3  C   UNL A   1      35.132  34.452  28.542  1.00  0.00     0.188 C 
BRANCH   3   4
ATOM      4  C   UNL A   1      33.637  34.730  28.277  1.00  0.00     0.188 C 
BRANCH   4   5
ATOM      5  O   UNL A   1      32.683  35.221  29.209  1.00  0.00    -0.376 OA
BRANCH   5   6
ATOM      6  C   UNL A   1      32.755  36.315  30.097  1.00  0.00     0.202 C 
BRANCH   6   7
ATOM      7  C   UNL A   1      32.739  36.187  31.616  1.00  0.00     0.261 C 
BRANCH   7   8
ATOM      8  O   UNL A   1      33.561  35.162  32.150  1.00  0.00    -0.460 OA
BRANCH   8   9
ATOM      9  C   UNL A   1      34.566  35.267  33.038  1.00  0.00     0.338 C 
ATOM     10  O   UNL A   1      34.558  36.241  33.793  1.00  0.00    -0.246 OA
BRANCH   9  11
ATOM     11  C   UNL A   1      35.717  34.326  33.147  1.00  0.00     0.060 A 
ATOM     12  C   UNL A   1      37.052  34.654  33.378  1.00  0.00     0.016 A 
ATOM     13  C   UNL A   1      35.383  32.972  32.937  1.00  0.00     0.016 A 
ATOM     14  C   UNL A   1      38.038  33.710  33.160  1.00  0.00     0.010 A 
ATOM     15  C   UNL A   1      36.361  32.015  32.754  1.00  0.00     0.010 A 
ATOM     16  C   UNL A   1      37.683  32.420  32.766  1.00  0.00    -0.014 A 
BRANCH  16  17
ATOM     17  C   UNL A   1      38.758  31.511  32.430  1.00  0.00     0.031 A 
ATOM     18  C   UNL A   1      39.591  31.131  33.593  1.00  0.00     0.074 A 
ATOM     19  C   UNL A   1      38.980  31.085  31.172  1.00  0.00     0.049 A 
ATOM     20  N   UNL A   1      40.790  31.535  33.849  1.00  0.00    -0.248 NA
ATOM     21  C   UNL A   1      38.962  30.377  34.686  1.00  0.00     0.031 C 
ATOM     22  C   UNL A   1      38.114  31.210  29.998  1.00  0.00     0.029 A 
ATOM     23  N   UNL A   1      40.039  30.377  30.693  1.00  0.00    -0.354 N 
ATOM     24  C   UNL A   1      41.156  30.902  35.030  1.00  0.00     0.074 A 
ATOM     25  C   UNL A   1      39.948  30.351  35.585  1.00  0.00     0.031 C 
ATOM     26  C   UNL A   1      38.576  30.402  29.014  1.00  0.00     0.029 A 
ATOM     27  C   UNL A   1      39.842  29.826  29.432  1.00  0.00     0.049 A 
ATOM     28  H   UNL A   1      40.876  30.264  31.199  1.00  0.00     0.167 HD
ATOM     29  C   UNL A   1      42.468  30.670  35.304  1.00  0.00     0.037 A 
ATOM     30  C   UNL A   1      40.651  28.925  28.817  1.00  0.00     0.037 A 
ATOM     31  C   UNL A   1      43.318  31.539  34.524  1.00  0.00     0.049 A 
ATOM     32  C   UNL A   1      41.987  29.012  29.460  1.00  0.00     0.074 A 
ATOM     33  C   UNL A   1      43.455  32.909  34.404  1.00  0.00     0.029 A 
ATOM     34  N   UNL A   1      43.934  31.005  33.420  1.00  0.00    -0.354 N 
ATOM     35  N   UNL A   1      42.786  30.032  29.325  1.00  0.00    -0.248 NA
ATOM     36  C   UNL A   1      42.223  28.184  30.634  1.00  0.00     0.031 C 
ATOM     37  C   UNL A   1      43.697  33.135  33.016  1.00  0.00     0.029 A 
ATOM     38  C   UNL A   1      43.778  31.892  32.387  1.00  0.00     0.049 A 
ATOM     39  H   UNL A   1      44.405  30.141  33.377  1.00  0.00     0.167 HD
ATOM     40  C   UNL A   1      43.299  30.243  30.595  1.00  0.00     0.074 A 
ATOM     41  C   UNL A   1      42.978  29.027  31.342  1.00  0.00     0.031 C 
ATOM     42  C   UNL A   1      43.670  31.492  31.006  1.00  0.00     0.037 A 
BRANCH  29  43
ATOM     43  C   UNL A   1      42.977  29.385  35.915  1.00  0.00     0.057 A 
ATOM     44  C   UNL A   1      43.933  29.456  36.945  1.00  0.00     0.134 A 
ATOM     45  C   UNL A   1      42.825  28.110  35.330  1.00  0.00     0.134 A 
ATOM     46  F   UNL A   1      44.173  30.612  37.582  1.00  0.00    -0.206 F 
ATOM     47  C   UNL A   1      44.748  28.371  37.289  1.00  0.00     0.040 A 
ATOM     48  C   UNL A   1      43.601  27.009  35.699  1.00  0.00     0.040 A 
ATOM     49  F   UNL A   1      41.998  27.875  34.305  1.00  0.00    -0.206 F 
ATOM     50  C   UNL A   1      44.593  27.146  36.654  1.00  0.00     0.006 A 
ENDBRANCH  29  43
BRANCH  30  51
ATOM     51  C   UNL A   1      40.279  27.781  27.953  1.00  0.00     0.057 A 
ATOM     52  C   UNL A   1      40.888  27.589  26.703  1.00  0.00     0.134 A 
ATOM     53  C   UNL A   1      39.554  26.688  28.458  1.00  0.00     0.134 A 
ATOM     54  F   UNL A   1      41.636  28.558  26.154  1.00  0.00    -0.206 F 
ATOM     55  C   UNL A   1      40.810  26.372  26.012  1.00  0.00     0.040 A 
ATOM     56  C   UNL A   1      39.464  25.469  27.776  1.00  0.00     0.040 A 
ATOM     57  F   UNL A   1      38.989  26.734  29.673  1.00  0.00    -0.206 F 
ATOM     58  C   UNL A   1      40.107  25.302  26.557  1.00  0.00     0.006 A 
ENDBRANCH  30  51
BRANCH  42  59
ATOM     59  C   UNL A   1      43.770  32.575  29.968  1.00  0.00     0.057 A 
ATOM     60  C   UNL A   1      44.883  32.787  29.139  1.00  0.00     0.134 A 
ATOM     61  C   UNL A   1      42.638  33.357  29.716  1.00  0.00     0.134 A 
ATOM     62  F   UNL A   1      45.977  32.018  29.230  1.00  0.00    -0.206 F 
ATOM     63  C   UNL A   1      44.883  33.772  28.145  1.00  0.00     0.040 A 
ATOM     64  C   UNL A   1      42.611  34.317  28.704  1.00  0.00     0.040 A 
ATOM     65  F   UNL A   1      41.516  33.172  30.431  1.00  0.00    -0.206 F 
ATOM     66  C   UNL A   1      43.742  34.538  27.922  1.00  0.00     0.006 A 
ENDBRANCH  42  59
ENDBRANCH  16  17
ENDBRANCH   9  11
ENDBRANCH   8   9
ENDBRANCH   7   8
ENDBRANCH   6   7
ENDBRANCH   5   6
ENDBRANCH   4   5
ENDBRANCH   3   4
ENDBRANCH   2   3
ENDBRANCH   1   2
BRANCH   1  67
ATOM     67  C   UNL A   1      34.540  31.203  27.855  1.00  0.00     0.188 C 
BRANCH  67  68
ATOM     68  O   UNL A   1      35.139  29.934  28.073  1.00  0.00    -0.376 OA
BRANCH  68  69
ATOM     69  C   UNL A   1      34.995  28.869  27.147  1.00  0.00     0.202 C 
BRANCH  69  70
ATOM     70  C   UNL A   1      33.635  28.510  26.538  1.00  0.00     0.261 C 
BRANCH  70  71
ATOM     71  O   UNL A   1      33.297  27.123  26.542  1.00  0.00    -0.460 OA
BRANCH  71  72
ATOM     72  C   UNL A   1      32.066  26.786  27.013  1.00  0.00     0.338 C 
ATOM     73  O   UNL A   1      31.319  27.455  27.676  1.00  0.00    -0.246 OA
BRANCH  72  74
ATOM     74  C   UNL A   1      31.737  25.460  26.431  1.00  0.00     0.068 A 
ATOM     75  C   UNL A   1      32.237  24.313  27.065  1.00  0.00     0.016 A 
ATOM     76  C   UNL A   1      30.863  25.338  25.348  1.00  0.00     0.009 A 
ATOM     77  C   UNL A   1      31.861  23.046  26.619  1.00  0.00     0.001 A 
ATOM     78  C   UNL A   1      30.506  24.064  24.892  1.00  0.00     0.010 A 
ATOM     79  C   UNL A   1      31.007  22.922  25.524  1.00  0.00     0.001 A 
BRANCH  76  80
ATOM     80  C   UNL A   1      30.427  26.553  24.626  1.00  0.00     0.143 C 
ATOM     81  N   UNL A   1      29.571  26.532  23.656  1.00  0.00    -0.172 NA
BRANCH  81  82
ATOM     82  N   UNL A   1      29.423  27.721  22.972  1.00  0.00    -0.195 N 
ATOM     83  C   UNL A   1      28.314  28.532  22.852  1.00  0.00     0.251 A 
ATOM     84  C   UNL A   1      30.426  28.451  22.353  1.00  0.00     0.212 A 
ATOM     85  N   UNL A   1      28.607  29.642  22.219  1.00  0.00    -0.136 NA
ATOM     86  N   UNL A   1      29.936  29.583  21.891  1.00  0.00    -0.122 NA
BRANCH  84  87
ATOM     87  S   UNL A   1      32.109  28.055  22.239  1.00  0.00    -0.080 SA
BRANCH  87  88
ATOM     88  C   UNL A   1      32.230  26.399  21.553  1.00  0.00     0.113 C 
BRANCH  88  89
ATOM     89  C   UNL A   1      33.068  25.384  22.305  1.00  0.00    -0.038 A 
ATOM     90  C   UNL A   1      33.905  25.723  23.379  1.00  0.00     0.004 A 
ATOM     91  C   UNL A   1      32.939  24.022  22.002  1.00  0.00     0.004 A 
ATOM     92  C   UNL A   1      34.517  24.755  24.176  1.00  0.00     0.000 A 
ATOM     93  C   UNL A   1      33.585  23.048  22.770  1.00  0.00     0.000 A 
ATOM     94  C   UNL A   1      34.354  23.413  23.872  1.00  0.00     0.000 A 
ENDBRANCH  88  89
ENDBRANCH  87  88
ENDBRANCH  84  87
ENDBRANCH  81  82
ENDBRANCH  76  80
ENDBRANCH  72  74
ENDBRANCH  71  72
ENDBRANCH  70  71
ENDBRANCH  69  70
ENDBRANCH  68  69
ENDBRANCH  67  68
ENDBRANCH   1  67
TORSDOF 25
ENDMDL
MODEL 3
REMARK VINA RESULT:      -9.7      3.392      8.652
REMARK SMILES O=C(OCCOCCOCCOCCOC(=O)c1ccccc1/C=N/n1cnnc1SCc1ccccc1)c1ccc(-c2c3nc(c(-c4c(F)cccc4F)c4ccc([nH]4)c(-c4c(F)cccc4F)c4nc(c(-c5c(F)cccc5F)c5ccc2[nH]5)C=C4)C=C3)cc1
REMARK SMILES IDX 10 1 9 2 8 3 7 4 6 5 5 6 4 7 3 8 2 9 1 10 39 11 40 12 92 13
REMARK SMILES IDX 41 14 91 15 42 16 43 17 44 18 85 19 45 20 90 21 84 22 86 23
REMARK SMILES IDX 46 24 89 25 83 26 82 27 47 29 73 30 56 31 72 32 57 33 60 34
REMARK SMILES IDX 71 35 87 36 58 37 59 38 70 40 88 41 61 42 48 43 49 44 54 45
REMARK SMILES IDX 50 46 51 47 53 48 55 49 52 50 74 51 75 52 80 53 76 54 77 55
REMARK SMILES IDX 79 56 81 57 78 58 62 59 63 60 68 61 64 62 65 63 67 64 69 65
REMARK SMILES IDX 66 66 11 67 12 68 13 69 14 70 15 71 16 72 17 73 18 74 19 75
REMARK SMILES IDX 23 76 20 77 22 78 21 79 24 80 25 81 26 82 27 83 30 84 28 85
REMARK SMILES IDX 29 86 31 87 32 88 33 89 34 90 38 91 35 92 37 93 36 94
REMARK H PARENT 86 28 60 39
REMARK Flexibility Score: inf
ROOT
ATOM      1  C   UNL A   1      36.734  23.467  25.805  1.00  0.00     0.188 C 
ENDROOT
BRANCH   1   2
ATOM      2  O   UNL A   1      37.532  22.309  25.756  1.00  0.00    -0.377 OA
BRANCH   2   3
ATOM      3  C   UNL A   1      38.860  22.521  26.203  1.00  0.00     0.188 C 
BRANCH   3   4
ATOM      4  C   UNL A   1      39.808  21.304  26.226  1.00  0.00     0.188 C 
BRANCH   4   5
ATOM      5  O   UNL A   1      40.604  20.864  27.317  1.00  0.00    -0.376 OA
BRANCH   5   6
ATOM      6  C   UNL A   1      41.992  20.622  27.394  1.00  0.00     0.202 C 
BRANCH   6   7
ATOM      7  C   UNL A   1      42.967  20.858  26.247  1.00  0.00     0.261 C 
BRANCH   7   8
ATOM      8  O   UNL A   1      43.527  22.159  26.180  1.00  0.00    -0.460 OA
BRANCH   8   9
ATOM      9  C   UNL A   1      43.007  23.271  25.628  1.00  0.00     0.338 C 
ATOM     10  O   UNL A   1      43.063  23.376  24.402  1.00  0.00    -0.246 OA
BRANCH   9  11
ATOM     11  C   UNL A   1      42.416  24.409  26.387  1.00  0.00     0.060 A 
ATOM     12  C   UNL A   1      41.421  25.283  25.951  1.00  0.00     0.016 A 
ATOM     13  C   UNL A   1      42.988  24.620  27.658  1.00  0.00     0.016 A 
ATOM     14  C   UNL A   1      41.187  26.457  26.643  1.00  0.00     0.010 A 
ATOM     15  C   UNL A   1      42.732  25.773  28.375  1.00  0.00     0.010 A 
ATOM     16  C   UNL A   1      41.910  26.727  27.805  1.00  0.00    -0.014 A 
BRANCH  16  17
ATOM     17  C   UNL A   1      41.715  28.024  28.418  1.00  0.00     0.031 A 
ATOM     18  C   UNL A   1      42.846  28.953  28.200  1.00  0.00     0.074 A 
ATOM     19  C   UNL A   1      40.617  28.328  29.136  1.00  0.00     0.049 A 
ATOM     20  N   UNL A   1      43.725  29.319  29.072  1.00  0.00    -0.248 NA
ATOM     21  C   UNL A   1      43.149  29.374  26.825  1.00  0.00     0.031 C 
ATOM     22  C   UNL A   1      39.357  27.589  29.239  1.00  0.00     0.029 A 
ATOM     23  N   UNL A   1      40.383  29.431  29.898  1.00  0.00    -0.354 N 
ATOM     24  C   UNL A   1      44.569  30.201  28.408  1.00  0.00     0.074 A 
ATOM     25  C   UNL A   1      44.279  30.061  27.006  1.00  0.00     0.031 C 
ATOM     26  C   UNL A   1      38.423  28.376  29.823  1.00  0.00     0.029 A 
ATOM     27  C   UNL A   1      39.055  29.606  30.269  1.00  0.00     0.049 A 
ATOM     28  H   UNL A   1      41.097  30.055  30.165  1.00  0.00     0.167 HD
ATOM     29  C   UNL A   1      45.246  31.153  29.104  1.00  0.00     0.037 A 
ATOM     30  C   UNL A   1      38.526  30.711  30.855  1.00  0.00     0.037 A 
ATOM     31  C   UNL A   1      45.337  30.803  30.502  1.00  0.00     0.049 A 
ATOM     32  C   UNL A   1      39.643  31.464  31.479  1.00  0.00     0.074 A 
ATOM     33  C   UNL A   1      45.866  29.736  31.203  1.00  0.00     0.029 A 
ATOM     34  N   UNL A   1      44.484  31.434  31.374  1.00  0.00    -0.354 N 
ATOM     35  N   UNL A   1      40.295  31.048  32.528  1.00  0.00    -0.248 NA
ATOM     36  C   UNL A   1      40.346  32.434  30.651  1.00  0.00     0.031 C 
ATOM     37  C   UNL A   1      44.943  29.497  32.264  1.00  0.00     0.029 A 
ATOM     38  C   UNL A   1      43.954  30.479  32.201  1.00  0.00     0.049 A 
ATOM     39  H   UNL A   1      44.289  32.399  31.401  1.00  0.00     0.167 HD
ATOM     40  C   UNL A   1      41.622  31.329  32.247  1.00  0.00     0.074 A 
ATOM     41  C   UNL A   1      41.585  32.253  31.114  1.00  0.00     0.031 C 
ATOM     42  C   UNL A   1      42.628  30.562  32.763  1.00  0.00     0.037 A 
BRANCH  29  43
ATOM     43  C   UNL A   1      45.420  32.573  28.619  1.00  0.00     0.057 A 
ATOM     44  C   UNL A   1      44.278  33.309  28.250  1.00  0.00     0.134 A 
ATOM     45  C   UNL A   1      46.646  33.125  28.193  1.00  0.00     0.134 A 
ATOM     46  F   UNL A   1      43.050  32.890  28.593  1.00  0.00    -0.206 F 
ATOM     47  C   UNL A   1      44.346  34.441  27.430  1.00  0.00     0.040 A 
ATOM     48  C   UNL A   1      46.728  34.282  27.414  1.00  0.00     0.040 A 
ATOM     49  F   UNL A   1      47.825  32.532  28.412  1.00  0.00    -0.206 F 
ATOM     50  C   UNL A   1      45.574  34.922  26.997  1.00  0.00     0.006 A 
ENDBRANCH  29  43
BRANCH  30  51
ATOM     51  C   UNL A   1      37.198  31.331  30.640  1.00  0.00     0.057 A 
ATOM     52  C   UNL A   1      36.218  31.312  31.646  1.00  0.00     0.134 A 
ATOM     53  C   UNL A   1      36.967  32.217  29.574  1.00  0.00     0.134 A 
ATOM     54  F   UNL A   1      36.366  30.529  32.725  1.00  0.00    -0.206 F 
ATOM     55  C   UNL A   1      35.095  32.149  31.610  1.00  0.00     0.040 A 
ATOM     56  C   UNL A   1      35.848  33.054  29.524  1.00  0.00     0.040 A 
ATOM     57  F   UNL A   1      37.869  32.368  28.593  1.00  0.00    -0.206 F 
ATOM     58  C   UNL A   1      34.915  33.035  30.553  1.00  0.00     0.006 A 
ENDBRANCH  30  51
BRANCH  42  59
ATOM     59  C   UNL A   1      42.283  29.587  33.854  1.00  0.00     0.057 A 
ATOM     60  C   UNL A   1      41.803  28.285  33.640  1.00  0.00     0.134 A 
ATOM     61  C   UNL A   1      42.568  29.944  35.176  1.00  0.00     0.134 A 
ATOM     62  F   UNL A   1      41.600  27.812  32.403  1.00  0.00    -0.206 F 
ATOM     63  C   UNL A   1      41.567  27.404  34.701  1.00  0.00     0.040 A 
ATOM     64  C   UNL A   1      42.373  29.063  36.240  1.00  0.00     0.040 A 
ATOM     65  F   UNL A   1      43.084  31.153  35.453  1.00  0.00    -0.206 F 
ATOM     66  C   UNL A   1      41.857  27.792  36.007  1.00  0.00     0.006 A 
ENDBRANCH  42  59
ENDBRANCH  16  17
ENDBRANCH   9  11
ENDBRANCH   8   9
ENDBRANCH   7   8
ENDBRANCH   6   7
ENDBRANCH   5   6
ENDBRANCH   4   5
ENDBRANCH   3   4
ENDBRANCH   2   3
ENDBRANCH   1   2
BRANCH   1  67
ATOM     67  C   UNL A   1      35.317  23.214  26.363  1.00  0.00     0.188 C 
BRANCH  67  68
ATOM     68  O   UNL A   1      34.166  23.285  25.535  1.00  0.00    -0.376 OA
BRANCH  68  69
ATOM     69  C   UNL A   1      33.114  24.202  25.791  1.00  0.00     0.202 C 
BRANCH  69  70
ATOM     70  C   UNL A   1      33.392  25.640  26.245  1.00  0.00     0.261 C 
BRANCH  70  71
ATOM     71  O   UNL A   1      32.672  26.662  25.555  1.00  0.00    -0.460 OA
BRANCH  71  72
ATOM     72  C   UNL A   1      33.405  27.641  24.959  1.00  0.00     0.338 C 
ATOM     73  O   UNL A   1      33.856  27.653  23.845  1.00  0.00    -0.246 OA
BRANCH  72  74
ATOM     74  C   UNL A   1      33.431  28.786  25.904  1.00  0.00     0.068 A 
ATOM     75  C   UNL A   1      34.571  28.962  26.703  1.00  0.00     0.016 A 
ATOM     76  C   UNL A   1      32.406  29.734  25.928  1.00  0.00     0.009 A 
ATOM     77  C   UNL A   1      34.685  30.086  27.522  1.00  0.00     0.001 A 
ATOM     78  C   UNL A   1      32.517  30.848  26.767  1.00  0.00     0.010 A 
ATOM     79  C   UNL A   1      33.653  31.020  27.564  1.00  0.00     0.001 A 
BRANCH  76  80
ATOM     80  C   UNL A   1      31.167  29.482  25.159  1.00  0.00     0.143 C 
ATOM     81  N   UNL A   1      31.009  29.853  23.930  1.00  0.00    -0.172 NA
BRANCH  81  82
ATOM     82  N   UNL A   1      29.732  29.709  23.427  1.00  0.00    -0.195 N 
ATOM     83  C   UNL A   1      28.902  30.650  22.856  1.00  0.00     0.251 A 
ATOM     84  C   UNL A   1      29.038  28.521  23.258  1.00  0.00     0.212 A 
ATOM     85  N   UNL A   1      27.810  30.096  22.390  1.00  0.00    -0.136 NA
ATOM     86  N   UNL A   1      27.889  28.755  22.657  1.00  0.00    -0.122 NA
BRANCH  84  87
ATOM     87  S   UNL A   1      29.564  26.920  23.659  1.00  0.00    -0.080 SA
BRANCH  87  88
ATOM     88  C   UNL A   1      30.914  26.501  22.551  1.00  0.00     0.113 C 
BRANCH  88  89
ATOM     89  C   UNL A   1      31.502  25.106  22.652  1.00  0.00    -0.038 A 
ATOM     90  C   UNL A   1      30.806  24.016  23.196  1.00  0.00     0.004 A 
ATOM     91  C   UNL A   1      32.758  24.845  22.087  1.00  0.00     0.004 A 
ATOM     92  C   UNL A   1      31.288  22.710  23.106  1.00  0.00     0.000 A 
ATOM     93  C   UNL A   1      33.266  23.543  22.033  1.00  0.00     0.000 A 
ATOM     94  C   UNL A   1      32.521  22.473  22.520  1.00  0.00     0.000 A 
ENDBRANCH  88  89
ENDBRANCH  87  88
ENDBRANCH  84  87
ENDBRANCH  81  82
ENDBRANCH  76  80
ENDBRANCH  72  74
ENDBRANCH  71  72
ENDBRANCH  70  71
ENDBRANCH  69  70
ENDBRANCH  68  69
ENDBRANCH  67  68
ENDBRANCH   1  67
TORSDOF 25
ENDMDL
