MODEL 1
REMARK VINA RESULT:     -10.4      0.000      0.000
REMARK SMILES C#CC[N@H+](CC(=O)OCCOCCOCCOCCOC(=O)c1ccc(-c2c3nc(c(-c4c(F)cccc4F)c4ccc([nH]4)c(-c4c(F)cccc4F)c4nc(c(-c5c(F)cccc5F)c5ccc2[nH]5)C=C4)C=C3)cc1)[C@H]1CC[C@@H](c2ccccc2)CC1
REMARK SMILES IDX 13 1 12 2 11 3 10 4 9 5 8 6 6 7 7 8 5 9 4 10 3 12 2 13 1 14
REMARK SMILES IDX 77 15 88 16 78 17 87 18 79 19 80 20 81 21 82 22 86 23 83 24
REMARK SMILES IDX 85 25 84 26 14 27 15 28 16 29 17 30 18 31 19 32 20 33 21 34
REMARK SMILES IDX 22 35 23 36 24 37 76 38 25 39 75 40 26 41 27 42 28 43 69 44
REMARK SMILES IDX 29 45 74 46 68 47 70 48 30 49 73 50 67 51 66 52 31 54 57 55
REMARK SMILES IDX 40 56 56 57 41 58 44 59 55 60 71 61 42 62 43 63 54 65 72 66
REMARK SMILES IDX 45 67 32 68 33 69 38 70 34 71 35 72 37 73 39 74 36 75 58 76
REMARK SMILES IDX 59 77 64 78 60 79 61 80 63 81 65 82 62 83 46 84 47 85 52 86
REMARK SMILES IDX 48 87 49 88 51 89 53 90 50 91
REMARK H PARENT 4 11 70 53 44 64
REMARK Flexibility Score: inf
ROOT
ATOM      1  C   UNL A   1      40.983  19.567  26.331  1.00  0.00     0.188 C 
ENDROOT
BRANCH   1   2
ATOM      2  C   UNL A   1      40.542  21.009  26.112  1.00  0.00     0.188 C 
BRANCH   2   3
ATOM      3  O   UNL A   1      39.247  21.281  25.614  1.00  0.00    -0.376 OA
BRANCH   3   4
ATOM      4  C   UNL A   1      38.600  22.446  26.094  1.00  0.00     0.202 C 
BRANCH   4   5
ATOM      5  C   UNL A   1      37.237  22.776  25.450  1.00  0.00     0.261 C 
BRANCH   5   6
ATOM      6  O   UNL A   1      36.690  21.754  24.573  1.00  0.00    -0.459 OA
BRANCH   6   7
ATOM      7  C   UNL A   1      35.341  21.544  24.555  1.00  0.00     0.361 C 
ATOM      8  O   UNL A   1      34.831  20.475  24.881  1.00  0.00    -0.245 OA
BRANCH   7   9
ATOM      9  C   UNL A   1      34.467  22.762  24.083  1.00  0.00     0.387 C 
BRANCH   9  10
ATOM     10  N   UNL A   1      33.003  22.553  23.989  1.00  0.00    -0.313 N 
ATOM     11  H   UNL A   1      32.949  21.828  23.274  1.00  0.00     0.349 HD
BRANCH  10  12
ATOM     12  C   UNL A   1      32.411  22.066  25.230  1.00  0.00     0.354 C 
BRANCH  12  13
ATOM     13  C   UNL A   1      31.590  23.009  26.094  1.00  0.00    -0.047 C 
ATOM     14  C   UNL A   1      30.885  23.819  26.834  1.00  0.00     0.010 C 
ENDBRANCH  12  13
ENDBRANCH  10  12
BRANCH  10  15
ATOM     15  C   UNL A   1      32.157  23.120  22.903  1.00  0.00     0.185 C 
ATOM     16  C   UNL A   1      30.699  23.499  23.254  1.00  0.00     0.066 C 
ATOM     17  C   UNL A   1      32.884  24.273  22.188  1.00  0.00     0.066 C 
ATOM     18  C   UNL A   1      30.225  24.942  22.949  1.00  0.00     0.014 C 
ATOM     19  C   UNL A   1      32.285  25.587  21.816  1.00  0.00     0.014 C 
ATOM     20  C   UNL A   1      31.269  26.079  22.828  1.00  0.00     0.019 C 
BRANCH  20  21
ATOM     21  C   UNL A   1      31.658  26.919  24.096  1.00  0.00    -0.045 A 
ATOM     22  C   UNL A   1      30.988  28.591  24.261  1.00  0.00     0.004 A 
ATOM     23  C   UNL A   1      32.970  26.475  25.262  1.00  0.00     0.004 A 
ATOM     24  C   UNL A   1      31.585  29.735  25.512  1.00  0.00     0.000 A 
ATOM     25  C   UNL A   1      33.619  27.608  26.531  1.00  0.00     0.000 A 
ATOM     26  C   UNL A   1      32.882  29.232  26.657  1.00  0.00     0.000 A 
ENDBRANCH  20  21
ENDBRANCH  10  15
ENDBRANCH   9  10
ENDBRANCH   7   9
ENDBRANCH   6   7
ENDBRANCH   5   6
ENDBRANCH   4   5
ENDBRANCH   3   4
ENDBRANCH   2   3
ENDBRANCH   1   2
BRANCH   1  27
ATOM     27  O   UNL A   1      42.177  19.131  26.948  1.00  0.00    -0.377 OA
BRANCH  27  28
ATOM     28  C   UNL A   1      43.236  18.527  26.065  1.00  0.00     0.188 C 
BRANCH  28  29
ATOM     29  C   UNL A   1      44.657  19.416  24.631  1.00  0.00     0.188 C 
BRANCH  29  30
ATOM     30  O   UNL A   1      45.958  20.196  24.922  1.00  0.00    -0.376 OA
BRANCH  30  31
ATOM     31  C   UNL A   1      46.241  21.513  24.422  1.00  0.00     0.202 C 
BRANCH  31  32
ATOM     32  C   UNL A   1      45.777  22.985  24.868  1.00  0.00     0.261 C 
BRANCH  32  33
ATOM     33  O   UNL A   1      44.420  23.502  24.773  1.00  0.00    -0.460 OA
BRANCH  33  34
ATOM     34  C   UNL A   1      43.535  23.306  25.806  1.00  0.00     0.338 C 
ATOM     35  O   UNL A   1      43.644  22.357  26.577  1.00  0.00    -0.246 OA
BRANCH  34  36
ATOM     36  C   UNL A   1      42.466  24.395  26.116  1.00  0.00     0.060 A 
ATOM     37  C   UNL A   1      42.516  25.743  25.745  1.00  0.00     0.016 A 
ATOM     38  C   UNL A   1      41.568  24.133  27.152  1.00  0.00     0.016 A 
ATOM     39  C   UNL A   1      42.168  26.777  26.620  1.00  0.00     0.010 A 
ATOM     40  C   UNL A   1      40.988  25.185  27.904  1.00  0.00     0.010 A 
ATOM     41  C   UNL A   1      41.414  26.519  27.749  1.00  0.00    -0.014 A 
BRANCH  41  42
ATOM     42  C   UNL A   1      41.170  27.565  28.801  1.00  0.00     0.031 A 
ATOM     43  C   UNL A   1      42.074  27.582  30.016  1.00  0.00     0.074 A 
ATOM     44  C   UNL A   1      40.231  28.535  28.706  1.00  0.00     0.049 A 
ATOM     45  N   UNL A   1      41.902  28.148  31.184  1.00  0.00    -0.248 NA
ATOM     46  C   UNL A   1      43.339  26.837  29.900  1.00  0.00     0.031 C 
ATOM     47  C   UNL A   1      39.363  28.798  27.556  1.00  0.00     0.029 A 
ATOM     48  N   UNL A   1      39.841  29.492  29.622  1.00  0.00    -0.354 N 
ATOM     49  C   UNL A   1      42.984  27.750  31.962  1.00  0.00     0.074 A 
ATOM     50  C   UNL A   1      43.803  26.890  31.137  1.00  0.00     0.031 C 
ATOM     51  C   UNL A   1      38.560  29.839  27.827  1.00  0.00     0.029 A 
ATOM     52  C   UNL A   1      38.764  30.248  29.212  1.00  0.00     0.049 A 
ATOM     53  H   UNL A   1      40.290  29.622  30.489  1.00  0.00     0.167 HD
ATOM     54  C   UNL A   1      43.269  28.063  33.250  1.00  0.00     0.037 A 
ATOM     55  C   UNL A   1      37.976  31.115  29.881  1.00  0.00     0.037 A 
ATOM     56  C   UNL A   1      42.487  28.969  34.052  1.00  0.00     0.049 A 
ATOM     57  C   UNL A   1      38.238  31.369  31.343  1.00  0.00     0.074 A 
ATOM     58  C   UNL A   1      42.680  29.339  35.371  1.00  0.00     0.029 A 
ATOM     59  N   UNL A   1      41.372  29.658  33.603  1.00  0.00    -0.354 N 
ATOM     60  N   UNL A   1      39.195  30.904  32.108  1.00  0.00    -0.248 NA
ATOM     61  C   UNL A   1      37.294  32.256  32.040  1.00  0.00     0.031 C 
ATOM     62  C   UNL A   1      41.644  30.204  35.738  1.00  0.00     0.029 A 
ATOM     63  C   UNL A   1      40.851  30.433  34.626  1.00  0.00     0.049 A 
ATOM     64  H   UNL A   1      41.004  29.604  32.691  1.00  0.00     0.167 HD
ATOM     65  C   UNL A   1      38.991  31.469  33.362  1.00  0.00     0.074 A 
ATOM     66  C   UNL A   1      37.829  32.324  33.251  1.00  0.00     0.031 C 
ATOM     67  C   UNL A   1      39.702  31.294  34.503  1.00  0.00     0.037 A 
BRANCH  54  68
ATOM     68  C   UNL A   1      44.439  27.368  33.891  1.00  0.00     0.057 A 
ATOM     69  C   UNL A   1      44.331  26.119  34.517  1.00  0.00     0.134 A 
ATOM     70  C   UNL A   1      45.705  27.971  33.878  1.00  0.00     0.134 A 
ATOM     71  F   UNL A   1      43.147  25.491  34.583  1.00  0.00    -0.206 F 
ATOM     72  C   UNL A   1      45.427  25.517  35.141  1.00  0.00     0.040 A 
ATOM     73  C   UNL A   1      46.815  27.362  34.465  1.00  0.00     0.040 A 
ATOM     74  F   UNL A   1      45.886  29.163  33.289  1.00  0.00    -0.206 F 
ATOM     75  C   UNL A   1      46.675  26.136  35.110  1.00  0.00     0.006 A 
ENDBRANCH  54  68
BRANCH  55  76
ATOM     76  C   UNL A   1      36.809  31.758  29.210  1.00  0.00     0.057 A 
ATOM     77  C   UNL A   1      35.622  31.053  28.977  1.00  0.00     0.134 A 
ATOM     78  C   UNL A   1      36.870  33.076  28.734  1.00  0.00     0.134 A 
ATOM     79  F   UNL A   1      35.506  29.776  29.374  1.00  0.00    -0.206 F 
ATOM     80  C   UNL A   1      34.551  31.621  28.281  1.00  0.00     0.040 A 
ATOM     81  C   UNL A   1      35.794  33.670  28.069  1.00  0.00     0.040 A 
ATOM     82  F   UNL A   1      37.977  33.811  28.911  1.00  0.00    -0.206 F 
ATOM     83  C   UNL A   1      34.633  32.938  27.832  1.00  0.00     0.006 A 
ENDBRANCH  55  76
BRANCH  67  84
ATOM     84  C   UNL A   1      39.288  32.095  35.706  1.00  0.00     0.057 A 
ATOM     85  C   UNL A   1      39.729  33.407  35.924  1.00  0.00     0.134 A 
ATOM     86  C   UNL A   1      38.409  31.548  36.652  1.00  0.00     0.134 A 
ATOM     87  F   UNL A   1      40.580  33.989  35.065  1.00  0.00    -0.206 F 
ATOM     88  C   UNL A   1      39.344  34.130  37.055  1.00  0.00     0.040 A 
ATOM     89  C   UNL A   1      37.987  32.274  37.766  1.00  0.00     0.040 A 
ATOM     90  F   UNL A   1      37.936  30.301  36.502  1.00  0.00    -0.206 F 
ATOM     91  C   UNL A   1      38.464  33.565  37.975  1.00  0.00     0.006 A 
ENDBRANCH  67  84
ENDBRANCH  41  42
ENDBRANCH  34  36
ENDBRANCH  33  34
ENDBRANCH  32  33
ENDBRANCH  31  32
ENDBRANCH  30  31
ENDBRANCH  29  30
ENDBRANCH  28  29
ENDBRANCH  27  28
ENDBRANCH   1  27
TORSDOF 25
ENDMDL
MODEL 2
REMARK VINA RESULT:      -9.7      7.115     10.634
REMARK SMILES C#CC[N@H+](CC(=O)OCCOCCOCCOCCOC(=O)c1ccc(-c2c3nc(c(-c4c(F)cccc4F)c4ccc([nH]4)c(-c4c(F)cccc4F)c4nc(c(-c5c(F)cccc5F)c5ccc2[nH]5)C=C4)C=C3)cc1)[C@H]1CC[C@@H](c2ccccc2)CC1
REMARK SMILES IDX 13 1 12 2 11 3 10 4 9 5 8 6 6 7 7 8 5 9 4 10 3 12 2 13 1 14
REMARK SMILES IDX 77 15 88 16 78 17 87 18 79 19 80 20 81 21 82 22 86 23 83 24
REMARK SMILES IDX 85 25 84 26 14 27 15 28 16 29 17 30 18 31 19 32 20 33 21 34
REMARK SMILES IDX 22 35 23 36 24 37 76 38 25 39 75 40 26 41 27 42 28 43 69 44
REMARK SMILES IDX 29 45 74 46 68 47 70 48 30 49 73 50 67 51 66 52 31 54 57 55
REMARK SMILES IDX 40 56 56 57 41 58 44 59 55 60 71 61 42 62 43 63 54 65 72 66
REMARK SMILES IDX 45 67 32 68 33 69 38 70 34 71 35 72 37 73 39 74 36 75 58 76
REMARK SMILES IDX 59 77 64 78 60 79 61 80 63 81 65 82 62 83 46 84 47 85 52 86
REMARK SMILES IDX 48 87 49 88 51 89 53 90 50 91
REMARK H PARENT 4 11 70 53 44 64
REMARK Flexibility Score: inf
ROOT
ATOM      1  C   UNL A   1      40.889  20.300  27.411  1.00  0.00     0.188 C 
ENDROOT
BRANCH   1   2
ATOM      2  C   UNL A   1      40.579  21.763  27.117  1.00  0.00     0.188 C 
BRANCH   2   3
ATOM      3  O   UNL A   1      39.345  22.115  26.524  1.00  0.00    -0.376 OA
BRANCH   3   4
ATOM      4  C   UNL A   1      38.885  23.440  26.723  1.00  0.00     0.202 C 
BRANCH   4   5
ATOM      5  C   UNL A   1      37.709  23.888  25.831  1.00  0.00     0.261 C 
BRANCH   5   6
ATOM      6  O   UNL A   1      36.777  22.843  25.444  1.00  0.00    -0.459 OA
BRANCH   6   7
ATOM      7  C   UNL A   1      35.437  23.106  25.456  1.00  0.00     0.361 C 
ATOM      8  O   UNL A   1      34.872  23.631  26.413  1.00  0.00    -0.245 OA
BRANCH   7   9
ATOM      9  C   UNL A   1      34.649  22.690  24.162  1.00  0.00     0.387 C 
BRANCH   9  10
ATOM     10  N   UNL A   1      33.699  21.557  24.279  1.00  0.00    -0.313 N 
ATOM     11  H   UNL A   1      33.403  21.443  23.309  1.00  0.00     0.349 HD
BRANCH  10  12
ATOM     12  C   UNL A   1      34.328  20.328  24.749  1.00  0.00     0.354 C 
BRANCH  12  13
ATOM     13  C   UNL A   1      33.551  19.022  24.707  1.00  0.00    -0.047 C 
ATOM     14  C   UNL A   1      32.884  17.902  24.671  1.00  0.00     0.010 C 
ENDBRANCH  12  13
ENDBRANCH  10  12
BRANCH  10  15
ATOM     15  C   UNL A   1      32.220  21.718  24.288  1.00  0.00     0.185 C 
ATOM     16  C   UNL A   1      31.537  21.994  25.648  1.00  0.00     0.066 C 
ATOM     17  C   UNL A   1      31.772  22.729  23.216  1.00  0.00     0.066 C 
ATOM     18  C   UNL A   1      30.626  23.241  25.770  1.00  0.00     0.014 C 
ATOM     19  C   UNL A   1      30.774  23.820  23.405  1.00  0.00     0.014 C 
ATOM     20  C   UNL A   1      30.821  24.428  24.793  1.00  0.00     0.019 C 
BRANCH  20  21
ATOM     21  C   UNL A   1      31.784  25.606  25.182  1.00  0.00    -0.045 A 
ATOM     22  C   UNL A   1      31.330  26.665  26.577  1.00  0.00     0.004 A 
ATOM     23  C   UNL A   1      33.159  26.192  24.161  1.00  0.00     0.004 A 
ATOM     24  C   UNL A   1      32.198  28.198  26.928  1.00  0.00     0.000 A 
ATOM     25  C   UNL A   1      34.054  27.747  24.468  1.00  0.00     0.000 A 
ATOM     26  C   UNL A   1      33.572  28.722  25.888  1.00  0.00     0.000 A 
ENDBRANCH  20  21
ENDBRANCH  10  15
ENDBRANCH   9  10
ENDBRANCH   7   9
ENDBRANCH   6   7
ENDBRANCH   5   6
ENDBRANCH   4   5
ENDBRANCH   3   4
ENDBRANCH   2   3
ENDBRANCH   1   2
BRANCH   1  27
ATOM     27  O   UNL A   1      42.127  19.766  27.836  1.00  0.00    -0.377 OA
BRANCH  27  28
ATOM     28  C   UNL A   1      42.713  18.642  27.025  1.00  0.00     0.188 C 
BRANCH  28  29
ATOM     29  C   UNL A   1      43.794  18.605  25.103  1.00  0.00     0.188 C 
BRANCH  29  30
ATOM     30  O   UNL A   1      45.306  18.782  24.845  1.00  0.00    -0.376 OA
BRANCH  30  31
ATOM     31  C   UNL A   1      45.928  20.032  24.504  1.00  0.00     0.202 C 
BRANCH  31  32
ATOM     32  C   UNL A   1      45.940  21.481  25.196  1.00  0.00     0.261 C 
BRANCH  32  33
ATOM     33  O   UNL A   1      44.927  22.509  25.008  1.00  0.00    -0.460 OA
BRANCH  33  34
ATOM     34  C   UNL A   1      44.343  23.106  26.099  1.00  0.00     0.338 C 
ATOM     35  O   UNL A   1      43.925  22.448  27.048  1.00  0.00    -0.246 OA
BRANCH  34  36
ATOM     36  C   UNL A   1      44.354  24.658  26.222  1.00  0.00     0.060 A 
ATOM     37  C   UNL A   1      44.428  25.578  25.170  1.00  0.00     0.016 A 
ATOM     38  C   UNL A   1      44.694  25.200  27.463  1.00  0.00     0.016 A 
ATOM     39  C   UNL A   1      45.250  26.708  25.216  1.00  0.00     0.010 A 
ATOM     40  C   UNL A   1      45.303  26.475  27.565  1.00  0.00     0.010 A 
ATOM     41  C   UNL A   1      45.739  27.174  26.422  1.00  0.00    -0.014 A 
BRANCH  41  42
ATOM     42  C   UNL A   1      46.763  28.272  26.496  1.00  0.00     0.031 A 
ATOM     43  C   UNL A   1      46.274  29.697  26.653  1.00  0.00     0.074 A 
ATOM     44  C   UNL A   1      48.100  28.066  26.492  1.00  0.00     0.049 A 
ATOM     45  N   UNL A   1      46.896  30.828  26.433  1.00  0.00    -0.248 NA
ATOM     46  C   UNL A   1      44.881  29.864  27.101  1.00  0.00     0.031 C 
ATOM     47  C   UNL A   1      48.783  26.771  26.508  1.00  0.00     0.029 A 
ATOM     48  N   UNL A   1      49.143  28.972  26.463  1.00  0.00    -0.354 N 
ATOM     49  C   UNL A   1      45.946  31.827  26.624  1.00  0.00     0.074 A 
ATOM     50  C   UNL A   1      44.706  31.169  26.971  1.00  0.00     0.031 C 
ATOM     51  C   UNL A   1      50.112  26.962  26.499  1.00  0.00     0.029 A 
ATOM     52  C   UNL A   1      50.385  28.387  26.355  1.00  0.00     0.049 A 
ATOM     53  H   UNL A   1      49.010  29.947  26.514  1.00  0.00     0.167 HD
ATOM     54  C   UNL A   1      46.088  33.171  26.513  1.00  0.00     0.037 A 
ATOM     55  C   UNL A   1      51.600  28.914  26.094  1.00  0.00     0.037 A 
ATOM     56  C   UNL A   1      47.337  33.829  26.229  1.00  0.00     0.049 A 
ATOM     57  C   UNL A   1      51.724  30.398  25.863  1.00  0.00     0.074 A 
ATOM     58  C   UNL A   1      47.585  35.182  26.079  1.00  0.00     0.029 A 
ATOM     59  N   UNL A   1      48.552  33.181  26.068  1.00  0.00    -0.354 N 
ATOM     60  N   UNL A   1      50.804  31.328  25.933  1.00  0.00    -0.248 NA
ATOM     61  C   UNL A   1      53.057  30.901  25.498  1.00  0.00     0.031 C 
ATOM     62  C   UNL A   1      48.937  35.347  25.764  1.00  0.00     0.029 A 
ATOM     63  C   UNL A   1      49.548  34.104  25.796  1.00  0.00     0.049 A 
ATOM     64  H   UNL A   1      48.686  32.208  26.138  1.00  0.00     0.167 HD
ATOM     65  C   UNL A   1      51.451  32.528  25.657  1.00  0.00     0.074 A 
ATOM     66  C   UNL A   1      52.845  32.208  25.435  1.00  0.00     0.031 C 
ATOM     67  C   UNL A   1      50.937  33.780  25.592  1.00  0.00     0.037 A 
BRANCH  54  68
ATOM     68  C   UNL A   1      44.847  34.011  26.633  1.00  0.00     0.057 A 
ATOM     69  C   UNL A   1      44.415  34.560  27.847  1.00  0.00     0.134 A 
ATOM     70  C   UNL A   1      44.066  34.273  25.498  1.00  0.00     0.134 A 
ATOM     71  F   UNL A   1      45.102  34.337  28.977  1.00  0.00    -0.206 F 
ATOM     72  C   UNL A   1      43.234  35.303  27.936  1.00  0.00     0.040 A 
ATOM     73  C   UNL A   1      42.905  35.044  25.566  1.00  0.00     0.040 A 
ATOM     74  F   UNL A   1      44.422  33.787  24.299  1.00  0.00    -0.206 F 
ATOM     75  C   UNL A   1      42.479  35.552  26.791  1.00  0.00     0.006 A 
ENDBRANCH  54  68
BRANCH  55  76
ATOM     76  C   UNL A   1      52.797  28.034  25.955  1.00  0.00     0.057 A 
ATOM     77  C   UNL A   1      53.636  27.768  27.044  1.00  0.00     0.134 A 
ATOM     78  C   UNL A   1      53.165  27.483  24.719  1.00  0.00     0.134 A 
ATOM     79  F   UNL A   1      53.364  28.291  28.249  1.00  0.00    -0.206 F 
ATOM     80  C   UNL A   1      54.801  27.008  26.908  1.00  0.00     0.040 A 
ATOM     81  C   UNL A   1      54.307  26.692  24.575  1.00  0.00     0.040 A 
ATOM     82  F   UNL A   1      52.416  27.702  23.628  1.00  0.00    -0.206 F 
ATOM     83  C   UNL A   1      55.136  26.461  25.671  1.00  0.00     0.006 A 
ENDBRANCH  55  76
BRANCH  67  84
ATOM     84  C   UNL A   1      51.896  34.910  25.338  1.00  0.00     0.057 A 
ATOM     85  C   UNL A   1      52.406  35.708  26.371  1.00  0.00     0.134 A 
ATOM     86  C   UNL A   1      52.335  35.186  24.036  1.00  0.00     0.134 A 
ATOM     87  F   UNL A   1      52.020  35.506  27.640  1.00  0.00    -0.206 F 
ATOM     88  C   UNL A   1      53.286  36.762  26.114  1.00  0.00     0.040 A 
ATOM     89  C   UNL A   1      53.243  36.212  23.771  1.00  0.00     0.040 A 
ATOM     90  F   UNL A   1      51.899  34.455  22.999  1.00  0.00    -0.206 F 
ATOM     91  C   UNL A   1      53.712  37.010  24.811  1.00  0.00     0.006 A 
ENDBRANCH  67  84
ENDBRANCH  41  42
ENDBRANCH  34  36
ENDBRANCH  33  34
ENDBRANCH  32  33
ENDBRANCH  31  32
ENDBRANCH  30  31
ENDBRANCH  29  30
ENDBRANCH  28  29
ENDBRANCH  27  28
ENDBRANCH   1  27
TORSDOF 25
ENDMDL
MODEL 3
REMARK VINA RESULT:      -9.4      3.206      6.682
REMARK SMILES C#CC[N@H+](CC(=O)OCCOCCOCCOCCOC(=O)c1ccc(-c2c3nc(c(-c4c(F)cccc4F)c4ccc([nH]4)c(-c4c(F)cccc4F)c4nc(c(-c5c(F)cccc5F)c5ccc2[nH]5)C=C4)C=C3)cc1)[C@H]1CC[C@@H](c2ccccc2)CC1
REMARK SMILES IDX 13 1 12 2 11 3 10 4 9 5 8 6 6 7 7 8 5 9 4 10 3 12 2 13 1 14
REMARK SMILES IDX 77 15 88 16 78 17 87 18 79 19 80 20 81 21 82 22 86 23 83 24
REMARK SMILES IDX 85 25 84 26 14 27 15 28 16 29 17 30 18 31 19 32 20 33 21 34
REMARK SMILES IDX 22 35 23 36 24 37 76 38 25 39 75 40 26 41 27 42 28 43 69 44
REMARK SMILES IDX 29 45 74 46 68 47 70 48 30 49 73 50 67 51 66 52 31 54 57 55
REMARK SMILES IDX 40 56 56 57 41 58 44 59 55 60 71 61 42 62 43 63 54 65 72 66
REMARK SMILES IDX 45 67 32 68 33 69 38 70 34 71 35 72 37 73 39 74 36 75 58 76
REMARK SMILES IDX 59 77 64 78 60 79 61 80 63 81 65 82 62 83 46 84 47 85 52 86
REMARK SMILES IDX 48 87 49 88 51 89 53 90 50 91
REMARK H PARENT 4 11 70 53 44 64
REMARK Flexibility Score: inf
ROOT
ATOM      1  C   UNL A   1      40.978  20.296  27.060  1.00  0.00     0.188 C 
ENDROOT
BRANCH   1   2
ATOM      2  C   UNL A   1      40.545  21.747  26.890  1.00  0.00     0.188 C 
BRANCH   2   3
ATOM      3  O   UNL A   1      39.350  22.049  26.197  1.00  0.00    -0.376 OA
BRANCH   3   4
ATOM      4  C   UNL A   1      38.827  23.356  26.346  1.00  0.00     0.202 C 
BRANCH   4   5
ATOM      5  C   UNL A   1      37.394  23.575  25.817  1.00  0.00     0.261 C 
BRANCH   5   6
ATOM      6  O   UNL A   1      36.374  22.704  26.377  1.00  0.00    -0.459 OA
BRANCH   6   7
ATOM      7  C   UNL A   1      35.058  23.020  26.200  1.00  0.00     0.361 C 
ATOM      8  O   UNL A   1      34.331  23.380  27.123  1.00  0.00    -0.245 OA
BRANCH   7   9
ATOM      9  C   UNL A   1      34.517  22.890  24.730  1.00  0.00     0.387 C 
BRANCH   9  10
ATOM     10  N   UNL A   1      33.558  21.794  24.453  1.00  0.00    -0.313 N 
ATOM     11  H   UNL A   1      33.315  21.982  23.480  1.00  0.00     0.349 HD
BRANCH  10  12
ATOM     12  C   UNL A   1      34.155  20.467  24.564  1.00  0.00     0.354 C 
BRANCH  12  13
ATOM     13  C   UNL A   1      33.287  19.283  24.958  1.00  0.00    -0.047 C 
ATOM     14  C   UNL A   1      32.542  18.267  25.296  1.00  0.00     0.010 C 
ENDBRANCH  12  13
ENDBRANCH  10  12
BRANCH  10  15
ATOM     15  C   UNL A   1      32.081  21.975  24.434  1.00  0.00     0.185 C 
ATOM     16  C   UNL A   1      31.387  22.346  25.766  1.00  0.00     0.066 C 
ATOM     17  C   UNL A   1      31.660  22.921  23.295  1.00  0.00     0.066 C 
ATOM     18  C   UNL A   1      30.493  23.611  25.797  1.00  0.00     0.014 C 
ATOM     19  C   UNL A   1      30.675  24.036  23.403  1.00  0.00     0.014 C 
ATOM     20  C   UNL A   1      30.716  24.730  24.750  1.00  0.00     0.019 C 
BRANCH  20  21
ATOM     21  C   UNL A   1      31.691  25.918  25.074  1.00  0.00    -0.045 A 
ATOM     22  C   UNL A   1      31.351  26.939  26.528  1.00  0.00     0.004 A 
ATOM     23  C   UNL A   1      32.956  26.549  23.943  1.00  0.00     0.004 A 
ATOM     24  C   UNL A   1      32.223  28.480  26.832  1.00  0.00     0.000 A 
ATOM     25  C   UNL A   1      33.850  28.114  24.201  1.00  0.00     0.000 A 
ATOM     26  C   UNL A   1      33.485  29.051  25.680  1.00  0.00     0.000 A 
ENDBRANCH  20  21
ENDBRANCH  10  15
ENDBRANCH   9  10
ENDBRANCH   7   9
ENDBRANCH   6   7
ENDBRANCH   5   6
ENDBRANCH   4   5
ENDBRANCH   3   4
ENDBRANCH   2   3
ENDBRANCH   1   2
BRANCH   1  27
ATOM     27  O   UNL A   1      42.190  19.834  27.621  1.00  0.00    -0.377 OA
BRANCH  27  28
ATOM     28  C   UNL A   1      42.922  18.740  26.891  1.00  0.00     0.188 C 
BRANCH  28  29
ATOM     29  C   UNL A   1      43.960  18.691  24.945  1.00  0.00     0.188 C 
BRANCH  29  30
ATOM     30  O   UNL A   1      45.472  18.810  24.658  1.00  0.00    -0.376 OA
BRANCH  30  31
ATOM     31  C   UNL A   1      46.140  20.041  24.332  1.00  0.00     0.202 C 
BRANCH  31  32
ATOM     32  C   UNL A   1      46.011  21.544  24.883  1.00  0.00     0.261 C 
BRANCH  32  33
ATOM     33  O   UNL A   1      45.476  22.669  24.132  1.00  0.00    -0.460 OA
BRANCH  33  34
ATOM     34  C   UNL A   1      44.220  23.149  24.413  1.00  0.00     0.338 C 
ATOM     35  O   UNL A   1      43.213  22.473  24.222  1.00  0.00    -0.246 OA
BRANCH  34  36
ATOM     36  C   UNL A   1      44.066  24.515  25.145  1.00  0.00     0.060 A 
ATOM     37  C   UNL A   1      45.102  25.356  25.568  1.00  0.00     0.016 A 
ATOM     38  C   UNL A   1      42.847  24.771  25.774  1.00  0.00     0.016 A 
ATOM     39  C   UNL A   1      45.100  25.981  26.819  1.00  0.00     0.010 A 
ATOM     40  C   UNL A   1      42.769  25.618  26.907  1.00  0.00     0.010 A 
ATOM     41  C   UNL A   1      43.929  26.103  27.542  1.00  0.00    -0.014 A 
BRANCH  41  42
ATOM     42  C   UNL A   1      43.916  26.605  28.959  1.00  0.00     0.031 A 
ATOM     43  C   UNL A   1      43.616  28.071  29.196  1.00  0.00     0.074 A 
ATOM     44  C   UNL A   1      44.098  25.820  30.046  1.00  0.00     0.049 A 
ATOM     45  N   UNL A   1      43.843  28.816  30.249  1.00  0.00    -0.248 NA
ATOM     46  C   UNL A   1      42.991  28.798  28.079  1.00  0.00     0.031 C 
ATOM     47  C   UNL A   1      44.243  24.363  30.053  1.00  0.00     0.029 A 
ATOM     48  N   UNL A   1      44.201  26.155  31.382  1.00  0.00    -0.354 N 
ATOM     49  C   UNL A   1      43.477  30.108  29.885  1.00  0.00     0.074 A 
ATOM     50  C   UNL A   1      43.020  30.047  28.515  1.00  0.00     0.031 C 
ATOM     51  C   UNL A   1      44.405  23.934  31.316  1.00  0.00     0.029 A 
ATOM     52  C   UNL A   1      44.496  25.087  32.202  1.00  0.00     0.049 A 
ATOM     53  H   UNL A   1      44.076  27.072  31.718  1.00  0.00     0.167 HD
ATOM     54  C   UNL A   1      43.524  31.246  30.621  1.00  0.00     0.037 A 
ATOM     55  C   UNL A   1      44.873  25.035  33.496  1.00  0.00     0.037 A 
ATOM     56  C   UNL A   1      43.921  31.296  32.004  1.00  0.00     0.049 A 
ATOM     57  C   UNL A   1      45.029  26.318  34.271  1.00  0.00     0.074 A 
ATOM     58  C   UNL A   1      44.019  32.399  32.834  1.00  0.00     0.029 A 
ATOM     59  N   UNL A   1      44.268  30.192  32.766  1.00  0.00    -0.354 N 
ATOM     60  N   UNL A   1      44.791  27.550  33.892  1.00  0.00    -0.248 NA
ATOM     61  C   UNL A   1      45.525  26.202  35.650  1.00  0.00     0.031 C 
ATOM     62  C   UNL A   1      44.488  31.970  34.080  1.00  0.00     0.029 A 
ATOM     63  C   UNL A   1      44.606  30.590  34.049  1.00  0.00     0.049 A 
ATOM     64  H   UNL A   1      44.274  29.262  32.442  1.00  0.00     0.167 HD
ATOM     65  C   UNL A   1      45.072  28.350  34.994  1.00  0.00     0.074 A 
ATOM     66  C   UNL A   1      45.483  27.462  36.060  1.00  0.00     0.031 C 
ATOM     67  C   UNL A   1      44.999  29.698  35.111  1.00  0.00     0.037 A 
BRANCH  54  68
ATOM     68  C   UNL A   1      43.202  32.538  29.921  1.00  0.00     0.057 A 
ATOM     69  C   UNL A   1      41.964  33.182  30.044  1.00  0.00     0.134 A 
ATOM     70  C   UNL A   1      44.162  33.148  29.100  1.00  0.00     0.134 A 
ATOM     71  F   UNL A   1      40.992  32.647  30.799  1.00  0.00    -0.206 F 
ATOM     72  C   UNL A   1      41.679  34.359  29.348  1.00  0.00     0.040 A 
ATOM     73  C   UNL A   1      43.903  34.343  28.429  1.00  0.00     0.040 A 
ATOM     74  F   UNL A   1      45.374  32.593  28.940  1.00  0.00    -0.206 F 
ATOM     75  C   UNL A   1      42.652  34.947  28.542  1.00  0.00     0.006 A 
ENDBRANCH  54  68
BRANCH  55  76
ATOM     76  C   UNL A   1      45.211  23.730  34.138  1.00  0.00     0.057 A 
ATOM     77  C   UNL A   1      46.538  23.305  34.271  1.00  0.00     0.134 A 
ATOM     78  C   UNL A   1      44.213  22.851  34.585  1.00  0.00     0.134 A 
ATOM     79  F   UNL A   1      47.542  24.080  33.834  1.00  0.00    -0.206 F 
ATOM     80  C   UNL A   1      46.861  22.053  34.802  1.00  0.00     0.040 A 
ATOM     81  C   UNL A   1      44.522  21.612  35.150  1.00  0.00     0.040 A 
ATOM     82  F   UNL A   1      42.919  23.185  34.482  1.00  0.00    -0.206 F 
ATOM     83  C   UNL A   1      45.850  21.205  35.251  1.00  0.00     0.006 A 
ENDBRANCH  55  76
BRANCH  67  84
ATOM     84  C   UNL A   1      45.301  30.293  36.458  1.00  0.00     0.057 A 
ATOM     85  C   UNL A   1      46.586  30.715  36.821  1.00  0.00     0.134 A 
ATOM     86  C   UNL A   1      44.277  30.469  37.399  1.00  0.00     0.134 A 
ATOM     87  F   UNL A   1      47.616  30.567  35.972  1.00  0.00    -0.206 F 
ATOM     88  C   UNL A   1      46.850  31.254  38.082  1.00  0.00     0.040 A 
ATOM     89  C   UNL A   1      44.521  31.040  38.649  1.00  0.00     0.040 A 
ATOM     90  F   UNL A   1      43.019  30.099  37.116  1.00  0.00    -0.206 F 
ATOM     91  C   UNL A   1      45.813  31.425  38.997  1.00  0.00     0.006 A 
ENDBRANCH  67  84
ENDBRANCH  41  42
ENDBRANCH  34  36
ENDBRANCH  33  34
ENDBRANCH  32  33
ENDBRANCH  31  32
ENDBRANCH  30  31
ENDBRANCH  29  30
ENDBRANCH  28  29
ENDBRANCH  27  28
ENDBRANCH   1  27
TORSDOF 25
ENDMDL
