MODEL 1
REMARK VINA RESULT:      -9.2      0.000      0.000
REMARK SMILES C[C@H](C(=O)OCCOCCOCCOCCOC(=O)c1ccc(-c2c3nc(c(-c4c(F)cccc4F)c4ccc([nH]4)c(-c4c(F)cccc4F)c4nc(c(-c5c(F)cccc5F)c5ccc2[nH]5)C=C4)C=C3)cc1)c1ccc2c(c1)[nH]c1ccc(Cl)cc12
REMARK SMILES IDX 12 1 11 2 10 3 9 4 8 5 7 6 6 7 5 8 3 9 4 10 2 11 1 12 74 13
REMARK SMILES IDX 75 14 79 15 76 16 78 17 77 18 80 19 87 20 81 21 86 23 82 24
REMARK SMILES IDX 84 25 83 26 85 27 13 28 14 29 15 30 16 31 17 32 18 33 19 34
REMARK SMILES IDX 20 35 21 36 73 37 22 38 72 39 23 40 24 41 25 42 66 43 26 44
REMARK SMILES IDX 71 45 65 46 67 47 27 48 70 49 64 50 63 51 28 53 54 54 37 55
REMARK SMILES IDX 53 56 38 57 41 58 52 59 68 60 39 61 40 62 51 64 69 65 42 66
REMARK SMILES IDX 29 67 30 68 35 69 31 70 32 71 34 72 36 73 33 74 55 75 56 76
REMARK SMILES IDX 61 77 57 78 58 79 60 80 62 81 59 82 43 83 44 84 49 85 45 86
REMARK SMILES IDX 46 87 48 88 50 89 47 90
REMARK H PARENT 80 22 67 52 41 63
REMARK Flexibility Score: inf
ROOT
ATOM      1  C   UNL A   1      33.276  36.583  29.998  1.00  0.00     0.188 C 
ENDROOT
BRANCH   1   2
ATOM      2  O   UNL A   1      32.261  36.741  30.970  1.00  0.00    -0.377 OA
BRANCH   2   3
ATOM      3  C   UNL A   1      32.619  36.772  32.350  1.00  0.00     0.188 C 
BRANCH   3   4
ATOM      4  C   UNL A   1      34.025  37.191  32.870  1.00  0.00     0.188 C 
BRANCH   4   5
ATOM      5  O   UNL A   1      34.694  36.194  33.625  1.00  0.00    -0.376 OA
BRANCH   5   6
ATOM      6  C   UNL A   1      35.096  34.992  33.000  1.00  0.00     0.202 C 
BRANCH   6   7
ATOM      7  C   UNL A   1      34.554  33.674  33.548  1.00  0.00     0.261 C 
BRANCH   7   8
ATOM      8  O   UNL A   1      35.562  32.707  33.859  1.00  0.00    -0.463 OA
BRANCH   8   9
ATOM      9  C   UNL A   1      36.596  33.023  34.677  1.00  0.00     0.313 C 
ATOM     10  O   UNL A   1      36.469  33.654  35.718  1.00  0.00    -0.252 OA
BRANCH   9  11
ATOM     11  C   UNL A   1      37.933  32.446  34.166  1.00  0.00     0.126 C 
ATOM     12  C   UNL A   1      37.781  30.940  33.915  1.00  0.00     0.025 C 
BRANCH  11  13
ATOM     13  C   UNL A   1      38.623  33.227  33.033  1.00  0.00    -0.032 A 
ATOM     14  C   UNL A   1      38.103  33.283  31.726  1.00  0.00     0.005 A 
ATOM     15  C   UNL A   1      39.888  33.788  33.254  1.00  0.00     0.031 A 
ATOM     16  C   UNL A   1      38.835  33.847  30.651  1.00  0.00     0.011 A 
ATOM     17  C   UNL A   1      40.603  34.319  32.187  1.00  0.00     0.047 A 
ATOM     18  C   UNL A   1      40.139  34.339  30.880  1.00  0.00     0.007 A 
ATOM     19  N   UNL A   1      41.866  34.843  32.195  1.00  0.00    -0.355 N 
ATOM     20  C   UNL A   1      41.236  34.793  30.066  1.00  0.00     0.009 A 
ATOM     21  C   UNL A   1      42.333  34.959  30.916  1.00  0.00     0.047 A 
ATOM     22  H   UNL A   1      42.365  35.099  33.004  1.00  0.00     0.167 HD
ATOM     23  C   UNL A   1      41.446  34.986  28.684  1.00  0.00     0.031 A 
ATOM     24  C   UNL A   1      43.638  35.181  30.477  1.00  0.00     0.028 A 
ATOM     25  C   UNL A   1      42.748  35.238  28.228  1.00  0.00     0.041 A 
ATOM     26  C   UNL A   1      43.832  35.294  29.103  1.00  0.00     0.022 A 
ATOM     27  Cl  UNL A   1      43.030  35.454  26.542  1.00  0.00    -0.084 Cl
ENDBRANCH  11  13
ENDBRANCH   9  11
ENDBRANCH   8   9
ENDBRANCH   7   8
ENDBRANCH   6   7
ENDBRANCH   5   6
ENDBRANCH   4   5
ENDBRANCH   3   4
ENDBRANCH   2   3
ENDBRANCH   1   2
BRANCH   1  28
ATOM     28  C   UNL A   1      33.224  35.255  29.220  1.00  0.00     0.188 C 
BRANCH  28  29
ATOM     29  O   UNL A   1      33.637  34.137  29.984  1.00  0.00    -0.376 OA
BRANCH  29  30
ATOM     30  C   UNL A   1      34.754  33.363  29.589  1.00  0.00     0.202 C 
BRANCH  30  31
ATOM     31  C   UNL A   1      35.148  32.047  30.283  1.00  0.00     0.261 C 
BRANCH  31  32
ATOM     32  O   UNL A   1      36.128  31.226  29.647  1.00  0.00    -0.460 OA
BRANCH  32  33
ATOM     33  C   UNL A   1      36.562  30.142  30.315  1.00  0.00     0.338 C 
ATOM     34  O   UNL A   1      35.904  29.383  31.011  1.00  0.00    -0.246 OA
BRANCH  33  35
ATOM     35  C   UNL A   1      37.959  29.917  29.902  1.00  0.00     0.060 A 
ATOM     36  C   UNL A   1      38.251  29.763  28.540  1.00  0.00     0.016 A 
ATOM     37  C   UNL A   1      38.977  29.893  30.857  1.00  0.00     0.016 A 
ATOM     38  C   UNL A   1      39.566  29.566  28.130  1.00  0.00     0.010 A 
ATOM     39  C   UNL A   1      40.290  29.657  30.449  1.00  0.00     0.010 A 
ATOM     40  C   UNL A   1      40.582  29.463  29.087  1.00  0.00    -0.014 A 
BRANCH  40  41
ATOM     41  C   UNL A   1      41.902  28.930  28.688  1.00  0.00     0.031 A 
ATOM     42  C   UNL A   1      43.058  29.888  28.634  1.00  0.00     0.074 A 
ATOM     43  C   UNL A   1      42.076  27.629  28.403  1.00  0.00     0.049 A 
ATOM     44  N   UNL A   1      44.292  29.681  28.260  1.00  0.00    -0.248 NA
ATOM     45  C   UNL A   1      42.777  31.270  29.060  1.00  0.00     0.031 C 
ATOM     46  C   UNL A   1      41.039  26.601  28.468  1.00  0.00     0.029 A 
ATOM     47  N   UNL A   1      43.196  26.955  27.990  1.00  0.00    -0.354 N 
ATOM     48  C   UNL A   1      44.935  30.904  28.401  1.00  0.00     0.074 A 
ATOM     49  C   UNL A   1      43.947  31.856  28.860  1.00  0.00     0.031 C 
ATOM     50  C   UNL A   1      41.570  25.426  28.085  1.00  0.00     0.029 A 
ATOM     51  C   UNL A   1      42.970  25.629  27.717  1.00  0.00     0.049 A 
ATOM     52  H   UNL A   1      44.079  27.382  27.897  1.00  0.00     0.167 HD
ATOM     53  C   UNL A   1      46.234  31.205  28.175  1.00  0.00     0.037 A 
ATOM     54  C   UNL A   1      43.796  24.699  27.200  1.00  0.00     0.037 A 
ATOM     55  C   UNL A   1      47.207  30.257  27.704  1.00  0.00     0.049 A 
ATOM     56  C   UNL A   1      45.218  25.080  26.871  1.00  0.00     0.074 A 
ATOM     57  C   UNL A   1      48.550  30.457  27.444  1.00  0.00     0.029 A 
ATOM     58  N   UNL A   1      46.933  28.929  27.409  1.00  0.00    -0.354 N 
ATOM     59  N   UNL A   1      45.826  26.231  27.026  1.00  0.00    -0.248 NA
ATOM     60  C   UNL A   1      46.070  24.028  26.298  1.00  0.00     0.031 C 
ATOM     61  C   UNL A   1      49.077  29.265  26.937  1.00  0.00     0.029 A 
ATOM     62  C   UNL A   1      48.079  28.304  26.945  1.00  0.00     0.049 A 
ATOM     63  H   UNL A   1      46.055  28.495  27.515  1.00  0.00     0.167 HD
ATOM     64  C   UNL A   1      47.135  26.034  26.602  1.00  0.00     0.074 A 
ATOM     65  C   UNL A   1      47.236  24.648  26.196  1.00  0.00     0.031 C 
ATOM     66  C   UNL A   1      48.163  26.918  26.554  1.00  0.00     0.037 A 
BRANCH  53  67
ATOM     67  C   UNL A   1      46.663  32.625  28.405  1.00  0.00     0.057 A 
ATOM     68  C   UNL A   1      47.109  33.073  29.656  1.00  0.00     0.134 A 
ATOM     69  C   UNL A   1      46.648  33.552  27.355  1.00  0.00     0.134 A 
ATOM     70  F   UNL A   1      47.130  32.241  30.709  1.00  0.00    -0.206 F 
ATOM     71  C   UNL A   1      47.501  34.397  29.859  1.00  0.00     0.040 A 
ATOM     72  C   UNL A   1      47.066  34.869  27.539  1.00  0.00     0.040 A 
ATOM     73  F   UNL A   1      46.233  33.189  26.132  1.00  0.00    -0.206 F 
ATOM     74  C   UNL A   1      47.487  35.298  28.796  1.00  0.00     0.006 A 
ENDBRANCH  53  67
BRANCH  54  75
ATOM     75  C   UNL A   1      43.301  23.324  26.937  1.00  0.00     0.057 A 
ATOM     76  C   UNL A   1      43.138  22.397  27.973  1.00  0.00     0.134 A 
ATOM     77  C   UNL A   1      43.009  22.892  25.637  1.00  0.00     0.134 A 
ATOM     78  F   UNL A   1      43.422  22.741  29.237  1.00  0.00    -0.206 F 
ATOM     79  C   UNL A   1      42.726  21.086  27.725  1.00  0.00     0.040 A 
ATOM     80  C   UNL A   1      42.568  21.594  25.377  1.00  0.00     0.040 A 
ATOM     81  F   UNL A   1      43.141  23.730  24.598  1.00  0.00    -0.206 F 
ATOM     82  C   UNL A   1      42.436  20.683  26.423  1.00  0.00     0.006 A 
ENDBRANCH  54  75
BRANCH  66  83
ATOM     83  C   UNL A   1      49.498  26.405  26.093  1.00  0.00     0.057 A 
ATOM     84  C   UNL A   1      49.999  26.676  24.814  1.00  0.00     0.134 A 
ATOM     85  C   UNL A   1      50.313  25.669  26.963  1.00  0.00     0.134 A 
ATOM     86  F   UNL A   1      49.266  27.368  23.928  1.00  0.00    -0.206 F 
ATOM     87  C   UNL A   1      51.251  26.210  24.408  1.00  0.00     0.040 A 
ATOM     88  C   UNL A   1      51.579  25.225  26.579  1.00  0.00     0.040 A 
ATOM     89  F   UNL A   1      49.901  25.384  28.207  1.00  0.00    -0.206 F 
ATOM     90  C   UNL A   1      52.049  25.489  25.295  1.00  0.00     0.006 A 
ENDBRANCH  66  83
ENDBRANCH  40  41
ENDBRANCH  33  35
ENDBRANCH  32  33
ENDBRANCH  31  32
ENDBRANCH  30  31
ENDBRANCH  29  30
ENDBRANCH  28  29
ENDBRANCH   1  28
TORSDOF 21
ENDMDL
MODEL 2
REMARK VINA RESULT:      -9.0      5.374      8.989
REMARK SMILES C[C@H](C(=O)OCCOCCOCCOCCOC(=O)c1ccc(-c2c3nc(c(-c4c(F)cccc4F)c4ccc([nH]4)c(-c4c(F)cccc4F)c4nc(c(-c5c(F)cccc5F)c5ccc2[nH]5)C=C4)C=C3)cc1)c1ccc2c(c1)[nH]c1ccc(Cl)cc12
REMARK SMILES IDX 12 1 11 2 10 3 9 4 8 5 7 6 6 7 5 8 3 9 4 10 2 11 1 12 74 13
REMARK SMILES IDX 75 14 79 15 76 16 78 17 77 18 80 19 87 20 81 21 86 23 82 24
REMARK SMILES IDX 84 25 83 26 85 27 13 28 14 29 15 30 16 31 17 32 18 33 19 34
REMARK SMILES IDX 20 35 21 36 73 37 22 38 72 39 23 40 24 41 25 42 66 43 26 44
REMARK SMILES IDX 71 45 65 46 67 47 27 48 70 49 64 50 63 51 28 53 54 54 37 55
REMARK SMILES IDX 53 56 38 57 41 58 52 59 68 60 39 61 40 62 51 64 69 65 42 66
REMARK SMILES IDX 29 67 30 68 35 69 31 70 32 71 34 72 36 73 33 74 55 75 56 76
REMARK SMILES IDX 61 77 57 78 58 79 60 80 62 81 59 82 43 83 44 84 49 85 45 86
REMARK SMILES IDX 46 87 48 88 50 89 47 90
REMARK H PARENT 80 22 67 52 41 63
REMARK Flexibility Score: inf
ROOT
ATOM      1  C   UNL A   1      34.555  30.872  27.643  1.00  0.00     0.188 C 
ENDROOT
BRANCH   1   2
ATOM      2  O   UNL A   1      33.374  30.199  27.252  1.00  0.00    -0.377 OA
BRANCH   2   3
ATOM      3  C   UNL A   1      33.448  29.195  26.242  1.00  0.00     0.188 C 
BRANCH   3   4
ATOM      4  C   UNL A   1      32.551  29.177  24.970  1.00  0.00     0.188 C 
BRANCH   4   5
ATOM      5  O   UNL A   1      33.266  29.203  23.746  1.00  0.00    -0.376 OA
BRANCH   5   6
ATOM      6  C   UNL A   1      33.058  28.182  22.790  1.00  0.00     0.202 C 
BRANCH   6   7
ATOM      7  C   UNL A   1      32.459  26.859  23.263  1.00  0.00     0.261 C 
BRANCH   7   8
ATOM      8  O   UNL A   1      33.272  26.148  24.203  1.00  0.00    -0.463 OA
BRANCH   8   9
ATOM      9  C   UNL A   1      33.854  24.972  23.864  1.00  0.00     0.313 C 
ATOM     10  O   UNL A   1      34.267  24.718  22.739  1.00  0.00    -0.252 OA
BRANCH   9  11
ATOM     11  C   UNL A   1      33.982  24.023  25.073  1.00  0.00     0.126 C 
ATOM     12  C   UNL A   1      33.238  24.617  26.275  1.00  0.00     0.025 C 
BRANCH  11  13
ATOM     13  C   UNL A   1      33.696  22.534  24.803  1.00  0.00    -0.032 A 
ATOM     14  C   UNL A   1      32.395  21.997  24.823  1.00  0.00     0.005 A 
ATOM     15  C   UNL A   1      34.767  21.639  24.674  1.00  0.00     0.031 A 
ATOM     16  C   UNL A   1      32.158  20.601  24.757  1.00  0.00     0.011 A 
ATOM     17  C   UNL A   1      34.521  20.271  24.631  1.00  0.00     0.047 A 
ATOM     18  C   UNL A   1      33.254  19.712  24.702  1.00  0.00     0.007 A 
ATOM     19  N   UNL A   1      35.431  19.253  24.576  1.00  0.00    -0.355 N 
ATOM     20  C   UNL A   1      33.444  18.289  24.812  1.00  0.00     0.009 A 
ATOM     21  C   UNL A   1      34.823  18.065  24.871  1.00  0.00     0.047 A 
ATOM     22  H   UNL A   1      36.384  19.359  24.356  1.00  0.00     0.167 HD
ATOM     23  C   UNL A   1      32.594  17.174  24.967  1.00  0.00     0.031 A 
ATOM     24  C   UNL A   1      35.403  16.838  25.193  1.00  0.00     0.028 A 
ATOM     25  C   UNL A   1      33.164  15.927  25.264  1.00  0.00     0.041 A 
ATOM     26  C   UNL A   1      34.541  15.769  25.415  1.00  0.00     0.022 A 
ATOM     27  Cl  UNL A   1      32.142  14.557  25.481  1.00  0.00    -0.084 Cl
ENDBRANCH  11  13
ENDBRANCH   9  11
ENDBRANCH   8   9
ENDBRANCH   7   8
ENDBRANCH   6   7
ENDBRANCH   5   6
ENDBRANCH   4   5
ENDBRANCH   3   4
ENDBRANCH   2   3
ENDBRANCH   1   2
BRANCH   1  28
ATOM     28  C   UNL A   1      34.361  32.356  28.008  1.00  0.00     0.188 C 
BRANCH  28  29
ATOM     29  O   UNL A   1      34.209  32.580  29.397  1.00  0.00    -0.376 OA
BRANCH  29  30
ATOM     30  C   UNL A   1      34.229  33.892  29.926  1.00  0.00     0.202 C 
BRANCH  30  31
ATOM     31  C   UNL A   1      34.673  34.209  31.364  1.00  0.00     0.261 C 
BRANCH  31  32
ATOM     32  O   UNL A   1      36.023  33.916  31.725  1.00  0.00    -0.460 OA
BRANCH  32  33
ATOM     33  C   UNL A   1      36.242  32.834  32.493  1.00  0.00     0.338 C 
ATOM     34  O   UNL A   1      35.623  32.488  33.487  1.00  0.00    -0.246 OA
BRANCH  33  35
ATOM     35  C   UNL A   1      37.262  32.022  31.804  1.00  0.00     0.060 A 
ATOM     36  C   UNL A   1      38.198  31.312  32.567  1.00  0.00     0.016 A 
ATOM     37  C   UNL A   1      37.268  31.939  30.410  1.00  0.00     0.016 A 
ATOM     38  C   UNL A   1      39.158  30.527  31.935  1.00  0.00     0.010 A 
ATOM     39  C   UNL A   1      38.254  31.183  29.776  1.00  0.00     0.010 A 
ATOM     40  C   UNL A   1      39.219  30.501  30.537  1.00  0.00    -0.014 A 
BRANCH  40  41
ATOM     41  C   UNL A   1      40.420  29.949  29.875  1.00  0.00     0.031 A 
ATOM     42  C   UNL A   1      41.583  30.873  29.649  1.00  0.00     0.074 A 
ATOM     43  C   UNL A   1      40.489  28.659  29.506  1.00  0.00     0.049 A 
ATOM     44  N   UNL A   1      42.718  30.648  29.043  1.00  0.00    -0.248 NA
ATOM     45  C   UNL A   1      41.440  32.240  30.179  1.00  0.00     0.031 C 
ATOM     46  C   UNL A   1      39.443  27.661  29.718  1.00  0.00     0.029 A 
ATOM     47  N   UNL A   1      41.487  27.974  28.863  1.00  0.00    -0.354 N 
ATOM     48  C   UNL A   1      43.422  31.844  29.115  1.00  0.00     0.074 A 
ATOM     49  C   UNL A   1      42.574  32.800  29.791  1.00  0.00     0.031 C 
ATOM     50  C   UNL A   1      39.848  26.491  29.192  1.00  0.00     0.029 A 
ATOM     51  C   UNL A   1      41.163  26.670  28.579  1.00  0.00     0.049 A 
ATOM     52  H   UNL A   1      42.353  28.378  28.626  1.00  0.00     0.167 HD
ATOM     53  C   UNL A   1      44.668  32.117  28.664  1.00  0.00     0.037 A 
ATOM     54  C   UNL A   1      41.843  25.743  27.877  1.00  0.00     0.037 A 
ATOM     55  C   UNL A   1      45.500  31.164  27.980  1.00  0.00     0.049 A 
ATOM     56  C   UNL A   1      43.193  26.097  27.306  1.00  0.00     0.074 A 
ATOM     57  C   UNL A   1      46.778  31.337  27.483  1.00  0.00     0.029 A 
ATOM     58  N   UNL A   1      45.125  29.861  27.683  1.00  0.00    -0.354 N 
ATOM     59  N   UNL A   1      43.863  27.221  27.395  1.00  0.00    -0.248 NA
ATOM     60  C   UNL A   1      43.884  25.051  26.538  1.00  0.00     0.031 C 
ATOM     61  C   UNL A   1      47.157  30.157  26.835  1.00  0.00     0.029 A 
ATOM     62  C   UNL A   1      46.140  29.228  26.986  1.00  0.00     0.049 A 
ATOM     63  H   UNL A   1      44.266  29.450  27.931  1.00  0.00     0.167 HD
ATOM     64  C   UNL A   1      45.063  27.007  26.726  1.00  0.00     0.074 A 
ATOM     65  C   UNL A   1      45.034  25.640  26.248  1.00  0.00     0.031 C 
ATOM     66  C   UNL A   1      46.098  27.861  26.527  1.00  0.00     0.037 A 
BRANCH  53  67
ATOM     67  C   UNL A   1      45.187  33.509  28.872  1.00  0.00     0.057 A 
ATOM     68  C   UNL A   1      45.812  33.899  30.064  1.00  0.00     0.134 A 
ATOM     69  C   UNL A   1      45.076  34.469  27.858  1.00  0.00     0.134 A 
ATOM     70  F   UNL A   1      45.933  33.035  31.084  1.00  0.00    -0.206 F 
ATOM     71  C   UNL A   1      46.286  35.199  30.249  1.00  0.00     0.040 A 
ATOM     72  C   UNL A   1      45.573  35.762  28.019  1.00  0.00     0.040 A 
ATOM     73  F   UNL A   1      44.488  34.162  26.692  1.00  0.00    -0.206 F 
ATOM     74  C   UNL A   1      46.174  36.132  29.220  1.00  0.00     0.006 A 
ENDBRANCH  53  67
BRANCH  54  75
ATOM     75  C   UNL A   1      41.254  24.399  27.651  1.00  0.00     0.057 A 
ATOM     76  C   UNL A   1      41.720  23.273  28.342  1.00  0.00     0.134 A 
ATOM     77  C   UNL A   1      40.234  24.199  26.713  1.00  0.00     0.134 A 
ATOM     78  F   UNL A   1      42.711  23.394  29.237  1.00  0.00    -0.206 F 
ATOM     79  C   UNL A   1      41.209  21.998  28.093  1.00  0.00     0.040 A 
ATOM     80  C   UNL A   1      39.694  22.934  26.474  1.00  0.00     0.040 A 
ATOM     81  F   UNL A   1      39.741  25.234  26.016  1.00  0.00    -0.206 F 
ATOM     82  C   UNL A   1      40.189  21.827  27.159  1.00  0.00     0.006 A 
ENDBRANCH  54  75
BRANCH  66  83
ATOM     83  C   UNL A   1      47.303  27.332  25.803  1.00  0.00     0.057 A 
ATOM     84  C   UNL A   1      48.339  26.665  26.467  1.00  0.00     0.134 A 
ATOM     85  C   UNL A   1      47.403  27.452  24.410  1.00  0.00     0.134 A 
ATOM     86  F   UNL A   1      48.312  26.523  27.802  1.00  0.00    -0.206 F 
ATOM     87  C   UNL A   1      49.443  26.160  25.777  1.00  0.00     0.040 A 
ATOM     88  C   UNL A   1      48.485  26.923  23.705  1.00  0.00     0.040 A 
ATOM     89  F   UNL A   1      46.440  28.068  23.708  1.00  0.00    -0.206 F 
ATOM     90  C   UNL A   1      49.513  26.281  24.390  1.00  0.00     0.006 A 
ENDBRANCH  66  83
ENDBRANCH  40  41
ENDBRANCH  33  35
ENDBRANCH  32  33
ENDBRANCH  31  32
ENDBRANCH  30  31
ENDBRANCH  29  30
ENDBRANCH  28  29
ENDBRANCH   1  28
TORSDOF 21
ENDMDL
MODEL 3
REMARK VINA RESULT:      -8.7      0.556      5.970
REMARK SMILES C[C@H](C(=O)OCCOCCOCCOCCOC(=O)c1ccc(-c2c3nc(c(-c4c(F)cccc4F)c4ccc([nH]4)c(-c4c(F)cccc4F)c4nc(c(-c5c(F)cccc5F)c5ccc2[nH]5)C=C4)C=C3)cc1)c1ccc2c(c1)[nH]c1ccc(Cl)cc12
REMARK SMILES IDX 12 1 11 2 10 3 9 4 8 5 7 6 6 7 5 8 3 9 4 10 2 11 1 12 74 13
REMARK SMILES IDX 75 14 79 15 76 16 78 17 77 18 80 19 87 20 81 21 86 23 82 24
REMARK SMILES IDX 84 25 83 26 85 27 13 28 14 29 15 30 16 31 17 32 18 33 19 34
REMARK SMILES IDX 20 35 21 36 73 37 22 38 72 39 23 40 24 41 25 42 66 43 26 44
REMARK SMILES IDX 71 45 65 46 67 47 27 48 70 49 64 50 63 51 28 53 54 54 37 55
REMARK SMILES IDX 53 56 38 57 41 58 52 59 68 60 39 61 40 62 51 64 69 65 42 66
REMARK SMILES IDX 29 67 30 68 35 69 31 70 32 71 34 72 36 73 33 74 55 75 56 76
REMARK SMILES IDX 61 77 57 78 58 79 60 80 62 81 59 82 43 83 44 84 49 85 45 86
REMARK SMILES IDX 46 87 48 88 50 89 47 90
REMARK H PARENT 80 22 67 52 41 63
REMARK Flexibility Score: inf
ROOT
ATOM      1  C   UNL A   1      33.219  36.324  29.233  1.00  0.00     0.188 C 
ENDROOT
BRANCH   1   2
ATOM      2  O   UNL A   1      32.437  36.574  30.385  1.00  0.00    -0.377 OA
BRANCH   2   3
ATOM      3  C   UNL A   1      32.955  36.219  31.666  1.00  0.00     0.188 C 
BRANCH   3   4
ATOM      4  C   UNL A   1      34.020  37.057  32.432  1.00  0.00     0.188 C 
BRANCH   4   5
ATOM      5  O   UNL A   1      34.520  36.439  33.606  1.00  0.00    -0.376 OA
BRANCH   5   6
ATOM      6  C   UNL A   1      35.328  35.284  33.502  1.00  0.00     0.202 C 
BRANCH   6   7
ATOM      7  C   UNL A   1      35.144  34.176  34.537  1.00  0.00     0.261 C 
BRANCH   7   8
ATOM      8  O   UNL A   1      36.161  33.169  34.508  1.00  0.00    -0.463 OA
BRANCH   8   9
ATOM      9  C   UNL A   1      37.460  33.490  34.723  1.00  0.00     0.313 C 
ATOM     10  O   UNL A   1      37.828  34.313  35.552  1.00  0.00    -0.252 OA
BRANCH   9  11
ATOM     11  C   UNL A   1      38.413  32.657  33.841  1.00  0.00     0.126 C 
ATOM     12  C   UNL A   1      37.727  31.346  33.438  1.00  0.00     0.025 C 
BRANCH  11  13
ATOM     13  C   UNL A   1      39.104  33.409  32.688  1.00  0.00    -0.032 A 
ATOM     14  C   UNL A   1      38.640  33.353  31.361  1.00  0.00     0.005 A 
ATOM     15  C   UNL A   1      40.324  34.059  32.924  1.00  0.00     0.031 A 
ATOM     16  C   UNL A   1      39.384  33.894  30.282  1.00  0.00     0.011 A 
ATOM     17  C   UNL A   1      41.053  34.567  31.854  1.00  0.00     0.047 A 
ATOM     18  C   UNL A   1      40.645  34.479  30.532  1.00  0.00     0.007 A 
ATOM     19  N   UNL A   1      42.280  35.166  31.880  1.00  0.00    -0.355 N 
ATOM     20  C   UNL A   1      41.748  34.948  29.734  1.00  0.00     0.009 A 
ATOM     21  C   UNL A   1      42.796  35.232  30.615  1.00  0.00     0.047 A 
ATOM     22  H   UNL A   1      42.728  35.501  32.690  1.00  0.00     0.167 HD
ATOM     23  C   UNL A   1      42.006  35.069  28.352  1.00  0.00     0.031 A 
ATOM     24  C   UNL A   1      44.104  35.507  30.215  1.00  0.00     0.028 A 
ATOM     25  C   UNL A   1      43.310  35.372  27.933  1.00  0.00     0.041 A 
ATOM     26  C   UNL A   1      44.349  35.548  28.846  1.00  0.00     0.022 A 
ATOM     27  Cl  UNL A   1      43.652  35.502  26.250  1.00  0.00    -0.084 Cl
ENDBRANCH  11  13
ENDBRANCH   9  11
ENDBRANCH   8   9
ENDBRANCH   7   8
ENDBRANCH   6   7
ENDBRANCH   5   6
ENDBRANCH   4   5
ENDBRANCH   3   4
ENDBRANCH   2   3
ENDBRANCH   1   2
BRANCH   1  28
ATOM     28  C   UNL A   1      33.194  34.865  28.741  1.00  0.00     0.188 C 
BRANCH  28  29
ATOM     29  O   UNL A   1      33.782  33.954  29.651  1.00  0.00    -0.376 OA
BRANCH  29  30
ATOM     30  C   UNL A   1      34.865  33.133  29.256  1.00  0.00     0.202 C 
BRANCH  30  31
ATOM     31  C   UNL A   1      35.425  32.004  30.139  1.00  0.00     0.261 C 
BRANCH  31  32
ATOM     32  O   UNL A   1      36.125  30.939  29.495  1.00  0.00    -0.460 OA
BRANCH  32  33
ATOM     33  C   UNL A   1      36.687  30.000  30.277  1.00  0.00     0.338 C 
ATOM     34  O   UNL A   1      36.128  29.260  31.072  1.00  0.00    -0.246 OA
BRANCH  33  35
ATOM     35  C   UNL A   1      38.098  29.889  29.862  1.00  0.00     0.060 A 
ATOM     36  C   UNL A   1      38.412  29.926  28.497  1.00  0.00     0.016 A 
ATOM     37  C   UNL A   1      39.104  29.782  30.824  1.00  0.00     0.016 A 
ATOM     38  C   UNL A   1      39.739  29.838  28.088  1.00  0.00     0.010 A 
ATOM     39  C   UNL A   1      40.431  29.656  30.411  1.00  0.00     0.010 A 
ATOM     40  C   UNL A   1      40.747  29.654  29.042  1.00  0.00    -0.014 A 
BRANCH  40  41
ATOM     41  C   UNL A   1      42.093  29.232  28.599  1.00  0.00     0.031 A 
ATOM     42  C   UNL A   1      42.293  27.786  28.243  1.00  0.00     0.074 A 
ATOM     43  C   UNL A   1      43.105  30.110  28.493  1.00  0.00     0.049 A 
ATOM     44  N   UNL A   1      43.383  27.161  27.886  1.00  0.00    -0.248 NA
ATOM     45  C   UNL A   1      41.095  26.932  28.300  1.00  0.00     0.031 C 
ATOM     46  C   UNL A   1      43.015  31.543  28.766  1.00  0.00     0.029 A 
ATOM     47  N   UNL A   1      44.414  29.914  28.136  1.00  0.00    -0.354 N 
ATOM     48  C   UNL A   1      43.005  25.840  27.680  1.00  0.00     0.074 A 
ATOM     49  C   UNL A   1      41.594  25.746  27.986  1.00  0.00     0.031 C 
ATOM     50  C   UNL A   1      44.228  32.094  28.586  1.00  0.00     0.029 A 
ATOM     51  C   UNL A   1      45.181  31.049  28.220  1.00  0.00     0.049 A 
ATOM     52  H   UNL A   1      44.770  29.042  27.848  1.00  0.00     0.167 HD
ATOM     53  C   UNL A   1      43.764  24.800  27.266  1.00  0.00     0.037 A 
ATOM     54  C   UNL A   1      46.508  31.210  28.049  1.00  0.00     0.037 A 
ATOM     55  C   UNL A   1      45.170  24.899  26.979  1.00  0.00     0.049 A 
ATOM     56  C   UNL A   1      47.352  30.017  27.675  1.00  0.00     0.074 A 
ATOM     57  C   UNL A   1      46.033  23.907  26.551  1.00  0.00     0.029 A 
ATOM     58  N   UNL A   1      45.921  26.059  27.105  1.00  0.00    -0.354 N 
ATOM     59  N   UNL A   1      46.987  28.776  27.461  1.00  0.00    -0.248 NA
ATOM     60  C   UNL A   1      48.795  30.250  27.514  1.00  0.00     0.031 C 
ATOM     61  C   UNL A   1      47.318  24.453  26.473  1.00  0.00     0.029 A 
ATOM     62  C   UNL A   1      47.243  25.800  26.788  1.00  0.00     0.049 A 
ATOM     63  H   UNL A   1      45.565  26.935  27.379  1.00  0.00     0.167 HD
ATOM     64  C   UNL A   1      48.144  28.090  27.110  1.00  0.00     0.074 A 
ATOM     65  C   UNL A   1      49.221  29.058  27.127  1.00  0.00     0.031 C 
ATOM     66  C   UNL A   1      48.302  26.779  26.799  1.00  0.00     0.037 A 
BRANCH  53  67
ATOM     67  C   UNL A   1      43.092  23.465  27.133  1.00  0.00     0.057 A 
ATOM     68  C   UNL A   1      42.889  22.624  28.235  1.00  0.00     0.134 A 
ATOM     69  C   UNL A   1      42.626  23.024  25.889  1.00  0.00     0.134 A 
ATOM     70  F   UNL A   1      43.328  22.977  29.453  1.00  0.00    -0.206 F 
ATOM     71  C   UNL A   1      42.267  21.382  28.099  1.00  0.00     0.040 A 
ATOM     72  C   UNL A   1      41.976  21.798  25.746  1.00  0.00     0.040 A 
ATOM     73  F   UNL A   1      42.789  23.780  24.793  1.00  0.00    -0.206 F 
ATOM     74  C   UNL A   1      41.801  20.969  26.852  1.00  0.00     0.006 A 
ENDBRANCH  53  67
BRANCH  54  75
ATOM     75  C   UNL A   1      47.130  32.543  28.253  1.00  0.00     0.057 A 
ATOM     76  C   UNL A   1      47.197  33.482  27.216  1.00  0.00     0.134 A 
ATOM     77  C   UNL A   1      47.703  32.900  29.480  1.00  0.00     0.134 A 
ATOM     78  F   UNL A   1      46.687  33.193  26.010  1.00  0.00    -0.206 F 
ATOM     79  C   UNL A   1      47.830  34.715  27.385  1.00  0.00     0.040 A 
ATOM     80  C   UNL A   1      48.313  34.140  29.672  1.00  0.00     0.040 A 
ATOM     81  F   UNL A   1      47.672  32.048  30.516  1.00  0.00    -0.206 F 
ATOM     82  C   UNL A   1      48.387  35.048  28.619  1.00  0.00     0.006 A 
ENDBRANCH  54  75
BRANCH  66  83
ATOM     83  C   UNL A   1      49.678  26.322  26.405  1.00  0.00     0.057 A 
ATOM     84  C   UNL A   1      50.145  26.414  25.088  1.00  0.00     0.134 A 
ATOM     85  C   UNL A   1      50.564  25.827  27.371  1.00  0.00     0.134 A 
ATOM     86  F   UNL A   1      49.345  26.870  24.113  1.00  0.00    -0.206 F 
ATOM     87  C   UNL A   1      51.435  26.004  24.742  1.00  0.00     0.040 A 
ATOM     88  C   UNL A   1      51.866  25.445  27.043  1.00  0.00     0.040 A 
ATOM     89  F   UNL A   1      50.187  25.725  28.655  1.00  0.00    -0.206 F 
ATOM     90  C   UNL A   1      52.302  25.526  25.723  1.00  0.00     0.006 A 
ENDBRANCH  66  83
ENDBRANCH  40  41
ENDBRANCH  33  35
ENDBRANCH  32  33
ENDBRANCH  31  32
ENDBRANCH  30  31
ENDBRANCH  29  30
ENDBRANCH  28  29
ENDBRANCH   1  28
TORSDOF 21
ENDMDL
