MODEL 1
REMARK VINA RESULT:     -10.6      0.000      0.000
REMARK SMILES COc1cc2c(cc1OC)[C@H](C(=O)OCCOCCOCCOCCOC(=O)c1ccc(-c3c4nc(c(-c5c(F)cccc5F)c5ccc([nH]5)c(-c5c(F)cccc5F)c5nc(c(-c6c(F)cccc6F)c6ccc3[nH]6)C=C5)C=C4)cc1)[C@@H](c1ccc(SC)cc1)N(C)C2=O
REMARK SMILES IDX 20 1 19 2 18 3 17 4 16 5 15 6 14 7 12 8 13 9 11 10 3 11 4 12
REMARK SMILES IDX 8 13 5 14 7 15 6 16 94 17 92 18 95 19 83 20 93 21 2 22 1 23
REMARK SMILES IDX 9 24 10 25 84 26 85 27 91 28 86 29 90 30 87 31 88 32 89 33
REMARK SMILES IDX 21 34 22 35 23 36 24 37 25 38 26 39 27 40 28 41 29 42 30 43
REMARK SMILES IDX 82 44 31 45 81 46 32 47 33 48 34 49 75 50 35 51 80 52 74 53
REMARK SMILES IDX 76 54 36 55 79 56 73 57 72 58 37 60 63 61 46 62 62 63 47 64
REMARK SMILES IDX 50 65 61 66 77 67 48 68 49 69 60 71 78 72 51 73 38 74 39 75
REMARK SMILES IDX 44 76 40 77 41 78 43 79 45 80 42 81 64 82 65 83 70 84 66 85
REMARK SMILES IDX 67 86 69 87 71 88 68 89 52 90 53 91 58 92 54 93 55 94 57 95
REMARK SMILES IDX 59 96 56 97
REMARK H PARENT 76 59 50 70
REMARK Flexibility Score: inf
ROOT
ATOM      1  O   UNL A   1      34.598  33.009  27.649  1.00  0.00    -0.377 OA
ENDROOT
BRANCH   1   2
ATOM      2  C   UNL A   1      34.859  31.676  28.023  1.00  0.00     0.188 C 
BRANCH   2   3
ATOM      3  C   UNL A   1      34.048  30.642  27.212  1.00  0.00     0.188 C 
BRANCH   3   4
ATOM      4  O   UNL A   1      32.679  30.402  27.516  1.00  0.00    -0.376 OA
BRANCH   4   5
ATOM      5  C   UNL A   1      31.893  29.505  26.737  1.00  0.00     0.202 C 
BRANCH   5   6
ATOM      6  C   UNL A   1      31.746  28.014  27.085  1.00  0.00     0.261 C 
BRANCH   6   7
ATOM      7  O   UNL A   1      32.756  27.198  26.496  1.00  0.00    -0.463 OA
BRANCH   7   8
ATOM      8  C   UNL A   1      32.408  26.013  25.925  1.00  0.00     0.316 C 
ATOM      9  O   UNL A   1      31.691  25.170  26.443  1.00  0.00    -0.251 OA
BRANCH   8  10
ATOM     10  C   UNL A   1      33.025  25.925  24.528  1.00  0.00     0.157 C 
ATOM     11  C   UNL A   1      35.992  22.766  24.323  1.00  0.00     0.161 A 
ATOM     12  C   UNL A   1      35.068  22.963  23.282  1.00  0.00     0.064 A 
ATOM     13  C   UNL A   1      36.032  23.671  25.384  1.00  0.00     0.161 A 
ATOM     14  C   UNL A   1      34.147  24.025  23.314  1.00  0.00     0.048 A 
ATOM     15  C   UNL A   1      35.095  24.711  25.406  1.00  0.00     0.056 A 
ATOM     16  C   UNL A   1      34.086  24.850  24.429  1.00  0.00    -0.015 A 
ATOM     17  C   UNL A   1      33.343  24.331  22.097  1.00  0.00     0.254 C 
ATOM     18  N   UNL A   1      32.437  25.395  22.156  1.00  0.00    -0.333 N 
ATOM     19  O   UNL A   1      33.553  23.684  21.075  1.00  0.00    -0.269 OA
ATOM     20  C   UNL A   1      31.901  25.844  23.461  1.00  0.00     0.134 C 
ATOM     21  C   UNL A   1      31.726  25.720  20.926  1.00  0.00     0.147 C 
BRANCH  11  22
ATOM     22  O   UNL A   1      36.790  21.656  24.334  1.00  0.00    -0.493 OA
ATOM     23  C   UNL A   1      36.266  20.587  25.118  1.00  0.00     0.278 C 
ENDBRANCH  11  22
BRANCH  13  24
ATOM     24  O   UNL A   1      36.885  23.719  26.452  1.00  0.00    -0.493 OA
ATOM     25  C   UNL A   1      38.244  24.067  26.237  1.00  0.00     0.278 C 
ENDBRANCH  13  24
BRANCH  20  26
ATOM     26  C   UNL A   1      31.083  27.151  23.350  1.00  0.00    -0.024 A 
ATOM     27  C   UNL A   1      31.673  28.417  23.213  1.00  0.00     0.007 A 
ATOM     28  C   UNL A   1      29.680  27.099  23.356  1.00  0.00     0.007 A 
ATOM     29  C   UNL A   1      30.898  29.588  23.215  1.00  0.00     0.015 A 
ATOM     30  C   UNL A   1      28.902  28.269  23.300  1.00  0.00     0.015 A 
ATOM     31  C   UNL A   1      29.503  29.527  23.258  1.00  0.00     0.007 A 
BRANCH  31  32
ATOM     32  S   UNL A   1      28.616  31.078  23.319  1.00  0.00    -0.130 SA
ATOM     33  C   UNL A   1      28.299  31.431  21.571  1.00  0.00     0.091 C 
ENDBRANCH  31  32
ENDBRANCH  20  26
ENDBRANCH   8  10
ENDBRANCH   7   8
ENDBRANCH   6   7
ENDBRANCH   5   6
ENDBRANCH   4   5
ENDBRANCH   3   4
ENDBRANCH   2   3
ENDBRANCH   1   2
BRANCH   1  34
ATOM     34  C   UNL A   1      33.752  33.740  28.529  1.00  0.00     0.188 C 
BRANCH  34  35
ATOM     35  C   UNL A   1      34.368  34.511  29.727  1.00  0.00     0.188 C 
BRANCH  35  36
ATOM     36  O   UNL A   1      33.941  34.084  31.015  1.00  0.00    -0.376 OA
BRANCH  36  37
ATOM     37  C   UNL A   1      34.548  32.949  31.613  1.00  0.00     0.202 C 
BRANCH  37  38
ATOM     38  C   UNL A   1      36.078  32.830  31.524  1.00  0.00     0.261 C 
BRANCH  38  39
ATOM     39  O   UNL A   1      36.574  31.725  30.759  1.00  0.00    -0.460 OA
BRANCH  39  40
ATOM     40  C   UNL A   1      36.917  30.607  31.442  1.00  0.00     0.338 C 
ATOM     41  O   UNL A   1      36.280  30.048  32.305  1.00  0.00    -0.246 OA
BRANCH  40  42
ATOM     42  C   UNL A   1      38.132  30.062  30.799  1.00  0.00     0.060 A 
ATOM     43  C   UNL A   1      39.059  29.367  31.587  1.00  0.00     0.016 A 
ATOM     44  C   UNL A   1      38.332  30.203  29.424  1.00  0.00     0.016 A 
ATOM     45  C   UNL A   1      40.202  28.824  31.003  1.00  0.00     0.010 A 
ATOM     46  C   UNL A   1      39.493  29.686  28.846  1.00  0.00     0.010 A 
ATOM     47  C   UNL A   1      40.443  29.017  29.638  1.00  0.00    -0.014 A 
BRANCH  47  48
ATOM     48  C   UNL A   1      41.774  28.690  29.075  1.00  0.00     0.031 A 
ATOM     49  C   UNL A   1      42.015  27.291  28.586  1.00  0.00     0.074 A 
ATOM     50  C   UNL A   1      42.744  29.617  28.990  1.00  0.00     0.049 A 
ATOM     51  N   UNL A   1      43.107  26.751  28.112  1.00  0.00    -0.248 NA
ATOM     52  C   UNL A   1      40.863  26.375  28.641  1.00  0.00     0.031 C 
ATOM     53  C   UNL A   1      42.616  31.017  29.389  1.00  0.00     0.029 A 
ATOM     54  N   UNL A   1      44.037  29.508  28.543  1.00  0.00    -0.354 N 
ATOM     55  C   UNL A   1      42.778  25.432  27.822  1.00  0.00     0.074 A 
ATOM     56  C   UNL A   1      41.394  25.246  28.200  1.00  0.00     0.031 C 
ATOM     57  C   UNL A   1      43.792  31.635  29.185  1.00  0.00     0.029 A 
ATOM     58  C   UNL A   1      44.763  30.665  28.677  1.00  0.00     0.049 A 
ATOM     59  H   UNL A   1      44.408  28.678  28.165  1.00  0.00     0.167 HD
ATOM     60  C   UNL A   1      43.558  24.467  27.284  1.00  0.00     0.037 A 
ATOM     61  C   UNL A   1      46.068  30.903  28.441  1.00  0.00     0.037 A 
ATOM     62  C   UNL A   1      44.937  24.655  26.918  1.00  0.00     0.049 A 
ATOM     63  C   UNL A   1      46.941  29.787  27.926  1.00  0.00     0.074 A 
ATOM     64  C   UNL A   1      45.809  23.746  26.346  1.00  0.00     0.029 A 
ATOM     65  N   UNL A   1      45.649  25.830  27.105  1.00  0.00    -0.354 N 
ATOM     66  N   UNL A   1      46.617  28.552  27.624  1.00  0.00    -0.248 NA
ATOM     67  C   UNL A   1      48.363  30.099  27.719  1.00  0.00     0.031 C 
ATOM     68  C   UNL A   1      47.065  24.351  26.247  1.00  0.00     0.029 A 
ATOM     69  C   UNL A   1      46.961  25.658  26.695  1.00  0.00     0.049 A 
ATOM     70  H   UNL A   1      45.277  26.665  27.474  1.00  0.00     0.167 HD
ATOM     71  C   UNL A   1      47.784  27.949  27.171  1.00  0.00     0.074 A 
ATOM     72  C   UNL A   1      48.820  28.959  27.220  1.00  0.00     0.031 C 
ATOM     73  C   UNL A   1      47.982  26.674  26.752  1.00  0.00     0.037 A 
BRANCH  60  74
ATOM     74  C   UNL A   1      42.946  23.108  27.096  1.00  0.00     0.057 A 
ATOM     75  C   UNL A   1      42.559  22.633  25.836  1.00  0.00     0.134 A 
ATOM     76  C   UNL A   1      42.759  22.256  28.192  1.00  0.00     0.134 A 
ATOM     77  F   UNL A   1      42.694  23.405  24.747  1.00  0.00    -0.206 F 
ATOM     78  C   UNL A   1      41.983  21.371  25.676  1.00  0.00     0.040 A 
ATOM     79  C   UNL A   1      42.213  20.980  28.041  1.00  0.00     0.040 A 
ATOM     80  F   UNL A   1      43.110  22.647  29.426  1.00  0.00    -0.206 F 
ATOM     81  C   UNL A   1      41.817  20.537  26.781  1.00  0.00     0.006 A 
ENDBRANCH  60  74
BRANCH  61  82
ATOM     82  C   UNL A   1      46.640  32.248  28.713  1.00  0.00     0.057 A 
ATOM     83  C   UNL A   1      46.702  33.226  27.714  1.00  0.00     0.134 A 
ATOM     84  C   UNL A   1      47.159  32.580  29.971  1.00  0.00     0.134 A 
ATOM     85  F   UNL A   1      46.246  32.961  26.481  1.00  0.00    -0.206 F 
ATOM     86  C   UNL A   1      47.275  34.477  27.950  1.00  0.00     0.040 A 
ATOM     87  C   UNL A   1      47.708  33.836  30.229  1.00  0.00     0.040 A 
ATOM     88  F   UNL A   1      47.131  31.688  30.974  1.00  0.00    -0.206 F 
ATOM     89  C   UNL A   1      47.774  34.787  29.213  1.00  0.00     0.006 A 
ENDBRANCH  61  82
BRANCH  73  90
ATOM     90  C   UNL A   1      49.364  26.303  26.288  1.00  0.00     0.057 A 
ATOM     91  C   UNL A   1      49.841  26.661  25.021  1.00  0.00     0.134 A 
ATOM     92  C   UNL A   1      50.243  25.617  27.137  1.00  0.00     0.134 A 
ATOM     93  F   UNL A   1      49.049  27.310  24.153  1.00  0.00    -0.206 F 
ATOM     94  C   UNL A   1      51.133  26.331  24.607  1.00  0.00     0.040 A 
ATOM     95  C   UNL A   1      51.547  25.308  26.747  1.00  0.00     0.040 A 
ATOM     96  F   UNL A   1      49.855  25.253  28.369  1.00  0.00    -0.206 F 
ATOM     97  C   UNL A   1      51.992  25.659  25.475  1.00  0.00     0.006 A 
ENDBRANCH  73  90
ENDBRANCH  47  48
ENDBRANCH  40  42
ENDBRANCH  39  40
ENDBRANCH  38  39
ENDBRANCH  37  38
ENDBRANCH  36  37
ENDBRANCH  35  36
ENDBRANCH  34  35
ENDBRANCH   1  34
TORSDOF 24
ENDMDL
MODEL 2
REMARK VINA RESULT:     -10.2      0.968      5.871
REMARK SMILES COc1cc2c(cc1OC)[C@H](C(=O)OCCOCCOCCOCCOC(=O)c1ccc(-c3c4nc(c(-c5c(F)cccc5F)c5ccc([nH]5)c(-c5c(F)cccc5F)c5nc(c(-c6c(F)cccc6F)c6ccc3[nH]6)C=C5)C=C4)cc1)[C@@H](c1ccc(SC)cc1)N(C)C2=O
REMARK SMILES IDX 20 1 19 2 18 3 17 4 16 5 15 6 14 7 12 8 13 9 11 10 3 11 4 12
REMARK SMILES IDX 8 13 5 14 7 15 6 16 94 17 92 18 95 19 83 20 93 21 2 22 1 23
REMARK SMILES IDX 9 24 10 25 84 26 85 27 91 28 86 29 90 30 87 31 88 32 89 33
REMARK SMILES IDX 21 34 22 35 23 36 24 37 25 38 26 39 27 40 28 41 29 42 30 43
REMARK SMILES IDX 82 44 31 45 81 46 32 47 33 48 34 49 75 50 35 51 80 52 74 53
REMARK SMILES IDX 76 54 36 55 79 56 73 57 72 58 37 60 63 61 46 62 62 63 47 64
REMARK SMILES IDX 50 65 61 66 77 67 48 68 49 69 60 71 78 72 51 73 38 74 39 75
REMARK SMILES IDX 44 76 40 77 41 78 43 79 45 80 42 81 64 82 65 83 70 84 66 85
REMARK SMILES IDX 67 86 69 87 71 88 68 89 52 90 53 91 58 92 54 93 55 94 57 95
REMARK SMILES IDX 59 96 56 97
REMARK H PARENT 76 59 50 70
REMARK Flexibility Score: inf
ROOT
ATOM      1  O   UNL A   1      33.966  32.974  27.306  1.00  0.00    -0.377 OA
ENDROOT
BRANCH   1   2
ATOM      2  C   UNL A   1      34.403  31.816  27.980  1.00  0.00     0.188 C 
BRANCH   2   3
ATOM      3  C   UNL A   1      33.797  30.513  27.415  1.00  0.00     0.188 C 
BRANCH   3   4
ATOM      4  O   UNL A   1      32.542  30.534  26.746  1.00  0.00    -0.376 OA
BRANCH   4   5
ATOM      5  C   UNL A   1      31.867  29.329  26.398  1.00  0.00     0.202 C 
BRANCH   5   6
ATOM      6  C   UNL A   1      32.030  28.026  27.199  1.00  0.00     0.261 C 
BRANCH   6   7
ATOM      7  O   UNL A   1      32.879  27.076  26.557  1.00  0.00    -0.463 OA
BRANCH   7   8
ATOM      8  C   UNL A   1      32.323  26.036  25.878  1.00  0.00     0.316 C 
ATOM      9  O   UNL A   1      31.433  25.316  26.306  1.00  0.00    -0.251 OA
BRANCH   8  10
ATOM     10  C   UNL A   1      32.961  25.939  24.491  1.00  0.00     0.157 C 
ATOM     11  C   UNL A   1      35.927  22.776  24.350  1.00  0.00     0.161 A 
ATOM     12  C   UNL A   1      35.019  22.968  23.293  1.00  0.00     0.064 A 
ATOM     13  C   UNL A   1      35.951  23.686  25.406  1.00  0.00     0.161 A 
ATOM     14  C   UNL A   1      34.100  24.031  23.305  1.00  0.00     0.048 A 
ATOM     15  C   UNL A   1      35.016  24.727  25.408  1.00  0.00     0.056 A 
ATOM     16  C   UNL A   1      34.023  24.863  24.415  1.00  0.00    -0.015 A 
ATOM     17  C   UNL A   1      33.315  24.331  22.074  1.00  0.00     0.254 C 
ATOM     18  N   UNL A   1      32.409  25.397  22.114  1.00  0.00    -0.333 N 
ATOM     19  O   UNL A   1      33.540  23.679  21.059  1.00  0.00    -0.269 OA
ATOM     20  C   UNL A   1      31.854  25.854  23.407  1.00  0.00     0.134 C 
ATOM     21  C   UNL A   1      31.718  25.717  20.871  1.00  0.00     0.147 C 
BRANCH  11  22
ATOM     22  O   UNL A   1      36.723  21.665  24.379  1.00  0.00    -0.493 OA
ATOM     23  C   UNL A   1      36.113  20.544  25.014  1.00  0.00     0.278 C 
ENDBRANCH  11  22
BRANCH  13  24
ATOM     24  O   UNL A   1      36.788  23.739  26.487  1.00  0.00    -0.493 OA
ATOM     25  C   UNL A   1      38.158  24.046  26.287  1.00  0.00     0.278 C 
ENDBRANCH  13  24
BRANCH  20  26
ATOM     26  C   UNL A   1      31.040  27.162  23.277  1.00  0.00    -0.024 A 
ATOM     27  C   UNL A   1      29.655  27.228  23.492  1.00  0.00     0.007 A 
ATOM     28  C   UNL A   1      31.694  28.363  22.958  1.00  0.00     0.007 A 
ATOM     29  C   UNL A   1      28.938  28.415  23.268  1.00  0.00     0.015 A 
ATOM     30  C   UNL A   1      30.983  29.564  22.790  1.00  0.00     0.015 A 
ATOM     31  C   UNL A   1      29.594  29.597  22.915  1.00  0.00     0.007 A 
BRANCH  31  32
ATOM     32  S   UNL A   1      28.580  31.033  22.593  1.00  0.00    -0.130 SA
ATOM     33  C   UNL A   1      28.035  30.769  20.886  1.00  0.00     0.091 C 
ENDBRANCH  31  32
ENDBRANCH  20  26
ENDBRANCH   8  10
ENDBRANCH   7   8
ENDBRANCH   6   7
ENDBRANCH   5   6
ENDBRANCH   4   5
ENDBRANCH   3   4
ENDBRANCH   2   3
ENDBRANCH   1   2
BRANCH   1  34
ATOM     34  C   UNL A   1      33.163  33.864  28.073  1.00  0.00     0.188 C 
BRANCH  34  35
ATOM     35  C   UNL A   1      33.828  35.040  28.836  1.00  0.00     0.188 C 
BRANCH  35  36
ATOM     36  O   UNL A   1      33.462  35.168  30.205  1.00  0.00    -0.376 OA
BRANCH  36  37
ATOM     37  C   UNL A   1      34.035  34.295  31.167  1.00  0.00     0.202 C 
BRANCH  37  38
ATOM     38  C   UNL A   1      35.513  33.914  30.991  1.00  0.00     0.261 C 
BRANCH  38  39
ATOM     39  O   UNL A   1      35.774  32.525  30.751  1.00  0.00    -0.460 OA
BRANCH  39  40
ATOM     40  C   UNL A   1      36.393  31.836  31.738  1.00  0.00     0.338 C 
ATOM     41  O   UNL A   1      36.002  31.658  32.869  1.00  0.00    -0.246 OA
BRANCH  40  42
ATOM     42  C   UNL A   1      37.554  31.152  31.127  1.00  0.00     0.060 A 
ATOM     43  C   UNL A   1      38.480  30.517  31.964  1.00  0.00     0.016 A 
ATOM     44  C   UNL A   1      37.702  31.108  29.739  1.00  0.00     0.016 A 
ATOM     45  C   UNL A   1      39.571  29.847  31.414  1.00  0.00     0.010 A 
ATOM     46  C   UNL A   1      38.813  30.463  29.191  1.00  0.00     0.010 A 
ATOM     47  C   UNL A   1      39.763  29.852  30.027  1.00  0.00    -0.014 A 
BRANCH  47  48
ATOM     48  C   UNL A   1      41.053  29.389  29.464  1.00  0.00     0.031 A 
ATOM     49  C   UNL A   1      42.163  30.389  29.310  1.00  0.00     0.074 A 
ATOM     50  C   UNL A   1      41.240  28.106  29.109  1.00  0.00     0.049 A 
ATOM     51  N   UNL A   1      43.353  30.239  28.791  1.00  0.00    -0.248 NA
ATOM     52  C   UNL A   1      41.888  31.747  29.810  1.00  0.00     0.031 C 
ATOM     53  C   UNL A   1      40.256  27.035  29.253  1.00  0.00     0.029 A 
ATOM     54  N   UNL A   1      42.329  27.493  28.542  1.00  0.00    -0.354 N 
ATOM     55  C   UNL A   1      43.966  31.482  28.892  1.00  0.00     0.074 A 
ATOM     56  C   UNL A   1      43.006  32.382  29.495  1.00  0.00     0.031 C 
ATOM     57  C   UNL A   1      40.782  25.896  28.769  1.00  0.00     0.029 A 
ATOM     58  C   UNL A   1      42.122  26.168  28.250  1.00  0.00     0.049 A 
ATOM     59  H   UNL A   1      43.177  27.959  28.362  1.00  0.00     0.167 HD
ATOM     60  C   UNL A   1      45.217  31.839  28.521  1.00  0.00     0.037 A 
ATOM     61  C   UNL A   1      42.916  25.286  27.610  1.00  0.00     0.037 A 
ATOM     62  C   UNL A   1      46.164  30.943  27.913  1.00  0.00     0.049 A 
ATOM     63  C   UNL A   1      44.272  25.730  27.125  1.00  0.00     0.074 A 
ATOM     64  C   UNL A   1      47.464  31.201  27.519  1.00  0.00     0.029 A 
ATOM     65  N   UNL A   1      45.904  29.618  27.596  1.00  0.00    -0.354 N 
ATOM     66  N   UNL A   1      44.858  26.898  27.252  1.00  0.00    -0.248 NA
ATOM     67  C   UNL A   1      45.079  24.733  26.406  1.00  0.00     0.031 C 
ATOM     68  C   UNL A   1      47.969  30.051  26.905  1.00  0.00     0.029 A 
ATOM     69  C   UNL A   1      47.008  29.055  26.976  1.00  0.00     0.049 A 
ATOM     70  H   UNL A   1      45.060  29.146  27.785  1.00  0.00     0.167 HD
ATOM     71  C   UNL A   1      46.105  26.768  26.653  1.00  0.00     0.074 A 
ATOM     72  C   UNL A   1      46.199  25.403  26.178  1.00  0.00     0.031 C 
ATOM     73  C   UNL A   1      47.085  27.694  26.507  1.00  0.00     0.037 A 
BRANCH  60  74
ATOM     74  C   UNL A   1      45.617  33.272  28.728  1.00  0.00     0.057 A 
ATOM     75  C   UNL A   1      46.247  33.708  29.900  1.00  0.00     0.134 A 
ATOM     76  C   UNL A   1      45.384  34.226  27.728  1.00  0.00     0.134 A 
ATOM     77  F   UNL A   1      46.485  32.850  30.905  1.00  0.00    -0.206 F 
ATOM     78  C   UNL A   1      46.607  35.044  30.083  1.00  0.00     0.040 A 
ATOM     79  C   UNL A   1      45.766  35.558  27.887  1.00  0.00     0.040 A 
ATOM     80  F   UNL A   1      44.786  33.876  26.579  1.00  0.00    -0.206 F 
ATOM     81  C   UNL A   1      46.374  35.972  29.069  1.00  0.00     0.006 A 
ENDBRANCH  60  74
BRANCH  61  82
ATOM     82  C   UNL A   1      42.442  23.898  27.367  1.00  0.00     0.057 A 
ATOM     83  C   UNL A   1      41.950  23.507  26.117  1.00  0.00     0.134 A 
ATOM     84  C   UNL A   1      42.448  22.936  28.386  1.00  0.00     0.134 A 
ATOM     85  F   UNL A   1      41.894  24.389  25.108  1.00  0.00    -0.206 F 
ATOM     86  C   UNL A   1      41.466  22.217  25.892  1.00  0.00     0.040 A 
ATOM     87  C   UNL A   1      41.994  21.635  28.167  1.00  0.00     0.040 A 
ATOM     88  F   UNL A   1      42.906  23.245  29.608  1.00  0.00    -0.206 F 
ATOM     89  C   UNL A   1      41.493  21.275  26.919  1.00  0.00     0.006 A 
ENDBRANCH  61  82
BRANCH  73  90
ATOM     90  C   UNL A   1      48.356  27.260  25.830  1.00  0.00     0.057 A 
ATOM     91  C   UNL A   1      49.433  26.725  26.548  1.00  0.00     0.134 A 
ATOM     92  C   UNL A   1      48.485  27.336  24.436  1.00  0.00     0.134 A 
ATOM     93  F   UNL A   1      49.380  26.633  27.887  1.00  0.00    -0.206 F 
ATOM     94  C   UNL A   1      50.601  26.304  25.909  1.00  0.00     0.040 A 
ATOM     95  C   UNL A   1      49.635  26.889  23.782  1.00  0.00     0.040 A 
ATOM     96  F   UNL A   1      47.488  27.826  23.685  1.00  0.00    -0.206 F 
ATOM     97  C   UNL A   1      50.700  26.378  24.521  1.00  0.00     0.006 A 
ENDBRANCH  73  90
ENDBRANCH  47  48
ENDBRANCH  40  42
ENDBRANCH  39  40
ENDBRANCH  38  39
ENDBRANCH  37  38
ENDBRANCH  36  37
ENDBRANCH  35  36
ENDBRANCH  34  35
ENDBRANCH   1  34
TORSDOF 24
ENDMDL
MODEL 3
REMARK VINA RESULT:      -8.8      4.123     10.381
REMARK SMILES COc1cc2c(cc1OC)[C@H](C(=O)OCCOCCOCCOCCOC(=O)c1ccc(-c3c4nc(c(-c5c(F)cccc5F)c5ccc([nH]5)c(-c5c(F)cccc5F)c5nc(c(-c6c(F)cccc6F)c6ccc3[nH]6)C=C5)C=C4)cc1)[C@@H](c1ccc(SC)cc1)N(C)C2=O
REMARK SMILES IDX 20 1 19 2 18 3 17 4 16 5 15 6 14 7 12 8 13 9 11 10 3 11 4 12
REMARK SMILES IDX 8 13 5 14 7 15 6 16 94 17 92 18 95 19 83 20 93 21 2 22 1 23
REMARK SMILES IDX 9 24 10 25 84 26 85 27 91 28 86 29 90 30 87 31 88 32 89 33
REMARK SMILES IDX 21 34 22 35 23 36 24 37 25 38 26 39 27 40 28 41 29 42 30 43
REMARK SMILES IDX 82 44 31 45 81 46 32 47 33 48 34 49 75 50 35 51 80 52 74 53
REMARK SMILES IDX 76 54 36 55 79 56 73 57 72 58 37 60 63 61 46 62 62 63 47 64
REMARK SMILES IDX 50 65 61 66 77 67 48 68 49 69 60 71 78 72 51 73 38 74 39 75
REMARK SMILES IDX 44 76 40 77 41 78 43 79 45 80 42 81 64 82 65 83 70 84 66 85
REMARK SMILES IDX 67 86 69 87 71 88 68 89 52 90 53 91 58 92 54 93 55 94 57 95
REMARK SMILES IDX 59 96 56 97
REMARK H PARENT 76 59 50 70
REMARK Flexibility Score: inf
ROOT
ATOM      1  O   UNL A   1      40.435  21.390  27.587  1.00  0.00    -0.377 OA
ENDROOT
BRANCH   1   2
ATOM      2  C   UNL A   1      39.890  21.142  26.311  1.00  0.00     0.188 C 
BRANCH   2   3
ATOM      3  C   UNL A   1      38.775  22.136  25.917  1.00  0.00     0.188 C 
BRANCH   3   4
ATOM      4  O   UNL A   1      37.408  21.800  26.117  1.00  0.00    -0.376 OA
BRANCH   4   5
ATOM      5  C   UNL A   1      36.423  22.081  25.128  1.00  0.00     0.202 C 
BRANCH   5   6
ATOM      6  C   UNL A   1      35.820  23.483  24.931  1.00  0.00     0.261 C 
BRANCH   6   7
ATOM      7  O   UNL A   1      34.952  23.566  23.802  1.00  0.00    -0.463 OA
BRANCH   7   8
ATOM      8  C   UNL A   1      33.992  24.530  23.769  1.00  0.00     0.316 C 
ATOM      9  O   UNL A   1      33.817  25.311  22.846  1.00  0.00    -0.251 OA
BRANCH   8  10
ATOM     10  C   UNL A   1      33.155  24.454  25.046  1.00  0.00     0.157 C 
ATOM     11  C   UNL A   1      32.136  28.417  26.490  1.00  0.00     0.161 A 
ATOM     12  C   UNL A   1      31.186  27.380  26.483  1.00  0.00     0.064 A 
ATOM     13  C   UNL A   1      33.456  28.139  26.135  1.00  0.00     0.161 A 
ATOM     14  C   UNL A   1      31.529  26.078  26.078  1.00  0.00     0.048 A 
ATOM     15  C   UNL A   1      33.773  26.841  25.718  1.00  0.00     0.056 A 
ATOM     16  C   UNL A   1      32.805  25.821  25.594  1.00  0.00    -0.015 A 
ATOM     17  C   UNL A   1      30.562  24.966  26.298  1.00  0.00     0.254 C 
ATOM     18  N   UNL A   1      30.930  23.681  25.887  1.00  0.00    -0.333 N 
ATOM     19  O   UNL A   1      29.512  25.207  26.888  1.00  0.00    -0.269 OA
ATOM     20  C   UNL A   1      31.949  23.502  24.829  1.00  0.00     0.134 C 
ATOM     21  C   UNL A   1      29.998  22.602  26.191  1.00  0.00     0.147 C 
BRANCH  11  22
ATOM     22  O   UNL A   1      31.752  29.700  26.765  1.00  0.00    -0.493 OA
ATOM     23  C   UNL A   1      31.457  30.467  25.600  1.00  0.00     0.278 C 
ENDBRANCH  11  22
BRANCH  13  24
ATOM     24  O   UNL A   1      34.548  28.962  26.142  1.00  0.00    -0.493 OA
ATOM     25  C   UNL A   1      35.355  29.032  27.307  1.00  0.00     0.278 C 
ENDBRANCH  13  24
BRANCH  20  26
ATOM     26  C   UNL A   1      32.374  22.025  24.655  1.00  0.00    -0.024 A 
ATOM     27  C   UNL A   1      32.934  21.261  25.689  1.00  0.00     0.007 A 
ATOM     28  C   UNL A   1      32.176  21.382  23.422  1.00  0.00     0.007 A 
ATOM     29  C   UNL A   1      33.397  19.954  25.463  1.00  0.00     0.015 A 
ATOM     30  C   UNL A   1      32.588  20.054  23.212  1.00  0.00     0.015 A 
ATOM     31  C   UNL A   1      33.228  19.336  24.221  1.00  0.00     0.007 A 
BRANCH  31  32
ATOM     32  S   UNL A   1      33.910  17.695  24.023  1.00  0.00    -0.130 SA
ATOM     33  C   UNL A   1      33.223  16.799  25.439  1.00  0.00     0.091 C 
ENDBRANCH  31  32
ENDBRANCH  20  26
ENDBRANCH   8  10
ENDBRANCH   7   8
ENDBRANCH   6   7
ENDBRANCH   5   6
ENDBRANCH   4   5
ENDBRANCH   3   4
ENDBRANCH   2   3
ENDBRANCH   1   2
BRANCH   1  34
ATOM     34  C   UNL A   1      41.850  21.531  27.632  1.00  0.00     0.188 C 
BRANCH  34  35
ATOM     35  C   UNL A   1      42.557  22.528  26.676  1.00  0.00     0.188 C 
BRANCH  35  36
ATOM     36  O   UNL A   1      43.845  22.967  27.091  1.00  0.00    -0.376 OA
BRANCH  36  37
ATOM     37  C   UNL A   1      44.846  23.221  26.117  1.00  0.00     0.202 C 
BRANCH  37  38
ATOM     38  C   UNL A   1      44.457  24.083  24.905  1.00  0.00     0.261 C 
BRANCH  38  39
ATOM     39  O   UNL A   1      44.373  25.493  25.145  1.00  0.00    -0.460 OA
BRANCH  39  40
ATOM     40  C   UNL A   1      43.133  26.027  25.248  1.00  0.00     0.338 C 
ATOM     41  O   UNL A   1      42.078  25.493  24.993  1.00  0.00    -0.246 OA
BRANCH  40  42
ATOM     42  C   UNL A   1      43.278  27.330  25.933  1.00  0.00     0.060 A 
ATOM     43  C   UNL A   1      44.316  27.495  26.858  1.00  0.00     0.016 A 
ATOM     44  C   UNL A   1      42.418  28.389  25.634  1.00  0.00     0.016 A 
ATOM     45  C   UNL A   1      44.490  28.719  27.501  1.00  0.00     0.010 A 
ATOM     46  C   UNL A   1      42.573  29.605  26.302  1.00  0.00     0.010 A 
ATOM     47  C   UNL A   1      43.593  29.765  27.256  1.00  0.00    -0.014 A 
BRANCH  47  48
ATOM     48  C   UNL A   1      43.603  30.959  28.133  1.00  0.00     0.031 A 
ATOM     49  C   UNL A   1      44.641  32.015  27.886  1.00  0.00     0.074 A 
ATOM     50  C   UNL A   1      42.702  31.108  29.120  1.00  0.00     0.049 A 
ATOM     51  N   UNL A   1      44.888  33.113  28.552  1.00  0.00    -0.248 NA
ATOM     52  C   UNL A   1      45.525  31.800  26.727  1.00  0.00     0.031 C 
ATOM     53  C   UNL A   1      41.620  30.176  29.428  1.00  0.00     0.029 A 
ATOM     54  N   UNL A   1      42.567  32.106  30.052  1.00  0.00    -0.354 N 
ATOM     55  C   UNL A   1      45.958  33.714  27.900  1.00  0.00     0.074 A 
ATOM     56  C   UNL A   1      46.332  32.846  26.805  1.00  0.00     0.031 C 
ATOM     57  C   UNL A   1      40.940  30.639  30.491  1.00  0.00     0.029 A 
ATOM     58  C   UNL A   1      41.562  31.878  30.959  1.00  0.00     0.049 A 
ATOM     59  H   UNL A   1      43.137  32.909  30.070  1.00  0.00     0.167 HD
ATOM     60  C   UNL A   1      46.569  34.887  28.187  1.00  0.00     0.037 A 
ATOM     61  C   UNL A   1      41.206  32.576  32.055  1.00  0.00     0.037 A 
ATOM     62  C   UNL A   1      46.199  35.742  29.283  1.00  0.00     0.049 A 
ATOM     63  C   UNL A   1      41.959  33.833  32.406  1.00  0.00     0.074 A 
ATOM     64  C   UNL A   1      46.741  36.961  29.646  1.00  0.00     0.029 A 
ATOM     65  N   UNL A   1      45.201  35.457  30.203  1.00  0.00    -0.354 N 
ATOM     66  N   UNL A   1      42.949  34.413  31.769  1.00  0.00    -0.248 NA
ATOM     67  C   UNL A   1      41.546  34.534  33.631  1.00  0.00     0.031 C 
ATOM     68  C   UNL A   1      46.116  37.383  30.823  1.00  0.00     0.029 A 
ATOM     69  C   UNL A   1      45.138  36.460  31.157  1.00  0.00     0.049 A 
ATOM     70  H   UNL A   1      44.622  34.661  30.182  1.00  0.00     0.167 HD
ATOM     71  C   UNL A   1      43.259  35.555  32.499  1.00  0.00     0.074 A 
ATOM     72  C   UNL A   1      42.340  35.595  33.617  1.00  0.00     0.031 C 
ATOM     73  C   UNL A   1      44.218  36.485  32.267  1.00  0.00     0.037 A 
BRANCH  60  74
ATOM     74  C   UNL A   1      47.728  35.292  27.322  1.00  0.00     0.057 A 
ATOM     75  C   UNL A   1      49.035  34.854  27.575  1.00  0.00     0.134 A 
ATOM     76  C   UNL A   1      47.529  36.117  26.208  1.00  0.00     0.134 A 
ATOM     77  F   UNL A   1      49.299  34.076  28.636  1.00  0.00    -0.206 F 
ATOM     78  C   UNL A   1      50.105  35.245  26.768  1.00  0.00     0.040 A 
ATOM     79  C   UNL A   1      48.586  36.490  25.376  1.00  0.00     0.040 A 
ATOM     80  F   UNL A   1      46.303  36.571  25.907  1.00  0.00    -0.206 F 
ATOM     81  C   UNL A   1      49.879  36.059  25.659  1.00  0.00     0.006 A 
ENDBRANCH  60  74
BRANCH  61  82
ATOM     82  C   UNL A   1      40.097  32.092  32.918  1.00  0.00     0.057 A 
ATOM     83  C   UNL A   1      38.775  32.493  32.695  1.00  0.00     0.134 A 
ATOM     84  C   UNL A   1      40.335  31.235  34.000  1.00  0.00     0.134 A 
ATOM     85  F   UNL A   1      38.485  33.333  31.690  1.00  0.00    -0.206 F 
ATOM     86  C   UNL A   1      37.733  32.075  33.525  1.00  0.00     0.040 A 
ATOM     87  C   UNL A   1      39.299  30.786  34.822  1.00  0.00     0.040 A 
ATOM     88  F   UNL A   1      41.579  30.812  34.270  1.00  0.00    -0.206 F 
ATOM     89  C   UNL A   1      37.995  31.213  34.589  1.00  0.00     0.006 A 
ENDBRANCH  61  82
BRANCH  73  90
ATOM     90  C   UNL A   1      44.308  37.642  33.223  1.00  0.00     0.057 A 
ATOM     91  C   UNL A   1      43.721  38.883  32.943  1.00  0.00     0.134 A 
ATOM     92  C   UNL A   1      44.952  37.499  34.460  1.00  0.00     0.134 A 
ATOM     93  F   UNL A   1      43.098  39.093  31.773  1.00  0.00    -0.206 F 
ATOM     94  C   UNL A   1      43.792  39.945  33.847  1.00  0.00     0.040 A 
ATOM     95  C   UNL A   1      45.002  38.543  35.385  1.00  0.00     0.040 A 
ATOM     96  F   UNL A   1      45.526  36.334  34.798  1.00  0.00    -0.206 F 
ATOM     97  C   UNL A   1      44.427  39.773  35.075  1.00  0.00     0.006 A 
ENDBRANCH  73  90
ENDBRANCH  47  48
ENDBRANCH  40  42
ENDBRANCH  39  40
ENDBRANCH  38  39
ENDBRANCH  37  38
ENDBRANCH  36  37
ENDBRANCH  35  36
ENDBRANCH  34  35
ENDBRANCH   1  34
TORSDOF 24
ENDMDL
