MODEL 1
REMARK VINA RESULT:     -10.8      0.000      0.000
REMARK SMILES O=C(OCCOCCOCCOCCOC(=O)c1ccc(C[N@H+]2CC[N@H+]3CCCC[C@@H]3C2)c(F)c1)c1ccc(-c2c3nc(c(-c4c(F)cccc4F)c4ccc([nH]4)c(-c4c(F)cccc4F)c4nc(c(-c5c(F)cccc5F)c5ccc2[nH]5)C=C4)C=C3)cc1
REMARK SMILES IDX 9 1 8 2 7 3 6 4 5 5 4 6 3 7 2 8 1 9 36 10 37 11 89 12 38 13
REMARK SMILES IDX 88 14 39 15 40 16 41 17 82 18 42 19 87 20 81 21 83 22 43 23
REMARK SMILES IDX 86 24 80 25 79 26 44 28 70 29 53 30 69 31 54 32 57 33 68 34
REMARK SMILES IDX 84 35 55 36 56 37 67 39 85 40 58 41 45 42 46 43 51 44 47 45
REMARK SMILES IDX 48 46 50 47 52 48 49 49 71 50 72 51 77 52 73 53 74 54 76 55
REMARK SMILES IDX 78 56 75 57 59 58 60 59 65 60 61 61 62 62 64 63 66 64 63 65
REMARK SMILES IDX 10 66 11 67 12 68 13 69 14 70 15 71 16 72 17 73 18 74 19 75
REMARK SMILES IDX 35 76 20 77 33 78 21 79 34 80 22 81 23 82 24 83 32 84 25 86
REMARK SMILES IDX 31 87 26 88 30 89 27 90 29 92 28 93
REMARK H PARENT 83 27 57 38 23 85 26 91
REMARK Flexibility Score: inf
ROOT
ATOM      1  O   UNL A   1      33.394  31.383  27.613  1.00  0.00    -0.377 OA
ENDROOT
BRANCH   1   2
ATOM      2  C   UNL A   1      34.440  32.249  28.032  1.00  0.00     0.188 C 
BRANCH   2   3
ATOM      3  C   UNL A   1      33.989  33.616  28.533  1.00  0.00     0.188 C 
BRANCH   3   4
ATOM      4  O   UNL A   1      34.802  34.054  29.622  1.00  0.00    -0.376 OA
BRANCH   4   5
ATOM      5  C   UNL A   1      34.109  34.692  30.693  1.00  0.00     0.202 C 
BRANCH   5   6
ATOM      6  C   UNL A   1      34.134  33.912  32.009  1.00  0.00     0.261 C 
BRANCH   6   7
ATOM      7  O   UNL A   1      34.740  32.620  31.874  1.00  0.00    -0.460 OA
BRANCH   7   8
ATOM      8  C   UNL A   1      35.842  32.142  32.504  1.00  0.00     0.338 C 
ATOM      9  O   UNL A   1      35.937  32.331  33.718  1.00  0.00    -0.246 OA
BRANCH   8  10
ATOM     10  C   UNL A   1      36.960  31.403  31.832  1.00  0.00     0.060 A 
ATOM     11  C   UNL A   1      37.941  30.639  32.467  1.00  0.00     0.016 A 
ATOM     12  C   UNL A   1      36.977  31.439  30.425  1.00  0.00     0.016 A 
ATOM     13  C   UNL A   1      38.930  29.975  31.757  1.00  0.00     0.010 A 
ATOM     14  C   UNL A   1      37.967  30.773  29.695  1.00  0.00     0.010 A 
ATOM     15  C   UNL A   1      38.963  30.065  30.371  1.00  0.00    -0.014 A 
BRANCH  15  16
ATOM     16  C   UNL A   1      40.184  29.598  29.697  1.00  0.00     0.031 A 
ATOM     17  C   UNL A   1      41.343  30.546  29.650  1.00  0.00     0.074 A 
ATOM     18  C   UNL A   1      40.296  28.316  29.312  1.00  0.00     0.049 A 
ATOM     19  N   UNL A   1      42.507  30.405  29.082  1.00  0.00    -0.248 NA
ATOM     20  C   UNL A   1      41.173  31.827  30.365  1.00  0.00     0.031 C 
ATOM     21  C   UNL A   1      39.267  27.289  29.494  1.00  0.00     0.029 A 
ATOM     22  N   UNL A   1      41.337  27.648  28.729  1.00  0.00    -0.354 N 
ATOM     23  C   UNL A   1      43.194  31.583  29.347  1.00  0.00     0.074 A 
ATOM     24  C   UNL A   1      42.322  32.434  30.120  1.00  0.00     0.031 C 
ATOM     25  C   UNL A   1      39.740  26.114  29.047  1.00  0.00     0.029 A 
ATOM     26  C   UNL A   1      41.068  26.323  28.483  1.00  0.00     0.049 A 
ATOM     27  H   UNL A   1      42.196  28.075  28.508  1.00  0.00     0.167 HD
ATOM     28  C   UNL A   1      44.448  31.913  28.968  1.00  0.00     0.037 A 
ATOM     29  C   UNL A   1      41.812  25.405  27.838  1.00  0.00     0.037 A 
ATOM     30  C   UNL A   1      45.284  31.033  28.203  1.00  0.00     0.049 A 
ATOM     31  C   UNL A   1      43.150  25.842  27.302  1.00  0.00     0.074 A 
ATOM     32  C   UNL A   1      46.536  31.273  27.672  1.00  0.00     0.029 A 
ATOM     33  N   UNL A   1      44.939  29.730  27.867  1.00  0.00    -0.354 N 
ATOM     34  N   UNL A   1      43.760  26.996  27.453  1.00  0.00    -0.248 NA
ATOM     35  C   UNL A   1      43.891  24.871  26.490  1.00  0.00     0.031 C 
ATOM     36  C   UNL A   1      46.929  30.127  26.975  1.00  0.00     0.029 A 
ATOM     37  C   UNL A   1      45.949  29.154  27.120  1.00  0.00     0.049 A 
ATOM     38  H   UNL A   1      44.101  29.282  28.123  1.00  0.00     0.167 HD
ATOM     39  C   UNL A   1      44.963  26.886  26.771  1.00  0.00     0.074 A 
ATOM     40  C   UNL A   1      45.002  25.544  26.219  1.00  0.00     0.031 C 
ATOM     41  C   UNL A   1      45.945  27.806  26.606  1.00  0.00     0.037 A 
BRANCH  28  42
ATOM     42  C   UNL A   1      44.937  33.286  29.318  1.00  0.00     0.057 A 
ATOM     43  C   UNL A   1      45.614  33.509  30.524  1.00  0.00     0.134 A 
ATOM     44  C   UNL A   1      44.755  34.383  28.467  1.00  0.00     0.134 A 
ATOM     45  F   UNL A   1      45.835  32.498  31.377  1.00  0.00    -0.206 F 
ATOM     46  C   UNL A   1      46.082  34.776  30.876  1.00  0.00     0.040 A 
ATOM     47  C   UNL A   1      45.239  35.651  28.798  1.00  0.00     0.040 A 
ATOM     48  F   UNL A   1      44.146  34.233  27.281  1.00  0.00    -0.206 F 
ATOM     49  C   UNL A   1      45.898  35.851  30.010  1.00  0.00     0.006 A 
ENDBRANCH  28  42
BRANCH  29  50
ATOM     50  C   UNL A   1      41.293  24.029  27.627  1.00  0.00     0.057 A 
ATOM     51  C   UNL A   1      41.808  22.936  28.339  1.00  0.00     0.134 A 
ATOM     52  C   UNL A   1      40.275  23.764  26.703  1.00  0.00     0.134 A 
ATOM     53  F   UNL A   1      42.782  23.115  29.244  1.00  0.00    -0.206 F 
ATOM     54  C   UNL A   1      41.350  21.634  28.126  1.00  0.00     0.040 A 
ATOM     55  C   UNL A   1      39.788  22.469  26.498  1.00  0.00     0.040 A 
ATOM     56  F   UNL A   1      39.722  24.764  26.002  1.00  0.00    -0.206 F 
ATOM     57  C   UNL A   1      40.333  21.399  27.206  1.00  0.00     0.006 A 
ENDBRANCH  29  50
BRANCH  41  58
ATOM     58  C   UNL A   1      47.155  27.386  25.829  1.00  0.00     0.057 A 
ATOM     59  C   UNL A   1      47.214  27.598  24.447  1.00  0.00     0.134 A 
ATOM     60  C   UNL A   1      48.201  26.677  26.429  1.00  0.00     0.134 A 
ATOM     61  F   UNL A   1      46.231  28.259  23.815  1.00  0.00    -0.206 F 
ATOM     62  C   UNL A   1      48.264  27.097  23.681  1.00  0.00     0.040 A 
ATOM     63  C   UNL A   1      49.271  26.196  25.677  1.00  0.00     0.040 A 
ATOM     64  F   UNL A   1      48.200  26.451  27.751  1.00  0.00    -0.206 F 
ATOM     65  C   UNL A   1      49.298  26.393  24.297  1.00  0.00     0.006 A 
ENDBRANCH  41  58
ENDBRANCH  15  16
ENDBRANCH   8  10
ENDBRANCH   7   8
ENDBRANCH   6   7
ENDBRANCH   5   6
ENDBRANCH   4   5
ENDBRANCH   3   4
ENDBRANCH   2   3
ENDBRANCH   1   2
BRANCH   1  66
ATOM     66  C   UNL A   1      33.763  30.120  27.071  1.00  0.00     0.188 C 
BRANCH  66  67
ATOM     67  C   UNL A   1      32.739  28.967  27.118  1.00  0.00     0.188 C 
BRANCH  67  68
ATOM     68  O   UNL A   1      31.592  29.170  26.310  1.00  0.00    -0.376 OA
BRANCH  68  69
ATOM     69  C   UNL A   1      31.858  29.436  24.937  1.00  0.00     0.202 C 
BRANCH  69  70
ATOM     70  C   UNL A   1      30.626  29.677  24.053  1.00  0.00     0.261 C 
BRANCH  70  71
ATOM     71  O   UNL A   1      29.790  28.526  23.793  1.00  0.00    -0.460 OA
BRANCH  71  72
ATOM     72  C   UNL A   1      30.211  27.553  22.950  1.00  0.00     0.338 C 
ATOM     73  O   UNL A   1      30.566  27.676  21.794  1.00  0.00    -0.246 OA
BRANCH  72  74
ATOM     74  C   UNL A   1      30.309  26.311  23.756  1.00  0.00     0.063 A 
ATOM     75  C   UNL A   1      29.949  26.324  25.102  1.00  0.00     0.016 A 
ATOM     76  C   UNL A   1      30.900  25.168  23.208  1.00  0.00     0.055 A 
ATOM     77  C   UNL A   1      30.250  25.218  25.910  1.00  0.00     0.013 A 
ATOM     78  C   UNL A   1      31.294  24.124  24.048  1.00  0.00     0.132 A 
ATOM     79  C   UNL A   1      31.019  24.144  25.416  1.00  0.00     0.042 A 
ATOM     80  F   UNL A   1      31.988  23.108  23.515  1.00  0.00    -0.206 F 
BRANCH  79  81
ATOM     81  C   UNL A   1      31.527  23.046  26.332  1.00  0.00     0.302 C 
BRANCH  81  82
ATOM     82  N   UNL A   1      32.774  23.237  27.091  1.00  0.00    -0.322 N 
ATOM     83  C   UNL A   1      33.321  22.064  27.787  1.00  0.00     0.324 C 
ATOM     84  C   UNL A   1      33.855  23.982  26.438  1.00  0.00     0.328 C 
ATOM     85  H   UNL A   1      32.389  23.853  27.808  1.00  0.00     0.348 HD
ATOM     86  C   UNL A   1      34.354  21.214  27.004  1.00  0.00     0.324 C 
ATOM     87  C   UNL A   1      34.742  23.095  25.532  1.00  0.00     0.239 C 
ATOM     88  N   UNL A   1      35.386  21.985  26.264  1.00  0.00    -0.323 N 
ATOM     89  C   UNL A   1      35.776  23.927  24.769  1.00  0.00     0.071 C 
ATOM     90  C   UNL A   1      36.059  21.091  25.301  1.00  0.00     0.262 C 
ATOM     91  H   UNL A   1      36.067  22.362  26.923  1.00  0.00     0.348 HD
ATOM     92  C   UNL A   1      36.453  23.044  23.725  1.00  0.00     0.012 C 
ATOM     93  C   UNL A   1      37.057  21.810  24.388  1.00  0.00     0.062 C 
ENDBRANCH  81  82
ENDBRANCH  79  81
ENDBRANCH  72  74
ENDBRANCH  71  72
ENDBRANCH  70  71
ENDBRANCH  69  70
ENDBRANCH  68  69
ENDBRANCH  67  68
ENDBRANCH  66  67
ENDBRANCH   1  66
TORSDOF 22
ENDMDL
MODEL 2
REMARK VINA RESULT:     -10.5      0.592      6.016
REMARK SMILES O=C(OCCOCCOCCOCCOC(=O)c1ccc(C[N@H+]2CC[N@H+]3CCCC[C@@H]3C2)c(F)c1)c1ccc(-c2c3nc(c(-c4c(F)cccc4F)c4ccc([nH]4)c(-c4c(F)cccc4F)c4nc(c(-c5c(F)cccc5F)c5ccc2[nH]5)C=C4)C=C3)cc1
REMARK SMILES IDX 9 1 8 2 7 3 6 4 5 5 4 6 3 7 2 8 1 9 36 10 37 11 89 12 38 13
REMARK SMILES IDX 88 14 39 15 40 16 41 17 82 18 42 19 87 20 81 21 83 22 43 23
REMARK SMILES IDX 86 24 80 25 79 26 44 28 70 29 53 30 69 31 54 32 57 33 68 34
REMARK SMILES IDX 84 35 55 36 56 37 67 39 85 40 58 41 45 42 46 43 51 44 47 45
REMARK SMILES IDX 48 46 50 47 52 48 49 49 71 50 72 51 77 52 73 53 74 54 76 55
REMARK SMILES IDX 78 56 75 57 59 58 60 59 65 60 61 61 62 62 64 63 66 64 63 65
REMARK SMILES IDX 10 66 11 67 12 68 13 69 14 70 15 71 16 72 17 73 18 74 19 75
REMARK SMILES IDX 35 76 20 77 33 78 21 79 34 80 22 81 23 82 24 83 32 84 25 86
REMARK SMILES IDX 31 87 26 88 30 89 27 90 29 92 28 93
REMARK H PARENT 83 27 57 38 23 85 26 91
REMARK Flexibility Score: inf
ROOT
ATOM      1  O   UNL A   1      33.552  31.297  27.720  1.00  0.00    -0.377 OA
ENDROOT
BRANCH   1   2
ATOM      2  C   UNL A   1      34.640  32.065  28.216  1.00  0.00     0.188 C 
BRANCH   2   3
ATOM      3  C   UNL A   1      34.255  33.388  28.869  1.00  0.00     0.188 C 
BRANCH   3   4
ATOM      4  O   UNL A   1      35.087  33.660  29.998  1.00  0.00    -0.376 OA
BRANCH   4   5
ATOM      5  C   UNL A   1      34.429  34.238  31.124  1.00  0.00     0.202 C 
BRANCH   5   6
ATOM      6  C   UNL A   1      34.511  33.396  32.398  1.00  0.00     0.261 C 
BRANCH   6   7
ATOM      7  O   UNL A   1      35.268  32.191  32.217  1.00  0.00    -0.460 OA
BRANCH   7   8
ATOM      8  C   UNL A   1      36.423  31.829  32.827  1.00  0.00     0.338 C 
ATOM      9  O   UNL A   1      36.525  32.037  34.036  1.00  0.00    -0.246 OA
BRANCH   8  10
ATOM     10  C   UNL A   1      37.594  31.196  32.135  1.00  0.00     0.060 A 
ATOM     11  C   UNL A   1      38.740  30.692  32.752  1.00  0.00     0.016 A 
ATOM     12  C   UNL A   1      37.490  31.044  30.740  1.00  0.00     0.016 A 
ATOM     13  C   UNL A   1      39.768  30.106  32.029  1.00  0.00     0.010 A 
ATOM     14  C   UNL A   1      38.517  30.454  29.997  1.00  0.00     0.010 A 
ATOM     15  C   UNL A   1      39.673  30.014  30.647  1.00  0.00    -0.014 A 
BRANCH  15  16
ATOM     16  C   UNL A   1      40.897  29.663  29.911  1.00  0.00     0.031 A 
ATOM     17  C   UNL A   1      40.961  28.293  29.306  1.00  0.00     0.074 A 
ATOM     18  C   UNL A   1      41.821  30.602  29.649  1.00  0.00     0.049 A 
ATOM     19  N   UNL A   1      41.932  27.719  28.655  1.00  0.00    -0.248 NA
ATOM     20  C   UNL A   1      39.748  27.462  29.435  1.00  0.00     0.031 C 
ATOM     21  C   UNL A   1      41.734  32.006  30.055  1.00  0.00     0.029 A 
ATOM     22  N   UNL A   1      42.992  30.528  28.946  1.00  0.00    -0.354 N 
ATOM     23  C   UNL A   1      41.460  26.456  28.321  1.00  0.00     0.074 A 
ATOM     24  C   UNL A   1      40.120  26.339  28.843  1.00  0.00     0.031 C 
ATOM     25  C   UNL A   1      42.801  32.666  29.575  1.00  0.00     0.029 A 
ATOM     26  C   UNL A   1      43.677  31.718  28.897  1.00  0.00     0.049 A 
ATOM     27  H   UNL A   1      43.313  29.702  28.517  1.00  0.00     0.167 HD
ATOM     28  C   UNL A   1      42.103  25.486  27.638  1.00  0.00     0.037 A 
ATOM     29  C   UNL A   1      44.893  31.984  28.386  1.00  0.00     0.037 A 
ATOM     30  C   UNL A   1      43.437  25.647  27.131  1.00  0.00     0.049 A 
ATOM     31  C   UNL A   1      45.649  30.846  27.753  1.00  0.00     0.074 A 
ATOM     32  C   UNL A   1      44.242  24.718  26.504  1.00  0.00     0.029 A 
ATOM     33  N   UNL A   1      44.155  26.835  27.196  1.00  0.00    -0.354 N 
ATOM     34  N   UNL A   1      45.249  29.613  27.534  1.00  0.00    -0.248 NA
ATOM     35  C   UNL A   1      47.023  31.119  27.319  1.00  0.00     0.031 C 
ATOM     36  C   UNL A   1      45.468  25.333  26.230  1.00  0.00     0.029 A 
ATOM     37  C   UNL A   1      45.404  26.660  26.634  1.00  0.00     0.049 A 
ATOM     38  H   UNL A   1      43.822  27.676  27.584  1.00  0.00     0.167 HD
ATOM     39  C   UNL A   1      46.314  28.968  26.923  1.00  0.00     0.074 A 
ATOM     40  C   UNL A   1      47.372  29.953  26.792  1.00  0.00     0.031 C 
ATOM     41  C   UNL A   1      46.418  27.680  26.513  1.00  0.00     0.037 A 
BRANCH  28  42
ATOM     42  C   UNL A   1      41.399  24.173  27.472  1.00  0.00     0.057 A 
ATOM     43  C   UNL A   1      41.791  23.061  28.228  1.00  0.00     0.134 A 
ATOM     44  C   UNL A   1      40.332  24.006  26.581  1.00  0.00     0.134 A 
ATOM     45  F   UNL A   1      42.796  23.157  29.109  1.00  0.00    -0.206 F 
ATOM     46  C   UNL A   1      41.153  21.826  28.095  1.00  0.00     0.040 A 
ATOM     47  C   UNL A   1      39.671  22.781  26.457  1.00  0.00     0.040 A 
ATOM     48  F   UNL A   1      39.883  25.039  25.852  1.00  0.00    -0.206 F 
ATOM     49  C   UNL A   1      40.087  21.685  27.210  1.00  0.00     0.006 A 
ENDBRANCH  28  42
BRANCH  29  50
ATOM     50  C   UNL A   1      45.476  33.347  28.499  1.00  0.00     0.057 A 
ATOM     51  C   UNL A   1      45.288  34.308  27.495  1.00  0.00     0.134 A 
ATOM     52  C   UNL A   1      46.243  33.726  29.607  1.00  0.00     0.134 A 
ATOM     53  F   UNL A   1      44.561  34.017  26.406  1.00  0.00    -0.206 F 
ATOM     54  C   UNL A   1      45.858  35.580  27.575  1.00  0.00     0.040 A 
ATOM     55  C   UNL A   1      46.796  35.005  29.714  1.00  0.00     0.040 A 
ATOM     56  F   UNL A   1      46.445  32.865  30.614  1.00  0.00    -0.206 F 
ATOM     57  C   UNL A   1      46.611  35.934  28.691  1.00  0.00     0.006 A 
ENDBRANCH  29  50
BRANCH  41  58
ATOM     58  C   UNL A   1      47.700  27.270  25.856  1.00  0.00     0.057 A 
ATOM     59  C   UNL A   1      48.766  26.790  26.626  1.00  0.00     0.134 A 
ATOM     60  C   UNL A   1      47.913  27.457  24.486  1.00  0.00     0.134 A 
ATOM     61  F   UNL A   1      48.624  26.605  27.948  1.00  0.00    -0.206 F 
ATOM     62  C   UNL A   1      50.011  26.531  26.059  1.00  0.00     0.040 A 
ATOM     63  C   UNL A   1      49.146  27.174  23.902  1.00  0.00     0.040 A 
ATOM     64  F   UNL A   1      46.925  27.907  23.698  1.00  0.00    -0.206 F 
ATOM     65  C   UNL A   1      50.203  26.723  24.691  1.00  0.00     0.006 A 
ENDBRANCH  41  58
ENDBRANCH  15  16
ENDBRANCH   8  10
ENDBRANCH   7   8
ENDBRANCH   6   7
ENDBRANCH   5   6
ENDBRANCH   4   5
ENDBRANCH   3   4
ENDBRANCH   2   3
ENDBRANCH   1   2
BRANCH   1  66
ATOM     66  C   UNL A   1      33.854  30.046  27.111  1.00  0.00     0.188 C 
BRANCH  66  67
ATOM     67  C   UNL A   1      32.790  28.929  27.150  1.00  0.00     0.188 C 
BRANCH  67  68
ATOM     68  O   UNL A   1      31.667  29.161  26.317  1.00  0.00    -0.376 OA
BRANCH  68  69
ATOM     69  C   UNL A   1      31.963  29.315  24.933  1.00  0.00     0.202 C 
BRANCH  69  70
ATOM     70  C   UNL A   1      30.757  29.580  24.020  1.00  0.00     0.261 C 
BRANCH  70  71
ATOM     71  O   UNL A   1      29.864  28.464  23.797  1.00  0.00    -0.460 OA
BRANCH  71  72
ATOM     72  C   UNL A   1      30.215  27.468  22.950  1.00  0.00     0.338 C 
ATOM     73  O   UNL A   1      30.515  27.564  21.776  1.00  0.00    -0.246 OA
BRANCH  72  74
ATOM     74  C   UNL A   1      30.316  26.235  23.769  1.00  0.00     0.063 A 
ATOM     75  C   UNL A   1      29.991  26.270  25.124  1.00  0.00     0.016 A 
ATOM     76  C   UNL A   1      30.877  25.077  23.221  1.00  0.00     0.055 A 
ATOM     77  C   UNL A   1      30.298  25.170  25.938  1.00  0.00     0.013 A 
ATOM     78  C   UNL A   1      31.278  24.039  24.064  1.00  0.00     0.132 A 
ATOM     79  C   UNL A   1      31.039  24.079  25.439  1.00  0.00     0.042 A 
ATOM     80  F   UNL A   1      31.945  23.006  23.527  1.00  0.00    -0.206 F 
BRANCH  79  81
ATOM     81  C   UNL A   1      31.555  22.986  26.355  1.00  0.00     0.302 C 
BRANCH  81  82
ATOM     82  N   UNL A   1      32.815  23.175  27.092  1.00  0.00    -0.322 N 
ATOM     83  C   UNL A   1      33.380  21.999  27.767  1.00  0.00     0.324 C 
ATOM     84  C   UNL A   1      33.881  23.930  26.424  1.00  0.00     0.328 C 
ATOM     85  H   UNL A   1      32.442  23.783  27.821  1.00  0.00     0.348 HD
ATOM     86  C   UNL A   1      34.401  21.159  26.958  1.00  0.00     0.324 C 
ATOM     87  C   UNL A   1      34.754  23.053  25.494  1.00  0.00     0.239 C 
ATOM     88  N   UNL A   1      35.415  21.939  26.205  1.00  0.00    -0.323 N 
ATOM     89  C   UNL A   1      35.770  23.895  24.718  1.00  0.00     0.071 C 
ATOM     90  C   UNL A   1      36.073  21.056  25.222  1.00  0.00     0.262 C 
ATOM     91  H   UNL A   1      36.108  22.313  26.854  1.00  0.00     0.348 HD
ATOM     92  C   UNL A   1      36.430  23.023  23.655  1.00  0.00     0.012 C 
ATOM     93  C   UNL A   1      37.051  21.785  24.296  1.00  0.00     0.062 C 
ENDBRANCH  81  82
ENDBRANCH  79  81
ENDBRANCH  72  74
ENDBRANCH  71  72
ENDBRANCH  70  71
ENDBRANCH  69  70
ENDBRANCH  68  69
ENDBRANCH  67  68
ENDBRANCH  66  67
ENDBRANCH   1  66
TORSDOF 22
ENDMDL
MODEL 3
REMARK VINA RESULT:      -9.9      4.825      8.430
REMARK SMILES O=C(OCCOCCOCCOCCOC(=O)c1ccc(C[N@H+]2CC[N@H+]3CCCC[C@@H]3C2)c(F)c1)c1ccc(-c2c3nc(c(-c4c(F)cccc4F)c4ccc([nH]4)c(-c4c(F)cccc4F)c4nc(c(-c5c(F)cccc5F)c5ccc2[nH]5)C=C4)C=C3)cc1
REMARK SMILES IDX 9 1 8 2 7 3 6 4 5 5 4 6 3 7 2 8 1 9 36 10 37 11 89 12 38 13
REMARK SMILES IDX 88 14 39 15 40 16 41 17 82 18 42 19 87 20 81 21 83 22 43 23
REMARK SMILES IDX 86 24 80 25 79 26 44 28 70 29 53 30 69 31 54 32 57 33 68 34
REMARK SMILES IDX 84 35 55 36 56 37 67 39 85 40 58 41 45 42 46 43 51 44 47 45
REMARK SMILES IDX 48 46 50 47 52 48 49 49 71 50 72 51 77 52 73 53 74 54 76 55
REMARK SMILES IDX 78 56 75 57 59 58 60 59 65 60 61 61 62 62 64 63 66 64 63 65
REMARK SMILES IDX 10 66 11 67 12 68 13 69 14 70 15 71 16 72 17 73 18 74 19 75
REMARK SMILES IDX 35 76 20 77 33 78 21 79 34 80 22 81 23 82 24 83 32 84 25 86
REMARK SMILES IDX 31 87 26 88 30 89 27 90 29 92 28 93
REMARK H PARENT 83 27 57 38 23 85 26 91
REMARK Flexibility Score: inf
ROOT
ATOM      1  O   UNL A   1      35.340  32.348  27.626  1.00  0.00    -0.377 OA
ENDROOT
BRANCH   1   2
ATOM      2  C   UNL A   1      34.728  33.555  28.060  1.00  0.00     0.188 C 
BRANCH   2   3
ATOM      3  C   UNL A   1      33.208  33.586  27.954  1.00  0.00     0.188 C 
BRANCH   3   4
ATOM      4  O   UNL A   1      32.657  34.588  28.811  1.00  0.00    -0.376 OA
BRANCH   4   5
ATOM      5  C   UNL A   1      33.569  35.592  29.253  1.00  0.00     0.202 C 
BRANCH   5   6
ATOM      6  C   UNL A   1      32.920  36.719  30.057  1.00  0.00     0.261 C 
BRANCH   6   7
ATOM      7  O   UNL A   1      33.159  36.601  31.467  1.00  0.00    -0.460 OA
BRANCH   7   8
ATOM      8  C   UNL A   1      33.251  35.470  32.208  1.00  0.00     0.338 C 
ATOM      9  O   UNL A   1      32.210  34.860  32.459  1.00  0.00    -0.246 OA
BRANCH   8  10
ATOM     10  C   UNL A   1      34.529  34.904  32.753  1.00  0.00     0.060 A 
ATOM     11  C   UNL A   1      35.820  35.328  32.431  1.00  0.00     0.016 A 
ATOM     12  C   UNL A   1      34.403  33.895  33.725  1.00  0.00     0.016 A 
ATOM     13  C   UNL A   1      36.946  34.754  33.001  1.00  0.00     0.010 A 
ATOM     14  C   UNL A   1      35.529  33.307  34.310  1.00  0.00     0.010 A 
ATOM     15  C   UNL A   1      36.804  33.722  33.919  1.00  0.00    -0.014 A 
BRANCH  15  16
ATOM     16  C   UNL A   1      38.013  32.958  34.263  1.00  0.00     0.031 A 
ATOM     17  C   UNL A   1      38.473  31.928  33.277  1.00  0.00     0.074 A 
ATOM     18  C   UNL A   1      38.756  33.310  35.326  1.00  0.00     0.049 A 
ATOM     19  N   UNL A   1      39.471  31.093  33.355  1.00  0.00    -0.248 NA
ATOM     20  C   UNL A   1      37.714  31.844  32.014  1.00  0.00     0.031 C 
ATOM     21  C   UNL A   1      38.460  34.426  36.228  1.00  0.00     0.029 A 
ATOM     22  N   UNL A   1      39.931  32.797  35.801  1.00  0.00    -0.354 N 
ATOM     23  C   UNL A   1      39.442  30.370  32.169  1.00  0.00     0.074 A 
ATOM     24  C   UNL A   1      38.330  30.855  31.388  1.00  0.00     0.031 C 
ATOM     25  C   UNL A   1      39.443  34.522  37.139  1.00  0.00     0.029 A 
ATOM     26  C   UNL A   1      40.391  33.434  36.928  1.00  0.00     0.049 A 
ATOM     27  H   UNL A   1      40.401  32.043  35.377  1.00  0.00     0.167 HD
ATOM     28  C   UNL A   1      40.280  29.385  31.780  1.00  0.00     0.037 A 
ATOM     29  C   UNL A   1      41.444  33.134  37.711  1.00  0.00     0.037 A 
ATOM     30  C   UNL A   1      41.379  28.937  32.587  1.00  0.00     0.049 A 
ATOM     31  C   UNL A   1      42.281  31.942  37.328  1.00  0.00     0.074 A 
ATOM     32  C   UNL A   1      42.250  27.890  32.360  1.00  0.00     0.029 A 
ATOM     33  N   UNL A   1      41.755  29.530  33.787  1.00  0.00    -0.354 N 
ATOM     34  N   UNL A   1      42.189  31.180  36.261  1.00  0.00    -0.248 NA
ATOM     35  C   UNL A   1      43.344  31.548  38.259  1.00  0.00     0.031 C 
ATOM     36  C   UNL A   1      43.126  27.821  33.448  1.00  0.00     0.029 A 
ATOM     37  C   UNL A   1      42.838  28.861  34.323  1.00  0.00     0.049 A 
ATOM     38  H   UNL A   1      41.316  30.312  34.194  1.00  0.00     0.167 HD
ATOM     39  C   UNL A   1      43.192  30.229  36.382  1.00  0.00     0.074 A 
ATOM     40  C   UNL A   1      43.889  30.521  37.621  1.00  0.00     0.031 C 
ATOM     41  C   UNL A   1      43.507  29.203  35.554  1.00  0.00     0.037 A 
BRANCH  28  42
ATOM     42  C   UNL A   1      39.990  28.705  30.477  1.00  0.00     0.057 A 
ATOM     43  C   UNL A   1      40.579  29.165  29.292  1.00  0.00     0.134 A 
ATOM     44  C   UNL A   1      39.143  27.592  30.388  1.00  0.00     0.134 A 
ATOM     45  F   UNL A   1      41.410  30.217  29.310  1.00  0.00    -0.206 F 
ATOM     46  C   UNL A   1      40.327  28.551  28.064  1.00  0.00     0.040 A 
ATOM     47  C   UNL A   1      38.903  26.955  29.168  1.00  0.00     0.040 A 
ATOM     48  F   UNL A   1      38.575  27.078  31.489  1.00  0.00    -0.206 F 
ATOM     49  C   UNL A   1      39.491  27.440  28.000  1.00  0.00     0.006 A 
ENDBRANCH  28  42
BRANCH  29  50
ATOM     50  C   UNL A   1      41.725  33.931  38.933  1.00  0.00     0.057 A 
ATOM     51  C   UNL A   1      42.665  34.972  38.927  1.00  0.00     0.134 A 
ATOM     52  C   UNL A   1      41.071  33.671  40.143  1.00  0.00     0.134 A 
ATOM     53  F   UNL A   1      43.327  35.281  37.802  1.00  0.00    -0.206 F 
ATOM     54  C   UNL A   1      42.960  35.706  40.078  1.00  0.00     0.040 A 
ATOM     55  C   UNL A   1      41.337  34.415  41.296  1.00  0.00     0.040 A 
ATOM     56  F   UNL A   1      40.146  32.703  40.216  1.00  0.00    -0.206 F 
ATOM     57  C   UNL A   1      42.291  35.431  41.267  1.00  0.00     0.006 A 
ENDBRANCH  29  50
BRANCH  41  58
ATOM     58  C   UNL A   1      44.671  28.343  35.940  1.00  0.00     0.057 A 
ATOM     59  C   UNL A   1      44.486  27.241  36.784  1.00  0.00     0.134 A 
ATOM     60  C   UNL A   1      45.980  28.673  35.571  1.00  0.00     0.134 A 
ATOM     61  F   UNL A   1      43.255  26.886  37.183  1.00  0.00    -0.206 F 
ATOM     62  C   UNL A   1      45.568  26.508  37.266  1.00  0.00     0.040 A 
ATOM     63  C   UNL A   1      47.068  27.929  36.024  1.00  0.00     0.040 A 
ATOM     64  F   UNL A   1      46.216  29.714  34.758  1.00  0.00    -0.206 F 
ATOM     65  C   UNL A   1      46.864  26.852  36.885  1.00  0.00     0.006 A 
ENDBRANCH  41  58
ENDBRANCH  15  16
ENDBRANCH   8  10
ENDBRANCH   7   8
ENDBRANCH   6   7
ENDBRANCH   5   6
ENDBRANCH   4   5
ENDBRANCH   3   4
ENDBRANCH   2   3
ENDBRANCH   1   2
BRANCH   1  66
ATOM     66  C   UNL A   1      34.966  31.146  28.291  1.00  0.00     0.188 C 
BRANCH  66  67
ATOM     67  C   UNL A   1      35.120  29.807  27.539  1.00  0.00     0.188 C 
BRANCH  67  68
ATOM     68  O   UNL A   1      34.171  29.603  26.507  1.00  0.00    -0.376 OA
BRANCH  68  69
ATOM     69  C   UNL A   1      32.863  30.092  26.781  1.00  0.00     0.202 C 
BRANCH  69  70
ATOM     70  C   UNL A   1      31.775  29.688  25.776  1.00  0.00     0.261 C 
BRANCH  70  71
ATOM     71  O   UNL A   1      32.121  28.635  24.846  1.00  0.00    -0.460 OA
BRANCH  71  72
ATOM     72  C   UNL A   1      31.213  27.684  24.525  1.00  0.00     0.338 C 
ATOM     73  O   UNL A   1      30.426  27.693  23.598  1.00  0.00    -0.246 OA
BRANCH  72  74
ATOM     74  C   UNL A   1      31.462  26.539  25.435  1.00  0.00     0.063 A 
ATOM     75  C   UNL A   1      32.767  26.112  25.676  1.00  0.00     0.016 A 
ATOM     76  C   UNL A   1      30.387  25.795  25.932  1.00  0.00     0.055 A 
ATOM     77  C   UNL A   1      32.986  24.903  26.352  1.00  0.00     0.013 A 
ATOM     78  C   UNL A   1      30.619  24.542  26.501  1.00  0.00     0.132 A 
ATOM     79  C   UNL A   1      31.913  24.050  26.684  1.00  0.00     0.042 A 
ATOM     80  F   UNL A   1      29.560  23.790  26.836  1.00  0.00    -0.206 F 
BRANCH  79  81
ATOM     81  C   UNL A   1      32.149  22.652  27.224  1.00  0.00     0.302 C 
BRANCH  81  82
ATOM     82  N   UNL A   1      32.568  21.572  26.316  1.00  0.00    -0.322 N 
ATOM     83  C   UNL A   1      32.032  21.600  24.948  1.00  0.00     0.324 C 
ATOM     84  C   UNL A   1      33.993  21.228  26.288  1.00  0.00     0.328 C 
ATOM     85  H   UNL A   1      32.095  20.811  26.803  1.00  0.00     0.348 HD
ATOM     86  C   UNL A   1      32.886  22.335  23.884  1.00  0.00     0.324 C 
ATOM     87  C   UNL A   1      34.815  22.122  25.330  1.00  0.00     0.239 C 
ATOM     88  N   UNL A   1      34.343  22.054  23.930  1.00  0.00    -0.323 N 
ATOM     89  C   UNL A   1      36.313  21.821  25.424  1.00  0.00     0.071 C 
ATOM     90  C   UNL A   1      35.057  23.066  23.126  1.00  0.00     0.262 C 
ATOM     91  H   UNL A   1      34.523  21.123  23.556  1.00  0.00     0.348 HD
ATOM     92  C   UNL A   1      37.084  22.882  24.646  1.00  0.00     0.012 C 
ATOM     93  C   UNL A   1      36.583  22.953  23.206  1.00  0.00     0.062 C 
ENDBRANCH  81  82
ENDBRANCH  79  81
ENDBRANCH  72  74
ENDBRANCH  71  72
ENDBRANCH  70  71
ENDBRANCH  69  70
ENDBRANCH  68  69
ENDBRANCH  67  68
ENDBRANCH  66  67
ENDBRANCH   1  66
TORSDOF 22
ENDMDL
