MODEL 1
REMARK VINA RESULT:     -10.5      0.000      0.000
REMARK SMILES Cc1cc(N2CCOC[C@H]2C(=O)OCCOCCOCCOCCOC(=O)c2ccc(-c3c4nc(c(-c5c(F)cccc5F)c5ccc([nH]5)c(-c5c(F)cccc5F)c5nc(c(-c6c(F)cccc6F)c6ccc3[nH]6)C=C5)C=C4)cc2)ncc1[N+](=O)[O-]
REMARK SMILES IDX 19 1 18 2 17 3 16 4 15 5 14 6 13 7 11 8 12 9 10 10 5 11 6 12
REMARK SMILES IDX 7 13 9 14 8 15 4 16 1 17 2 18 3 19 84 20 83 21 82 22 85 23
REMARK SMILES IDX 86 24 87 25 20 26 21 27 22 28 23 29 24 30 25 31 26 32 27 33
REMARK SMILES IDX 28 34 29 35 81 36 30 37 80 38 31 39 32 40 33 41 74 42 34 43
REMARK SMILES IDX 79 44 73 45 75 46 35 47 78 48 72 49 71 50 36 52 62 53 45 54
REMARK SMILES IDX 61 55 46 56 49 57 60 58 76 59 47 60 48 61 59 63 77 64 50 65
REMARK SMILES IDX 37 66 38 67 43 68 39 69 40 70 42 71 44 72 41 73 63 74 64 75
REMARK SMILES IDX 69 76 65 77 66 78 68 79 70 80 67 81 51 82 52 83 57 84 53 85
REMARK SMILES IDX 54 86 56 87 58 88 55 89
REMARK H PARENT 75 51 49 62
REMARK Flexibility Score: inf
ROOT
ATOM      1  O   UNL A   1      35.071  20.114  24.995  1.00  0.00    -0.377 OA
ENDROOT
BRANCH   1   2
ATOM      2  C   UNL A   1      33.665  20.009  24.890  1.00  0.00     0.188 C 
BRANCH   2   3
ATOM      3  C   UNL A   1      32.991  21.287  24.375  1.00  0.00     0.188 C 
BRANCH   3   4
ATOM      4  O   UNL A   1      31.861  21.667  25.134  1.00  0.00    -0.376 OA
BRANCH   4   5
ATOM      5  C   UNL A   1      32.036  22.405  26.335  1.00  0.00     0.202 C 
BRANCH   5   6
ATOM      6  C   UNL A   1      32.766  23.763  26.470  1.00  0.00     0.261 C 
BRANCH   6   7
ATOM      7  O   UNL A   1      32.585  24.773  25.467  1.00  0.00    -0.462 OA
BRANCH   7   8
ATOM      8  C   UNL A   1      31.365  25.335  25.315  1.00  0.00     0.331 C 
ATOM      9  O   UNL A   1      30.620  25.600  26.254  1.00  0.00    -0.250 OA
BRANCH   8  10
ATOM     10  C   UNL A   1      30.972  25.578  23.845  1.00  0.00     0.220 C 
ATOM     11  N   UNL A   1      31.339  26.886  23.240  1.00  0.00    -0.339 N 
ATOM     12  C   UNL A   1      32.745  27.077  22.843  1.00  0.00     0.147 C 
ATOM     13  C   UNL A   1      33.294  25.844  22.123  1.00  0.00     0.181 C 
ATOM     14  C   UNL A   1      31.616  24.445  23.026  1.00  0.00     0.197 C 
ATOM     15  O   UNL A   1      33.031  24.634  22.849  1.00  0.00    -0.377 OA
BRANCH  11  16
ATOM     16  C   UNL A   1      30.420  27.843  22.863  1.00  0.00     0.130 A 
ATOM     17  C   UNL A   1      26.749  28.585  23.504  1.00  0.00     0.052 C 
ATOM     18  C   UNL A   1      28.143  28.757  22.964  1.00  0.00     0.032 A 
ATOM     19  C   UNL A   1      29.055  27.690  23.128  1.00  0.00     0.057 A 
ATOM     20  C   UNL A   1      28.641  29.942  22.409  1.00  0.00     0.290 A 
ATOM     21  C   UNL A   1      29.992  30.006  22.102  1.00  0.00     0.199 A 
ATOM     22  N   UNL A   1      30.875  29.001  22.346  1.00  0.00    -0.232 NA
BRANCH  20  23
ATOM     23  N   UNL A   1      27.833  31.133  22.152  1.00  0.00     0.064 N 
ATOM     24  O   UNL A   1      27.358  31.720  23.134  1.00  0.00    -0.258 OA
ATOM     25  O   UNL A   1      27.648  31.479  20.978  1.00  0.00    -0.258 OA
ENDBRANCH  20  23
ENDBRANCH  11  16
ENDBRANCH   8  10
ENDBRANCH   7   8
ENDBRANCH   6   7
ENDBRANCH   5   6
ENDBRANCH   4   5
ENDBRANCH   3   4
ENDBRANCH   2   3
ENDBRANCH   1   2
BRANCH   1  26
ATOM     26  C   UNL A   1      35.642  21.399  24.816  1.00  0.00     0.188 C 
BRANCH  26  27
ATOM     27  C   UNL A   1      36.853  21.881  25.649  1.00  0.00     0.188 C 
BRANCH  27  28
ATOM     28  O   UNL A   1      38.131  21.466  25.181  1.00  0.00    -0.376 OA
BRANCH  28  29
ATOM     29  C   UNL A   1      38.480  20.096  25.280  1.00  0.00     0.202 C 
BRANCH  29  30
ATOM     30  C   UNL A   1      39.721  19.782  26.126  1.00  0.00     0.261 C 
BRANCH  30  31
ATOM     31  O   UNL A   1      40.652  18.870  25.529  1.00  0.00    -0.460 OA
BRANCH  31  32
ATOM     32  C   UNL A   1      41.928  18.935  25.965  1.00  0.00     0.338 C 
ATOM     33  O   UNL A   1      42.775  18.060  25.914  1.00  0.00    -0.246 OA
BRANCH  32  34
ATOM     34  C   UNL A   1      42.186  20.330  26.365  1.00  0.00     0.060 A 
ATOM     35  C   UNL A   1      42.412  21.289  25.369  1.00  0.00     0.016 A 
ATOM     36  C   UNL A   1      42.159  20.693  27.714  1.00  0.00     0.016 A 
ATOM     37  C   UNL A   1      42.629  22.619  25.722  1.00  0.00     0.010 A 
ATOM     38  C   UNL A   1      42.413  22.016  28.069  1.00  0.00     0.010 A 
ATOM     39  C   UNL A   1      42.677  22.977  27.076  1.00  0.00    -0.014 A 
BRANCH  39  40
ATOM     40  C   UNL A   1      43.246  24.286  27.470  1.00  0.00     0.031 A 
ATOM     41  C   UNL A   1      42.284  25.355  27.907  1.00  0.00     0.074 A 
ATOM     42  C   UNL A   1      44.567  24.525  27.428  1.00  0.00     0.049 A 
ATOM     43  N   UNL A   1      42.509  26.610  28.191  1.00  0.00    -0.248 NA
ATOM     44  C   UNL A   1      40.873  24.951  28.033  1.00  0.00     0.031 C 
ATOM     45  C   UNL A   1      45.597  23.554  27.067  1.00  0.00     0.029 A 
ATOM     46  N   UNL A   1      45.265  25.681  27.677  1.00  0.00    -0.354 N 
ATOM     47  C   UNL A   1      41.270  27.147  28.514  1.00  0.00     0.074 A 
ATOM     48  C   UNL A   1      40.293  26.090  28.376  1.00  0.00     0.031 C 
ATOM     49  C   UNL A   1      46.797  24.165  27.088  1.00  0.00     0.029 A 
ATOM     50  C   UNL A   1      46.612  25.574  27.426  1.00  0.00     0.049 A 
ATOM     51  H   UNL A   1      44.841  26.509  28.002  1.00  0.00     0.167 HD
ATOM     52  C   UNL A   1      40.973  28.411  28.892  1.00  0.00     0.037 A 
ATOM     53  C   UNL A   1      47.571  26.521  27.435  1.00  0.00     0.037 A 
ATOM     54  C   UNL A   1      41.948  29.457  29.025  1.00  0.00     0.049 A 
ATOM     55  C   UNL A   1      47.201  27.942  27.788  1.00  0.00     0.074 A 
ATOM     56  C   UNL A   1      41.754  30.767  29.422  1.00  0.00     0.029 A 
ATOM     57  N   UNL A   1      43.300  29.312  28.754  1.00  0.00    -0.354 N 
ATOM     58  N   UNL A   1      46.033  28.436  28.121  1.00  0.00    -0.248 NA
ATOM     59  C   UNL A   1      48.283  28.939  27.763  1.00  0.00     0.031 C 
ATOM     60  C   UNL A   1      42.979  31.432  29.336  1.00  0.00     0.029 A 
ATOM     61  C   UNL A   1      43.948  30.519  28.950  1.00  0.00     0.049 A 
ATOM     62  H   UNL A   1      43.733  28.477  28.468  1.00  0.00     0.167 HD
ATOM     63  C   UNL A   1      46.248  29.785  28.385  1.00  0.00     0.074 A 
ATOM     64  C   UNL A   1      47.659  30.031  28.178  1.00  0.00     0.031 C 
ATOM     65  C   UNL A   1      45.359  30.736  28.765  1.00  0.00     0.037 A 
BRANCH  52  66
ATOM     66  C   UNL A   1      39.534  28.741  29.153  1.00  0.00     0.057 A 
ATOM     67  C   UNL A   1      38.966  28.628  30.427  1.00  0.00     0.134 A 
ATOM     68  C   UNL A   1      38.722  29.227  28.120  1.00  0.00     0.134 A 
ATOM     69  F   UNL A   1      39.686  28.149  31.453  1.00  0.00    -0.206 F 
ATOM     70  C   UNL A   1      37.635  28.979  30.664  1.00  0.00     0.040 A 
ATOM     71  C   UNL A   1      37.399  29.606  28.351  1.00  0.00     0.040 A 
ATOM     72  F   UNL A   1      39.205  29.356  26.875  1.00  0.00    -0.206 F 
ATOM     73  C   UNL A   1      36.852  29.479  29.626  1.00  0.00     0.006 A 
ENDBRANCH  52  66
BRANCH  53  74
ATOM     74  C   UNL A   1      48.971  26.184  27.062  1.00  0.00     0.057 A 
ATOM     75  C   UNL A   1      49.937  25.894  28.034  1.00  0.00     0.134 A 
ATOM     76  C   UNL A   1      49.392  26.202  25.726  1.00  0.00     0.134 A 
ATOM     77  F   UNL A   1      49.603  25.886  29.334  1.00  0.00    -0.206 F 
ATOM     78  C   UNL A   1      51.272  25.669  27.696  1.00  0.00     0.040 A 
ATOM     79  C   UNL A   1      50.719  25.949  25.371  1.00  0.00     0.040 A 
ATOM     80  F   UNL A   1      48.520  26.474  24.743  1.00  0.00    -0.206 F 
ATOM     81  C   UNL A   1      51.667  25.694  26.360  1.00  0.00     0.006 A 
ENDBRANCH  53  74
BRANCH  65  82
ATOM     82  C   UNL A   1      45.886  32.114  29.045  1.00  0.00     0.057 A 
ATOM     83  C   UNL A   1      46.290  32.511  30.325  1.00  0.00     0.134 A 
ATOM     84  C   UNL A   1      46.058  33.028  27.998  1.00  0.00     0.134 A 
ATOM     85  F   UNL A   1      46.144  31.685  31.372  1.00  0.00    -0.206 F 
ATOM     86  C   UNL A   1      46.832  33.777  30.556  1.00  0.00     0.040 A 
ATOM     87  C   UNL A   1      46.626  34.285  28.212  1.00  0.00     0.040 A 
ATOM     88  F   UNL A   1      45.705  32.705  26.745  1.00  0.00    -0.206 F 
ATOM     89  C   UNL A   1      47.010  34.664  29.496  1.00  0.00     0.006 A 
ENDBRANCH  65  82
ENDBRANCH  39  40
ENDBRANCH  32  34
ENDBRANCH  31  32
ENDBRANCH  30  31
ENDBRANCH  29  30
ENDBRANCH  28  29
ENDBRANCH  27  28
ENDBRANCH  26  27
ENDBRANCH   1  26
TORSDOF 22
ENDMDL
MODEL 2
REMARK VINA RESULT:     -10.4      2.340      6.557
REMARK SMILES Cc1cc(N2CCOC[C@H]2C(=O)OCCOCCOCCOCCOC(=O)c2ccc(-c3c4nc(c(-c5c(F)cccc5F)c5ccc([nH]5)c(-c5c(F)cccc5F)c5nc(c(-c6c(F)cccc6F)c6ccc3[nH]6)C=C5)C=C4)cc2)ncc1[N+](=O)[O-]
REMARK SMILES IDX 19 1 18 2 17 3 16 4 15 5 14 6 13 7 11 8 12 9 10 10 5 11 6 12
REMARK SMILES IDX 7 13 9 14 8 15 4 16 1 17 2 18 3 19 84 20 83 21 82 22 85 23
REMARK SMILES IDX 86 24 87 25 20 26 21 27 22 28 23 29 24 30 25 31 26 32 27 33
REMARK SMILES IDX 28 34 29 35 81 36 30 37 80 38 31 39 32 40 33 41 74 42 34 43
REMARK SMILES IDX 79 44 73 45 75 46 35 47 78 48 72 49 71 50 36 52 62 53 45 54
REMARK SMILES IDX 61 55 46 56 49 57 60 58 76 59 47 60 48 61 59 63 77 64 50 65
REMARK SMILES IDX 37 66 38 67 43 68 39 69 40 70 42 71 44 72 41 73 63 74 64 75
REMARK SMILES IDX 69 76 65 77 66 78 68 79 70 80 67 81 51 82 52 83 57 84 53 85
REMARK SMILES IDX 54 86 56 87 58 88 55 89
REMARK H PARENT 75 51 49 62
REMARK Flexibility Score: inf
ROOT
ATOM      1  O   UNL A   1      35.387  21.452  26.511  1.00  0.00    -0.377 OA
ENDROOT
BRANCH   1   2
ATOM      2  C   UNL A   1      33.985  21.303  26.410  1.00  0.00     0.188 C 
BRANCH   2   3
ATOM      3  C   UNL A   1      33.345  22.218  25.358  1.00  0.00     0.188 C 
BRANCH   3   4
ATOM      4  O   UNL A   1      32.002  21.884  25.069  1.00  0.00    -0.376 OA
BRANCH   4   5
ATOM      5  C   UNL A   1      30.954  22.722  25.531  1.00  0.00     0.202 C 
BRANCH   5   6
ATOM      6  C   UNL A   1      30.996  23.623  26.788  1.00  0.00     0.261 C 
BRANCH   6   7
ATOM      7  O   UNL A   1      31.394  24.996  26.669  1.00  0.00    -0.462 OA
BRANCH   7   8
ATOM      8  C   UNL A   1      30.620  25.845  25.956  1.00  0.00     0.331 C 
ATOM      9  O   UNL A   1      29.392  25.803  25.956  1.00  0.00    -0.250 OA
BRANCH   8  10
ATOM     10  C   UNL A   1      31.420  26.849  25.104  1.00  0.00     0.220 C 
ATOM     11  N   UNL A   1      32.821  27.137  25.513  1.00  0.00    -0.339 N 
ATOM     12  C   UNL A   1      33.842  26.124  25.188  1.00  0.00     0.147 C 
ATOM     13  C   UNL A   1      33.669  25.595  23.763  1.00  0.00     0.181 C 
ATOM     14  C   UNL A   1      31.416  26.304  23.665  1.00  0.00     0.197 C 
ATOM     15  O   UNL A   1      32.317  25.195  23.496  1.00  0.00    -0.377 OA
BRANCH  11  16
ATOM     16  C   UNL A   1      33.244  28.355  26.001  1.00  0.00     0.130 A 
ATOM     17  C   UNL A   1      31.683  31.720  26.824  1.00  0.00     0.052 C 
ATOM     18  C   UNL A   1      32.741  30.658  26.689  1.00  0.00     0.032 A 
ATOM     19  C   UNL A   1      32.411  29.479  25.984  1.00  0.00     0.057 A 
ATOM     20  C   UNL A   1      33.996  30.701  27.308  1.00  0.00     0.290 A 
ATOM     21  C   UNL A   1      34.806  29.578  27.227  1.00  0.00     0.199 A 
ATOM     22  N   UNL A   1      34.440  28.419  26.619  1.00  0.00    -0.232 NA
BRANCH  20  23
ATOM     23  N   UNL A   1      34.504  31.849  28.058  1.00  0.00     0.064 N 
ATOM     24  O   UNL A   1      34.165  31.947  29.245  1.00  0.00    -0.258 OA
ATOM     25  O   UNL A   1      35.222  32.667  27.470  1.00  0.00    -0.258 OA
ENDBRANCH  20  23
ENDBRANCH  11  16
ENDBRANCH   8  10
ENDBRANCH   7   8
ENDBRANCH   6   7
ENDBRANCH   5   6
ENDBRANCH   4   5
ENDBRANCH   3   4
ENDBRANCH   2   3
ENDBRANCH   1   2
BRANCH   1  26
ATOM     26  C   UNL A   1      36.117  21.571  25.303  1.00  0.00     0.188 C 
BRANCH  26  27
ATOM     27  C   UNL A   1      37.654  21.399  25.253  1.00  0.00     0.188 C 
BRANCH  27  28
ATOM     28  O   UNL A   1      38.122  20.195  24.657  1.00  0.00    -0.376 OA
BRANCH  28  29
ATOM     29  C   UNL A   1      38.791  19.247  25.472  1.00  0.00     0.202 C 
BRANCH  29  30
ATOM     30  C   UNL A   1      40.122  19.711  26.081  1.00  0.00     0.261 C 
BRANCH  30  31
ATOM     31  O   UNL A   1      41.267  18.931  25.710  1.00  0.00    -0.460 OA
BRANCH  31  32
ATOM     32  C   UNL A   1      42.454  19.319  26.222  1.00  0.00     0.338 C 
ATOM     33  O   UNL A   1      43.471  18.654  26.322  1.00  0.00    -0.246 OA
BRANCH  32  34
ATOM     34  C   UNL A   1      42.369  20.765  26.487  1.00  0.00     0.060 A 
ATOM     35  C   UNL A   1      42.271  21.647  25.402  1.00  0.00     0.016 A 
ATOM     36  C   UNL A   1      42.341  21.241  27.800  1.00  0.00     0.016 A 
ATOM     37  C   UNL A   1      42.160  23.018  25.630  1.00  0.00     0.010 A 
ATOM     38  C   UNL A   1      42.268  22.615  28.026  1.00  0.00     0.010 A 
ATOM     39  C   UNL A   1      42.205  23.508  26.941  1.00  0.00    -0.014 A 
BRANCH  39  40
ATOM     40  C   UNL A   1      42.441  24.950  27.179  1.00  0.00     0.031 A 
ATOM     41  C   UNL A   1      43.756  25.520  26.724  1.00  0.00     0.074 A 
ATOM     42  C   UNL A   1      41.530  25.726  27.789  1.00  0.00     0.049 A 
ATOM     43  N   UNL A   1      44.254  26.713  26.912  1.00  0.00    -0.248 NA
ATOM     44  C   UNL A   1      44.630  24.613  25.959  1.00  0.00     0.031 C 
ATOM     45  C   UNL A   1      40.205  25.297  28.230  1.00  0.00     0.029 A 
ATOM     46  N   UNL A   1      41.599  27.046  28.161  1.00  0.00    -0.354 N 
ATOM     47  C   UNL A   1      45.502  26.695  26.302  1.00  0.00     0.074 A 
ATOM     48  C   UNL A   1      45.695  25.372  25.754  1.00  0.00     0.031 C 
ATOM     49  C   UNL A   1      39.595  26.329  28.842  1.00  0.00     0.029 A 
ATOM     50  C   UNL A   1      40.502  27.476  28.867  1.00  0.00     0.049 A 
ATOM     51  H   UNL A   1      42.362  27.629  27.942  1.00  0.00     0.167 HD
ATOM     52  C   UNL A   1      46.407  27.695  26.209  1.00  0.00     0.037 A 
ATOM     53  C   UNL A   1      40.280  28.649  29.492  1.00  0.00     0.037 A 
ATOM     54  C   UNL A   1      46.210  29.008  26.758  1.00  0.00     0.049 A 
ATOM     55  C   UNL A   1      41.338  29.725  29.437  1.00  0.00     0.074 A 
ATOM     56  C   UNL A   1      47.057  30.099  26.700  1.00  0.00     0.029 A 
ATOM     57  N   UNL A   1      45.090  29.401  27.474  1.00  0.00    -0.354 N 
ATOM     58  N   UNL A   1      42.503  29.712  28.834  1.00  0.00    -0.248 NA
ATOM     59  C   UNL A   1      41.053  30.979  30.152  1.00  0.00     0.031 C 
ATOM     60  C   UNL A   1      46.475  31.138  27.431  1.00  0.00     0.029 A 
ATOM     61  C   UNL A   1      45.237  30.714  27.887  1.00  0.00     0.049 A 
ATOM     62  H   UNL A   1      44.308  28.834  27.659  1.00  0.00     0.167 HD
ATOM     63  C   UNL A   1      43.067  30.963  29.061  1.00  0.00     0.074 A 
ATOM     64  C   UNL A   1      42.115  31.713  29.852  1.00  0.00     0.031 C 
ATOM     65  C   UNL A   1      44.264  31.451  28.651  1.00  0.00     0.037 A 
BRANCH  52  66
ATOM     66  C   UNL A   1      47.705  27.399  25.520  1.00  0.00     0.057 A 
ATOM     67  C   UNL A   1      48.821  26.919  26.214  1.00  0.00     0.134 A 
ATOM     68  C   UNL A   1      47.819  27.549  24.132  1.00  0.00     0.134 A 
ATOM     69  F   UNL A   1      48.782  26.772  27.548  1.00  0.00    -0.206 F 
ATOM     70  C   UNL A   1      50.011  26.608  25.554  1.00  0.00     0.040 A 
ATOM     71  C   UNL A   1      48.994  27.217  23.457  1.00  0.00     0.040 A 
ATOM     72  F   UNL A   1      46.787  28.008  23.409  1.00  0.00    -0.206 F 
ATOM     73  C   UNL A   1      50.096  26.746  24.169  1.00  0.00     0.006 A 
ENDBRANCH  52  66
BRANCH  53  74
ATOM     74  C   UNL A   1      39.027  28.872  30.263  1.00  0.00     0.057 A 
ATOM     75  C   UNL A   1      37.889  29.424  29.663  1.00  0.00     0.134 A 
ATOM     76  C   UNL A   1      38.958  28.594  31.634  1.00  0.00     0.134 A 
ATOM     77  F   UNL A   1      37.900  29.738  28.358  1.00  0.00    -0.206 F 
ATOM     78  C   UNL A   1      36.743  29.723  30.401  1.00  0.00     0.040 A 
ATOM     79  C   UNL A   1      37.807  28.859  32.379  1.00  0.00     0.040 A 
ATOM     80  F   UNL A   1      40.013  28.065  32.273  1.00  0.00    -0.206 F 
ATOM     81  C   UNL A   1      36.699  29.437  31.765  1.00  0.00     0.006 A 
ENDBRANCH  53  74
BRANCH  65  82
ATOM     82  C   UNL A   1      44.592  32.876  28.992  1.00  0.00     0.057 A 
ATOM     83  C   UNL A   1      44.249  33.941  28.151  1.00  0.00     0.134 A 
ATOM     84  C   UNL A   1      45.197  33.186  30.217  1.00  0.00     0.134 A 
ATOM     85  F   UNL A   1      43.675  33.711  26.961  1.00  0.00    -0.206 F 
ATOM     86  C   UNL A   1      44.510  35.264  28.511  1.00  0.00     0.040 A 
ATOM     87  C   UNL A   1      45.436  34.507  30.600  1.00  0.00     0.040 A 
ATOM     88  F   UNL A   1      45.539  32.213  31.075  1.00  0.00    -0.206 F 
ATOM     89  C   UNL A   1      45.097  35.550  29.742  1.00  0.00     0.006 A 
ENDBRANCH  65  82
ENDBRANCH  39  40
ENDBRANCH  32  34
ENDBRANCH  31  32
ENDBRANCH  30  31
ENDBRANCH  29  30
ENDBRANCH  28  29
ENDBRANCH  27  28
ENDBRANCH  26  27
ENDBRANCH   1  26
TORSDOF 22
ENDMDL
MODEL 3
REMARK VINA RESULT:     -10.1      4.317      6.551
REMARK SMILES Cc1cc(N2CCOC[C@H]2C(=O)OCCOCCOCCOCCOC(=O)c2ccc(-c3c4nc(c(-c5c(F)cccc5F)c5ccc([nH]5)c(-c5c(F)cccc5F)c5nc(c(-c6c(F)cccc6F)c6ccc3[nH]6)C=C5)C=C4)cc2)ncc1[N+](=O)[O-]
REMARK SMILES IDX 19 1 18 2 17 3 16 4 15 5 14 6 13 7 11 8 12 9 10 10 5 11 6 12
REMARK SMILES IDX 7 13 9 14 8 15 4 16 1 17 2 18 3 19 84 20 83 21 82 22 85 23
REMARK SMILES IDX 86 24 87 25 20 26 21 27 22 28 23 29 24 30 25 31 26 32 27 33
REMARK SMILES IDX 28 34 29 35 81 36 30 37 80 38 31 39 32 40 33 41 74 42 34 43
REMARK SMILES IDX 79 44 73 45 75 46 35 47 78 48 72 49 71 50 36 52 62 53 45 54
REMARK SMILES IDX 61 55 46 56 49 57 60 58 76 59 47 60 48 61 59 63 77 64 50 65
REMARK SMILES IDX 37 66 38 67 43 68 39 69 40 70 42 71 44 72 41 73 63 74 64 75
REMARK SMILES IDX 69 76 65 77 66 78 68 79 70 80 67 81 51 82 52 83 57 84 53 85
REMARK SMILES IDX 54 86 56 87 58 88 55 89
REMARK H PARENT 75 51 49 62
REMARK Flexibility Score: inf
ROOT
ATOM      1  O   UNL A   1      40.040  20.319  26.000  1.00  0.00    -0.377 OA
ENDROOT
BRANCH   1   2
ATOM      2  C   UNL A   1      39.369  21.550  26.174  1.00  0.00     0.188 C 
BRANCH   2   3
ATOM      3  C   UNL A   1      37.939  21.554  25.618  1.00  0.00     0.188 C 
BRANCH   3   4
ATOM      4  O   UNL A   1      37.507  22.832  25.196  1.00  0.00    -0.376 OA
BRANCH   4   5
ATOM      5  C   UNL A   1      36.229  22.979  24.594  1.00  0.00     0.202 C 
BRANCH   5   6
ATOM      6  C   UNL A   1      35.275  24.185  24.767  1.00  0.00     0.261 C 
BRANCH   6   7
ATOM      7  O   UNL A   1      33.856  23.988  24.698  1.00  0.00    -0.462 OA
BRANCH   7   8
ATOM      8  C   UNL A   1      33.034  24.998  25.061  1.00  0.00     0.331 C 
ATOM      9  O   UNL A   1      33.136  25.605  26.124  1.00  0.00    -0.250 OA
BRANCH   8  10
ATOM     10  C   UNL A   1      31.924  25.295  24.034  1.00  0.00     0.220 C 
ATOM     11  N   UNL A   1      32.056  26.528  23.213  1.00  0.00    -0.339 N 
ATOM     12  C   UNL A   1      33.014  26.496  22.093  1.00  0.00     0.147 C 
ATOM     13  C   UNL A   1      32.905  25.190  21.304  1.00  0.00     0.181 C 
ATOM     14  C   UNL A   1      31.851  24.074  23.101  1.00  0.00     0.197 C 
ATOM     15  O   UNL A   1      32.938  24.038  22.159  1.00  0.00    -0.377 OA
BRANCH  11  16
ATOM     16  C   UNL A   1      31.216  27.617  23.320  1.00  0.00     0.130 A 
ATOM     17  C   UNL A   1      31.030  30.800  25.386  1.00  0.00     0.052 C 
ATOM     18  C   UNL A   1      30.651  29.769  24.357  1.00  0.00     0.032 A 
ATOM     19  C   UNL A   1      31.340  28.537  24.367  1.00  0.00     0.057 A 
ATOM     20  C   UNL A   1      29.741  29.984  23.314  1.00  0.00     0.290 A 
ATOM     21  C   UNL A   1      29.611  29.000  22.345  1.00  0.00     0.199 A 
ATOM     22  N   UNL A   1      30.345  27.856  22.320  1.00  0.00    -0.232 NA
BRANCH  20  23
ATOM     23  N   UNL A   1      28.931  31.191  23.164  1.00  0.00     0.064 N 
ATOM     24  O   UNL A   1      28.078  31.414  24.035  1.00  0.00    -0.258 OA
ATOM     25  O   UNL A   1      29.121  31.911  22.176  1.00  0.00    -0.258 OA
ENDBRANCH  20  23
ENDBRANCH  11  16
ENDBRANCH   8  10
ENDBRANCH   7   8
ENDBRANCH   6   7
ENDBRANCH   5   6
ENDBRANCH   4   5
ENDBRANCH   3   4
ENDBRANCH   2   3
ENDBRANCH   1   2
BRANCH   1  26
ATOM     26  C   UNL A   1      41.290  20.163  26.650  1.00  0.00     0.188 C 
BRANCH  26  27
ATOM     27  C   UNL A   1      42.381  21.258  26.605  1.00  0.00     0.188 C 
BRANCH  27  28
ATOM     28  O   UNL A   1      43.077  21.387  25.371  1.00  0.00    -0.376 OA
BRANCH  28  29
ATOM     29  C   UNL A   1      44.473  21.142  25.347  1.00  0.00     0.202 C 
BRANCH  29  30
ATOM     30  C   UNL A   1      45.372  22.385  25.401  1.00  0.00     0.261 C 
BRANCH  30  31
ATOM     31  O   UNL A   1      44.907  23.437  26.255  1.00  0.00    -0.460 OA
BRANCH  31  32
ATOM     32  C   UNL A   1      44.493  24.571  25.649  1.00  0.00     0.338 C 
ATOM     33  O   UNL A   1      44.554  24.842  24.463  1.00  0.00    -0.246 OA
BRANCH  32  34
ATOM     34  C   UNL A   1      43.781  25.374  26.658  1.00  0.00     0.060 A 
ATOM     35  C   UNL A   1      44.246  26.664  26.947  1.00  0.00     0.016 A 
ATOM     36  C   UNL A   1      42.635  24.872  27.279  1.00  0.00     0.016 A 
ATOM     37  C   UNL A   1      43.571  27.453  27.877  1.00  0.00     0.010 A 
ATOM     38  C   UNL A   1      41.982  25.647  28.236  1.00  0.00     0.010 A 
ATOM     39  C   UNL A   1      42.464  26.928  28.558  1.00  0.00    -0.014 A 
BRANCH  39  40
ATOM     40  C   UNL A   1      41.963  27.604  29.775  1.00  0.00     0.031 A 
ATOM     41  C   UNL A   1      40.752  28.483  29.630  1.00  0.00     0.074 A 
ATOM     42  C   UNL A   1      42.566  27.458  30.967  1.00  0.00     0.049 A 
ATOM     43  N   UNL A   1      40.186  29.269  30.506  1.00  0.00    -0.248 NA
ATOM     44  C   UNL A   1      40.097  28.477  28.310  1.00  0.00     0.031 C 
ATOM     45  C   UNL A   1      43.716  26.598  31.238  1.00  0.00     0.029 A 
ATOM     46  N   UNL A   1      42.299  28.055  32.173  1.00  0.00    -0.354 N 
ATOM     47  C   UNL A   1      39.119  29.861  29.840  1.00  0.00     0.074 A 
ATOM     48  C   UNL A   1      39.125  29.359  28.485  1.00  0.00     0.031 C 
ATOM     49  C   UNL A   1      44.075  26.747  32.527  1.00  0.00     0.029 A 
ATOM     50  C   UNL A   1      43.205  27.738  33.156  1.00  0.00     0.049 A 
ATOM     51  H   UNL A   1      41.531  28.655  32.321  1.00  0.00     0.167 HD
ATOM     52  C   UNL A   1      38.216  30.746  30.318  1.00  0.00     0.037 A 
ATOM     53  C   UNL A   1      43.333  28.227  34.406  1.00  0.00     0.037 A 
ATOM     54  C   UNL A   1      38.217  31.243  31.666  1.00  0.00     0.049 A 
ATOM     55  C   UNL A   1      42.356  29.271  34.893  1.00  0.00     0.074 A 
ATOM     56  C   UNL A   1      37.333  32.126  32.257  1.00  0.00     0.029 A 
ATOM     57  N   UNL A   1      39.156  30.905  32.629  1.00  0.00    -0.354 N 
ATOM     58  N   UNL A   1      41.332  29.803  34.268  1.00  0.00    -0.248 NA
ATOM     59  C   UNL A   1      42.552  29.784  36.257  1.00  0.00     0.031 C 
ATOM     60  C   UNL A   1      37.768  32.369  33.561  1.00  0.00     0.029 A 
ATOM     61  C   UNL A   1      38.887  31.585  33.803  1.00  0.00     0.049 A 
ATOM     62  H   UNL A   1      39.900  30.275  32.497  1.00  0.00     0.167 HD
ATOM     63  C   UNL A   1      40.743  30.678  35.175  1.00  0.00     0.074 A 
ATOM     64  C   UNL A   1      41.518  30.601  36.394  1.00  0.00     0.031 C 
ATOM     65  C   UNL A   1      39.655  31.473  35.015  1.00  0.00     0.037 A 
BRANCH  52  66
ATOM     66  C   UNL A   1      37.175  31.260  29.371  1.00  0.00     0.057 A 
ATOM     67  C   UNL A   1      36.047  30.506  29.026  1.00  0.00     0.134 A 
ATOM     68  C   UNL A   1      37.280  32.550  28.837  1.00  0.00     0.134 A 
ATOM     69  F   UNL A   1      35.897  29.255  29.488  1.00  0.00    -0.206 F 
ATOM     70  C   UNL A   1      35.064  31.014  28.175  1.00  0.00     0.040 A 
ATOM     71  C   UNL A   1      36.292  33.079  28.006  1.00  0.00     0.040 A 
ATOM     72  F   UNL A   1      38.338  33.323  29.125  1.00  0.00    -0.206 F 
ATOM     73  C   UNL A   1      35.180  32.308  27.671  1.00  0.00     0.006 A 
ENDBRANCH  52  66
BRANCH  53  74
ATOM     74  C   UNL A   1      44.446  27.778  35.285  1.00  0.00     0.057 A 
ATOM     75  C   UNL A   1      44.343  26.614  36.056  1.00  0.00     0.134 A 
ATOM     76  C   UNL A   1      45.616  28.536  35.420  1.00  0.00     0.134 A 
ATOM     77  F   UNL A   1      43.236  25.858  35.992  1.00  0.00    -0.206 F 
ATOM     78  C   UNL A   1      45.345  26.238  36.953  1.00  0.00     0.040 A 
ATOM     79  C   UNL A   1      46.640  28.155  36.291  1.00  0.00     0.040 A 
ATOM     80  F   UNL A   1      45.780  29.663  34.712  1.00  0.00    -0.206 F 
ATOM     81  C   UNL A   1      46.500  27.009  37.070  1.00  0.00     0.006 A 
ENDBRANCH  53  74
BRANCH  65  82
ATOM     82  C   UNL A   1      39.198  32.277  36.198  1.00  0.00     0.057 A 
ATOM     83  C   UNL A   1      39.634  33.587  36.421  1.00  0.00     0.134 A 
ATOM     84  C   UNL A   1      38.248  31.749  37.084  1.00  0.00     0.134 A 
ATOM     85  F   UNL A   1      40.548  34.148  35.615  1.00  0.00    -0.206 F 
ATOM     86  C   UNL A   1      39.153  34.341  37.494  1.00  0.00     0.040 A 
ATOM     87  C   UNL A   1      37.739  32.503  38.142  1.00  0.00     0.040 A 
ATOM     88  F   UNL A   1      37.779  30.503  36.918  1.00  0.00    -0.206 F 
ATOM     89  C   UNL A   1      38.196  33.802  38.352  1.00  0.00     0.006 A 
ENDBRANCH  65  82
ENDBRANCH  39  40
ENDBRANCH  32  34
ENDBRANCH  31  32
ENDBRANCH  30  31
ENDBRANCH  29  30
ENDBRANCH  28  29
ENDBRANCH  27  28
ENDBRANCH  26  27
ENDBRANCH   1  26
TORSDOF 22
ENDMDL
