MODEL 1
REMARK VINA RESULT:     -10.2      0.000      0.000
REMARK SMILES O=C(CC1(CSC[C@@H]2COc3ccccc32)CC1)OCCOCCOCCOCCOC(=O)c1ccc(-c2c3nc(c(-c4c(F)cccc4F)c4ccc([nH]4)c(-c4c(F)cccc4F)c4nc(c(-c5c(F)cccc5F)c5ccc2[nH]5)C=C4)C=C3)cc1
REMARK SMILES IDX 23 1 22 2 21 3 20 4 19 5 2 6 1 7 3 8 4 9 17 10 18 11 5 12
REMARK SMILES IDX 6 13 7 14 8 15 9 16 16 17 10 18 11 19 15 20 12 21 14 22
REMARK SMILES IDX 13 23 24 24 25 25 26 26 27 27 28 28 29 29 30 30 31 31 32 32
REMARK SMILES IDX 33 33 34 34 35 35 87 36 36 37 86 38 37 39 38 40 39 41 80 42
REMARK SMILES IDX 40 43 85 44 79 45 81 46 41 47 84 48 78 49 77 50 42 52 68 53
REMARK SMILES IDX 51 54 67 55 52 56 55 57 66 58 82 59 53 60 54 61 65 63 83 64
REMARK SMILES IDX 56 65 43 66 44 67 49 68 45 69 46 70 48 71 50 72 47 73 69 74
REMARK SMILES IDX 70 75 75 76 71 77 72 78 74 79 76 80 73 81 57 82 58 83 63 84
REMARK SMILES IDX 59 85 60 86 62 87 64 88 61 89
REMARK H PARENT 81 51 55 62
REMARK Flexibility Score: inf
ROOT
ATOM      1  C   UNL A   1      42.044  20.086  26.157  1.00  0.00     0.188 C 
ENDROOT
BRANCH   1   2
ATOM      2  O   UNL A   1      40.668  20.404  26.326  1.00  0.00    -0.376 OA
BRANCH   2   3
ATOM      3  C   UNL A   1      40.351  21.677  26.853  1.00  0.00     0.202 C 
BRANCH   3   4
ATOM      4  C   UNL A   1      39.031  22.113  26.251  1.00  0.00     0.261 C 
BRANCH   4   5
ATOM      5  O   UNL A   1      38.470  21.114  25.382  1.00  0.00    -0.463 OA
BRANCH   5   6
ATOM      6  C   UNL A   1      37.175  20.750  25.290  1.00  0.00     0.306 C 
ATOM      7  O   UNL A   1      36.933  19.588  24.950  1.00  0.00    -0.252 OA
BRANCH   6   8
ATOM      8  C   UNL A   1      36.009  21.686  25.543  1.00  0.00     0.130 C 
BRANCH   8   9
ATOM      9  C   UNL A   1      35.590  22.798  24.580  1.00  0.00    -0.010 C 
ATOM     10  C   UNL A   1      36.752  23.740  24.233  1.00  0.00     0.009 C 
ATOM     11  C   UNL A   1      36.161  22.898  23.169  1.00  0.00     0.009 C 
BRANCH   9  12
ATOM     12  C   UNL A   1      34.344  23.569  25.019  1.00  0.00     0.077 C 
BRANCH  12  13
ATOM     13  S   UNL A   1      32.942  23.924  23.941  1.00  0.00    -0.161 SA
BRANCH  13  14
ATOM     14  C   UNL A   1      32.903  25.738  23.788  1.00  0.00     0.081 C 
BRANCH  14  15
ATOM     15  C   UNL A   1      31.577  26.490  23.986  1.00  0.00     0.071 C 
ATOM     16  C   UNL A   1      31.462  27.582  22.892  1.00  0.00     0.238 C 
ATOM     17  C   UNL A   1      31.522  27.358  25.186  1.00  0.00     0.001 A 
ATOM     18  O   UNL A   1      31.690  28.891  23.466  1.00  0.00    -0.493 OA
ATOM     19  C   UNL A   1      31.657  28.686  24.817  1.00  0.00     0.122 A 
ATOM     20  C   UNL A   1      31.460  27.000  26.521  1.00  0.00     0.008 A 
ATOM     21  C   UNL A   1      31.828  29.685  25.753  1.00  0.00     0.047 A 
ATOM     22  C   UNL A   1      31.669  27.988  27.484  1.00  0.00     0.001 A 
ATOM     23  C   UNL A   1      31.867  29.322  27.101  1.00  0.00     0.004 A 
ENDBRANCH  14  15
ENDBRANCH  13  14
ENDBRANCH  12  13
ENDBRANCH   9  12
ENDBRANCH   8   9
ENDBRANCH   6   8
ENDBRANCH   5   6
ENDBRANCH   4   5
ENDBRANCH   3   4
ENDBRANCH   2   3
ENDBRANCH   1   2
BRANCH   1  24
ATOM     24  C   UNL A   1      42.414  18.629  26.411  1.00  0.00     0.188 C 
BRANCH  24  25
ATOM     25  O   UNL A   1      43.502  18.047  25.701  1.00  0.00    -0.377 OA
BRANCH  25  26
ATOM     26  C   UNL A   1      44.644  18.814  25.360  1.00  0.00     0.188 C 
BRANCH  26  27
ATOM     27  C   UNL A   1      44.826  19.191  23.883  1.00  0.00     0.188 C 
BRANCH  27  28
ATOM     28  O   UNL A   1      44.596  20.531  23.485  1.00  0.00    -0.376 OA
BRANCH  28  29
ATOM     29  C   UNL A   1      44.891  21.588  24.390  1.00  0.00     0.202 C 
BRANCH  29  30
ATOM     30  C   UNL A   1      45.328  22.975  23.882  1.00  0.00     0.261 C 
BRANCH  30  31
ATOM     31  O   UNL A   1      44.543  24.073  24.387  1.00  0.00    -0.460 OA
BRANCH  31  32
ATOM     32  C   UNL A   1      44.924  24.566  25.588  1.00  0.00     0.338 C 
ATOM     33  O   UNL A   1      46.043  24.527  26.069  1.00  0.00    -0.246 OA
BRANCH  32  34
ATOM     34  C   UNL A   1      43.846  25.364  26.216  1.00  0.00     0.060 A 
ATOM     35  C   UNL A   1      44.031  26.754  26.289  1.00  0.00     0.016 A 
ATOM     36  C   UNL A   1      42.760  24.768  26.858  1.00  0.00     0.016 A 
ATOM     37  C   UNL A   1      43.186  27.541  27.067  1.00  0.00     0.010 A 
ATOM     38  C   UNL A   1      41.924  25.556  27.664  1.00  0.00     0.010 A 
ATOM     39  C   UNL A   1      42.175  26.933  27.822  1.00  0.00    -0.014 A 
BRANCH  39  40
ATOM     40  C   UNL A   1      41.620  27.684  28.981  1.00  0.00     0.031 A 
ATOM     41  C   UNL A   1      42.347  27.579  30.298  1.00  0.00     0.074 A 
ATOM     42  C   UNL A   1      40.562  28.506  28.863  1.00  0.00     0.049 A 
ATOM     43  N   UNL A   1      42.094  28.162  31.442  1.00  0.00    -0.248 NA
ATOM     44  C   UNL A   1      43.526  26.696  30.325  1.00  0.00     0.031 C 
ATOM     45  C   UNL A   1      39.807  28.746  27.638  1.00  0.00     0.029 A 
ATOM     46  N   UNL A   1      39.948  29.301  29.801  1.00  0.00    -0.354 N 
ATOM     47  C   UNL A   1      43.073  27.710  32.321  1.00  0.00     0.074 A 
ATOM     48  C   UNL A   1      43.904  26.781  31.590  1.00  0.00     0.031 C 
ATOM     49  C   UNL A   1      38.824  29.628  27.899  1.00  0.00     0.029 A 
ATOM     50  C   UNL A   1      38.869  29.996  29.315  1.00  0.00     0.049 A 
ATOM     51  H   UNL A   1      40.253  29.364  30.735  1.00  0.00     0.167 HD
ATOM     52  C   UNL A   1      43.274  28.045  33.617  1.00  0.00     0.037 A 
ATOM     53  C   UNL A   1      38.014  30.826  29.944  1.00  0.00     0.037 A 
ATOM     54  C   UNL A   1      42.451  28.970  34.350  1.00  0.00     0.049 A 
ATOM     55  C   UNL A   1      38.212  31.127  31.410  1.00  0.00     0.074 A 
ATOM     56  C   UNL A   1      42.579  29.385  35.663  1.00  0.00     0.029 A 
ATOM     57  N   UNL A   1      41.340  29.617  33.831  1.00  0.00    -0.354 N 
ATOM     58  N   UNL A   1      39.155  30.714  32.222  1.00  0.00    -0.248 NA
ATOM     59  C   UNL A   1      37.230  32.021  32.041  1.00  0.00     0.031 C 
ATOM     60  C   UNL A   1      41.510  30.237  35.958  1.00  0.00     0.029 A 
ATOM     61  C   UNL A   1      40.757  30.408  34.807  1.00  0.00     0.049 A 
ATOM     62  H   UNL A   1      41.014  29.528  32.906  1.00  0.00     0.167 HD
ATOM     63  C   UNL A   1      38.906  31.332  33.444  1.00  0.00     0.074 A 
ATOM     64  C   UNL A   1      37.726  32.152  33.263  1.00  0.00     0.031 C 
ATOM     65  C   UNL A   1      39.592  31.234  34.610  1.00  0.00     0.037 A 
BRANCH  52  66
ATOM     66  C   UNL A   1      44.408  27.371  34.337  1.00  0.00     0.057 A 
ATOM     67  C   UNL A   1      45.713  27.884  34.321  1.00  0.00     0.134 A 
ATOM     68  C   UNL A   1      44.186  26.196  35.066  1.00  0.00     0.134 A 
ATOM     69  F   UNL A   1      45.998  28.996  33.628  1.00  0.00    -0.206 F 
ATOM     70  C   UNL A   1      46.760  27.237  34.980  1.00  0.00     0.040 A 
ATOM     71  C   UNL A   1      45.218  25.556  35.754  1.00  0.00     0.040 A 
ATOM     72  F   UNL A   1      42.962  25.652  35.126  1.00  0.00    -0.206 F 
ATOM     73  C   UNL A   1      46.512  26.072  35.705  1.00  0.00     0.006 A 
ENDBRANCH  52  66
BRANCH  53  74
ATOM     74  C   UNL A   1      36.881  31.442  29.202  1.00  0.00     0.057 A 
ATOM     75  C   UNL A   1      35.737  30.702  28.877  1.00  0.00     0.134 A 
ATOM     76  C   UNL A   1      36.935  32.770  28.761  1.00  0.00     0.134 A 
ATOM     77  F   UNL A   1      35.635  29.417  29.247  1.00  0.00    -0.206 F 
ATOM     78  C   UNL A   1      34.699  31.253  28.120  1.00  0.00     0.040 A 
ATOM     79  C   UNL A   1      35.893  33.340  28.028  1.00  0.00     0.040 A 
ATOM     80  F   UNL A   1      38.003  33.532  29.036  1.00  0.00    -0.206 F 
ATOM     81  C   UNL A   1      34.774  32.578  27.698  1.00  0.00     0.006 A 
ENDBRANCH  53  74
BRANCH  65  82
ATOM     82  C   UNL A   1      39.130  32.082  35.762  1.00  0.00     0.057 A 
ATOM     83  C   UNL A   1      39.516  33.421  35.911  1.00  0.00     0.134 A 
ATOM     84  C   UNL A   1      38.258  31.554  36.724  1.00  0.00     0.134 A 
ATOM     85  F   UNL A   1      40.355  33.987  35.031  1.00  0.00    -0.206 F 
ATOM     86  C   UNL A   1      39.082  34.190  36.993  1.00  0.00     0.040 A 
ATOM     87  C   UNL A   1      37.790  32.323  37.792  1.00  0.00     0.040 A 
ATOM     88  F   UNL A   1      37.834  30.284  36.637  1.00  0.00    -0.206 F 
ATOM     89  C   UNL A   1      38.212  33.643  37.933  1.00  0.00     0.006 A 
ENDBRANCH  65  82
ENDBRANCH  39  40
ENDBRANCH  32  34
ENDBRANCH  31  32
ENDBRANCH  30  31
ENDBRANCH  29  30
ENDBRANCH  28  29
ENDBRANCH  27  28
ENDBRANCH  26  27
ENDBRANCH  25  26
ENDBRANCH  24  25
ENDBRANCH   1  24
TORSDOF 25
ENDMDL
MODEL 2
REMARK VINA RESULT:     -10.2      1.456      2.173
REMARK SMILES O=C(CC1(CSC[C@@H]2COc3ccccc32)CC1)OCCOCCOCCOCCOC(=O)c1ccc(-c2c3nc(c(-c4c(F)cccc4F)c4ccc([nH]4)c(-c4c(F)cccc4F)c4nc(c(-c5c(F)cccc5F)c5ccc2[nH]5)C=C4)C=C3)cc1
REMARK SMILES IDX 23 1 22 2 21 3 20 4 19 5 2 6 1 7 3 8 4 9 17 10 18 11 5 12
REMARK SMILES IDX 6 13 7 14 8 15 9 16 16 17 10 18 11 19 15 20 12 21 14 22
REMARK SMILES IDX 13 23 24 24 25 25 26 26 27 27 28 28 29 29 30 30 31 31 32 32
REMARK SMILES IDX 33 33 34 34 35 35 87 36 36 37 86 38 37 39 38 40 39 41 80 42
REMARK SMILES IDX 40 43 85 44 79 45 81 46 41 47 84 48 78 49 77 50 42 52 68 53
REMARK SMILES IDX 51 54 67 55 52 56 55 57 66 58 82 59 53 60 54 61 65 63 83 64
REMARK SMILES IDX 56 65 43 66 44 67 49 68 45 69 46 70 48 71 50 72 47 73 69 74
REMARK SMILES IDX 70 75 75 76 71 77 72 78 74 79 76 80 73 81 57 82 58 83 63 84
REMARK SMILES IDX 59 85 60 86 62 87 64 88 61 89
REMARK H PARENT 81 51 55 62
REMARK Flexibility Score: inf
ROOT
ATOM      1  C   UNL A   1      40.042  20.145  25.953  1.00  0.00     0.188 C 
ENDROOT
BRANCH   1   2
ATOM      2  O   UNL A   1      39.432  21.405  25.705  1.00  0.00    -0.376 OA
BRANCH   2   3
ATOM      3  C   UNL A   1      38.020  21.446  25.639  1.00  0.00     0.202 C 
BRANCH   3   4
ATOM      4  C   UNL A   1      37.602  22.899  25.541  1.00  0.00     0.261 C 
BRANCH   4   5
ATOM      5  O   UNL A   1      36.199  23.082  25.800  1.00  0.00    -0.463 OA
BRANCH   5   6
ATOM      6  C   UNL A   1      35.252  23.454  24.916  1.00  0.00     0.306 C 
ATOM      7  O   UNL A   1      35.100  24.664  24.719  1.00  0.00    -0.252 OA
BRANCH   6   8
ATOM      8  C   UNL A   1      34.345  22.485  24.184  1.00  0.00     0.130 C 
BRANCH   8   9
ATOM      9  C   UNL A   1      33.004  21.996  24.736  1.00  0.00    -0.010 C 
ATOM     10  C   UNL A   1      32.480  20.760  23.990  1.00  0.00     0.009 C 
ATOM     11  C   UNL A   1      32.861  20.637  25.415  1.00  0.00     0.009 C 
BRANCH   9  12
ATOM     12  C   UNL A   1      31.939  23.087  24.849  1.00  0.00     0.077 C 
BRANCH  12  13
ATOM     13  S   UNL A   1      31.768  24.191  26.265  1.00  0.00    -0.161 SA
BRANCH  13  14
ATOM     14  C   UNL A   1      30.241  25.134  25.956  1.00  0.00     0.081 C 
BRANCH  14  15
ATOM     15  C   UNL A   1      30.327  26.548  25.361  1.00  0.00     0.071 C 
ATOM     16  C   UNL A   1      30.730  26.431  23.869  1.00  0.00     0.238 C 
ATOM     17  C   UNL A   1      31.467  27.363  25.844  1.00  0.00     0.001 A 
ATOM     18  O   UNL A   1      32.108  26.833  23.690  1.00  0.00    -0.493 OA
ATOM     19  C   UNL A   1      32.452  27.422  24.873  1.00  0.00     0.122 A 
ATOM     20  C   UNL A   1      31.668  27.931  27.090  1.00  0.00     0.008 A 
ATOM     21  C   UNL A   1      33.697  27.958  25.135  1.00  0.00     0.047 A 
ATOM     22  C   UNL A   1      32.931  28.444  27.389  1.00  0.00     0.001 A 
ATOM     23  C   UNL A   1      33.945  28.445  26.421  1.00  0.00     0.004 A 
ENDBRANCH  14  15
ENDBRANCH  13  14
ENDBRANCH  12  13
ENDBRANCH   9  12
ENDBRANCH   8   9
ENDBRANCH   6   8
ENDBRANCH   5   6
ENDBRANCH   4   5
ENDBRANCH   3   4
ENDBRANCH   2   3
ENDBRANCH   1   2
BRANCH   1  24
ATOM     24  C   UNL A   1      41.561  20.167  26.078  1.00  0.00     0.188 C 
BRANCH  24  25
ATOM     25  O   UNL A   1      42.347  19.330  25.235  1.00  0.00    -0.377 OA
BRANCH  25  26
ATOM     26  C   UNL A   1      43.692  19.024  25.560  1.00  0.00     0.188 C 
BRANCH  26  27
ATOM     27  C   UNL A   1      44.784  19.563  24.626  1.00  0.00     0.188 C 
BRANCH  27  28
ATOM     28  O   UNL A   1      45.923  20.186  25.192  1.00  0.00    -0.376 OA
BRANCH  28  29
ATOM     29  C   UNL A   1      46.207  21.542  24.873  1.00  0.00     0.202 C 
BRANCH  29  30
ATOM     30  C   UNL A   1      45.708  22.694  25.767  1.00  0.00     0.261 C 
BRANCH  30  31
ATOM     31  O   UNL A   1      45.082  23.779  25.054  1.00  0.00    -0.460 OA
BRANCH  31  32
ATOM     32  C   UNL A   1      43.771  23.612  24.762  1.00  0.00     0.338 C 
ATOM     33  O   UNL A   1      43.274  22.682  24.151  1.00  0.00    -0.246 OA
BRANCH  32  34
ATOM     34  C   UNL A   1      42.929  24.618  25.448  1.00  0.00     0.060 A 
ATOM     35  C   UNL A   1      43.435  25.924  25.548  1.00  0.00     0.016 A 
ATOM     36  C   UNL A   1      41.754  24.271  26.115  1.00  0.00     0.016 A 
ATOM     37  C   UNL A   1      42.820  26.860  26.375  1.00  0.00     0.010 A 
ATOM     38  C   UNL A   1      41.149  25.205  26.970  1.00  0.00     0.010 A 
ATOM     39  C   UNL A   1      41.719  26.480  27.152  1.00  0.00    -0.014 A 
BRANCH  39  40
ATOM     40  C   UNL A   1      41.389  27.302  28.348  1.00  0.00     0.031 A 
ATOM     41  C   UNL A   1      42.269  27.155  29.565  1.00  0.00     0.074 A 
ATOM     42  C   UNL A   1      40.404  28.216  28.341  1.00  0.00     0.049 A 
ATOM     43  N   UNL A   1      42.221  27.781  30.713  1.00  0.00    -0.248 NA
ATOM     44  C   UNL A   1      43.357  26.166  29.468  1.00  0.00     0.031 C 
ATOM     45  C   UNL A   1      39.520  28.502  27.215  1.00  0.00     0.029 A 
ATOM     46  N   UNL A   1      39.991  29.083  29.324  1.00  0.00    -0.354 N 
ATOM     47  C   UNL A   1      43.261  27.256  31.473  1.00  0.00     0.074 A 
ATOM     48  C   UNL A   1      43.903  26.239  30.671  1.00  0.00     0.031 C 
ATOM     49  C   UNL A   1      38.663  29.477  27.572  1.00  0.00     0.029 A 
ATOM     50  C   UNL A   1      38.925  29.867  28.959  1.00  0.00     0.049 A 
ATOM     51  H   UNL A   1      40.419  29.136  30.209  1.00  0.00     0.167 HD
ATOM     52  C   UNL A   1      43.659  27.596  32.722  1.00  0.00     0.037 A 
ATOM     53  C   UNL A   1      38.237  30.785  29.666  1.00  0.00     0.037 A 
ATOM     54  C   UNL A   1      43.024  28.608  33.524  1.00  0.00     0.049 A 
ATOM     55  C   UNL A   1      38.651  31.094  31.084  1.00  0.00     0.074 A 
ATOM     56  C   UNL A   1      43.360  29.034  34.797  1.00  0.00     0.029 A 
ATOM     57  N   UNL A   1      41.918  29.346  33.132  1.00  0.00    -0.354 N 
ATOM     58  N   UNL A   1      39.651  30.611  31.782  1.00  0.00    -0.248 NA
ATOM     59  C   UNL A   1      37.844  32.088  31.808  1.00  0.00     0.031 C 
ATOM     60  C   UNL A   1      42.419  29.989  35.199  1.00  0.00     0.029 A 
ATOM     61  C   UNL A   1      41.541  30.206  34.149  1.00  0.00     0.049 A 
ATOM     62  H   UNL A   1      41.468  29.270  32.259  1.00  0.00     0.167 HD
ATOM     63  C   UNL A   1      39.619  31.273  33.006  1.00  0.00     0.074 A 
ATOM     64  C   UNL A   1      38.505  32.196  32.951  1.00  0.00     0.031 C 
ATOM     65  C   UNL A   1      40.440  31.133  34.077  1.00  0.00     0.037 A 
BRANCH  52  66
ATOM     66  C   UNL A   1      44.811  26.833  33.311  1.00  0.00     0.057 A 
ATOM     67  C   UNL A   1      46.137  27.269  33.184  1.00  0.00     0.134 A 
ATOM     68  C   UNL A   1      44.586  25.650  34.026  1.00  0.00     0.134 A 
ATOM     69  F   UNL A   1      46.425  28.384  32.498  1.00  0.00    -0.206 F 
ATOM     70  C   UNL A   1      47.200  26.539  33.723  1.00  0.00     0.040 A 
ATOM     71  C   UNL A   1      45.637  24.928  34.595  1.00  0.00     0.040 A 
ATOM     72  F   UNL A   1      43.342  25.177  34.187  1.00  0.00    -0.206 F 
ATOM     73  C   UNL A   1      46.949  25.368  34.436  1.00  0.00     0.006 A 
ENDBRANCH  52  66
BRANCH  53  74
ATOM     74  C   UNL A   1      37.078  31.490  29.056  1.00  0.00     0.057 A 
ATOM     75  C   UNL A   1      37.168  32.830  28.659  1.00  0.00     0.134 A 
ATOM     76  C   UNL A   1      35.840  30.855  28.899  1.00  0.00     0.134 A 
ATOM     77  F   UNL A   1      38.319  33.503  28.808  1.00  0.00    -0.206 F 
ATOM     78  C   UNL A   1      36.065  33.519  28.150  1.00  0.00     0.040 A 
ATOM     79  C   UNL A   1      34.737  31.524  28.366  1.00  0.00     0.040 A 
ATOM     80  F   UNL A   1      35.684  29.574  29.261  1.00  0.00    -0.206 F 
ATOM     81  C   UNL A   1      34.845  32.863  27.998  1.00  0.00     0.006 A 
ENDBRANCH  53  74
BRANCH  65  82
ATOM     82  C   UNL A   1      40.209  32.043  35.251  1.00  0.00     0.057 A 
ATOM     83  C   UNL A   1      39.295  31.738  36.269  1.00  0.00     0.134 A 
ATOM     84  C   UNL A   1      40.939  33.233  35.379  1.00  0.00     0.134 A 
ATOM     85  F   UNL A   1      38.558  30.619  36.207  1.00  0.00    -0.206 F 
ATOM     86  C   UNL A   1      39.089  32.600  37.348  1.00  0.00     0.040 A 
ATOM     87  C   UNL A   1      40.766  34.087  36.470  1.00  0.00     0.040 A 
ATOM     88  F   UNL A   1      41.841  33.583  34.450  1.00  0.00    -0.206 F 
ATOM     89  C   UNL A   1      39.830  33.775  37.453  1.00  0.00     0.006 A 
ENDBRANCH  65  82
ENDBRANCH  39  40
ENDBRANCH  32  34
ENDBRANCH  31  32
ENDBRANCH  30  31
ENDBRANCH  29  30
ENDBRANCH  28  29
ENDBRANCH  27  28
ENDBRANCH  26  27
ENDBRANCH  25  26
ENDBRANCH  24  25
ENDBRANCH   1  24
TORSDOF 25
ENDMDL
MODEL 3
REMARK VINA RESULT:      -9.9      1.973      3.643
REMARK SMILES O=C(CC1(CSC[C@@H]2COc3ccccc32)CC1)OCCOCCOCCOCCOC(=O)c1ccc(-c2c3nc(c(-c4c(F)cccc4F)c4ccc([nH]4)c(-c4c(F)cccc4F)c4nc(c(-c5c(F)cccc5F)c5ccc2[nH]5)C=C4)C=C3)cc1
REMARK SMILES IDX 23 1 22 2 21 3 20 4 19 5 2 6 1 7 3 8 4 9 17 10 18 11 5 12
REMARK SMILES IDX 6 13 7 14 8 15 9 16 16 17 10 18 11 19 15 20 12 21 14 22
REMARK SMILES IDX 13 23 24 24 25 25 26 26 27 27 28 28 29 29 30 30 31 31 32 32
REMARK SMILES IDX 33 33 34 34 35 35 87 36 36 37 86 38 37 39 38 40 39 41 80 42
REMARK SMILES IDX 40 43 85 44 79 45 81 46 41 47 84 48 78 49 77 50 42 52 68 53
REMARK SMILES IDX 51 54 67 55 52 56 55 57 66 58 82 59 53 60 54 61 65 63 83 64
REMARK SMILES IDX 56 65 43 66 44 67 49 68 45 69 46 70 48 71 50 72 47 73 69 74
REMARK SMILES IDX 70 75 75 76 71 77 72 78 74 79 76 80 73 81 57 82 58 83 63 84
REMARK SMILES IDX 59 85 60 86 62 87 64 88 61 89
REMARK H PARENT 81 51 55 62
REMARK Flexibility Score: inf
ROOT
ATOM      1  C   UNL A   1      42.614  19.428  27.247  1.00  0.00     0.188 C 
ENDROOT
BRANCH   1   2
ATOM      2  O   UNL A   1      41.863  20.440  26.587  1.00  0.00    -0.376 OA
BRANCH   2   3
ATOM      3  C   UNL A   1      40.620  20.804  27.152  1.00  0.00     0.202 C 
BRANCH   3   4
ATOM      4  C   UNL A   1      40.423  22.288  26.924  1.00  0.00     0.261 C 
BRANCH   4   5
ATOM      5  O   UNL A   1      39.186  22.579  26.251  1.00  0.00    -0.463 OA
BRANCH   5   6
ATOM      6  C   UNL A   1      38.484  23.729  26.300  1.00  0.00     0.306 C 
ATOM      7  O   UNL A   1      39.107  24.765  26.551  1.00  0.00    -0.252 OA
BRANCH   6   8
ATOM      8  C   UNL A   1      36.984  23.820  26.101  1.00  0.00     0.130 C 
BRANCH   8   9
ATOM      9  C   UNL A   1      36.195  22.898  25.170  1.00  0.00    -0.010 C 
ATOM     10  C   UNL A   1      36.691  22.970  23.718  1.00  0.00     0.009 C 
ATOM     11  C   UNL A   1      36.847  21.707  24.474  1.00  0.00     0.009 C 
BRANCH   9  12
ATOM     12  C   UNL A   1      34.677  23.065  25.262  1.00  0.00     0.077 C 
BRANCH  12  13
ATOM     13  S   UNL A   1      33.641  22.245  26.489  1.00  0.00    -0.161 SA
BRANCH  13  14
ATOM     14  C   UNL A   1      32.879  20.843  25.614  1.00  0.00     0.081 C 
BRANCH  14  15
ATOM     15  C   UNL A   1      33.424  20.416  24.242  1.00  0.00     0.071 C 
ATOM     16  C   UNL A   1      32.234  20.294  23.256  1.00  0.00     0.238 C 
ATOM     17  C   UNL A   1      33.925  19.023  24.172  1.00  0.00     0.001 A 
ATOM     18  O   UNL A   1      31.943  18.900  22.994  1.00  0.00    -0.493 OA
ATOM     19  C   UNL A   1      33.008  18.221  23.513  1.00  0.00     0.122 A 
ATOM     20  C   UNL A   1      35.064  18.475  24.737  1.00  0.00     0.008 A 
ATOM     21  C   UNL A   1      33.140  16.848  23.476  1.00  0.00     0.047 A 
ATOM     22  C   UNL A   1      35.198  17.086  24.744  1.00  0.00     0.001 A 
ATOM     23  C   UNL A   1      34.234  16.276  24.129  1.00  0.00     0.004 A 
ENDBRANCH  14  15
ENDBRANCH  13  14
ENDBRANCH  12  13
ENDBRANCH   9  12
ENDBRANCH   8   9
ENDBRANCH   6   8
ENDBRANCH   5   6
ENDBRANCH   4   5
ENDBRANCH   3   4
ENDBRANCH   2   3
ENDBRANCH   1   2
BRANCH   1  24
ATOM     24  C   UNL A   1      42.762  18.119  26.479  1.00  0.00     0.188 C 
BRANCH  24  25
ATOM     25  O   UNL A   1      43.414  18.118  25.213  1.00  0.00    -0.377 OA
BRANCH  25  26
ATOM     26  C   UNL A   1      44.752  18.565  25.081  1.00  0.00     0.188 C 
BRANCH  26  27
ATOM     27  C   UNL A   1      45.064  19.522  23.923  1.00  0.00     0.188 C 
BRANCH  27  28
ATOM     28  O   UNL A   1      45.159  20.911  24.188  1.00  0.00    -0.376 OA
BRANCH  28  29
ATOM     29  C   UNL A   1      45.726  21.349  25.417  1.00  0.00     0.202 C 
BRANCH  29  30
ATOM     30  C   UNL A   1      45.873  22.848  25.738  1.00  0.00     0.261 C 
BRANCH  30  31
ATOM     31  O   UNL A   1      44.814  23.679  25.222  1.00  0.00    -0.460 OA
BRANCH  31  32
ATOM     32  C   UNL A   1      45.029  25.014  25.284  1.00  0.00     0.338 C 
ATOM     33  O   UNL A   1      45.923  25.633  24.733  1.00  0.00    -0.246 OA
BRANCH  32  34
ATOM     34  C   UNL A   1      43.915  25.715  25.962  1.00  0.00     0.060 A 
ATOM     35  C   UNL A   1      43.970  27.117  26.012  1.00  0.00     0.016 A 
ATOM     36  C   UNL A   1      42.928  25.027  26.669  1.00  0.00     0.016 A 
ATOM     37  C   UNL A   1      43.095  27.830  26.828  1.00  0.00     0.010 A 
ATOM     38  C   UNL A   1      42.064  25.743  27.512  1.00  0.00     0.010 A 
ATOM     39  C   UNL A   1      42.190  27.140  27.643  1.00  0.00    -0.014 A 
BRANCH  39  40
ATOM     40  C   UNL A   1      41.629  27.851  28.823  1.00  0.00     0.031 A 
ATOM     41  C   UNL A   1      42.372  27.736  30.131  1.00  0.00     0.074 A 
ATOM     42  C   UNL A   1      40.550  28.649  28.734  1.00  0.00     0.049 A 
ATOM     43  N   UNL A   1      42.116  28.287  31.290  1.00  0.00    -0.248 NA
ATOM     44  C   UNL A   1      43.572  26.882  30.127  1.00  0.00     0.031 C 
ATOM     45  C   UNL A   1      39.776  28.897  27.521  1.00  0.00     0.029 A 
ATOM     46  N   UNL A   1      39.926  29.408  29.695  1.00  0.00    -0.354 N 
ATOM     47  C   UNL A   1      43.115  27.840  32.149  1.00  0.00     0.074 A 
ATOM     48  C   UNL A   1      43.961  26.948  31.389  1.00  0.00     0.031 C 
ATOM     49  C   UNL A   1      38.775  29.749  27.812  1.00  0.00     0.029 A 
ATOM     50  C   UNL A   1      38.825  30.087  29.235  1.00  0.00     0.049 A 
ATOM     51  H   UNL A   1      40.239  29.459  30.627  1.00  0.00     0.167 HD
ATOM     52  C   UNL A   1      43.321  28.152  33.451  1.00  0.00     0.037 A 
ATOM     53  C   UNL A   1      37.957  30.882  29.891  1.00  0.00     0.037 A 
ATOM     54  C   UNL A   1      42.483  29.040  34.211  1.00  0.00     0.049 A 
ATOM     55  C   UNL A   1      38.162  31.155  31.360  1.00  0.00     0.074 A 
ATOM     56  C   UNL A   1      42.614  29.429  35.532  1.00  0.00     0.029 A 
ATOM     57  N   UNL A   1      41.351  29.671  33.717  1.00  0.00    -0.354 N 
ATOM     58  N   UNL A   1      39.124  30.749  32.155  1.00  0.00    -0.248 NA
ATOM     59  C   UNL A   1      37.165  32.011  32.021  1.00  0.00     0.031 C 
ATOM     60  C   UNL A   1      41.528  30.248  35.856  1.00  0.00     0.029 A 
ATOM     61  C   UNL A   1      40.759  30.425  34.717  1.00  0.00     0.049 A 
ATOM     62  H   UNL A   1      41.018  29.594  32.794  1.00  0.00     0.167 HD
ATOM     63  C   UNL A   1      38.872  31.333  33.392  1.00  0.00     0.074 A 
ATOM     64  C   UNL A   1      37.671  32.128  33.240  1.00  0.00     0.031 C 
ATOM     65  C   UNL A   1      39.573  31.226  34.549  1.00  0.00     0.037 A 
BRANCH  52  66
ATOM     66  C   UNL A   1      44.478  27.491  34.144  1.00  0.00     0.057 A 
ATOM     67  C   UNL A   1      45.741  28.094  34.229  1.00  0.00     0.134 A 
ATOM     68  C   UNL A   1      44.321  26.235  34.745  1.00  0.00     0.134 A 
ATOM     69  F   UNL A   1      45.965  29.287  33.661  1.00  0.00    -0.206 F 
ATOM     70  C   UNL A   1      46.812  27.458  34.862  1.00  0.00     0.040 A 
ATOM     71  C   UNL A   1      45.376  25.604  35.406  1.00  0.00     0.040 A 
ATOM     72  F   UNL A   1      43.140  25.602  34.702  1.00  0.00    -0.206 F 
ATOM     73  C   UNL A   1      46.628  26.212  35.459  1.00  0.00     0.006 A 
ENDBRANCH  52  66
BRANCH  53  74
ATOM     74  C   UNL A   1      36.802  31.486  29.174  1.00  0.00     0.057 A 
ATOM     75  C   UNL A   1      35.662  30.732  28.865  1.00  0.00     0.134 A 
ATOM     76  C   UNL A   1      36.829  32.817  28.740  1.00  0.00     0.134 A 
ATOM     77  F   UNL A   1      35.586  29.443  29.229  1.00  0.00    -0.206 F 
ATOM     78  C   UNL A   1      34.603  31.271  28.131  1.00  0.00     0.040 A 
ATOM     79  C   UNL A   1      35.765  33.377  28.030  1.00  0.00     0.040 A 
ATOM     80  F   UNL A   1      37.890  33.593  29.000  1.00  0.00    -0.206 F 
ATOM     81  C   UNL A   1      34.652  32.600  27.715  1.00  0.00     0.006 A 
ENDBRANCH  53  74
BRANCH  65  82
ATOM     82  C   UNL A   1      39.101  32.037  35.724  1.00  0.00     0.057 A 
ATOM     83  C   UNL A   1      38.276  31.502  36.723  1.00  0.00     0.134 A 
ATOM     84  C   UNL A   1      39.505  33.371  35.871  1.00  0.00     0.134 A 
ATOM     85  F   UNL A   1      37.846  30.234  36.641  1.00  0.00    -0.206 F 
ATOM     86  C   UNL A   1      37.842  32.274  37.803  1.00  0.00     0.040 A 
ATOM     87  C   UNL A   1      39.104  34.143  36.963  1.00  0.00     0.040 A 
ATOM     88  F   UNL A   1      40.306  33.946  34.960  1.00  0.00    -0.206 F 
ATOM     89  C   UNL A   1      38.262  33.597  37.927  1.00  0.00     0.006 A 
ENDBRANCH  65  82
ENDBRANCH  39  40
ENDBRANCH  32  34
ENDBRANCH  31  32
ENDBRANCH  30  31
ENDBRANCH  29  30
ENDBRANCH  28  29
ENDBRANCH  27  28
ENDBRANCH  26  27
ENDBRANCH  25  26
ENDBRANCH  24  25
ENDBRANCH   1  24
TORSDOF 25
ENDMDL
