MODEL 1
REMARK VINA RESULT:      -9.5      0.000      0.000
REMARK SMILES CC1(C)COCCN1C(=O)N1CCO[C@@H](CC(=O)OCCOCCOCCOCCOC(=O)c2ccc(-c3c4nc(c(-c5c(F)cccc5F)c5ccc([nH]5)c(-c5c(F)cccc5F)c5nc(c(-c6c(F)cccc6F)c6ccc3[nH]6)C=C5)C=C4)cc2)C1
REMARK SMILES IDX 24 1 23 2 22 3 21 4 20 5 19 6 17 7 18 8 16 9 15 10 11 11
REMARK SMILES IDX 12 12 88 13 13 14 14 15 9 16 10 17 8 18 1 19 2 20 3 21 4 22
REMARK SMILES IDX 5 23 7 24 6 25 25 26 26 27 27 28 28 29 29 30 30 31 31 32
REMARK SMILES IDX 32 33 33 34 34 35 35 36 87 37 36 38 86 39 37 40 38 41 39 42
REMARK SMILES IDX 80 43 40 44 85 45 79 46 81 47 41 48 84 49 78 50 77 51 42 53
REMARK SMILES IDX 68 54 51 55 67 56 52 57 55 58 66 59 82 60 53 61 54 62 65 64
REMARK SMILES IDX 83 65 56 66 43 67 44 68 49 69 45 70 46 71 48 72 50 73 47 74
REMARK SMILES IDX 69 75 70 76 75 77 71 78 72 79 74 80 76 81 73 82 57 83 58 84
REMARK SMILES IDX 63 85 59 86 60 87 62 88 64 89 61 90
REMARK H PARENT 81 52 55 63
REMARK Flexibility Score: inf
ROOT
ATOM      1  C   UNL A   1      39.555  21.743  26.117  1.00  0.00     0.188 C 
ENDROOT
BRANCH   1   2
ATOM      2  C   UNL A   1      38.171  22.340  25.810  1.00  0.00     0.188 C 
BRANCH   2   3
ATOM      3  O   UNL A   1      37.264  21.378  25.299  1.00  0.00    -0.376 OA
BRANCH   3   4
ATOM      4  C   UNL A   1      35.922  21.450  25.737  1.00  0.00     0.202 C 
BRANCH   4   5
ATOM      5  C   UNL A   1      34.846  20.634  25.016  1.00  0.00     0.261 C 
BRANCH   5   6
ATOM      6  O   UNL A   1      33.663  21.322  24.570  1.00  0.00    -0.463 OA
BRANCH   6   7
ATOM      7  C   UNL A   1      32.446  21.016  25.048  1.00  0.00     0.308 C 
ATOM      8  O   UNL A   1      32.089  19.877  25.320  1.00  0.00    -0.252 OA
BRANCH   7   9
ATOM      9  C   UNL A   1      31.574  22.247  25.284  1.00  0.00     0.156 C 
BRANCH   9  10
ATOM     10  C   UNL A   1      31.841  23.148  26.515  1.00  0.00     0.149 C 
ATOM     11  N   UNL A   1      32.506  25.436  25.715  1.00  0.00    -0.320 N 
ATOM     12  C   UNL A   1      31.267  25.975  26.262  1.00  0.00     0.150 C 
ATOM     13  C   UNL A   1      32.936  24.245  26.451  1.00  0.00     0.154 C 
ATOM     14  C   UNL A   1      30.183  24.898  26.251  1.00  0.00     0.182 C 
ATOM     15  O   UNL A   1      30.583  23.721  26.976  1.00  0.00    -0.374 OA
BRANCH  11  16
ATOM     16  C   UNL A   1      33.464  26.350  25.332  1.00  0.00     0.320 C 
ATOM     17  O   UNL A   1      34.199  26.862  26.177  1.00  0.00    -0.248 OA
BRANCH  16  18
ATOM     18  N   UNL A   1      33.549  26.655  23.969  1.00  0.00    -0.315 N 
ATOM     19  C   UNL A   1      33.897  28.208  21.982  1.00  0.00     0.037 C 
ATOM     20  C   UNL A   1      33.066  27.883  23.248  1.00  0.00     0.062 C 
ATOM     21  C   UNL A   1      33.134  29.177  24.051  1.00  0.00     0.037 C 
ATOM     22  C   UNL A   1      31.631  27.530  22.802  1.00  0.00     0.188 C 
ATOM     23  O   UNL A   1      31.617  26.405  21.898  1.00  0.00    -0.377 OA
ATOM     24  C   UNL A   1      33.597  25.489  23.079  1.00  0.00     0.150 C 
ATOM     25  C   UNL A   1      32.192  25.230  22.504  1.00  0.00     0.182 C 
ENDBRANCH  16  18
ENDBRANCH  11  16
ENDBRANCH   9  10
ENDBRANCH   7   9
ENDBRANCH   6   7
ENDBRANCH   5   6
ENDBRANCH   4   5
ENDBRANCH   3   4
ENDBRANCH   2   3
ENDBRANCH   1   2
BRANCH   1  26
ATOM     26  O   UNL A   1      40.580  22.691  26.378  1.00  0.00    -0.377 OA
BRANCH  26  27
ATOM     27  C   UNL A   1      41.844  22.242  26.860  1.00  0.00     0.188 C 
BRANCH  27  28
ATOM     28  C   UNL A   1      42.657  21.168  26.107  1.00  0.00     0.188 C 
BRANCH  28  29
ATOM     29  O   UNL A   1      43.453  21.660  25.044  1.00  0.00    -0.376 OA
BRANCH  29  30
ATOM     30  C   UNL A   1      43.451  23.048  24.746  1.00  0.00     0.202 C 
BRANCH  30  31
ATOM     31  C   UNL A   1      44.337  23.988  25.580  1.00  0.00     0.261 C 
BRANCH  31  32
ATOM     32  O   UNL A   1      44.189  25.398  25.353  1.00  0.00    -0.460 OA
BRANCH  32  33
ATOM     33  C   UNL A   1      42.986  25.965  25.563  1.00  0.00     0.338 C 
ATOM     34  O   UNL A   1      42.028  25.985  24.809  1.00  0.00    -0.246 OA
BRANCH  33  35
ATOM     35  C   UNL A   1      42.944  26.405  26.972  1.00  0.00     0.060 A 
ATOM     36  C   UNL A   1      42.114  25.731  27.880  1.00  0.00     0.016 A 
ATOM     37  C   UNL A   1      43.705  27.502  27.380  1.00  0.00     0.016 A 
ATOM     38  C   UNL A   1      41.987  26.197  29.186  1.00  0.00     0.010 A 
ATOM     39  C   UNL A   1      43.553  27.987  28.677  1.00  0.00     0.010 A 
ATOM     40  C   UNL A   1      42.650  27.371  29.563  1.00  0.00    -0.014 A 
BRANCH  40  41
ATOM     41  C   UNL A   1      42.171  28.139  30.732  1.00  0.00     0.031 A 
ATOM     42  C   UNL A   1      40.969  29.022  30.527  1.00  0.00     0.074 A 
ATOM     43  C   UNL A   1      42.775  28.074  31.929  1.00  0.00     0.049 A 
ATOM     44  N   UNL A   1      40.447  29.919  31.319  1.00  0.00    -0.248 NA
ATOM     45  C   UNL A   1      40.271  28.879  29.236  1.00  0.00     0.031 C 
ATOM     46  C   UNL A   1      43.899  27.204  32.267  1.00  0.00     0.029 A 
ATOM     47  N   UNL A   1      42.532  28.781  33.079  1.00  0.00    -0.354 N 
ATOM     48  C   UNL A   1      39.379  30.463  30.615  1.00  0.00     0.074 A 
ATOM     49  C   UNL A   1      39.337  29.812  29.325  1.00  0.00     0.031 C 
ATOM     50  C   UNL A   1      44.268  27.450  33.537  1.00  0.00     0.029 A 
ATOM     51  C   UNL A   1      43.438  28.526  34.079  1.00  0.00     0.049 A 
ATOM     52  H   UNL A   1      41.781  29.410  33.178  1.00  0.00     0.167 HD
ATOM     53  C   UNL A   1      38.509  31.420  31.009  1.00  0.00     0.037 A 
ATOM     54  C   UNL A   1      43.596  29.126  35.275  1.00  0.00     0.037 A 
ATOM     55  C   UNL A   1      38.558  32.060  32.295  1.00  0.00     0.049 A 
ATOM     56  C   UNL A   1      42.669  30.252  35.664  1.00  0.00     0.074 A 
ATOM     57  C   UNL A   1      37.726  33.042  32.800  1.00  0.00     0.029 A 
ATOM     58  N   UNL A   1      39.498  31.781  33.275  1.00  0.00    -0.354 N 
ATOM     59  N   UNL A   1      41.664  30.766  34.995  1.00  0.00    -0.248 NA
ATOM     60  C   UNL A   1      42.901  30.883  36.971  1.00  0.00     0.031 C 
ATOM     61  C   UNL A   1      38.196  33.396  34.068  1.00  0.00     0.029 A 
ATOM     62  C   UNL A   1      39.279  32.586  34.377  1.00  0.00     0.049 A 
ATOM     63  H   UNL A   1      40.215  31.110  33.197  1.00  0.00     0.167 HD
ATOM     64  C   UNL A   1      41.118  31.745  35.817  1.00  0.00     0.074 A 
ATOM     65  C   UNL A   1      41.906  31.758  37.031  1.00  0.00     0.031 C 
ATOM     66  C   UNL A   1      40.056  32.557  35.591  1.00  0.00     0.037 A 
BRANCH  53  67
ATOM     67  C   UNL A   1      37.464  31.856  30.025  1.00  0.00     0.057 A 
ATOM     68  C   UNL A   1      36.254  31.169  29.870  1.00  0.00     0.134 A 
ATOM     69  C   UNL A   1      37.669  32.992  29.233  1.00  0.00     0.134 A 
ATOM     70  F   UNL A   1      36.004  30.060  30.584  1.00  0.00    -0.206 F 
ATOM     71  C   UNL A   1      35.294  31.582  28.945  1.00  0.00     0.040 A 
ATOM     72  C   UNL A   1      36.704  33.433  28.326  1.00  0.00     0.040 A 
ATOM     73  F   UNL A   1      38.806  33.697  29.329  1.00  0.00    -0.206 F 
ATOM     74  C   UNL A   1      35.515  32.723  28.175  1.00  0.00     0.006 A 
ENDBRANCH  53  67
BRANCH  54  75
ATOM     75  C   UNL A   1      44.690  28.699  36.185  1.00  0.00     0.057 A 
ATOM     76  C   UNL A   1      45.956  29.292  36.128  1.00  0.00     0.134 A 
ATOM     77  C   UNL A   1      44.503  27.671  37.118  1.00  0.00     0.134 A 
ATOM     78  F   UNL A   1      46.205  30.265  35.239  1.00  0.00    -0.206 F 
ATOM     79  C   UNL A   1      47.002  28.867  36.949  1.00  0.00     0.040 A 
ATOM     80  C   UNL A   1      45.533  27.255  37.965  1.00  0.00     0.040 A 
ATOM     81  F   UNL A   1      43.315  27.058  37.223  1.00  0.00    -0.206 F 
ATOM     82  C   UNL A   1      46.789  27.849  37.875  1.00  0.00     0.006 A 
ENDBRANCH  54  75
BRANCH  66  83
ATOM     83  C   UNL A   1      39.622  33.471  36.699  1.00  0.00     0.057 A 
ATOM     84  C   UNL A   1      38.747  33.056  37.710  1.00  0.00     0.134 A 
ATOM     85  C   UNL A   1      40.166  34.759  36.801  1.00  0.00     0.134 A 
ATOM     86  F   UNL A   1      38.186  31.838  37.667  1.00  0.00    -0.206 F 
ATOM     87  C   UNL A   1      38.421  33.895  38.778  1.00  0.00     0.040 A 
ATOM     88  C   UNL A   1      39.870  35.594  37.877  1.00  0.00     0.040 A 
ATOM     89  F   UNL A   1      41.022  35.211  35.872  1.00  0.00    -0.206 F 
ATOM     90  C   UNL A   1      38.993  35.163  38.869  1.00  0.00     0.006 A 
ENDBRANCH  66  83
ENDBRANCH  40  41
ENDBRANCH  33  35
ENDBRANCH  32  33
ENDBRANCH  31  32
ENDBRANCH  30  31
ENDBRANCH  29  30
ENDBRANCH  28  29
ENDBRANCH  27  28
ENDBRANCH  26  27
ENDBRANCH   1  26
TORSDOF 23
ENDMDL
MODEL 2
REMARK VINA RESULT:      -9.1      4.926     10.439
REMARK SMILES CC1(C)COCCN1C(=O)N1CCO[C@@H](CC(=O)OCCOCCOCCOCCOC(=O)c2ccc(-c3c4nc(c(-c5c(F)cccc5F)c5ccc([nH]5)c(-c5c(F)cccc5F)c5nc(c(-c6c(F)cccc6F)c6ccc3[nH]6)C=C5)C=C4)cc2)C1
REMARK SMILES IDX 24 1 23 2 22 3 21 4 20 5 19 6 17 7 18 8 16 9 15 10 11 11
REMARK SMILES IDX 12 12 88 13 13 14 14 15 9 16 10 17 8 18 1 19 2 20 3 21 4 22
REMARK SMILES IDX 5 23 7 24 6 25 25 26 26 27 27 28 28 29 29 30 30 31 31 32
REMARK SMILES IDX 32 33 33 34 34 35 35 36 87 37 36 38 86 39 37 40 38 41 39 42
REMARK SMILES IDX 80 43 40 44 85 45 79 46 81 47 41 48 84 49 78 50 77 51 42 53
REMARK SMILES IDX 68 54 51 55 67 56 52 57 55 58 66 59 82 60 53 61 54 62 65 64
REMARK SMILES IDX 83 65 56 66 43 67 44 68 49 69 45 70 46 71 48 72 50 73 47 74
REMARK SMILES IDX 69 75 70 76 75 77 71 78 72 79 74 80 76 81 73 82 57 83 58 84
REMARK SMILES IDX 63 85 59 86 60 87 62 88 64 89 61 90
REMARK H PARENT 81 52 55 63
REMARK Flexibility Score: inf
ROOT
ATOM      1  C   UNL A   1      33.933  31.074  27.529  1.00  0.00     0.188 C 
ENDROOT
BRANCH   1   2
ATOM      2  C   UNL A   1      32.772  30.216  26.996  1.00  0.00     0.188 C 
BRANCH   2   3
ATOM      3  O   UNL A   1      33.209  29.193  26.117  1.00  0.00    -0.376 OA
BRANCH   3   4
ATOM      4  C   UNL A   1      33.229  29.487  24.735  1.00  0.00     0.202 C 
BRANCH   4   5
ATOM      5  C   UNL A   1      32.255  28.769  23.796  1.00  0.00     0.261 C 
BRANCH   5   6
ATOM      6  O   UNL A   1      30.846  28.978  23.997  1.00  0.00    -0.463 OA
BRANCH   6   7
ATOM      7  C   UNL A   1      29.926  28.186  23.422  1.00  0.00     0.308 C 
ATOM      8  O   UNL A   1      28.791  28.553  23.145  1.00  0.00    -0.252 OA
BRANCH   7   9
ATOM      9  C   UNL A   1      30.464  26.797  23.086  1.00  0.00     0.156 C 
BRANCH   9  10
ATOM     10  C   UNL A   1      30.098  25.596  23.994  1.00  0.00     0.149 C 
ATOM     11  N   UNL A   1      32.200  24.339  24.560  1.00  0.00    -0.320 N 
ATOM     12  C   UNL A   1      32.055  24.746  25.952  1.00  0.00     0.150 C 
ATOM     13  C   UNL A   1      30.899  24.272  23.890  1.00  0.00     0.154 C 
ATOM     14  C   UNL A   1      31.325  26.087  26.028  1.00  0.00     0.182 C 
ATOM     15  O   UNL A   1      30.040  26.040  25.380  1.00  0.00    -0.374 OA
BRANCH  11  16
ATOM     16  C   UNL A   1      33.124  23.352  24.296  1.00  0.00     0.320 C 
ATOM     17  O   UNL A   1      33.867  23.449  23.319  1.00  0.00    -0.248 OA
BRANCH  16  18
ATOM     18  N   UNL A   1      33.168  22.264  25.175  1.00  0.00    -0.315 N 
ATOM     19  C   UNL A   1      33.937  21.032  27.265  1.00  0.00     0.037 C 
ATOM     20  C   UNL A   1      34.342  21.715  25.936  1.00  0.00     0.062 C 
ATOM     21  C   UNL A   1      35.371  22.750  26.376  1.00  0.00     0.037 C 
ATOM     22  C   UNL A   1      34.937  20.638  25.005  1.00  0.00     0.188 C 
ATOM     23  O   UNL A   1      33.993  19.577  24.748  1.00  0.00    -0.377 OA
ATOM     24  C   UNL A   1      32.153  21.232  24.927  1.00  0.00     0.150 C 
ATOM     25  C   UNL A   1      32.789  20.076  24.131  1.00  0.00     0.182 C 
ENDBRANCH  16  18
ENDBRANCH  11  16
ENDBRANCH   9  10
ENDBRANCH   7   9
ENDBRANCH   6   7
ENDBRANCH   5   6
ENDBRANCH   4   5
ENDBRANCH   3   4
ENDBRANCH   2   3
ENDBRANCH   1   2
BRANCH   1  26
ATOM     26  O   UNL A   1      33.551  32.179  28.335  1.00  0.00    -0.377 OA
BRANCH  26  27
ATOM     27  C   UNL A   1      34.239  33.419  28.196  1.00  0.00     0.188 C 
BRANCH  27  28
ATOM     28  C   UNL A   1      34.594  34.283  29.423  1.00  0.00     0.188 C 
BRANCH  28  29
ATOM     29  O   UNL A   1      34.016  33.853  30.643  1.00  0.00    -0.376 OA
BRANCH  29  30
ATOM     30  C   UNL A   1      34.682  32.880  31.433  1.00  0.00     0.202 C 
BRANCH  30  31
ATOM     31  C   UNL A   1      36.104  32.447  31.035  1.00  0.00     0.261 C 
BRANCH  31  32
ATOM     32  O   UNL A   1      36.228  31.241  30.266  1.00  0.00    -0.460 OA
BRANCH  32  33
ATOM     33  C   UNL A   1      36.774  30.156  30.847  1.00  0.00     0.338 C 
ATOM     34  O   UNL A   1      36.200  29.256  31.436  1.00  0.00    -0.246 OA
BRANCH  33  35
ATOM     35  C   UNL A   1      38.203  30.129  30.478  1.00  0.00     0.060 A 
ATOM     36  C   UNL A   1      38.568  30.229  29.128  1.00  0.00     0.016 A 
ATOM     37  C   UNL A   1      39.174  29.975  31.470  1.00  0.00     0.016 A 
ATOM     38  C   UNL A   1      39.905  30.102  28.756  1.00  0.00     0.010 A 
ATOM     39  C   UNL A   1      40.506  29.817  31.095  1.00  0.00     0.010 A 
ATOM     40  C   UNL A   1      40.865  29.820  29.734  1.00  0.00    -0.014 A 
BRANCH  40  41
ATOM     41  C   UNL A   1      42.155  29.213  29.341  1.00  0.00     0.031 A 
ATOM     42  C   UNL A   1      43.368  30.105  29.369  1.00  0.00     0.074 A 
ATOM     43  C   UNL A   1      42.257  27.930  28.962  1.00  0.00     0.049 A 
ATOM     44  N   UNL A   1      44.575  29.886  28.921  1.00  0.00    -0.248 NA
ATOM     45  C   UNL A   1      43.183  31.435  29.976  1.00  0.00     0.031 C 
ATOM     46  C   UNL A   1      41.171  26.954  28.963  1.00  0.00     0.029 A 
ATOM     47  N   UNL A   1      43.338  27.237  28.477  1.00  0.00    -0.354 N 
ATOM     48  C   UNL A   1      45.282  31.057  29.168  1.00  0.00     0.074 A 
ATOM     49  C   UNL A   1      44.368  31.990  29.787  1.00  0.00     0.031 C 
ATOM     50  C   UNL A   1      41.635  25.791  28.472  1.00  0.00     0.029 A 
ATOM     51  C   UNL A   1      43.034  25.959  28.080  1.00  0.00     0.049 A 
ATOM     52  H   UNL A   1      44.244  27.620  28.419  1.00  0.00     0.167 HD
ATOM     53  C   UNL A   1      46.580  31.329  28.903  1.00  0.00     0.037 A 
ATOM     54  C   UNL A   1      43.793  25.050  27.437  1.00  0.00     0.037 A 
ATOM     55  C   UNL A   1      47.481  30.393  28.288  1.00  0.00     0.049 A 
ATOM     56  C   UNL A   1      45.215  25.403  27.072  1.00  0.00     0.074 A 
ATOM     57  C   UNL A   1      48.817  30.563  27.975  1.00  0.00     0.029 A 
ATOM     58  N   UNL A   1      47.131  29.112  27.891  1.00  0.00    -0.354 N 
ATOM     59  N   UNL A   1      45.879  26.510  27.303  1.00  0.00    -0.248 NA
ATOM     60  C   UNL A   1      45.990  24.381  26.355  1.00  0.00     0.031 C 
ATOM     61  C   UNL A   1      49.262  29.402  27.338  1.00  0.00     0.029 A 
ATOM     62  C   UNL A   1      48.221  28.485  27.316  1.00  0.00     0.049 A 
ATOM     63  H   UNL A   1      46.239  28.709  28.001  1.00  0.00     0.167 HD
ATOM     64  C   UNL A   1      47.159  26.302  26.802  1.00  0.00     0.074 A 
ATOM     65  C   UNL A   1      47.177  24.964  26.249  1.00  0.00     0.031 C 
ATOM     66  C   UNL A   1      48.226  27.138  26.804  1.00  0.00     0.037 A 
BRANCH  53  67
ATOM     67  C   UNL A   1      47.083  32.702  29.238  1.00  0.00     0.057 A 
ATOM     68  C   UNL A   1      47.039  33.757  28.318  1.00  0.00     0.134 A 
ATOM     69  C   UNL A   1      47.605  32.974  30.509  1.00  0.00     0.134 A 
ATOM     70  F   UNL A   1      46.570  33.558  27.077  1.00  0.00    -0.206 F 
ATOM     71  C   UNL A   1      47.518  35.028  28.642  1.00  0.00     0.040 A 
ATOM     72  C   UNL A   1      48.059  34.247  30.855  1.00  0.00     0.040 A 
ATOM     73  F   UNL A   1      47.678  32.009  31.438  1.00  0.00    -0.206 F 
ATOM     74  C   UNL A   1      48.022  35.277  29.918  1.00  0.00     0.006 A 
ENDBRANCH  53  67
BRANCH  54  75
ATOM     75  C   UNL A   1      43.225  23.728  27.070  1.00  0.00     0.057 A 
ATOM     76  C   UNL A   1      43.109  22.700  28.012  1.00  0.00     0.134 A 
ATOM     77  C   UNL A   1      42.807  23.451  25.762  1.00  0.00     0.134 A 
ATOM     78  F   UNL A   1      43.515  22.895  29.276  1.00  0.00    -0.206 F 
ATOM     79  C   UNL A   1      42.618  21.440  27.666  1.00  0.00     0.040 A 
ATOM     80  C   UNL A   1      42.287  22.204  25.408  1.00  0.00     0.040 A 
ATOM     81  F   UNL A   1      42.894  24.391  24.809  1.00  0.00    -0.206 F 
ATOM     82  C   UNL A   1      42.200  21.191  26.360  1.00  0.00     0.006 A 
ENDBRANCH  54  75
BRANCH  66  83
ATOM     83  C   UNL A   1      49.528  26.617  26.271  1.00  0.00     0.057 A 
ATOM     84  C   UNL A   1      50.357  25.773  27.019  1.00  0.00     0.134 A 
ATOM     85  C   UNL A   1      49.908  26.895  24.950  1.00  0.00     0.134 A 
ATOM     86  F   UNL A   1      50.054  25.474  28.291  1.00  0.00    -0.206 F 
ATOM     87  C   UNL A   1      51.524  25.231  26.475  1.00  0.00     0.040 A 
ATOM     88  C   UNL A   1      51.055  26.338  24.388  1.00  0.00     0.040 A 
ATOM     89  F   UNL A   1      49.150  27.686  24.176  1.00  0.00    -0.206 F 
ATOM     90  C   UNL A   1      51.868  25.505  25.152  1.00  0.00     0.006 A 
ENDBRANCH  66  83
ENDBRANCH  40  41
ENDBRANCH  33  35
ENDBRANCH  32  33
ENDBRANCH  31  32
ENDBRANCH  30  31
ENDBRANCH  29  30
ENDBRANCH  28  29
ENDBRANCH  27  28
ENDBRANCH  26  27
ENDBRANCH   1  26
TORSDOF 23
ENDMDL
MODEL 3
REMARK VINA RESULT:      -8.4      7.250     10.917
REMARK SMILES CC1(C)COCCN1C(=O)N1CCO[C@@H](CC(=O)OCCOCCOCCOCCOC(=O)c2ccc(-c3c4nc(c(-c5c(F)cccc5F)c5ccc([nH]5)c(-c5c(F)cccc5F)c5nc(c(-c6c(F)cccc6F)c6ccc3[nH]6)C=C5)C=C4)cc2)C1
REMARK SMILES IDX 24 1 23 2 22 3 21 4 20 5 19 6 17 7 18 8 16 9 15 10 11 11
REMARK SMILES IDX 12 12 88 13 13 14 14 15 9 16 10 17 8 18 1 19 2 20 3 21 4 22
REMARK SMILES IDX 5 23 7 24 6 25 25 26 26 27 27 28 28 29 29 30 30 31 31 32
REMARK SMILES IDX 32 33 33 34 34 35 35 36 87 37 36 38 86 39 37 40 38 41 39 42
REMARK SMILES IDX 80 43 40 44 85 45 79 46 81 47 41 48 84 49 78 50 77 51 42 53
REMARK SMILES IDX 68 54 51 55 67 56 52 57 55 58 66 59 82 60 53 61 54 62 65 64
REMARK SMILES IDX 83 65 56 66 43 67 44 68 49 69 45 70 46 71 48 72 50 73 47 74
REMARK SMILES IDX 69 75 70 76 75 77 71 78 72 79 74 80 76 81 73 82 57 83 58 84
REMARK SMILES IDX 63 85 59 86 60 87 62 88 64 89 61 90
REMARK H PARENT 81 52 55 63
REMARK Flexibility Score: inf
ROOT
ATOM      1  C   UNL A   1      38.442  21.757  25.836  1.00  0.00     0.188 C 
ENDROOT
BRANCH   1   2
ATOM      2  C   UNL A   1      37.737  22.925  25.123  1.00  0.00     0.188 C 
BRANCH   2   3
ATOM      3  O   UNL A   1      36.518  22.535  24.514  1.00  0.00    -0.376 OA
BRANCH   3   4
ATOM      4  C   UNL A   1      35.612  21.783  25.296  1.00  0.00     0.202 C 
BRANCH   4   5
ATOM      5  C   UNL A   1      34.371  21.173  24.638  1.00  0.00     0.261 C 
BRANCH   5   6
ATOM      6  O   UNL A   1      33.168  21.961  24.603  1.00  0.00    -0.463 OA
BRANCH   6   7
ATOM      7  C   UNL A   1      31.999  21.486  25.062  1.00  0.00     0.308 C 
ATOM      8  O   UNL A   1      31.780  20.299  25.266  1.00  0.00    -0.252 OA
BRANCH   7   9
ATOM      9  C   UNL A   1      30.989  22.590  25.371  1.00  0.00     0.156 C 
BRANCH   9  10
ATOM     10  C   UNL A   1      31.238  23.539  26.569  1.00  0.00     0.149 C 
ATOM     11  N   UNL A   1      32.230  25.684  25.712  1.00  0.00    -0.320 N 
ATOM     12  C   UNL A   1      31.013  26.387  26.098  1.00  0.00     0.150 C 
ATOM     13  C   UNL A   1      32.450  24.506  26.555  1.00  0.00     0.154 C 
ATOM     14  C   UNL A   1      29.820  25.433  26.038  1.00  0.00     0.182 C 
ATOM     15  O   UNL A   1      30.015  24.272  26.865  1.00  0.00    -0.374 OA
BRANCH  11  16
ATOM     16  C   UNL A   1      33.317  26.462  25.378  1.00  0.00     0.320 C 
ATOM     17  O   UNL A   1      34.053  26.903  26.261  1.00  0.00    -0.248 OA
BRANCH  16  18
ATOM     18  N   UNL A   1      33.528  26.717  24.019  1.00  0.00    -0.315 N 
ATOM     19  C   UNL A   1      33.981  28.209  22.006  1.00  0.00     0.037 C 
ATOM     20  C   UNL A   1      33.043  27.875  23.191  1.00  0.00     0.062 C 
ATOM     21  C   UNL A   1      32.933  29.202  23.933  1.00  0.00     0.037 C 
ATOM     22  C   UNL A   1      31.692  27.399  22.614  1.00  0.00     0.188 C 
ATOM     23  O   UNL A   1      31.855  26.240  21.770  1.00  0.00    -0.377 OA
ATOM     24  C   UNL A   1      33.754  25.521  23.197  1.00  0.00     0.150 C 
ATOM     25  C   UNL A   1      32.440  25.136  22.490  1.00  0.00     0.182 C 
ENDBRANCH  16  18
ENDBRANCH  11  16
ENDBRANCH   9  10
ENDBRANCH   7   9
ENDBRANCH   6   7
ENDBRANCH   5   6
ENDBRANCH   4   5
ENDBRANCH   3   4
ENDBRANCH   2   3
ENDBRANCH   1   2
BRANCH   1  26
ATOM     26  O   UNL A   1      39.626  22.101  26.539  1.00  0.00    -0.377 OA
BRANCH  26  27
ATOM     27  C   UNL A   1      40.581  21.087  26.842  1.00  0.00     0.188 C 
BRANCH  27  28
ATOM     28  C   UNL A   1      42.095  21.330  26.669  1.00  0.00     0.188 C 
BRANCH  28  29
ATOM     29  O   UNL A   1      42.615  20.971  25.402  1.00  0.00    -0.376 OA
BRANCH  29  30
ATOM     30  C   UNL A   1      43.760  20.136  25.321  1.00  0.00     0.202 C 
BRANCH  30  31
ATOM     31  C   UNL A   1      45.155  20.784  25.352  1.00  0.00     0.261 C 
BRANCH  31  32
ATOM     32  O   UNL A   1      45.209  22.219  25.326  1.00  0.00    -0.460 OA
BRANCH  32  33
ATOM     33  C   UNL A   1      45.380  22.882  26.486  1.00  0.00     0.338 C 
ATOM     34  O   UNL A   1      44.970  22.569  27.591  1.00  0.00    -0.246 OA
BRANCH  33  35
ATOM     35  C   UNL A   1      46.335  23.978  26.233  1.00  0.00     0.060 A 
ATOM     36  C   UNL A   1      47.140  24.447  27.282  1.00  0.00     0.016 A 
ATOM     37  C   UNL A   1      46.408  24.556  24.964  1.00  0.00     0.016 A 
ATOM     38  C   UNL A   1      47.971  25.547  27.084  1.00  0.00     0.010 A 
ATOM     39  C   UNL A   1      47.215  25.676  24.776  1.00  0.00     0.010 A 
ATOM     40  C   UNL A   1      47.951  26.208  25.850  1.00  0.00    -0.014 A 
BRANCH  40  41
ATOM     41  C   UNL A   1      48.420  27.609  25.762  1.00  0.00     0.031 A 
ATOM     42  C   UNL A   1      49.820  27.831  25.255  1.00  0.00     0.074 A 
ATOM     43  C   UNL A   1      47.650  28.646  26.124  1.00  0.00     0.049 A 
ATOM     44  N   UNL A   1      50.536  28.923  25.235  1.00  0.00    -0.248 NA
ATOM     45  C   UNL A   1      50.510  26.648  24.710  1.00  0.00     0.031 C 
ATOM     46  C   UNL A   1      46.259  28.561  26.561  1.00  0.00     0.029 A 
ATOM     47  N   UNL A   1      47.951  29.983  26.202  1.00  0.00    -0.354 N 
ATOM     48  C   UNL A   1      51.765  28.553  24.700  1.00  0.00     0.074 A 
ATOM     49  C   UNL A   1      51.707  27.135  24.428  1.00  0.00     0.031 C 
ATOM     50  C   UNL A   1      45.833  29.794  26.890  1.00  0.00     0.029 A 
ATOM     51  C   UNL A   1      46.936  30.741  26.730  1.00  0.00     0.049 A 
ATOM     52  H   UNL A   1      48.811  30.361  25.907  1.00  0.00     0.167 HD
ATOM     53  C   UNL A   1      52.846  29.328  24.457  1.00  0.00     0.037 A 
ATOM     54  C   UNL A   1      46.923  32.042  27.082  1.00  0.00     0.037 A 
ATOM     55  C   UNL A   1      52.893  30.738  24.731  1.00  0.00     0.049 A 
ATOM     56  C   UNL A   1      48.167  32.872  26.883  1.00  0.00     0.074 A 
ATOM     57  C   UNL A   1      53.936  31.621  24.523  1.00  0.00     0.029 A 
ATOM     58  N   UNL A   1      51.848  31.467  25.277  1.00  0.00    -0.354 N 
ATOM     59  N   UNL A   1      49.327  32.520  26.382  1.00  0.00    -0.248 NA
ATOM     60  C   UNL A   1      48.102  34.280  27.301  1.00  0.00     0.031 C 
ATOM     61  C   UNL A   1      53.540  32.876  24.993  1.00  0.00     0.029 A 
ATOM     62  C   UNL A   1      52.228  32.787  25.431  1.00  0.00     0.049 A 
ATOM     63  H   UNL A   1      50.967  31.098  25.519  1.00  0.00     0.167 HD
ATOM     64  C   UNL A   1      50.111  33.668  26.383  1.00  0.00     0.074 A 
ATOM     65  C   UNL A   1      49.297  34.727  26.939  1.00  0.00     0.031 C 
ATOM     66  C   UNL A   1      51.387  33.834  25.956  1.00  0.00     0.037 A 
BRANCH  53  67
ATOM     67  C   UNL A   1      54.071  28.658  23.909  1.00  0.00     0.057 A 
ATOM     68  C   UNL A   1      55.059  28.116  24.740  1.00  0.00     0.134 A 
ATOM     69  C   UNL A   1      54.254  28.540  22.525  1.00  0.00     0.134 A 
ATOM     70  F   UNL A   1      54.954  28.213  26.074  1.00  0.00    -0.206 F 
ATOM     71  C   UNL A   1      56.197  27.501  24.215  1.00  0.00     0.040 A 
ATOM     72  C   UNL A   1      55.372  27.901  21.989  1.00  0.00     0.040 A 
ATOM     73  F   UNL A   1      53.347  29.038  21.672  1.00  0.00    -0.206 F 
ATOM     74  C   UNL A   1      56.352  27.385  22.835  1.00  0.00     0.006 A 
ENDBRANCH  53  67
BRANCH  54  75
ATOM     75  C   UNL A   1      45.703  32.641  27.682  1.00  0.00     0.057 A 
ATOM     76  C   UNL A   1      44.764  33.319  26.896  1.00  0.00     0.134 A 
ATOM     77  C   UNL A   1      45.458  32.573  29.060  1.00  0.00     0.134 A 
ATOM     78  F   UNL A   1      44.954  33.440  25.574  1.00  0.00    -0.206 F 
ATOM     79  C   UNL A   1      43.638  33.923  27.457  1.00  0.00     0.040 A 
ATOM     80  C   UNL A   1      44.321  33.148  29.631  1.00  0.00     0.040 A 
ATOM     81  F   UNL A   1      46.319  31.940  29.870  1.00  0.00    -0.206 F 
ATOM     82  C   UNL A   1      43.412  33.833  28.829  1.00  0.00     0.006 A 
ENDBRANCH  54  75
BRANCH  66  83
ATOM     83  C   UNL A   1      51.965  35.218  25.990  1.00  0.00     0.057 A 
ATOM     84  C   UNL A   1      51.786  36.128  24.941  1.00  0.00     0.134 A 
ATOM     85  C   UNL A   1      52.632  35.673  27.136  1.00  0.00     0.134 A 
ATOM     86  F   UNL A   1      51.163  35.753  23.814  1.00  0.00    -0.206 F 
ATOM     87  C   UNL A   1      52.261  37.439  25.027  1.00  0.00     0.040 A 
ATOM     88  C   UNL A   1      53.085  36.986  27.245  1.00  0.00     0.040 A 
ATOM     89  F   UNL A   1      52.824  34.854  28.182  1.00  0.00    -0.206 F 
ATOM     90  C   UNL A   1      52.901  37.873  26.187  1.00  0.00     0.006 A 
ENDBRANCH  66  83
ENDBRANCH  40  41
ENDBRANCH  33  35
ENDBRANCH  32  33
ENDBRANCH  31  32
ENDBRANCH  30  31
ENDBRANCH  29  30
ENDBRANCH  28  29
ENDBRANCH  27  28
ENDBRANCH  26  27
ENDBRANCH   1  26
TORSDOF 23
ENDMDL
