MODEL 1
REMARK VINA RESULT:      -9.4      0.000      0.000
REMARK SMILES O=C(OCCOCCOCCOCCOC(=O)c1cccnc1-c1ccccn1)c1ccc(-c2c3nc(c(-c4c(F)cccc4F)c4ccc([nH]4)c(-c4c(F)cccc4F)c4nc(c(-c5c(F)cccc5F)c5ccc2[nH]5)C=C4)C=C3)cc1
REMARK SMILES IDX 8 1 7 2 6 3 5 4 4 5 3 6 2 7 1 8 30 9 31 10 83 11 32 12 82 13
REMARK SMILES IDX 33 14 34 15 35 16 76 17 36 18 81 19 75 20 77 21 37 22 80 23
REMARK SMILES IDX 74 24 73 25 38 27 64 28 47 29 63 30 48 31 51 32 62 33 78 34
REMARK SMILES IDX 49 35 50 36 61 38 79 39 52 40 39 41 40 42 45 43 41 44 42 45
REMARK SMILES IDX 44 46 46 47 43 48 65 49 66 50 71 51 67 52 68 53 70 54 72 55
REMARK SMILES IDX 69 56 53 57 54 58 59 59 55 60 56 61 58 62 60 63 57 64 9 65
REMARK SMILES IDX 10 66 11 67 12 68 13 69 14 70 15 71 16 72 17 73 18 74 19 75
REMARK SMILES IDX 23 76 20 77 22 78 21 79 24 80 25 81 29 82 26 83 28 84 27 85
REMARK H PARENT 77 26 51 37
REMARK Flexibility Score: inf
ROOT
ATOM      1  C   UNL A   1      33.968  23.039  23.946  1.00  0.00     0.188 C 
ENDROOT
BRANCH   1   2
ATOM      2  C   UNL A   1      35.402  22.535  24.035  1.00  0.00     0.188 C 
BRANCH   2   3
ATOM      3  O   UNL A   1      36.341  23.513  24.481  1.00  0.00    -0.376 OA
BRANCH   3   4
ATOM      4  C   UNL A   1      36.689  23.515  25.859  1.00  0.00     0.202 C 
BRANCH   4   5
ATOM      5  C   UNL A   1      38.188  23.254  26.019  1.00  0.00     0.261 C 
BRANCH   5   6
ATOM      6  O   UNL A   1      39.002  24.431  25.867  1.00  0.00    -0.460 OA
BRANCH   6   7
ATOM      7  C   UNL A   1      40.141  24.661  26.557  1.00  0.00     0.338 C 
ATOM      8  O   UNL A   1      41.212  24.234  26.131  1.00  0.00    -0.246 OA
BRANCH   7   9
ATOM      9  C   UNL A   1      40.149  25.625  27.702  1.00  0.00     0.060 A 
ATOM     10  C   UNL A   1      39.220  25.672  28.750  1.00  0.00     0.016 A 
ATOM     11  C   UNL A   1      41.238  26.508  27.738  1.00  0.00     0.016 A 
ATOM     12  C   UNL A   1      39.359  26.570  29.805  1.00  0.00     0.010 A 
ATOM     13  C   UNL A   1      41.368  27.436  28.769  1.00  0.00     0.010 A 
ATOM     14  C   UNL A   1      40.408  27.482  29.787  1.00  0.00    -0.014 A 
BRANCH  14  15
ATOM     15  C   UNL A   1      40.357  28.659  30.666  1.00  0.00     0.031 A 
ATOM     16  C   UNL A   1      41.285  28.659  31.839  1.00  0.00     0.074 A 
ATOM     17  C   UNL A   1      39.507  29.669  30.427  1.00  0.00     0.049 A 
ATOM     18  N   UNL A   1      41.306  29.435  32.887  1.00  0.00    -0.248 NA
ATOM     19  C   UNL A   1      42.330  27.618  31.833  1.00  0.00     0.031 C 
ATOM     20  C   UNL A   1      38.650  29.794  29.250  1.00  0.00     0.029 A 
ATOM     21  N   UNL A   1      39.214  30.769  31.185  1.00  0.00    -0.354 N 
ATOM     22  C   UNL A   1      42.335  28.949  33.683  1.00  0.00     0.074 A 
ATOM     23  C   UNL A   1      42.911  27.812  33.004  1.00  0.00     0.031 C 
ATOM     24  C   UNL A   1      37.894  30.897  29.383  1.00  0.00     0.029 A 
ATOM     25  C   UNL A   1      38.179  31.514  30.676  1.00  0.00     0.049 A 
ATOM     26  H   UNL A   1      39.695  31.003  32.011  1.00  0.00     0.167 HD
ATOM     27  C   UNL A   1      42.743  29.410  34.886  1.00  0.00     0.037 A 
ATOM     28  C   UNL A   1      37.514  32.543  31.234  1.00  0.00     0.037 A 
ATOM     29  C   UNL A   1      42.126  30.531  35.538  1.00  0.00     0.049 A 
ATOM     30  C   UNL A   1      37.927  32.996  32.610  1.00  0.00     0.074 A 
ATOM     31  C   UNL A   1      42.413  31.085  36.769  1.00  0.00     0.029 A 
ATOM     32  N   UNL A   1      41.076  31.264  34.996  1.00  0.00    -0.354 N 
ATOM     33  N   UNL A   1      38.874  32.520  33.388  1.00  0.00    -0.248 NA
ATOM     34  C   UNL A   1      37.184  34.120  33.191  1.00  0.00     0.031 C 
ATOM     35  C   UNL A   1      41.502  32.123  36.995  1.00  0.00     0.029 A 
ATOM     36  C   UNL A   1      40.691  32.257  35.876  1.00  0.00     0.049 A 
ATOM     37  H   UNL A   1      40.668  31.100  34.116  1.00  0.00     0.167 HD
ATOM     38  C   UNL A   1      38.862  33.303  34.534  1.00  0.00     0.074 A 
ATOM     39  C   UNL A   1      37.811  34.286  34.349  1.00  0.00     0.031 C 
ATOM     40  C   UNL A   1      39.649  33.227  35.636  1.00  0.00     0.037 A 
BRANCH  27  41
ATOM     41  C   UNL A   1      43.835  28.641  35.572  1.00  0.00     0.057 A 
ATOM     42  C   UNL A   1      45.193  28.913  35.356  1.00  0.00     0.134 A 
ATOM     43  C   UNL A   1      43.521  27.561  36.407  1.00  0.00     0.134 A 
ATOM     44  F   UNL A   1      45.566  29.913  34.543  1.00  0.00    -0.206 F 
ATOM     45  C   UNL A   1      46.196  28.111  35.906  1.00  0.00     0.040 A 
ATOM     46  C   UNL A   1      44.515  26.771  36.987  1.00  0.00     0.040 A 
ATOM     47  F   UNL A   1      42.242  27.238  36.653  1.00  0.00    -0.206 F 
ATOM     48  C   UNL A   1      45.857  27.036  36.726  1.00  0.00     0.006 A 
ENDBRANCH  27  41
BRANCH  28  49
ATOM     49  C   UNL A   1      36.385  33.177  30.507  1.00  0.00     0.057 A 
ATOM     50  C   UNL A   1      35.056  32.889  30.836  1.00  0.00     0.134 A 
ATOM     51  C   UNL A   1      36.605  34.109  29.484  1.00  0.00     0.134 A 
ATOM     52  F   UNL A   1      34.777  31.991  31.793  1.00  0.00    -0.206 F 
ATOM     53  C   UNL A   1      33.989  33.501  30.173  1.00  0.00     0.040 A 
ATOM     54  C   UNL A   1      35.549  34.745  28.830  1.00  0.00     0.040 A 
ATOM     55  F   UNL A   1      37.855  34.433  29.120  1.00  0.00    -0.206 F 
ATOM     56  C   UNL A   1      34.234  34.439  29.172  1.00  0.00     0.006 A 
ENDBRANCH  28  49
BRANCH  40  57
ATOM     57  C   UNL A   1      39.450  34.269  36.696  1.00  0.00     0.057 A 
ATOM     58  C   UNL A   1      38.701  34.023  37.852  1.00  0.00     0.134 A 
ATOM     59  C   UNL A   1      40.103  35.505  36.593  1.00  0.00     0.134 A 
ATOM     60  F   UNL A   1      38.046  32.861  38.004  1.00  0.00    -0.206 F 
ATOM     61  C   UNL A   1      38.601  34.975  38.867  1.00  0.00     0.040 A 
ATOM     62  C   UNL A   1      40.033  36.453  37.612  1.00  0.00     0.040 A 
ATOM     63  F   UNL A   1      40.846  35.795  35.514  1.00  0.00    -0.206 F 
ATOM     64  C   UNL A   1      39.278  36.189  38.753  1.00  0.00     0.006 A 
ENDBRANCH  40  57
ENDBRANCH  14  15
ENDBRANCH   7   9
ENDBRANCH   6   7
ENDBRANCH   5   6
ENDBRANCH   4   5
ENDBRANCH   3   4
ENDBRANCH   2   3
ENDBRANCH   1   2
BRANCH   1  65
ATOM     65  O   UNL A   1      33.519  23.473  22.674  1.00  0.00    -0.377 OA
BRANCH  65  66
ATOM     66  C   UNL A   1      32.777  24.674  22.623  1.00  0.00     0.188 C 
BRANCH  66  67
ATOM     67  C   UNL A   1      33.594  25.963  22.855  1.00  0.00     0.188 C 
BRANCH  67  68
ATOM     68  O   UNL A   1      34.011  26.744  21.746  1.00  0.00    -0.376 OA
BRANCH  68  69
ATOM     69  C   UNL A   1      33.996  28.160  21.856  1.00  0.00     0.202 C 
BRANCH  69  70
ATOM     70  C   UNL A   1      33.187  28.859  22.970  1.00  0.00     0.261 C 
BRANCH  70  71
ATOM     71  O   UNL A   1      31.767  28.977  22.753  1.00  0.00    -0.460 OA
BRANCH  71  72
ATOM     72  C   UNL A   1      30.968  29.138  23.852  1.00  0.00     0.340 C 
ATOM     73  O   UNL A   1      30.332  30.119  24.139  1.00  0.00    -0.246 OA
BRANCH  72  74
ATOM     74  C   UNL A   1      31.047  27.898  24.672  1.00  0.00     0.088 A 
ATOM     75  C   UNL A   1      30.147  26.862  24.375  1.00  0.00     0.019 A 
ATOM     76  C   UNL A   1      31.895  27.740  25.780  1.00  0.00     0.103 A 
ATOM     77  C   UNL A   1      30.147  25.695  25.136  1.00  0.00     0.021 A 
ATOM     78  N   UNL A   1      31.891  26.585  26.523  1.00  0.00    -0.254 NA
ATOM     79  C   UNL A   1      31.047  25.594  26.175  1.00  0.00     0.112 A 
BRANCH  76  80
ATOM     80  C   UNL A   1      32.697  28.807  26.413  1.00  0.00     0.089 A 
ATOM     81  C   UNL A   1      34.042  28.573  26.738  1.00  0.00     0.031 A 
ATOM     82  N   UNL A   1      32.108  29.996  26.666  1.00  0.00    -0.255 NA
ATOM     83  C   UNL A   1      34.789  29.565  27.367  1.00  0.00     0.004 A 
ATOM     84  C   UNL A   1      32.866  30.957  27.249  1.00  0.00     0.112 A 
ATOM     85  C   UNL A   1      34.190  30.788  27.625  1.00  0.00     0.020 A 
ENDBRANCH  76  80
ENDBRANCH  72  74
ENDBRANCH  71  72
ENDBRANCH  70  71
ENDBRANCH  69  70
ENDBRANCH  68  69
ENDBRANCH  67  68
ENDBRANCH  66  67
ENDBRANCH  65  66
ENDBRANCH   1  65
TORSDOF 21
ENDMDL
MODEL 2
REMARK VINA RESULT:      -9.3      5.317      9.894
REMARK SMILES O=C(OCCOCCOCCOCCOC(=O)c1cccnc1-c1ccccn1)c1ccc(-c2c3nc(c(-c4c(F)cccc4F)c4ccc([nH]4)c(-c4c(F)cccc4F)c4nc(c(-c5c(F)cccc5F)c5ccc2[nH]5)C=C4)C=C3)cc1
REMARK SMILES IDX 8 1 7 2 6 3 5 4 4 5 3 6 2 7 1 8 30 9 31 10 83 11 32 12 82 13
REMARK SMILES IDX 33 14 34 15 35 16 76 17 36 18 81 19 75 20 77 21 37 22 80 23
REMARK SMILES IDX 74 24 73 25 38 27 64 28 47 29 63 30 48 31 51 32 62 33 78 34
REMARK SMILES IDX 49 35 50 36 61 38 79 39 52 40 39 41 40 42 45 43 41 44 42 45
REMARK SMILES IDX 44 46 46 47 43 48 65 49 66 50 71 51 67 52 68 53 70 54 72 55
REMARK SMILES IDX 69 56 53 57 54 58 59 59 55 60 56 61 58 62 60 63 57 64 9 65
REMARK SMILES IDX 10 66 11 67 12 68 13 69 14 70 15 71 16 72 17 73 18 74 19 75
REMARK SMILES IDX 23 76 20 77 22 78 21 79 24 80 25 81 29 82 26 83 28 84 27 85
REMARK H PARENT 77 26 51 37
REMARK Flexibility Score: inf
ROOT
ATOM      1  C   UNL A   1      33.963  33.272  28.372  1.00  0.00     0.188 C 
ENDROOT
BRANCH   1   2
ATOM      2  C   UNL A   1      34.141  34.403  29.375  1.00  0.00     0.188 C 
BRANCH   2   3
ATOM      3  O   UNL A   1      35.313  34.294  30.182  1.00  0.00    -0.376 OA
BRANCH   3   4
ATOM      4  C   UNL A   1      35.148  34.320  31.594  1.00  0.00     0.202 C 
BRANCH   4   5
ATOM      5  C   UNL A   1      34.441  33.045  32.060  1.00  0.00     0.261 C 
BRANCH   5   6
ATOM      6  O   UNL A   1      35.313  31.908  32.179  1.00  0.00    -0.460 OA
BRANCH   6   7
ATOM      7  C   UNL A   1      36.513  31.932  32.801  1.00  0.00     0.338 C 
ATOM      8  O   UNL A   1      36.567  32.054  34.023  1.00  0.00    -0.246 OA
BRANCH   7   9
ATOM      9  C   UNL A   1      37.760  31.576  32.053  1.00  0.00     0.060 A 
ATOM     10  C   UNL A   1      37.945  31.662  30.666  1.00  0.00     0.016 A 
ATOM     11  C   UNL A   1      38.849  31.188  32.847  1.00  0.00     0.016 A 
ATOM     12  C   UNL A   1      39.172  31.368  30.077  1.00  0.00     0.010 A 
ATOM     13  C   UNL A   1      40.071  30.857  32.265  1.00  0.00     0.010 A 
ATOM     14  C   UNL A   1      40.219  30.921  30.875  1.00  0.00    -0.014 A 
BRANCH  14  15
ATOM     15  C   UNL A   1      41.370  30.256  30.250  1.00  0.00     0.031 A 
ATOM     16  C   UNL A   1      42.601  31.086  30.060  1.00  0.00     0.074 A 
ATOM     17  C   UNL A   1      41.306  28.975  29.858  1.00  0.00     0.049 A 
ATOM     18  N   UNL A   1      43.669  30.846  29.352  1.00  0.00    -0.248 NA
ATOM     19  C   UNL A   1      42.616  32.383  30.762  1.00  0.00     0.031 C 
ATOM     20  C   UNL A   1      40.185  28.070  30.103  1.00  0.00     0.029 A 
ATOM     21  N   UNL A   1      42.203  28.226  29.147  1.00  0.00    -0.354 N 
ATOM     22  C   UNL A   1      44.462  31.978  29.487  1.00  0.00     0.074 A 
ATOM     23  C   UNL A   1      43.754  32.906  30.339  1.00  0.00     0.031 C 
ATOM     24  C   UNL A   1      40.446  26.891  29.515  1.00  0.00     0.029 A 
ATOM     25  C   UNL A   1      41.723  26.985  28.810  1.00  0.00     0.049 A 
ATOM     26  H   UNL A   1      43.101  28.545  28.901  1.00  0.00     0.167 HD
ATOM     27  C   UNL A   1      45.668  32.220  28.928  1.00  0.00     0.037 A 
ATOM     28  C   UNL A   1      42.246  26.064  27.980  1.00  0.00     0.037 A 
ATOM     29  C   UNL A   1      46.327  31.278  28.067  1.00  0.00     0.049 A 
ATOM     30  C   UNL A   1      43.554  26.379  27.301  1.00  0.00     0.074 A 
ATOM     31  C   UNL A   1      47.532  31.403  27.405  1.00  0.00     0.029 A 
ATOM     32  N   UNL A   1      45.811  30.028  27.743  1.00  0.00    -0.354 N 
ATOM     33  N   UNL A   1      44.293  27.462  27.392  1.00  0.00    -0.248 NA
ATOM     34  C   UNL A   1      44.099  25.355  26.401  1.00  0.00     0.031 C 
ATOM     35  C   UNL A   1      47.722  30.246  26.640  1.00  0.00     0.029 A 
ATOM     36  C   UNL A   1      46.667  29.375  26.877  1.00  0.00     0.049 A 
ATOM     37  H   UNL A   1      44.962  29.662  28.081  1.00  0.00     0.167 HD
ATOM     38  C   UNL A   1      45.404  27.239  26.590  1.00  0.00     0.074 A 
ATOM     39  C   UNL A   1      45.240  25.916  26.019  1.00  0.00     0.031 C 
ATOM     40  C   UNL A   1      46.468  28.046  26.351  1.00  0.00     0.037 A 
BRANCH  27  41
ATOM     41  C   UNL A   1      46.272  33.571  29.177  1.00  0.00     0.057 A 
ATOM     42  C   UNL A   1      46.025  34.669  28.340  1.00  0.00     0.134 A 
ATOM     43  C   UNL A   1      47.176  33.758  30.230  1.00  0.00     0.134 A 
ATOM     44  F   UNL A   1      45.194  34.552  27.293  1.00  0.00    -0.206 F 
ATOM     45  C   UNL A   1      46.689  35.885  28.513  1.00  0.00     0.040 A 
ATOM     46  C   UNL A   1      47.823  34.978  30.433  1.00  0.00     0.040 A 
ATOM     47  F   UNL A   1      47.467  32.750  31.067  1.00  0.00    -0.206 F 
ATOM     48  C   UNL A   1      47.591  36.042  29.564  1.00  0.00     0.006 A 
ENDBRANCH  27  41
BRANCH  28  49
ATOM     49  C   UNL A   1      41.520  24.794  27.730  1.00  0.00     0.057 A 
ATOM     50  C   UNL A   1      41.844  23.623  28.425  1.00  0.00     0.134 A 
ATOM     51  C   UNL A   1      40.465  24.722  26.810  1.00  0.00     0.134 A 
ATOM     52  F   UNL A   1      42.857  23.620  29.304  1.00  0.00    -0.206 F 
ATOM     53  C   UNL A   1      41.149  22.430  28.213  1.00  0.00     0.040 A 
ATOM     54  C   UNL A   1      39.746  23.542  26.606  1.00  0.00     0.040 A 
ATOM     55  F   UNL A   1      40.101  25.808  26.112  1.00  0.00    -0.206 F 
ATOM     56  C   UNL A   1      40.091  22.389  27.307  1.00  0.00     0.006 A 
ENDBRANCH  28  49
BRANCH  40  57
ATOM     57  C   UNL A   1      47.565  27.497  25.488  1.00  0.00     0.057 A 
ATOM     58  C   UNL A   1      47.565  27.649  24.097  1.00  0.00     0.134 A 
ATOM     59  C   UNL A   1      48.685  26.895  26.078  1.00  0.00     0.134 A 
ATOM     60  F   UNL A   1      46.518  28.210  23.474  1.00  0.00    -0.206 F 
ATOM     61  C   UNL A   1      48.638  27.209  23.320  1.00  0.00     0.040 A 
ATOM     62  C   UNL A   1      49.774  26.477  25.316  1.00  0.00     0.040 A 
ATOM     63  F   UNL A   1      48.749  26.733  27.409  1.00  0.00    -0.206 F 
ATOM     64  C   UNL A   1      49.751  26.633  23.931  1.00  0.00     0.006 A 
ENDBRANCH  40  57
ENDBRANCH  14  15
ENDBRANCH   7   9
ENDBRANCH   6   7
ENDBRANCH   5   6
ENDBRANCH   4   5
ENDBRANCH   3   4
ENDBRANCH   2   3
ENDBRANCH   1   2
BRANCH   1  65
ATOM     65  O   UNL A   1      34.423  31.991  28.763  1.00  0.00    -0.377 OA
BRANCH  65  66
ATOM     66  C   UNL A   1      35.535  31.461  28.070  1.00  0.00     0.188 C 
BRANCH  66  67
ATOM     67  C   UNL A   1      35.699  29.928  28.161  1.00  0.00     0.188 C 
BRANCH  67  68
ATOM     68  O   UNL A   1      35.258  29.106  27.091  1.00  0.00    -0.376 OA
BRANCH  68  69
ATOM     69  C   UNL A   1      33.911  29.209  26.654  1.00  0.00     0.202 C 
BRANCH  69  70
ATOM     70  C   UNL A   1      32.841  28.207  27.139  1.00  0.00     0.261 C 
BRANCH  70  71
ATOM     71  O   UNL A   1      31.910  27.733  26.146  1.00  0.00    -0.460 OA
BRANCH  71  72
ATOM     72  C   UNL A   1      31.732  28.499  25.026  1.00  0.00     0.340 C 
ATOM     73  O   UNL A   1      31.453  29.668  24.993  1.00  0.00    -0.246 OA
BRANCH  72  74
ATOM     74  C   UNL A   1      31.899  27.623  23.832  1.00  0.00     0.088 A 
ATOM     75  C   UNL A   1      33.082  26.872  23.736  1.00  0.00     0.019 A 
ATOM     76  C   UNL A   1      30.998  27.579  22.757  1.00  0.00     0.103 A 
ATOM     77  C   UNL A   1      33.312  26.068  22.622  1.00  0.00     0.021 A 
ATOM     78  N   UNL A   1      31.231  26.782  21.663  1.00  0.00    -0.254 NA
ATOM     79  C   UNL A   1      32.354  26.038  21.632  1.00  0.00     0.112 A 
BRANCH  76  80
ATOM     80  C   UNL A   1      29.859  28.496  22.546  1.00  0.00     0.089 A 
ATOM     81  C   UNL A   1      28.613  28.209  23.124  1.00  0.00     0.031 A 
ATOM     82  N   UNL A   1      30.047  29.601  21.793  1.00  0.00    -0.255 NA
ATOM     83  C   UNL A   1      27.529  29.052  22.897  1.00  0.00     0.004 A 
ATOM     84  C   UNL A   1      28.986  30.424  21.614  1.00  0.00     0.112 A 
ATOM     85  C   UNL A   1      27.720  30.190  22.129  1.00  0.00     0.020 A 
ENDBRANCH  76  80
ENDBRANCH  72  74
ENDBRANCH  71  72
ENDBRANCH  70  71
ENDBRANCH  69  70
ENDBRANCH  68  69
ENDBRANCH  67  68
ENDBRANCH  66  67
ENDBRANCH  65  66
ENDBRANCH   1  65
TORSDOF 21
ENDMDL
MODEL 3
REMARK VINA RESULT:      -9.0      5.280      9.891
REMARK SMILES O=C(OCCOCCOCCOCCOC(=O)c1cccnc1-c1ccccn1)c1ccc(-c2c3nc(c(-c4c(F)cccc4F)c4ccc([nH]4)c(-c4c(F)cccc4F)c4nc(c(-c5c(F)cccc5F)c5ccc2[nH]5)C=C4)C=C3)cc1
REMARK SMILES IDX 8 1 7 2 6 3 5 4 4 5 3 6 2 7 1 8 30 9 31 10 83 11 32 12 82 13
REMARK SMILES IDX 33 14 34 15 35 16 76 17 36 18 81 19 75 20 77 21 37 22 80 23
REMARK SMILES IDX 74 24 73 25 38 27 64 28 47 29 63 30 48 31 51 32 62 33 78 34
REMARK SMILES IDX 49 35 50 36 61 38 79 39 52 40 39 41 40 42 45 43 41 44 42 45
REMARK SMILES IDX 44 46 46 47 43 48 65 49 66 50 71 51 67 52 68 53 70 54 72 55
REMARK SMILES IDX 69 56 53 57 54 58 59 59 55 60 56 61 58 62 60 63 57 64 9 65
REMARK SMILES IDX 10 66 11 67 12 68 13 69 14 70 15 71 16 72 17 73 18 74 19 75
REMARK SMILES IDX 23 76 20 77 22 78 21 79 24 80 25 81 29 82 26 83 28 84 27 85
REMARK H PARENT 77 26 51 37
REMARK Flexibility Score: inf
ROOT
ATOM      1  C   UNL A   1      34.026  33.054  28.399  1.00  0.00     0.188 C 
ENDROOT
BRANCH   1   2
ATOM      2  C   UNL A   1      34.243  34.102  29.482  1.00  0.00     0.188 C 
BRANCH   2   3
ATOM      3  O   UNL A   1      35.464  33.955  30.207  1.00  0.00    -0.376 OA
BRANCH   3   4
ATOM      4  C   UNL A   1      35.395  33.971  31.627  1.00  0.00     0.202 C 
BRANCH   4   5
ATOM      5  C   UNL A   1      34.671  32.719  32.127  1.00  0.00     0.261 C 
BRANCH   5   6
ATOM      6  O   UNL A   1      35.531  31.776  32.789  1.00  0.00    -0.460 OA
BRANCH   6   7
ATOM      7  C   UNL A   1      36.827  32.013  33.094  1.00  0.00     0.338 C 
ATOM      8  O   UNL A   1      37.115  32.585  34.142  1.00  0.00    -0.246 OA
BRANCH   7   9
ATOM      9  C   UNL A   1      37.919  31.380  32.289  1.00  0.00     0.060 A 
ATOM     10  C   UNL A   1      39.065  30.754  32.798  1.00  0.00     0.016 A 
ATOM     11  C   UNL A   1      37.715  31.368  30.901  1.00  0.00     0.016 A 
ATOM     12  C   UNL A   1      39.989  30.136  31.959  1.00  0.00     0.010 A 
ATOM     13  C   UNL A   1      38.651  30.785  30.050  1.00  0.00     0.010 A 
ATOM     14  C   UNL A   1      39.802  30.194  30.583  1.00  0.00    -0.014 A 
BRANCH  14  15
ATOM     15  C   UNL A   1      40.928  29.893  29.688  1.00  0.00     0.031 A 
ATOM     16  C   UNL A   1      40.963  28.520  29.094  1.00  0.00     0.074 A 
ATOM     17  C   UNL A   1      41.880  30.804  29.436  1.00  0.00     0.049 A 
ATOM     18  N   UNL A   1      41.926  27.907  28.464  1.00  0.00    -0.248 NA
ATOM     19  C   UNL A   1      39.734  27.721  29.250  1.00  0.00     0.031 C 
ATOM     20  C   UNL A   1      41.863  32.194  29.889  1.00  0.00     0.029 A 
ATOM     21  N   UNL A   1      43.059  30.680  28.754  1.00  0.00    -0.354 N 
ATOM     22  C   UNL A   1      41.435  26.638  28.189  1.00  0.00     0.074 A 
ATOM     23  C   UNL A   1      40.094  26.564  28.721  1.00  0.00     0.031 C 
ATOM     24  C   UNL A   1      43.004  32.788  29.501  1.00  0.00     0.029 A 
ATOM     25  C   UNL A   1      43.846  31.802  28.828  1.00  0.00     0.049 A 
ATOM     26  H   UNL A   1      43.317  29.868  28.262  1.00  0.00     0.167 HD
ATOM     27  C   UNL A   1      42.066  25.621  27.561  1.00  0.00     0.037 A 
ATOM     28  C   UNL A   1      45.122  31.976  28.437  1.00  0.00     0.037 A 
ATOM     29  C   UNL A   1      43.410  25.728  27.066  1.00  0.00     0.049 A 
ATOM     30  C   UNL A   1      45.840  30.810  27.809  1.00  0.00     0.074 A 
ATOM     31  C   UNL A   1      44.184  24.771  26.442  1.00  0.00     0.029 A 
ATOM     32  N   UNL A   1      44.182  26.881  27.160  1.00  0.00    -0.354 N 
ATOM     33  N   UNL A   1      45.398  29.594  27.579  1.00  0.00    -0.248 NA
ATOM     34  C   UNL A   1      47.230  31.030  27.393  1.00  0.00     0.031 C 
ATOM     35  C   UNL A   1      45.444  25.330  26.202  1.00  0.00     0.029 A 
ATOM     36  C   UNL A   1      45.433  26.655  26.617  1.00  0.00     0.049 A 
ATOM     37  H   UNL A   1      43.882  27.731  27.553  1.00  0.00     0.167 HD
ATOM     38  C   UNL A   1      46.440  28.914  26.964  1.00  0.00     0.074 A 
ATOM     39  C   UNL A   1      47.539  29.856  26.858  1.00  0.00     0.031 C 
ATOM     40  C   UNL A   1      46.489  27.634  26.517  1.00  0.00     0.037 A 
BRANCH  27  41
ATOM     41  C   UNL A   1      41.326  24.318  27.468  1.00  0.00     0.057 A 
ATOM     42  C   UNL A   1      41.669  23.204  28.247  1.00  0.00     0.134 A 
ATOM     43  C   UNL A   1      40.300  24.153  26.530  1.00  0.00     0.134 A 
ATOM     44  F   UNL A   1      42.664  23.282  29.144  1.00  0.00    -0.206 F 
ATOM     45  C   UNL A   1      41.053  21.965  28.063  1.00  0.00     0.040 A 
ATOM     46  C   UNL A   1      39.654  22.927  26.358  1.00  0.00     0.040 A 
ATOM     47  F   UNL A   1      39.923  25.174  25.744  1.00  0.00    -0.206 F 
ATOM     48  C   UNL A   1      40.040  21.824  27.116  1.00  0.00     0.006 A 
ENDBRANCH  27  41
BRANCH  28  49
ATOM     49  C   UNL A   1      45.794  33.281  28.658  1.00  0.00     0.057 A 
ATOM     50  C   UNL A   1      45.758  34.290  27.690  1.00  0.00     0.134 A 
ATOM     51  C   UNL A   1      46.464  33.566  29.856  1.00  0.00     0.134 A 
ATOM     52  F   UNL A   1      45.150  34.075  26.514  1.00  0.00    -0.206 F 
ATOM     53  C   UNL A   1      46.367  35.530  27.900  1.00  0.00     0.040 A 
ATOM     54  C   UNL A   1      47.056  34.809  30.090  1.00  0.00     0.040 A 
ATOM     55  F   UNL A   1      46.534  32.644  30.828  1.00  0.00    -0.206 F 
ATOM     56  C   UNL A   1      47.011  35.795  29.107  1.00  0.00     0.006 A 
ENDBRANCH  28  49
BRANCH  40  57
ATOM     57  C   UNL A   1      47.741  27.197  25.818  1.00  0.00     0.057 A 
ATOM     58  C   UNL A   1      47.928  27.375  24.443  1.00  0.00     0.134 A 
ATOM     59  C   UNL A   1      48.812  26.680  26.559  1.00  0.00     0.134 A 
ATOM     60  F   UNL A   1      46.936  27.859  23.678  1.00  0.00    -0.206 F 
ATOM     61  C   UNL A   1      49.135  27.043  23.826  1.00  0.00     0.040 A 
ATOM     62  C   UNL A   1      50.032  26.371  25.960  1.00  0.00     0.040 A 
ATOM     63  F   UNL A   1      48.699  26.498  27.885  1.00  0.00    -0.206 F 
ATOM     64  C   UNL A   1      50.194  26.552  24.588  1.00  0.00     0.006 A 
ENDBRANCH  40  57
ENDBRANCH  14  15
ENDBRANCH   7   9
ENDBRANCH   6   7
ENDBRANCH   5   6
ENDBRANCH   4   5
ENDBRANCH   3   4
ENDBRANCH   2   3
ENDBRANCH   1   2
BRANCH   1  65
ATOM     65  O   UNL A   1      34.540  31.758  28.652  1.00  0.00    -0.377 OA
BRANCH  65  66
ATOM     66  C   UNL A   1      35.406  31.203  27.683  1.00  0.00     0.188 C 
BRANCH  66  67
ATOM     67  C   UNL A   1      35.474  29.661  27.666  1.00  0.00     0.188 C 
BRANCH  67  68
ATOM     68  O   UNL A   1      34.554  28.923  26.876  1.00  0.00    -0.376 OA
BRANCH  68  69
ATOM     69  C   UNL A   1      33.164  29.165  27.033  1.00  0.00     0.202 C 
BRANCH  69  70
ATOM     70  C   UNL A   1      32.232  28.082  27.620  1.00  0.00     0.261 C 
BRANCH  70  71
ATOM     71  O   UNL A   1      31.035  27.794  26.872  1.00  0.00    -0.460 OA
BRANCH  71  72
ATOM     72  C   UNL A   1      30.986  26.615  26.179  1.00  0.00     0.340 C 
ATOM     73  O   UNL A   1      30.907  25.510  26.648  1.00  0.00    -0.246 OA
BRANCH  72  74
ATOM     74  C   UNL A   1      31.093  26.924  24.726  1.00  0.00     0.088 A 
ATOM     75  C   UNL A   1      30.032  27.624  24.129  1.00  0.00     0.019 A 
ATOM     76  C   UNL A   1      32.137  26.475  23.901  1.00  0.00     0.103 A 
ATOM     77  C   UNL A   1      30.059  27.904  22.765  1.00  0.00     0.021 A 
ATOM     78  N   UNL A   1      32.156  26.757  22.557  1.00  0.00    -0.254 NA
ATOM     79  C   UNL A   1      31.144  27.475  22.032  1.00  0.00     0.112 A 
BRANCH  76  80
ATOM     80  C   UNL A   1      33.179  25.499  24.281  1.00  0.00     0.089 A 
ATOM     81  C   UNL A   1      34.089  25.809  25.303  1.00  0.00     0.031 A 
ATOM     82  N   UNL A   1      33.231  24.319  23.626  1.00  0.00    -0.255 NA
ATOM     83  C   UNL A   1      35.094  24.906  25.638  1.00  0.00     0.004 A 
ATOM     84  C   UNL A   1      34.198  23.442  23.993  1.00  0.00     0.112 A 
ATOM     85  C   UNL A   1      35.148  23.692  24.972  1.00  0.00     0.020 A 
ENDBRANCH  76  80
ENDBRANCH  72  74
ENDBRANCH  71  72
ENDBRANCH  70  71
ENDBRANCH  69  70
ENDBRANCH  68  69
ENDBRANCH  67  68
ENDBRANCH  66  67
ENDBRANCH  65  66
ENDBRANCH   1  65
TORSDOF 21
ENDMDL
