MODEL 1
REMARK VINA RESULT:      -9.5      0.000      0.000
REMARK SMILES C[C@@H](C(=O)OCCOCCOCCOCCOC(=O)c1ccc(-c2c3nc(c(-c4c(F)cccc4F)c4ccc([nH]4)c(-c4c(F)cccc4F)c4nc(c(-c5c(F)cccc5F)c5ccc2[nH]5)C=C4)C=C3)cc1)c1ccc(=O)n(C(F)F)c1
REMARK SMILES IDX 11 1 10 2 9 3 8 4 7 5 6 6 5 7 3 8 4 9 2 10 1 11 74 12 75 13
REMARK SMILES IDX 83 14 76 15 79 16 77 17 78 18 80 19 81 20 82 21 12 22 13 23
REMARK SMILES IDX 14 24 15 25 16 26 17 27 18 28 19 29 20 30 21 31 73 32 22 33
REMARK SMILES IDX 72 34 23 35 24 36 25 37 66 38 26 39 71 40 65 41 67 42 27 43
REMARK SMILES IDX 70 44 64 45 63 46 28 48 54 49 37 50 53 51 38 52 41 53 52 54
REMARK SMILES IDX 68 55 39 56 40 57 51 59 69 60 42 61 29 62 30 63 35 64 31 65
REMARK SMILES IDX 32 66 34 67 36 68 33 69 55 70 56 71 61 72 57 73 58 74 60 75
REMARK SMILES IDX 62 76 59 77 43 78 44 79 49 80 45 81 46 82 48 83 50 84 47 85
REMARK H PARENT 67 47 41 58
REMARK Flexibility Score: inf
ROOT
ATOM      1  O   UNL A   1      34.651  32.472  27.941  1.00  0.00    -0.377 OA
ENDROOT
BRANCH   1   2
ATOM      2  C   UNL A   1      33.973  31.265  27.644  1.00  0.00     0.188 C 
BRANCH   2   3
ATOM      3  C   UNL A   1      34.866  30.013  27.620  1.00  0.00     0.188 C 
BRANCH   3   4
ATOM      4  O   UNL A   1      34.136  28.812  27.517  1.00  0.00    -0.376 OA
BRANCH   4   5
ATOM      5  C   UNL A   1      32.746  28.868  27.261  1.00  0.00     0.202 C 
BRANCH   5   6
ATOM      6  C   UNL A   1      32.004  28.134  26.118  1.00  0.00     0.261 C 
BRANCH   6   7
ATOM      7  O   UNL A   1      31.074  27.082  26.420  1.00  0.00    -0.463 OA
BRANCH   7   8
ATOM      8  C   UNL A   1      31.436  25.803  26.148  1.00  0.00     0.313 C 
ATOM      9  O   UNL A   1      31.387  24.896  26.972  1.00  0.00    -0.252 OA
BRANCH   8  10
ATOM     10  C   UNL A   1      31.940  25.607  24.698  1.00  0.00     0.127 C 
ATOM     11  C   UNL A   1      30.920  25.714  23.554  1.00  0.00     0.025 C 
BRANCH  10  12
ATOM     12  C   UNL A   1      32.824  24.367  24.556  1.00  0.00    -0.017 A 
ATOM     13  C   UNL A   1      32.283  23.081  24.156  1.00  0.00     0.012 A 
ATOM     14  C   UNL A   1      34.139  24.416  24.833  1.00  0.00     0.099 A 
ATOM     15  C   UNL A   1      33.011  21.960  24.182  1.00  0.00     0.072 A 
ATOM     16  N   UNL A   1      34.938  23.285  24.806  1.00  0.00    -0.258 N 
ATOM     17  C   UNL A   1      34.441  22.014  24.563  1.00  0.00     0.254 A 
ATOM     18  O   UNL A   1      35.075  20.966  24.612  1.00  0.00    -0.269 OA
BRANCH  16  19
ATOM     19  C   UNL A   1      36.331  23.376  25.143  1.00  0.00     0.451 C 
ATOM     20  F   UNL A   1      37.078  23.608  24.038  1.00  0.00    -0.185 F 
ATOM     21  F   UNL A   1      36.563  24.374  26.030  1.00  0.00    -0.185 F 
ENDBRANCH  16  19
ENDBRANCH  10  12
ENDBRANCH   8  10
ENDBRANCH   7   8
ENDBRANCH   6   7
ENDBRANCH   5   6
ENDBRANCH   4   5
ENDBRANCH   3   4
ENDBRANCH   2   3
ENDBRANCH   1   2
BRANCH   1  22
ATOM     22  C   UNL A   1      33.889  33.676  27.954  1.00  0.00     0.188 C 
BRANCH  22  23
ATOM     23  C   UNL A   1      33.554  34.406  29.278  1.00  0.00     0.188 C 
BRANCH  23  24
ATOM     24  O   UNL A   1      34.578  34.369  30.261  1.00  0.00    -0.376 OA
BRANCH  24  25
ATOM     25  C   UNL A   1      34.252  34.681  31.605  1.00  0.00     0.202 C 
BRANCH  25  26
ATOM     26  C   UNL A   1      34.120  33.513  32.593  1.00  0.00     0.261 C 
BRANCH  26  27
ATOM     27  O   UNL A   1      34.981  32.388  32.366  1.00  0.00    -0.460 OA
BRANCH  27  28
ATOM     28  C   UNL A   1      36.114  32.302  33.100  1.00  0.00     0.338 C 
ATOM     29  O   UNL A   1      36.269  32.622  34.257  1.00  0.00    -0.246 OA
BRANCH  28  30
ATOM     30  C   UNL A   1      37.097  31.541  32.295  1.00  0.00     0.060 A 
ATOM     31  C   UNL A   1      37.958  30.645  32.943  1.00  0.00     0.016 A 
ATOM     32  C   UNL A   1      37.145  31.693  30.908  1.00  0.00     0.016 A 
ATOM     33  C   UNL A   1      38.895  29.922  32.208  1.00  0.00     0.010 A 
ATOM     34  C   UNL A   1      38.105  30.991  30.175  1.00  0.00     0.010 A 
ATOM     35  C   UNL A   1      39.005  30.131  30.828  1.00  0.00    -0.014 A 
BRANCH  35  36
ATOM     36  C   UNL A   1      40.203  29.635  30.109  1.00  0.00     0.031 A 
ATOM     37  C   UNL A   1      41.348  30.589  29.909  1.00  0.00     0.074 A 
ATOM     38  C   UNL A   1      40.286  28.370  29.666  1.00  0.00     0.049 A 
ATOM     39  N   UNL A   1      42.474  30.417  29.268  1.00  0.00    -0.248 NA
ATOM     40  C   UNL A   1      41.197  31.924  30.513  1.00  0.00     0.031 C 
ATOM     41  C   UNL A   1      39.267  27.339  29.847  1.00  0.00     0.029 A 
ATOM     42  N   UNL A   1      41.282  27.742  28.962  1.00  0.00    -0.354 N 
ATOM     43  C   UNL A   1      43.158  31.621  29.380  1.00  0.00     0.074 A 
ATOM     44  C   UNL A   1      42.310  32.525  30.124  1.00  0.00     0.031 C 
ATOM     45  C   UNL A   1      39.686  26.206  29.257  1.00  0.00     0.029 A 
ATOM     46  C   UNL A   1      40.984  26.444  28.627  1.00  0.00     0.049 A 
ATOM     47  H   UNL A   1      42.130  28.180  28.720  1.00  0.00     0.167 HD
ATOM     48  C   UNL A   1      44.385  31.942  28.911  1.00  0.00     0.037 A 
ATOM     49  C   UNL A   1      41.673  25.563  27.875  1.00  0.00     0.037 A 
ATOM     50  C   UNL A   1      45.223  31.039  28.169  1.00  0.00     0.049 A 
ATOM     51  C   UNL A   1      43.000  25.973  27.289  1.00  0.00     0.074 A 
ATOM     52  C   UNL A   1      46.492  31.260  27.663  1.00  0.00     0.029 A 
ATOM     53  N   UNL A   1      44.870  29.746  27.814  1.00  0.00    -0.354 N 
ATOM     54  N   UNL A   1      43.652  27.104  27.420  1.00  0.00    -0.248 NA
ATOM     55  C   UNL A   1      43.689  24.981  26.449  1.00  0.00     0.031 C 
ATOM     56  C   UNL A   1      46.880  30.122  26.948  1.00  0.00     0.029 A 
ATOM     57  C   UNL A   1      45.883  29.168  27.067  1.00  0.00     0.049 A 
ATOM     58  H   UNL A   1      44.024  29.304  28.057  1.00  0.00     0.167 HD
ATOM     59  C   UNL A   1      44.839  26.946  26.712  1.00  0.00     0.074 A 
ATOM     60  C   UNL A   1      44.822  25.606  26.164  1.00  0.00     0.031 C 
ATOM     61  C   UNL A   1      45.854  27.828  26.536  1.00  0.00     0.037 A 
BRANCH  48  62
ATOM     62  C   UNL A   1      44.874  33.341  29.151  1.00  0.00     0.057 A 
ATOM     63  C   UNL A   1      45.639  33.682  30.274  1.00  0.00     0.134 A 
ATOM     64  C   UNL A   1      44.592  34.359  28.230  1.00  0.00     0.134 A 
ATOM     65  F   UNL A   1      45.930  32.760  31.205  1.00  0.00    -0.206 F 
ATOM     66  C   UNL A   1      46.083  34.988  30.486  1.00  0.00     0.040 A 
ATOM     67  C   UNL A   1      45.057  35.661  28.414  1.00  0.00     0.040 A 
ATOM     68  F   UNL A   1      43.866  34.101  27.131  1.00  0.00    -0.206 F 
ATOM     69  C   UNL A   1      45.799  35.980  29.549  1.00  0.00     0.006 A 
ENDBRANCH  48  62
BRANCH  49  70
ATOM     70  C   UNL A   1      41.122  24.207  27.616  1.00  0.00     0.057 A 
ATOM     71  C   UNL A   1      41.632  23.079  28.269  1.00  0.00     0.134 A 
ATOM     72  C   UNL A   1      40.097  24.001  26.685  1.00  0.00     0.134 A 
ATOM     73  F   UNL A   1      42.631  23.206  29.155  1.00  0.00    -0.206 F 
ATOM     74  C   UNL A   1      41.159  21.794  27.992  1.00  0.00     0.040 A 
ATOM     75  C   UNL A   1      39.595  22.726  26.418  1.00  0.00     0.040 A 
ATOM     76  F   UNL A   1      39.565  25.038  26.021  1.00  0.00    -0.206 F 
ATOM     77  C   UNL A   1      40.133  21.617  27.066  1.00  0.00     0.006 A 
ENDBRANCH  49  70
BRANCH  61  78
ATOM     78  C   UNL A   1      47.053  27.361  25.759  1.00  0.00     0.057 A 
ATOM     79  C   UNL A   1      47.156  27.531  24.373  1.00  0.00     0.134 A 
ATOM     80  C   UNL A   1      48.141  26.773  26.420  1.00  0.00     0.134 A 
ATOM     81  F   UNL A   1      46.147  28.077  23.677  1.00  0.00    -0.206 F 
ATOM     82  C   UNL A   1      48.286  27.110  23.668  1.00  0.00     0.040 A 
ATOM     83  C   UNL A   1      49.289  26.378  25.730  1.00  0.00     0.040 A 
ATOM     84  F   UNL A   1      48.115  26.591  27.748  1.00  0.00    -0.206 F 
ATOM     85  C   UNL A   1      49.360  26.539  24.349  1.00  0.00     0.006 A 
ENDBRANCH  61  78
ENDBRANCH  35  36
ENDBRANCH  28  30
ENDBRANCH  27  28
ENDBRANCH  26  27
ENDBRANCH  25  26
ENDBRANCH  24  25
ENDBRANCH  23  24
ENDBRANCH  22  23
ENDBRANCH   1  22
TORSDOF 22
ENDMDL
MODEL 2
REMARK VINA RESULT:      -9.4      4.240      9.781
REMARK SMILES C[C@@H](C(=O)OCCOCCOCCOCCOC(=O)c1ccc(-c2c3nc(c(-c4c(F)cccc4F)c4ccc([nH]4)c(-c4c(F)cccc4F)c4nc(c(-c5c(F)cccc5F)c5ccc2[nH]5)C=C4)C=C3)cc1)c1ccc(=O)n(C(F)F)c1
REMARK SMILES IDX 11 1 10 2 9 3 8 4 7 5 6 6 5 7 3 8 4 9 2 10 1 11 74 12 75 13
REMARK SMILES IDX 83 14 76 15 79 16 77 17 78 18 80 19 81 20 82 21 12 22 13 23
REMARK SMILES IDX 14 24 15 25 16 26 17 27 18 28 19 29 20 30 21 31 73 32 22 33
REMARK SMILES IDX 72 34 23 35 24 36 25 37 66 38 26 39 71 40 65 41 67 42 27 43
REMARK SMILES IDX 70 44 64 45 63 46 28 48 54 49 37 50 53 51 38 52 41 53 52 54
REMARK SMILES IDX 68 55 39 56 40 57 51 59 69 60 42 61 29 62 30 63 35 64 31 65
REMARK SMILES IDX 32 66 34 67 36 68 33 69 55 70 56 71 61 72 57 73 58 74 60 75
REMARK SMILES IDX 62 76 59 77 43 78 44 79 49 80 45 81 46 82 48 83 50 84 47 85
REMARK H PARENT 67 47 41 58
REMARK Flexibility Score: inf
ROOT
ATOM      1  O   UNL A   1      38.443  21.786  25.932  1.00  0.00    -0.377 OA
ENDROOT
BRANCH   1   2
ATOM      2  C   UNL A   1      38.027  23.139  25.928  1.00  0.00     0.188 C 
BRANCH   2   3
ATOM      3  C   UNL A   1      36.621  23.381  25.354  1.00  0.00     0.188 C 
BRANCH   3   4
ATOM      4  O   UNL A   1      36.452  22.855  24.059  1.00  0.00    -0.376 OA
BRANCH   4   5
ATOM      5  C   UNL A   1      35.272  23.157  23.338  1.00  0.00     0.202 C 
BRANCH   5   6
ATOM      6  C   UNL A   1      34.389  24.413  23.529  1.00  0.00     0.261 C 
BRANCH   6   7
ATOM      7  O   UNL A   1      33.050  24.440  23.010  1.00  0.00    -0.463 OA
BRANCH   7   8
ATOM      8  C   UNL A   1      32.710  25.434  22.152  1.00  0.00     0.313 C 
ATOM      9  O   UNL A   1      33.336  25.690  21.129  1.00  0.00    -0.252 OA
BRANCH   8  10
ATOM     10  C   UNL A   1      31.463  26.231  22.605  1.00  0.00     0.127 C 
ATOM     11  C   UNL A   1      31.044  27.457  21.778  1.00  0.00     0.025 C 
BRANCH  10  12
ATOM     12  C   UNL A   1      31.486  26.539  24.103  1.00  0.00    -0.017 A 
ATOM     13  C   UNL A   1      30.653  25.818  25.047  1.00  0.00     0.012 A 
ATOM     14  C   UNL A   1      32.259  27.522  24.598  1.00  0.00     0.099 A 
ATOM     15  C   UNL A   1      30.545  26.182  26.330  1.00  0.00     0.072 A 
ATOM     16  N   UNL A   1      32.222  27.882  25.935  1.00  0.00    -0.258 N 
ATOM     17  C   UNL A   1      31.346  27.316  26.847  1.00  0.00     0.254 A 
ATOM     18  O   UNL A   1      31.201  27.649  28.018  1.00  0.00    -0.269 OA
BRANCH  16  19
ATOM     19  C   UNL A   1      33.039  28.961  26.416  1.00  0.00     0.451 C 
ATOM     20  F   UNL A   1      32.274  29.933  26.967  1.00  0.00    -0.185 F 
ATOM     21  F   UNL A   1      33.924  28.536  27.351  1.00  0.00    -0.185 F 
ENDBRANCH  16  19
ENDBRANCH  10  12
ENDBRANCH   8  10
ENDBRANCH   7   8
ENDBRANCH   6   7
ENDBRANCH   5   6
ENDBRANCH   4   5
ENDBRANCH   3   4
ENDBRANCH   2   3
ENDBRANCH   1   2
BRANCH   1  22
ATOM     22  C   UNL A   1      39.756  21.495  26.401  1.00  0.00     0.188 C 
BRANCH  22  23
ATOM     23  C   UNL A   1      40.443  20.141  26.096  1.00  0.00     0.188 C 
BRANCH  23  24
ATOM     24  O   UNL A   1      41.691  19.941  26.744  1.00  0.00    -0.376 OA
BRANCH  24  25
ATOM     25  C   UNL A   1      42.592  21.031  26.850  1.00  0.00     0.202 C 
BRANCH  25  26
ATOM     26  C   UNL A   1      43.266  21.523  25.561  1.00  0.00     0.261 C 
BRANCH  26  27
ATOM     27  O   UNL A   1      42.760  22.746  25.007  1.00  0.00    -0.460 OA
BRANCH  27  28
ATOM     28  C   UNL A   1      43.576  23.824  25.007  1.00  0.00     0.338 C 
ATOM     29  O   UNL A   1      44.528  24.029  24.287  1.00  0.00    -0.246 OA
BRANCH  28  30
ATOM     30  C   UNL A   1      42.972  24.827  25.914  1.00  0.00     0.060 A 
ATOM     31  C   UNL A   1      43.589  26.078  26.052  1.00  0.00     0.016 A 
ATOM     32  C   UNL A   1      41.790  24.540  26.599  1.00  0.00     0.016 A 
ATOM     33  C   UNL A   1      43.043  27.035  26.905  1.00  0.00     0.010 A 
ATOM     34  C   UNL A   1      41.261  25.488  27.477  1.00  0.00     0.010 A 
ATOM     35  C   UNL A   1      41.905  26.724  27.658  1.00  0.00    -0.014 A 
BRANCH  35  36
ATOM     36  C   UNL A   1      41.528  27.592  28.799  1.00  0.00     0.031 A 
ATOM     37  C   UNL A   1      42.311  27.456  30.075  1.00  0.00     0.074 A 
ATOM     38  C   UNL A   1      40.534  28.492  28.702  1.00  0.00     0.049 A 
ATOM     39  N   UNL A   1      42.142  28.055  31.225  1.00  0.00    -0.248 NA
ATOM     40  C   UNL A   1      43.440  26.509  30.049  1.00  0.00     0.031 C 
ATOM     41  C   UNL A   1      39.740  28.753  27.505  1.00  0.00     0.029 A 
ATOM     42  N   UNL A   1      40.022  29.350  29.643  1.00  0.00    -0.354 N 
ATOM     43  C   UNL A   1      43.131  27.550  32.060  1.00  0.00     0.074 A 
ATOM     44  C   UNL A   1      43.877  26.575  31.296  1.00  0.00     0.031 C 
ATOM     45  C   UNL A   1      38.830  29.702  27.786  1.00  0.00     0.029 A 
ATOM     46  C   UNL A   1      38.955  30.086  29.192  1.00  0.00     0.049 A 
ATOM     47  H   UNL A   1      40.386  29.430  30.554  1.00  0.00     0.167 HD
ATOM     48  C   UNL A   1      43.397  27.874  33.346  1.00  0.00     0.037 A 
ATOM     49  C   UNL A   1      38.157  30.950  29.850  1.00  0.00     0.037 A 
ATOM     50  C   UNL A   1      42.649  28.843  34.101  1.00  0.00     0.049 A 
ATOM     51  C   UNL A   1      38.420  31.230  31.309  1.00  0.00     0.074 A 
ATOM     52  C   UNL A   1      42.849  29.258  35.406  1.00  0.00     0.029 A 
ATOM     53  N   UNL A   1      41.549  29.539  33.623  1.00  0.00    -0.354 N 
ATOM     54  N   UNL A   1      39.372  30.768  32.085  1.00  0.00    -0.248 NA
ATOM     55  C   UNL A   1      37.496  32.155  31.983  1.00  0.00     0.031 C 
ATOM     56  C   UNL A   1      41.831  30.158  35.737  1.00  0.00     0.029 A 
ATOM     57  C   UNL A   1      41.039  30.356  34.617  1.00  0.00     0.049 A 
ATOM     58  H   UNL A   1      41.185  29.463  32.711  1.00  0.00     0.167 HD
ATOM     59  C   UNL A   1      39.182  31.372  33.323  1.00  0.00     0.074 A 
ATOM     60  C   UNL A   1      38.032  32.242  33.191  1.00  0.00     0.031 C 
ATOM     61  C   UNL A   1      39.898  31.224  34.466  1.00  0.00     0.037 A 
BRANCH  48  62
ATOM     62  C   UNL A   1      44.517  27.143  34.027  1.00  0.00     0.057 A 
ATOM     63  C   UNL A   1      44.326  25.909  34.662  1.00  0.00     0.134 A 
ATOM     64  C   UNL A   1      45.814  27.674  34.026  1.00  0.00     0.134 A 
ATOM     65  F   UNL A   1      43.106  25.353  34.716  1.00  0.00    -0.206 F 
ATOM     66  C   UNL A   1      45.378  25.243  35.294  1.00  0.00     0.040 A 
ATOM     67  C   UNL A   1      46.879  27.003  34.626  1.00  0.00     0.040 A 
ATOM     68  F   UNL A   1      46.068  28.852  33.434  1.00  0.00    -0.206 F 
ATOM     69  C   UNL A   1      46.661  25.786  35.269  1.00  0.00     0.006 A 
ENDBRANCH  48  62
BRANCH  49  70
ATOM     70  C   UNL A   1      37.024  31.607  29.150  1.00  0.00     0.057 A 
ATOM     71  C   UNL A   1      37.127  32.920  28.675  1.00  0.00     0.134 A 
ATOM     72  C   UNL A   1      35.800  30.953  28.967  1.00  0.00     0.134 A 
ATOM     73  F   UNL A   1      38.265  33.610  28.840  1.00  0.00    -0.206 F 
ATOM     74  C   UNL A   1      36.049  33.566  28.064  1.00  0.00     0.040 A 
ATOM     75  C   UNL A   1      34.723  31.576  28.334  1.00  0.00     0.040 A 
ATOM     76  F   UNL A   1      35.632  29.694  29.401  1.00  0.00    -0.206 F 
ATOM     77  C   UNL A   1      34.844  32.890  27.888  1.00  0.00     0.006 A 
ENDBRANCH  49  70
BRANCH  61  78
ATOM     78  C   UNL A   1      39.492  32.054  35.652  1.00  0.00     0.057 A 
ATOM     79  C   UNL A   1      40.009  33.337  35.876  1.00  0.00     0.134 A 
ATOM     80  C   UNL A   1      38.534  31.578  36.557  1.00  0.00     0.134 A 
ATOM     81  F   UNL A   1      40.937  33.850  35.054  1.00  0.00    -0.206 F 
ATOM     82  C   UNL A   1      39.606  34.104  36.971  1.00  0.00     0.040 A 
ATOM     83  C   UNL A   1      38.100  32.349  37.637  1.00  0.00     0.040 A 
ATOM     84  F   UNL A   1      37.988  30.363  36.396  1.00  0.00    -0.206 F 
ATOM     85  C   UNL A   1      38.643  33.614  37.851  1.00  0.00     0.006 A 
ENDBRANCH  61  78
ENDBRANCH  35  36
ENDBRANCH  28  30
ENDBRANCH  27  28
ENDBRANCH  26  27
ENDBRANCH  25  26
ENDBRANCH  24  25
ENDBRANCH  23  24
ENDBRANCH  22  23
ENDBRANCH   1  22
TORSDOF 22
ENDMDL
MODEL 3
REMARK VINA RESULT:      -9.4      1.398      6.446
REMARK SMILES C[C@@H](C(=O)OCCOCCOCCOCCOC(=O)c1ccc(-c2c3nc(c(-c4c(F)cccc4F)c4ccc([nH]4)c(-c4c(F)cccc4F)c4nc(c(-c5c(F)cccc5F)c5ccc2[nH]5)C=C4)C=C3)cc1)c1ccc(=O)n(C(F)F)c1
REMARK SMILES IDX 11 1 10 2 9 3 8 4 7 5 6 6 5 7 3 8 4 9 2 10 1 11 74 12 75 13
REMARK SMILES IDX 83 14 76 15 79 16 77 17 78 18 80 19 81 20 82 21 12 22 13 23
REMARK SMILES IDX 14 24 15 25 16 26 17 27 18 28 19 29 20 30 21 31 73 32 22 33
REMARK SMILES IDX 72 34 23 35 24 36 25 37 66 38 26 39 71 40 65 41 67 42 27 43
REMARK SMILES IDX 70 44 64 45 63 46 28 48 54 49 37 50 53 51 38 52 41 53 52 54
REMARK SMILES IDX 68 55 39 56 40 57 51 59 69 60 42 61 29 62 30 63 35 64 31 65
REMARK SMILES IDX 32 66 34 67 36 68 33 69 55 70 56 71 61 72 57 73 58 74 60 75
REMARK SMILES IDX 62 76 59 77 43 78 44 79 49 80 45 81 46 82 48 83 50 84 47 85
REMARK H PARENT 67 47 41 58
REMARK Flexibility Score: inf
ROOT
ATOM      1  O   UNL A   1      35.374  32.824  27.961  1.00  0.00    -0.377 OA
ENDROOT
BRANCH   1   2
ATOM      2  C   UNL A   1      34.680  31.700  28.470  1.00  0.00     0.188 C 
BRANCH   2   3
ATOM      3  C   UNL A   1      33.463  31.261  27.639  1.00  0.00     0.188 C 
BRANCH   3   4
ATOM      4  O   UNL A   1      33.743  30.194  26.764  1.00  0.00    -0.376 OA
BRANCH   4   5
ATOM      5  C   UNL A   1      32.690  29.346  26.348  1.00  0.00     0.202 C 
BRANCH   5   6
ATOM      6  C   UNL A   1      31.743  29.595  25.149  1.00  0.00     0.261 C 
BRANCH   6   7
ATOM      7  O   UNL A   1      31.093  28.491  24.501  1.00  0.00    -0.463 OA
BRANCH   7   8
ATOM      8  C   UNL A   1      31.574  28.071  23.304  1.00  0.00     0.313 C 
ATOM      9  O   UNL A   1      30.876  27.925  22.306  1.00  0.00    -0.252 OA
BRANCH   8  10
ATOM     10  C   UNL A   1      33.093  27.773  23.328  1.00  0.00     0.127 C 
ATOM     11  C   UNL A   1      33.930  28.168  22.102  1.00  0.00     0.025 C 
BRANCH  10  12
ATOM     12  C   UNL A   1      33.395  26.345  23.785  1.00  0.00    -0.017 A 
ATOM     13  C   UNL A   1      33.968  26.062  25.088  1.00  0.00     0.012 A 
ATOM     14  C   UNL A   1      33.171  25.295  22.975  1.00  0.00     0.099 A 
ATOM     15  C   UNL A   1      34.383  24.839  25.436  1.00  0.00     0.072 A 
ATOM     16  N   UNL A   1      33.528  24.005  23.331  1.00  0.00    -0.258 N 
ATOM     17  C   UNL A   1      34.200  23.702  24.504  1.00  0.00     0.254 A 
ATOM     18  O   UNL A   1      34.621  22.599  24.836  1.00  0.00    -0.269 OA
BRANCH  16  19
ATOM     19  C   UNL A   1      33.303  22.916  22.421  1.00  0.00     0.451 C 
ATOM     20  F   UNL A   1      32.126  22.303  22.690  1.00  0.00    -0.185 F 
ATOM     21  F   UNL A   1      33.275  23.342  21.134  1.00  0.00    -0.185 F 
ENDBRANCH  16  19
ENDBRANCH  10  12
ENDBRANCH   8  10
ENDBRANCH   7   8
ENDBRANCH   6   7
ENDBRANCH   5   6
ENDBRANCH   4   5
ENDBRANCH   3   4
ENDBRANCH   2   3
ENDBRANCH   1   2
BRANCH   1  22
ATOM     22  C   UNL A   1      35.265  34.052  28.675  1.00  0.00     0.188 C 
BRANCH  22  23
ATOM     23  C   UNL A   1      33.896  34.581  29.170  1.00  0.00     0.188 C 
BRANCH  23  24
ATOM     24  O   UNL A   1      33.664  34.437  30.563  1.00  0.00    -0.376 OA
BRANCH  24  25
ATOM     25  C   UNL A   1      34.752  34.113  31.412  1.00  0.00     0.202 C 
BRANCH  25  26
ATOM     26  C   UNL A   1      34.511  33.063  32.506  1.00  0.00     0.261 C 
BRANCH  26  27
ATOM     27  O   UNL A   1      35.350  31.900  32.468  1.00  0.00    -0.460 OA
BRANCH  27  28
ATOM     28  C   UNL A   1      36.514  31.939  33.156  1.00  0.00     0.338 C 
ATOM     29  O   UNL A   1      36.677  32.259  34.312  1.00  0.00    -0.246 OA
BRANCH  28  30
ATOM     30  C   UNL A   1      37.546  31.312  32.300  1.00  0.00     0.060 A 
ATOM     31  C   UNL A   1      38.627  30.658  32.906  1.00  0.00     0.016 A 
ATOM     32  C   UNL A   1      37.430  31.347  30.909  1.00  0.00     0.016 A 
ATOM     33  C   UNL A   1      39.615  30.066  32.122  1.00  0.00     0.010 A 
ATOM     34  C   UNL A   1      38.435  30.780  30.123  1.00  0.00     0.010 A 
ATOM     35  C   UNL A   1      39.548  30.169  30.727  1.00  0.00    -0.014 A 
BRANCH  35  36
ATOM     36  C   UNL A   1      40.745  29.850  29.915  1.00  0.00     0.031 A 
ATOM     37  C   UNL A   1      40.846  28.472  29.322  1.00  0.00     0.074 A 
ATOM     38  C   UNL A   1      41.707  30.760  29.688  1.00  0.00     0.049 A 
ATOM     39  N   UNL A   1      41.812  27.932  28.626  1.00  0.00    -0.248 NA
ATOM     40  C   UNL A   1      39.696  27.579  29.551  1.00  0.00     0.031 C 
ATOM     41  C   UNL A   1      41.696  32.141  30.163  1.00  0.00     0.029 A 
ATOM     42  N   UNL A   1      42.889  30.647  29.001  1.00  0.00    -0.354 N 
ATOM     43  C   UNL A   1      41.394  26.637  28.346  1.00  0.00     0.074 A 
ATOM     44  C   UNL A   1      40.102  26.461  28.971  1.00  0.00     0.031 C 
ATOM     45  C   UNL A   1      42.828  32.747  29.761  1.00  0.00     0.029 A 
ATOM     46  C   UNL A   1      43.655  31.785  29.034  1.00  0.00     0.049 A 
ATOM     47  H   UNL A   1      43.162  29.828  28.528  1.00  0.00     0.167 HD
ATOM     48  C   UNL A   1      42.029  25.682  27.627  1.00  0.00     0.037 A 
ATOM     49  C   UNL A   1      44.894  32.012  28.553  1.00  0.00     0.037 A 
ATOM     50  C   UNL A   1      43.315  25.862  27.011  1.00  0.00     0.049 A 
ATOM     51  C   UNL A   1      45.617  30.903  27.830  1.00  0.00     0.074 A 
ATOM     52  C   UNL A   1      44.037  24.964  26.245  1.00  0.00     0.029 A 
ATOM     53  N   UNL A   1      44.079  27.016  27.101  1.00  0.00    -0.354 N 
ATOM     54  N   UNL A   1      45.207  29.690  27.547  1.00  0.00    -0.248 NA
ATOM     55  C   UNL A   1      46.979  31.198  27.358  1.00  0.00     0.031 C 
ATOM     56  C   UNL A   1      45.265  25.552  25.926  1.00  0.00     0.029 A 
ATOM     57  C   UNL A   1      45.279  26.841  26.433  1.00  0.00     0.049 A 
ATOM     58  H   UNL A   1      43.807  27.838  27.571  1.00  0.00     0.167 HD
ATOM     59  C   UNL A   1      46.241  29.092  26.836  1.00  0.00     0.074 A 
ATOM     60  C   UNL A   1      47.294  30.080  26.721  1.00  0.00     0.031 C 
ATOM     61  C   UNL A   1      46.313  27.839  26.320  1.00  0.00     0.037 A 
BRANCH  48  62
ATOM     62  C   UNL A   1      41.356  24.346  27.507  1.00  0.00     0.057 A 
ATOM     63  C   UNL A   1      40.283  24.126  26.634  1.00  0.00     0.134 A 
ATOM     64  C   UNL A   1      41.806  23.255  28.264  1.00  0.00     0.134 A 
ATOM     65  F   UNL A   1      39.791  25.131  25.893  1.00  0.00    -0.206 F 
ATOM     66  C   UNL A   1      39.666  22.877  26.536  1.00  0.00     0.040 A 
ATOM     67  C   UNL A   1      41.217  21.995  28.151  1.00  0.00     0.040 A 
ATOM     68  F   UNL A   1      42.830  23.395  29.120  1.00  0.00    -0.206 F 
ATOM     69  C   UNL A   1      40.139  21.805  27.290  1.00  0.00     0.006 A 
ENDBRANCH  48  62
BRANCH  49  70
ATOM     70  C   UNL A   1      45.544  33.334  28.746  1.00  0.00     0.057 A 
ATOM     71  C   UNL A   1      45.417  34.352  27.794  1.00  0.00     0.134 A 
ATOM     72  C   UNL A   1      46.335  33.602  29.870  1.00  0.00     0.134 A 
ATOM     73  F   UNL A   1      44.692  34.150  26.683  1.00  0.00    -0.206 F 
ATOM     74  C   UNL A   1      46.068  35.578  27.940  1.00  0.00     0.040 A 
ATOM     75  C   UNL A   1      46.970  34.833  30.043  1.00  0.00     0.040 A 
ATOM     76  F   UNL A   1      46.501  32.669  30.820  1.00  0.00    -0.206 F 
ATOM     77  C   UNL A   1      46.844  35.822  29.071  1.00  0.00     0.006 A 
ENDBRANCH  49  70
BRANCH  61  78
ATOM     78  C   UNL A   1      47.547  27.479  25.542  1.00  0.00     0.057 A 
ATOM     79  C   UNL A   1      48.685  26.938  26.155  1.00  0.00     0.134 A 
ATOM     80  C   UNL A   1      47.578  27.632  24.149  1.00  0.00     0.134 A 
ATOM     81  F   UNL A   1      48.726  26.774  27.486  1.00  0.00    -0.206 F 
ATOM     82  C   UNL A   1      49.816  26.589  25.415  1.00  0.00     0.040 A 
ATOM     83  C   UNL A   1      48.691  27.256  23.395  1.00  0.00     0.040 A 
ATOM     84  F   UNL A   1      46.518  28.132  23.494  1.00  0.00    -0.206 F 
ATOM     85  C   UNL A   1      49.818  26.740  24.029  1.00  0.00     0.006 A 
ENDBRANCH  61  78
ENDBRANCH  35  36
ENDBRANCH  28  30
ENDBRANCH  27  28
ENDBRANCH  26  27
ENDBRANCH  25  26
ENDBRANCH  24  25
ENDBRANCH  23  24
ENDBRANCH  22  23
ENDBRANCH   1  22
TORSDOF 22
ENDMDL
