MODEL 1
REMARK VINA RESULT:     -10.0      0.000      0.000
REMARK SMILES O=Cc1ccc2c(c1)C=C(C(=O)OCCOCCOCCOCCOC(=O)c1ccc(-c3c4nc(c(-c5c(F)cccc5F)c5ccc([nH]5)c(-c5c(F)cccc5F)c5nc(c(-c6c(F)cccc6F)c6ccc3[nH]6)C=C5)C=C4)cc1)[C@H](C(F)(F)F)O2
REMARK SMILES IDX 20 1 19 2 18 3 17 4 16 5 15 6 14 7 13 8 11 9 12 10 10 11
REMARK SMILES IDX 3 12 4 13 8 14 5 15 7 16 6 17 9 18 87 19 82 20 2 21 1 22
REMARK SMILES IDX 83 23 84 24 85 25 86 26 21 27 22 28 23 29 24 30 25 31 26 32
REMARK SMILES IDX 27 33 28 34 29 35 81 36 30 37 80 38 31 39 32 40 33 41 74 42
REMARK SMILES IDX 34 43 79 44 73 45 75 46 35 47 78 48 72 49 71 50 36 52 62 53
REMARK SMILES IDX 45 54 61 55 46 56 49 57 60 58 76 59 47 60 48 61 59 63 77 64
REMARK SMILES IDX 50 65 37 66 38 67 43 68 39 69 40 70 42 71 44 72 41 73 63 74
REMARK SMILES IDX 64 75 69 76 65 77 66 78 68 79 70 80 67 81 51 82 52 83 57 84
REMARK SMILES IDX 53 85 54 86 56 87 58 88 55 89
REMARK H PARENT 75 51 49 62
REMARK Flexibility Score: inf
ROOT
ATOM      1  C   UNL A   1      42.680  18.742  25.930  1.00  0.00     0.188 C 
ENDROOT
BRANCH   1   2
ATOM      2  O   UNL A   1      41.373  19.287  25.752  1.00  0.00    -0.377 OA
BRANCH   2   3
ATOM      3  C   UNL A   1      40.776  20.016  26.810  1.00  0.00     0.188 C 
BRANCH   3   4
ATOM      4  C   UNL A   1      40.156  21.387  26.475  1.00  0.00     0.188 C 
BRANCH   4   5
ATOM      5  O   UNL A   1      39.207  21.345  25.421  1.00  0.00    -0.376 OA
BRANCH   5   6
ATOM      6  C   UNL A   1      37.849  21.592  25.741  1.00  0.00     0.202 C 
BRANCH   6   7
ATOM      7  C   UNL A   1      37.208  22.847  25.131  1.00  0.00     0.261 C 
BRANCH   7   8
ATOM      8  O   UNL A   1      36.245  23.511  25.965  1.00  0.00    -0.460 OA
BRANCH   8   9
ATOM      9  C   UNL A   1      34.950  23.153  25.823  1.00  0.00     0.338 C 
ATOM     10  O   UNL A   1      34.436  22.135  26.247  1.00  0.00    -0.246 OA
BRANCH   9  11
ATOM     11  C   UNL A   1      34.205  24.266  25.198  1.00  0.00     0.087 C 
ATOM     12  C   UNL A   1      32.705  28.842  25.089  1.00  0.00     0.015 A 
ATOM     13  C   UNL A   1      32.443  28.720  23.720  1.00  0.00     0.015 A 
ATOM     14  C   UNL A   1      33.192  27.754  25.824  1.00  0.00     0.023 A 
ATOM     15  C   UNL A   1      32.669  27.504  23.079  1.00  0.00     0.048 A 
ATOM     16  C   UNL A   1      33.442  26.542  25.173  1.00  0.00     0.018 A 
ATOM     17  C   UNL A   1      33.160  26.421  23.804  1.00  0.00     0.128 A 
ATOM     18  C   UNL A   1      34.115  25.438  25.851  1.00  0.00     0.027 C 
ATOM     19  O   UNL A   1      33.430  25.283  23.094  1.00  0.00    -0.475 OA
ATOM     20  C   UNL A   1      33.484  24.061  23.882  1.00  0.00     0.316 C 
BRANCH  12  21
ATOM     21  C   UNL A   1      32.518  30.145  25.758  1.00  0.00     0.260 C 
ATOM     22  O   UNL A   1      31.828  30.267  26.763  1.00  0.00    -0.298 OA
ENDBRANCH  12  21
BRANCH  20  23
ATOM     23  C   UNL A   1      33.939  22.920  22.954  1.00  0.00     0.430 C 
ATOM     24  F   UNL A   1      33.435  23.058  21.706  1.00  0.00    -0.167 F 
ATOM     25  F   UNL A   1      35.291  22.953  22.807  1.00  0.00    -0.167 F 
ATOM     26  F   UNL A   1      33.617  21.699  23.419  1.00  0.00    -0.167 F 
ENDBRANCH  20  23
ENDBRANCH   9  11
ENDBRANCH   8   9
ENDBRANCH   7   8
ENDBRANCH   6   7
ENDBRANCH   5   6
ENDBRANCH   4   5
ENDBRANCH   3   4
ENDBRANCH   2   3
ENDBRANCH   1   2
BRANCH   1  27
ATOM     27  C   UNL A   1      43.956  19.458  25.420  1.00  0.00     0.188 C 
BRANCH  27  28
ATOM     28  O   UNL A   1      43.727  20.697  24.770  1.00  0.00    -0.376 OA
BRANCH  28  29
ATOM     29  C   UNL A   1      43.738  21.871  25.561  1.00  0.00     0.202 C 
BRANCH  29  30
ATOM     30  C   UNL A   1      44.768  22.933  25.164  1.00  0.00     0.261 C 
BRANCH  30  31
ATOM     31  O   UNL A   1      44.999  23.970  26.128  1.00  0.00    -0.460 OA
BRANCH  31  32
ATOM     32  C   UNL A   1      44.878  25.249  25.708  1.00  0.00     0.338 C 
ATOM     33  O   UNL A   1      45.215  25.714  24.634  1.00  0.00    -0.246 OA
BRANCH  32  34
ATOM     34  C   UNL A   1      44.093  25.962  26.733  1.00  0.00     0.060 A 
ATOM     35  C   UNL A   1      44.304  27.333  26.946  1.00  0.00     0.016 A 
ATOM     36  C   UNL A   1      43.118  25.269  27.452  1.00  0.00     0.016 A 
ATOM     37  C   UNL A   1      43.550  28.011  27.904  1.00  0.00     0.010 A 
ATOM     38  C   UNL A   1      42.384  25.942  28.425  1.00  0.00     0.010 A 
ATOM     39  C   UNL A   1      42.618  27.306  28.676  1.00  0.00    -0.014 A 
BRANCH  39  40
ATOM     40  C   UNL A   1      42.040  27.901  29.902  1.00  0.00     0.031 A 
ATOM     41  C   UNL A   1      40.789  28.718  29.757  1.00  0.00     0.074 A 
ATOM     42  C   UNL A   1      42.640  27.777  31.097  1.00  0.00     0.049 A 
ATOM     43  N   UNL A   1      40.184  29.479  30.628  1.00  0.00    -0.248 NA
ATOM     44  C   UNL A   1      40.146  28.682  28.433  1.00  0.00     0.031 C 
ATOM     45  C   UNL A   1      43.826  26.972  31.372  1.00  0.00     0.029 A 
ATOM     46  N   UNL A   1      42.335  28.359  32.301  1.00  0.00    -0.354 N 
ATOM     47  C   UNL A   1      39.103  30.033  29.953  1.00  0.00     0.074 A 
ATOM     48  C   UNL A   1      39.152  29.538  28.594  1.00  0.00     0.031 C 
ATOM     49  C   UNL A   1      44.161  27.123  32.666  1.00  0.00     0.029 A 
ATOM     50  C   UNL A   1      43.240  28.072  33.292  1.00  0.00     0.049 A 
ATOM     51  H   UNL A   1      41.543  28.928  32.441  1.00  0.00     0.167 HD
ATOM     52  C   UNL A   1      38.157  30.879  30.423  1.00  0.00     0.037 A 
ATOM     53  C   UNL A   1      43.328  28.550  34.548  1.00  0.00     0.037 A 
ATOM     54  C   UNL A   1      38.125  31.374  31.773  1.00  0.00     0.049 A 
ATOM     55  C   UNL A   1      42.318  29.561  35.027  1.00  0.00     0.074 A 
ATOM     56  C   UNL A   1      37.201  32.217  32.362  1.00  0.00     0.029 A 
ATOM     57  N   UNL A   1      39.075  31.080  32.742  1.00  0.00    -0.354 N 
ATOM     58  N   UNL A   1      41.287  30.069  34.394  1.00  0.00    -0.248 NA
ATOM     59  C   UNL A   1      42.488  30.070  36.396  1.00  0.00     0.031 C 
ATOM     60  C   UNL A   1      37.625  32.485  33.667  1.00  0.00     0.029 A 
ATOM     61  C   UNL A   1      38.776  31.752  33.915  1.00  0.00     0.049 A 
ATOM     62  H   UNL A   1      39.847  30.483  32.613  1.00  0.00     0.167 HD
ATOM     63  C   UNL A   1      40.663  30.921  35.297  1.00  0.00     0.074 A 
ATOM     64  C   UNL A   1      41.434  30.864  36.523  1.00  0.00     0.031 C 
ATOM     65  C   UNL A   1      39.548  31.676  35.132  1.00  0.00     0.037 A 
BRANCH  52  66
ATOM     66  C   UNL A   1      37.121  31.357  29.447  1.00  0.00     0.057 A 
ATOM     67  C   UNL A   1      37.181  32.625  28.853  1.00  0.00     0.134 A 
ATOM     68  C   UNL A   1      36.032  30.541  29.114  1.00  0.00     0.134 A 
ATOM     69  F   UNL A   1      38.187  33.465  29.143  1.00  0.00    -0.206 F 
ATOM     70  C   UNL A   1      36.177  33.078  27.995  1.00  0.00     0.040 A 
ATOM     71  C   UNL A   1      35.040  30.970  28.231  1.00  0.00     0.040 A 
ATOM     72  F   UNL A   1      35.912  29.314  29.643  1.00  0.00    -0.206 F 
ATOM     73  C   UNL A   1      35.103  32.248  27.679  1.00  0.00     0.006 A 
ENDBRANCH  52  66
BRANCH  53  74
ATOM     74  C   UNL A   1      44.410  28.076  35.447  1.00  0.00     0.057 A 
ATOM     75  C   UNL A   1      45.638  28.746  35.502  1.00  0.00     0.134 A 
ATOM     76  C   UNL A   1      44.252  26.953  36.267  1.00  0.00     0.134 A 
ATOM     77  F   UNL A   1      45.861  29.813  34.722  1.00  0.00    -0.206 F 
ATOM     78  C   UNL A   1      46.671  28.313  36.335  1.00  0.00     0.040 A 
ATOM     79  C   UNL A   1      45.267  26.523  37.124  1.00  0.00     0.040 A 
ATOM     80  F   UNL A   1      43.099  26.267  36.261  1.00  0.00    -0.206 F 
ATOM     81  C   UNL A   1      46.483  27.202  37.156  1.00  0.00     0.006 A 
ENDBRANCH  53  74
BRANCH  65  82
ATOM     82  C   UNL A   1      39.052  32.455  36.317  1.00  0.00     0.057 A 
ATOM     83  C   UNL A   1      38.157  31.913  37.247  1.00  0.00     0.134 A 
ATOM     84  C   UNL A   1      39.528  33.751  36.559  1.00  0.00     0.134 A 
ATOM     85  F   UNL A   1      37.654  30.682  37.071  1.00  0.00    -0.206 F 
ATOM     86  C   UNL A   1      37.738  32.639  38.365  1.00  0.00     0.040 A 
ATOM     87  C   UNL A   1      39.141  34.474  37.688  1.00  0.00     0.040 A 
ATOM     88  F   UNL A   1      40.397  34.326  35.714  1.00  0.00    -0.206 F 
ATOM     89  C   UNL A   1      38.238  33.920  38.591  1.00  0.00     0.006 A 
ENDBRANCH  65  82
ENDBRANCH  39  40
ENDBRANCH  32  34
ENDBRANCH  31  32
ENDBRANCH  30  31
ENDBRANCH  29  30
ENDBRANCH  28  29
ENDBRANCH  27  28
ENDBRANCH   1  27
TORSDOF 22
ENDMDL
MODEL 2
REMARK VINA RESULT:     -10.0      4.373      7.084
REMARK SMILES O=Cc1ccc2c(c1)C=C(C(=O)OCCOCCOCCOCCOC(=O)c1ccc(-c3c4nc(c(-c5c(F)cccc5F)c5ccc([nH]5)c(-c5c(F)cccc5F)c5nc(c(-c6c(F)cccc6F)c6ccc3[nH]6)C=C5)C=C4)cc1)[C@H](C(F)(F)F)O2
REMARK SMILES IDX 20 1 19 2 18 3 17 4 16 5 15 6 14 7 13 8 11 9 12 10 10 11
REMARK SMILES IDX 3 12 4 13 8 14 5 15 7 16 6 17 9 18 87 19 82 20 2 21 1 22
REMARK SMILES IDX 83 23 84 24 85 25 86 26 21 27 22 28 23 29 24 30 25 31 26 32
REMARK SMILES IDX 27 33 28 34 29 35 81 36 30 37 80 38 31 39 32 40 33 41 74 42
REMARK SMILES IDX 34 43 79 44 73 45 75 46 35 47 78 48 72 49 71 50 36 52 62 53
REMARK SMILES IDX 45 54 61 55 46 56 49 57 60 58 76 59 47 60 48 61 59 63 77 64
REMARK SMILES IDX 50 65 37 66 38 67 43 68 39 69 40 70 42 71 44 72 41 73 63 74
REMARK SMILES IDX 64 75 69 76 65 77 66 78 68 79 70 80 67 81 51 82 52 83 57 84
REMARK SMILES IDX 53 85 54 86 56 87 58 88 55 89
REMARK H PARENT 75 51 49 62
REMARK Flexibility Score: inf
ROOT
ATOM      1  C   UNL A   1      36.571  23.574  24.440  1.00  0.00     0.188 C 
ENDROOT
BRANCH   1   2
ATOM      2  O   UNL A   1      35.929  22.976  23.315  1.00  0.00    -0.377 OA
BRANCH   2   3
ATOM      3  C   UNL A   1      34.601  23.355  22.992  1.00  0.00     0.188 C 
BRANCH   3   4
ATOM      4  C   UNL A   1      34.209  24.832  23.193  1.00  0.00     0.188 C 
BRANCH   4   5
ATOM      5  O   UNL A   1      33.994  25.538  21.981  1.00  0.00    -0.376 OA
BRANCH   5   6
ATOM      6  C   UNL A   1      32.667  25.636  21.496  1.00  0.00     0.202 C 
BRANCH   6   7
ATOM      7  C   UNL A   1      31.660  26.394  22.373  1.00  0.00     0.261 C 
BRANCH   7   8
ATOM      8  O   UNL A   1      30.492  25.650  22.751  1.00  0.00    -0.460 OA
BRANCH   8   9
ATOM      9  C   UNL A   1      30.088  25.741  24.037  1.00  0.00     0.338 C 
ATOM     10  O   UNL A   1      29.131  26.370  24.446  1.00  0.00    -0.246 OA
BRANCH   9  11
ATOM     11  C   UNL A   1      30.904  24.829  24.867  1.00  0.00     0.087 C 
ATOM     12  C   UNL A   1      32.899  20.537  25.758  1.00  0.00     0.015 A 
ATOM     13  C   UNL A   1      33.800  21.142  26.640  1.00  0.00     0.015 A 
ATOM     14  C   UNL A   1      31.923  21.295  25.100  1.00  0.00     0.023 A 
ATOM     15  C   UNL A   1      33.726  22.515  26.869  1.00  0.00     0.048 A 
ATOM     16  C   UNL A   1      31.867  22.676  25.312  1.00  0.00     0.018 A 
ATOM     17  C   UNL A   1      32.762  23.274  26.212  1.00  0.00     0.128 A 
ATOM     18  C   UNL A   1      30.991  23.533  24.518  1.00  0.00     0.027 C 
ATOM     19  O   UNL A   1      32.798  24.625  26.425  1.00  0.00    -0.475 OA
ATOM     20  C   UNL A   1      31.559  25.331  26.138  1.00  0.00     0.316 C 
BRANCH  12  21
ATOM     21  C   UNL A   1      33.011  19.092  25.473  1.00  0.00     0.260 C 
ATOM     22  O   UNL A   1      33.474  18.671  24.421  1.00  0.00    -0.298 OA
ENDBRANCH  12  21
BRANCH  20  23
ATOM     23  C   UNL A   1      31.827  26.838  26.291  1.00  0.00     0.430 C 
ATOM     24  F   UNL A   1      30.769  27.483  26.836  1.00  0.00    -0.167 F 
ATOM     25  F   UNL A   1      32.860  27.041  27.153  1.00  0.00    -0.167 F 
ATOM     26  F   UNL A   1      32.151  27.439  25.131  1.00  0.00    -0.167 F 
ENDBRANCH  20  23
ENDBRANCH   9  11
ENDBRANCH   8   9
ENDBRANCH   7   8
ENDBRANCH   6   7
ENDBRANCH   5   6
ENDBRANCH   4   5
ENDBRANCH   3   4
ENDBRANCH   2   3
ENDBRANCH   1   2
BRANCH   1  27
ATOM     27  C   UNL A   1      37.164  22.736  25.602  1.00  0.00     0.188 C 
BRANCH  27  28
ATOM     28  O   UNL A   1      38.174  21.818  25.221  1.00  0.00    -0.376 OA
BRANCH  28  29
ATOM     29  C   UNL A   1      37.793  20.477  24.977  1.00  0.00     0.202 C 
BRANCH  29  30
ATOM     30  C   UNL A   1      38.922  19.443  25.030  1.00  0.00     0.261 C 
BRANCH  30  31
ATOM     31  O   UNL A   1      39.678  19.407  26.249  1.00  0.00    -0.460 OA
BRANCH  31  32
ATOM     32  C   UNL A   1      41.019  19.542  26.154  1.00  0.00     0.338 C 
ATOM     33  O   UNL A   1      41.812  18.762  25.658  1.00  0.00    -0.246 OA
BRANCH  32  34
ATOM     34  C   UNL A   1      41.344  20.907  26.610  1.00  0.00     0.060 A 
ATOM     35  C   UNL A   1      41.630  21.908  25.669  1.00  0.00     0.016 A 
ATOM     36  C   UNL A   1      41.325  21.195  27.975  1.00  0.00     0.016 A 
ATOM     37  C   UNL A   1      41.922  23.203  26.099  1.00  0.00     0.010 A 
ATOM     38  C   UNL A   1      41.642  22.481  28.404  1.00  0.00     0.010 A 
ATOM     39  C   UNL A   1      41.971  23.481  27.471  1.00  0.00    -0.014 A 
BRANCH  39  40
ATOM     40  C   UNL A   1      42.584  24.731  27.972  1.00  0.00     0.031 A 
ATOM     41  C   UNL A   1      41.662  25.841  28.387  1.00  0.00     0.074 A 
ATOM     42  C   UNL A   1      43.915  24.904  27.997  1.00  0.00     0.049 A 
ATOM     43  N   UNL A   1      41.934  27.081  28.695  1.00  0.00    -0.248 NA
ATOM     44  C   UNL A   1      40.230  25.503  28.442  1.00  0.00     0.031 C 
ATOM     45  C   UNL A   1      44.910  23.887  27.667  1.00  0.00     0.029 A 
ATOM     46  N   UNL A   1      44.654  26.021  28.295  1.00  0.00    -0.354 N 
ATOM     47  C   UNL A   1      40.707  27.678  28.956  1.00  0.00     0.074 A 
ATOM     48  C   UNL A   1      39.690  26.670  28.747  1.00  0.00     0.031 C 
ATOM     49  C   UNL A   1      46.136  24.433  27.766  1.00  0.00     0.029 A 
ATOM     50  C   UNL A   1      46.004  25.846  28.118  1.00  0.00     0.049 A 
ATOM     51  H   UNL A   1      44.254  26.865  28.606  1.00  0.00     0.167 HD
ATOM     52  C   UNL A   1      40.452  28.952  29.334  1.00  0.00     0.037 A 
ATOM     53  C   UNL A   1      47.009  26.740  28.201  1.00  0.00     0.037 A 
ATOM     54  C   UNL A   1      41.470  29.950  29.527  1.00  0.00     0.049 A 
ATOM     55  C   UNL A   1      46.697  28.176  28.534  1.00  0.00     0.074 A 
ATOM     56  C   UNL A   1      41.325  31.265  29.930  1.00  0.00     0.029 A 
ATOM     57  N   UNL A   1      42.826  29.742  29.313  1.00  0.00    -0.354 N 
ATOM     58  N   UNL A   1      45.540  28.734  28.799  1.00  0.00    -0.248 NA
ATOM     59  C   UNL A   1      47.833  29.108  28.575  1.00  0.00     0.031 C 
ATOM     60  C   UNL A   1      42.585  31.870  29.899  1.00  0.00     0.029 A 
ATOM     61  C   UNL A   1      43.525  30.914  29.544  1.00  0.00     0.049 A 
ATOM     62  H   UNL A   1      43.230  28.888  29.037  1.00  0.00     0.167 HD
ATOM     63  C   UNL A   1      45.812  30.068  29.078  1.00  0.00     0.074 A 
ATOM     64  C   UNL A   1      47.245  30.236  28.947  1.00  0.00     0.031 C 
ATOM     65  C   UNL A   1      44.955  31.063  29.421  1.00  0.00     0.037 A 
BRANCH  52  66
ATOM     66  C   UNL A   1      39.011  29.339  29.504  1.00  0.00     0.057 A 
ATOM     67  C   UNL A   1      38.376  29.327  30.753  1.00  0.00     0.134 A 
ATOM     68  C   UNL A   1      38.241  29.709  28.393  1.00  0.00     0.134 A 
ATOM     69  F   UNL A   1      39.048  28.964  31.856  1.00  0.00    -0.206 F 
ATOM     70  C   UNL A   1      37.018  29.630  30.885  1.00  0.00     0.040 A 
ATOM     71  C   UNL A   1      36.893  30.047  28.518  1.00  0.00     0.040 A 
ATOM     72  F   UNL A   1      38.786  29.744  27.168  1.00  0.00    -0.206 F 
ATOM     73  C   UNL A   1      36.274  29.995  29.765  1.00  0.00     0.006 A 
ENDBRANCH  52  66
BRANCH  53  74
ATOM     74  C   UNL A   1      48.408  26.302  27.967  1.00  0.00     0.057 A 
ATOM     75  C   UNL A   1      49.190  25.811  29.019  1.00  0.00     0.134 A 
ATOM     76  C   UNL A   1      48.999  26.363  26.699  1.00  0.00     0.134 A 
ATOM     77  F   UNL A   1      48.688  25.752  30.261  1.00  0.00    -0.206 F 
ATOM     78  C   UNL A   1      50.509  25.400  28.821  1.00  0.00     0.040 A 
ATOM     79  C   UNL A   1      50.310  25.933  26.482  1.00  0.00     0.040 A 
ATOM     80  F   UNL A   1      48.304  26.825  25.649  1.00  0.00    -0.206 F 
ATOM     81  C   UNL A   1      51.070  25.454  27.547  1.00  0.00     0.006 A 
ENDBRANCH  53  74
BRANCH  65  82
ATOM     82  C   UNL A   1      45.542  32.408  29.742  1.00  0.00     0.057 A 
ATOM     83  C   UNL A   1      45.653  33.424  28.785  1.00  0.00     0.134 A 
ATOM     84  C   UNL A   1      45.950  32.707  31.049  1.00  0.00     0.134 A 
ATOM     85  F   UNL A   1      45.291  33.202  27.512  1.00  0.00    -0.206 F 
ATOM     86  C   UNL A   1      46.165  34.682  29.112  1.00  0.00     0.040 A 
ATOM     87  C   UNL A   1      46.435  33.968  31.395  1.00  0.00     0.040 A 
ATOM     88  F   UNL A   1      45.861  31.783  32.018  1.00  0.00    -0.206 F 
ATOM     89  C   UNL A   1      46.549  34.959  30.422  1.00  0.00     0.006 A 
ENDBRANCH  65  82
ENDBRANCH  39  40
ENDBRANCH  32  34
ENDBRANCH  31  32
ENDBRANCH  30  31
ENDBRANCH  29  30
ENDBRANCH  28  29
ENDBRANCH  27  28
ENDBRANCH   1  27
TORSDOF 22
ENDMDL
MODEL 3
REMARK VINA RESULT:      -9.9      4.032      7.850
REMARK SMILES O=Cc1ccc2c(c1)C=C(C(=O)OCCOCCOCCOCCOC(=O)c1ccc(-c3c4nc(c(-c5c(F)cccc5F)c5ccc([nH]5)c(-c5c(F)cccc5F)c5nc(c(-c6c(F)cccc6F)c6ccc3[nH]6)C=C5)C=C4)cc1)[C@H](C(F)(F)F)O2
REMARK SMILES IDX 20 1 19 2 18 3 17 4 16 5 15 6 14 7 13 8 11 9 12 10 10 11
REMARK SMILES IDX 3 12 4 13 8 14 5 15 7 16 6 17 9 18 87 19 82 20 2 21 1 22
REMARK SMILES IDX 83 23 84 24 85 25 86 26 21 27 22 28 23 29 24 30 25 31 26 32
REMARK SMILES IDX 27 33 28 34 29 35 81 36 30 37 80 38 31 39 32 40 33 41 74 42
REMARK SMILES IDX 34 43 79 44 73 45 75 46 35 47 78 48 72 49 71 50 36 52 62 53
REMARK SMILES IDX 45 54 61 55 46 56 49 57 60 58 76 59 47 60 48 61 59 63 77 64
REMARK SMILES IDX 50 65 37 66 38 67 43 68 39 69 40 70 42 71 44 72 41 73 63 74
REMARK SMILES IDX 64 75 69 76 65 77 66 78 68 79 70 80 67 81 51 82 52 83 57 84
REMARK SMILES IDX 53 85 54 86 56 87 58 88 55 89
REMARK H PARENT 75 51 49 62
REMARK Flexibility Score: inf
ROOT
ATOM      1  C   UNL A   1      34.438  24.241  23.683  1.00  0.00     0.188 C 
ENDROOT
BRANCH   1   2
ATOM      2  O   UNL A   1      34.058  24.862  22.456  1.00  0.00    -0.377 OA
BRANCH   2   3
ATOM      3  C   UNL A   1      33.382  26.107  22.490  1.00  0.00     0.188 C 
BRANCH   3   4
ATOM      4  C   UNL A   1      31.983  26.181  21.846  1.00  0.00     0.188 C 
BRANCH   4   5
ATOM      5  O   UNL A   1      31.186  27.252  22.327  1.00  0.00    -0.376 OA
BRANCH   5   6
ATOM      6  C   UNL A   1      31.830  28.285  23.050  1.00  0.00     0.202 C 
BRANCH   6   7
ATOM      7  C   UNL A   1      31.344  28.538  24.485  1.00  0.00     0.261 C 
BRANCH   7   8
ATOM      8  O   UNL A   1      31.909  29.690  25.130  1.00  0.00    -0.460 OA
BRANCH   8   9
ATOM      9  C   UNL A   1      31.900  29.711  26.481  1.00  0.00     0.338 C 
ATOM     10  O   UNL A   1      31.347  28.908  27.209  1.00  0.00    -0.246 OA
BRANCH   9  11
ATOM     11  C   UNL A   1      32.799  30.785  26.954  1.00  0.00     0.087 C 
ATOM     12  C   UNL A   1      33.586  35.216  28.672  1.00  0.00     0.015 A 
ATOM     13  C   UNL A   1      34.849  34.814  29.120  1.00  0.00     0.015 A 
ATOM     14  C   UNL A   1      32.750  34.321  27.992  1.00  0.00     0.023 A 
ATOM     15  C   UNL A   1      35.282  33.510  28.887  1.00  0.00     0.048 A 
ATOM     16  C   UNL A   1      33.177  33.006  27.783  1.00  0.00     0.018 A 
ATOM     17  C   UNL A   1      34.452  32.616  28.218  1.00  0.00     0.128 A 
ATOM     18  C   UNL A   1      32.277  31.991  27.242  1.00  0.00     0.027 C 
ATOM     19  O   UNL A   1      34.911  31.332  28.094  1.00  0.00    -0.475 OA
ATOM     20  C   UNL A   1      34.294  30.555  27.030  1.00  0.00     0.316 C 
BRANCH  12  21
ATOM     21  C   UNL A   1      33.104  36.581  28.965  1.00  0.00     0.260 C 
ATOM     22  O   UNL A   1      33.155  37.060  30.091  1.00  0.00    -0.298 OA
ENDBRANCH  12  21
BRANCH  20  23
ATOM     23  C   UNL A   1      34.820  29.112  27.133  1.00  0.00     0.430 C 
ATOM     24  F   UNL A   1      34.035  28.348  27.927  1.00  0.00    -0.167 F 
ATOM     25  F   UNL A   1      34.789  28.518  25.910  1.00  0.00    -0.167 F 
ATOM     26  F   UNL A   1      36.088  29.041  27.580  1.00  0.00    -0.167 F 
ENDBRANCH  20  23
ENDBRANCH   9  11
ENDBRANCH   8   9
ENDBRANCH   7   8
ENDBRANCH   6   7
ENDBRANCH   5   6
ENDBRANCH   4   5
ENDBRANCH   3   4
ENDBRANCH   2   3
ENDBRANCH   1   2
BRANCH   1  27
ATOM     27  C   UNL A   1      34.512  22.701  23.847  1.00  0.00     0.188 C 
BRANCH  27  28
ATOM     28  O   UNL A   1      35.605  22.235  24.620  1.00  0.00    -0.376 OA
BRANCH  28  29
ATOM     29  C   UNL A   1      35.652  20.856  24.936  1.00  0.00     0.202 C 
BRANCH  29  30
ATOM     30  C   UNL A   1      37.047  20.223  24.952  1.00  0.00     0.261 C 
BRANCH  30  31
ATOM     31  O   UNL A   1      38.146  21.137  25.078  1.00  0.00    -0.460 OA
BRANCH  31  32
ATOM     32  C   UNL A   1      39.171  20.773  25.879  1.00  0.00     0.338 C 
ATOM     33  O   UNL A   1      39.658  19.664  26.005  1.00  0.00    -0.246 OA
BRANCH  32  34
ATOM     34  C   UNL A   1      39.724  22.013  26.455  1.00  0.00     0.060 A 
ATOM     35  C   UNL A   1      39.163  23.253  26.114  1.00  0.00     0.016 A 
ATOM     36  C   UNL A   1      40.777  21.932  27.367  1.00  0.00     0.016 A 
ATOM     37  C   UNL A   1      39.677  24.425  26.672  1.00  0.00     0.010 A 
ATOM     38  C   UNL A   1      41.305  23.103  27.904  1.00  0.00     0.010 A 
ATOM     39  C   UNL A   1      40.778  24.354  27.535  1.00  0.00    -0.014 A 
BRANCH  39  40
ATOM     40  C   UNL A   1      41.547  25.569  27.887  1.00  0.00     0.031 A 
ATOM     41  C   UNL A   1      40.850  26.625  28.694  1.00  0.00     0.074 A 
ATOM     42  C   UNL A   1      42.802  25.760  27.450  1.00  0.00     0.049 A 
ATOM     43  N   UNL A   1      41.231  27.840  28.986  1.00  0.00    -0.248 NA
ATOM     44  C   UNL A   1      39.527  26.260  29.227  1.00  0.00     0.031 C 
ATOM     45  C   UNL A   1      43.599  24.791  26.705  1.00  0.00     0.029 A 
ATOM     46  N   UNL A   1      43.615  26.861  27.557  1.00  0.00    -0.354 N 
ATOM     47  C   UNL A   1      40.187  28.393  29.716  1.00  0.00     0.074 A 
ATOM     48  C   UNL A   1      39.147  27.390  29.800  1.00  0.00     0.031 C 
ATOM     49  C   UNL A   1      44.787  25.347  26.405  1.00  0.00     0.029 A 
ATOM     50  C   UNL A   1      44.810  26.724  26.897  1.00  0.00     0.049 A 
ATOM     51  H   UNL A   1      43.364  27.670  28.059  1.00  0.00     0.167 HD
ATOM     52  C   UNL A   1      40.101  29.627  30.264  1.00  0.00     0.037 A 
ATOM     53  C   UNL A   1      45.791  27.623  26.690  1.00  0.00     0.037 A 
ATOM     54  C   UNL A   1      41.135  30.622  30.164  1.00  0.00     0.049 A 
ATOM     55  C   UNL A   1      45.639  29.022  27.230  1.00  0.00     0.074 A 
ATOM     56  C   UNL A   1      41.162  31.897  30.700  1.00  0.00     0.029 A 
ATOM     57  N   UNL A   1      42.322  30.455  29.464  1.00  0.00    -0.354 N 
ATOM     58  N   UNL A   1      44.660  29.537  27.935  1.00  0.00    -0.248 NA
ATOM     59  C   UNL A   1      46.729  29.966  26.941  1.00  0.00     0.031 C 
ATOM     60  C   UNL A   1      42.337  32.523  30.272  1.00  0.00     0.029 A 
ATOM     61  C   UNL A   1      43.074  31.616  29.528  1.00  0.00     0.049 A 
ATOM     62  H   UNL A   1      42.589  29.633  28.993  1.00  0.00     0.167 HD
ATOM     63  C   UNL A   1      45.033  30.848  28.209  1.00  0.00     0.074 A 
ATOM     64  C   UNL A   1      46.328  31.049  27.591  1.00  0.00     0.031 C 
ATOM     65  C   UNL A   1      44.369  31.797  28.916  1.00  0.00     0.037 A 
BRANCH  52  66
ATOM     66  C   UNL A   1      38.821  29.976  30.968  1.00  0.00     0.057 A 
ATOM     67  C   UNL A   1      37.766  30.632  30.321  1.00  0.00     0.134 A 
ATOM     68  C   UNL A   1      38.653  29.668  32.325  1.00  0.00     0.134 A 
ATOM     69  F   UNL A   1      37.868  30.974  29.027  1.00  0.00    -0.206 F 
ATOM     70  C   UNL A   1      36.607  31.005  31.006  1.00  0.00     0.040 A 
ATOM     71  C   UNL A   1      37.485  30.005  33.012  1.00  0.00     0.040 A 
ATOM     72  F   UNL A   1      39.621  29.039  33.007  1.00  0.00    -0.206 F 
ATOM     73  C   UNL A   1      36.463  30.687  32.355  1.00  0.00     0.006 A 
ENDBRANCH  52  66
BRANCH  53  74
ATOM     74  C   UNL A   1      47.009  27.230  25.937  1.00  0.00     0.057 A 
ATOM     75  C   UNL A   1      48.119  26.696  26.601  1.00  0.00     0.134 A 
ATOM     76  C   UNL A   1      47.098  27.374  24.548  1.00  0.00     0.134 A 
ATOM     77  F   UNL A   1      48.105  26.556  27.935  1.00  0.00    -0.206 F 
ATOM     78  C   UNL A   1      49.276  26.325  25.913  1.00  0.00     0.040 A 
ATOM     79  C   UNL A   1      48.239  26.985  23.843  1.00  0.00     0.040 A 
ATOM     80  F   UNL A   1      46.068  27.880  23.852  1.00  0.00    -0.206 F 
ATOM     81  C   UNL A   1      49.334  26.463  24.528  1.00  0.00     0.006 A 
ENDBRANCH  53  74
BRANCH  65  82
ATOM     82  C   UNL A   1      45.051  33.120  29.117  1.00  0.00     0.057 A 
ATOM     83  C   UNL A   1      44.826  34.215  28.273  1.00  0.00     0.134 A 
ATOM     84  C   UNL A   1      45.905  33.316  30.212  1.00  0.00     0.134 A 
ATOM     85  F   UNL A   1      44.029  34.094  27.201  1.00  0.00    -0.206 F 
ATOM     86  C   UNL A   1      45.439  35.449  28.499  1.00  0.00     0.040 A 
ATOM     87  C   UNL A   1      46.499  34.552  30.466  1.00  0.00     0.040 A 
ATOM     88  F   UNL A   1      46.156  32.313  31.067  1.00  0.00    -0.206 F 
ATOM     89  C   UNL A   1      46.271  35.622  29.604  1.00  0.00     0.006 A 
ENDBRANCH  65  82
ENDBRANCH  39  40
ENDBRANCH  32  34
ENDBRANCH  31  32
ENDBRANCH  30  31
ENDBRANCH  29  30
ENDBRANCH  28  29
ENDBRANCH  27  28
ENDBRANCH   1  27
TORSDOF 22
ENDMDL
