MODEL 1
REMARK VINA RESULT:      -9.6      0.000      0.000
REMARK SMILES Cc1nc(C(=O)OCCOCCOCCOCCOC(=O)c2ccc(-c3c4nc(c(-c5c(F)cccc5F)c5ccc([nH]5)c(-c5c(F)cccc5F)c5nc(c(-c6c(F)cccc6F)c6ccc3[nH]6)C=C5)C=C4)cc2)nn1-c1cccc(C(F)(F)F)c1
REMARK SMILES IDX 13 1 12 2 11 3 10 4 9 5 8 6 7 7 5 8 6 9 4 10 1 11 2 12 3 13
REMARK SMILES IDX 77 14 76 15 78 16 79 17 87 18 80 19 82 20 81 21 83 22 84 23
REMARK SMILES IDX 85 24 86 25 14 26 15 27 16 28 17 29 18 30 19 31 20 32 21 33
REMARK SMILES IDX 22 34 23 35 75 36 24 37 74 38 25 39 26 40 27 41 68 42 28 43
REMARK SMILES IDX 73 44 67 45 69 46 29 47 72 48 66 49 65 50 30 52 56 53 39 54
REMARK SMILES IDX 55 55 40 56 43 57 54 58 70 59 41 60 42 61 53 63 71 64 44 65
REMARK SMILES IDX 31 66 32 67 37 68 33 69 34 70 36 71 38 72 35 73 57 74 58 75
REMARK SMILES IDX 63 76 59 77 60 78 62 79 64 80 61 81 45 82 46 83 51 84 47 85
REMARK SMILES IDX 48 86 50 87 52 88 49 89
REMARK H PARENT 69 51 43 62
REMARK Flexibility Score: inf
ROOT
ATOM      1  O   UNL A   1      40.123  22.632  27.640  1.00  0.00    -0.377 OA
ENDROOT
BRANCH   1   2
ATOM      2  C   UNL A   1      39.568  22.980  26.370  1.00  0.00     0.188 C 
BRANCH   2   3
ATOM      3  C   UNL A   1      38.203  23.692  26.211  1.00  0.00     0.188 C 
BRANCH   3   4
ATOM      4  O   UNL A   1      37.123  22.810  25.986  1.00  0.00    -0.376 OA
BRANCH   4   5
ATOM      5  C   UNL A   1      37.271  21.679  25.162  1.00  0.00     0.202 C 
BRANCH   5   6
ATOM      6  C   UNL A   1      36.147  20.640  25.145  1.00  0.00     0.261 C 
BRANCH   6   7
ATOM      7  O   UNL A   1      34.846  21.096  25.522  1.00  0.00    -0.457 OA
BRANCH   7   8
ATOM      8  C   UNL A   1      33.839  20.957  24.613  1.00  0.00     0.378 C 
ATOM      9  O   UNL A   1      33.439  19.871  24.194  1.00  0.00    -0.242 OA
BRANCH   8  10
ATOM     10  C   UNL A   1      33.204  22.254  24.319  1.00  0.00     0.260 A 
ATOM     11  C   UNL A   1      30.453  24.342  23.421  1.00  0.00     0.090 C 
ATOM     12  C   UNL A   1      31.688  23.708  23.947  1.00  0.00     0.130 A 
ATOM     13  N   UNL A   1      31.861  22.401  24.047  1.00  0.00    -0.206 NA
ATOM     14  N   UNL A   1      32.893  24.344  24.200  1.00  0.00    -0.217 N 
ATOM     15  N   UNL A   1      33.865  23.419  24.384  1.00  0.00    -0.138 NA
BRANCH  14  16
ATOM     16  C   UNL A   1      33.236  25.719  24.229  1.00  0.00     0.067 A 
ATOM     17  C   UNL A   1      33.496  26.356  23.006  1.00  0.00     0.028 A 
ATOM     18  C   UNL A   1      33.358  26.439  25.425  1.00  0.00     0.041 A 
ATOM     19  C   UNL A   1      33.800  27.713  22.967  1.00  0.00     0.003 A 
ATOM     20  C   UNL A   1      33.704  27.804  25.394  1.00  0.00     0.058 A 
ATOM     21  C   UNL A   1      33.899  28.435  24.154  1.00  0.00     0.013 A 
BRANCH  20  22
ATOM     22  C   UNL A   1      33.902  28.603  26.662  1.00  0.00     0.416 C 
ATOM     23  F   UNL A   1      33.096  28.179  27.675  1.00  0.00    -0.166 F 
ATOM     24  F   UNL A   1      35.175  28.519  27.137  1.00  0.00    -0.166 F 
ATOM     25  F   UNL A   1      33.647  29.932  26.512  1.00  0.00    -0.166 F 
ENDBRANCH  20  22
ENDBRANCH  14  16
ENDBRANCH   8  10
ENDBRANCH   7   8
ENDBRANCH   6   7
ENDBRANCH   5   6
ENDBRANCH   4   5
ENDBRANCH   3   4
ENDBRANCH   2   3
ENDBRANCH   1   2
BRANCH   1  26
ATOM     26  C   UNL A   1      41.003  21.522  27.760  1.00  0.00     0.188 C 
BRANCH  26  27
ATOM     27  C   UNL A   1      42.267  21.465  26.863  1.00  0.00     0.188 C 
BRANCH  27  28
ATOM     28  O   UNL A   1      43.094  22.616  26.933  1.00  0.00    -0.376 OA
BRANCH  28  29
ATOM     29  C   UNL A   1      43.822  23.118  25.828  1.00  0.00     0.202 C 
BRANCH  29  30
ATOM     30  C   UNL A   1      43.327  24.353  25.081  1.00  0.00     0.261 C 
BRANCH  30  31
ATOM     31  O   UNL A   1      42.594  25.245  25.888  1.00  0.00    -0.460 OA
BRANCH  31  32
ATOM     32  C   UNL A   1      42.626  26.523  25.493  1.00  0.00     0.338 C 
ATOM     33  O   UNL A   1      43.560  27.104  24.942  1.00  0.00    -0.246 OA
BRANCH  32  34
ATOM     34  C   UNL A   1      41.364  27.157  25.898  1.00  0.00     0.060 A 
ATOM     35  C   UNL A   1      41.415  28.548  25.867  1.00  0.00     0.016 A 
ATOM     36  C   UNL A   1      40.587  26.444  26.825  1.00  0.00     0.016 A 
ATOM     37  C   UNL A   1      41.108  29.184  27.037  1.00  0.00     0.010 A 
ATOM     38  C   UNL A   1      40.311  27.070  28.005  1.00  0.00     0.010 A 
ATOM     39  C   UNL A   1      40.702  28.399  28.122  1.00  0.00    -0.014 A 
BRANCH  39  40
ATOM     40  C   UNL A   1      40.682  29.030  29.411  1.00  0.00     0.031 A 
ATOM     41  C   UNL A   1      39.502  29.884  29.588  1.00  0.00     0.074 A 
ATOM     42  C   UNL A   1      41.632  28.803  30.332  1.00  0.00     0.049 A 
ATOM     43  N   UNL A   1      39.470  31.171  29.627  1.00  0.00    -0.248 NA
ATOM     44  C   UNL A   1      38.185  29.238  29.484  1.00  0.00     0.031 C 
ATOM     45  C   UNL A   1      42.691  27.792  30.348  1.00  0.00     0.029 A 
ATOM     46  N   UNL A   1      41.766  29.411  31.534  1.00  0.00    -0.354 N 
ATOM     47  C   UNL A   1      38.127  31.497  29.743  1.00  0.00     0.074 A 
ATOM     48  C   UNL A   1      37.386  30.302  29.443  1.00  0.00     0.031 C 
ATOM     49  C   UNL A   1      43.200  27.710  31.599  1.00  0.00     0.029 A 
ATOM     50  C   UNL A   1      42.584  28.735  32.424  1.00  0.00     0.049 A 
ATOM     51  H   UNL A   1      41.321  30.261  31.757  1.00  0.00     0.167 HD
ATOM     52  C   UNL A   1      37.738  32.664  30.317  1.00  0.00     0.037 A 
ATOM     53  C   UNL A   1      42.603  28.962  33.761  1.00  0.00     0.037 A 
ATOM     54  C   UNL A   1      38.824  33.608  30.375  1.00  0.00     0.049 A 
ATOM     55  C   UNL A   1      42.033  30.327  33.981  1.00  0.00     0.074 A 
ATOM     56  C   UNL A   1      39.609  34.229  29.423  1.00  0.00     0.029 A 
ATOM     57  N   UNL A   1      39.504  33.735  31.565  1.00  0.00    -0.354 N 
ATOM     58  N   UNL A   1      42.630  31.426  33.604  1.00  0.00    -0.248 NA
ATOM     59  C   UNL A   1      40.591  30.441  34.166  1.00  0.00     0.031 C 
ATOM     60  C   UNL A   1      40.916  34.277  29.989  1.00  0.00     0.029 A 
ATOM     61  C   UNL A   1      40.845  33.730  31.272  1.00  0.00     0.049 A 
ATOM     62  H   UNL A   1      39.103  33.816  32.460  1.00  0.00     0.167 HD
ATOM     63  C   UNL A   1      41.617  32.238  33.110  1.00  0.00     0.074 A 
ATOM     64  C   UNL A   1      40.374  31.608  33.551  1.00  0.00     0.031 C 
ATOM     65  C   UNL A   1      41.857  33.172  32.140  1.00  0.00     0.037 A 
BRANCH  52  66
ATOM     66  C   UNL A   1      36.487  32.802  31.138  1.00  0.00     0.057 A 
ATOM     67  C   UNL A   1      35.508  33.721  30.733  1.00  0.00     0.134 A 
ATOM     68  C   UNL A   1      36.323  32.279  32.439  1.00  0.00     0.134 A 
ATOM     69  F   UNL A   1      35.563  34.299  29.524  1.00  0.00    -0.206 F 
ATOM     70  C   UNL A   1      34.481  34.142  31.585  1.00  0.00     0.040 A 
ATOM     71  C   UNL A   1      35.269  32.648  33.275  1.00  0.00     0.040 A 
ATOM     72  F   UNL A   1      37.217  31.467  33.012  1.00  0.00    -0.206 F 
ATOM     73  C   UNL A   1      34.363  33.609  32.863  1.00  0.00     0.006 A 
ENDBRANCH  52  66
BRANCH  53  74
ATOM     74  C   UNL A   1      42.722  27.948  34.836  1.00  0.00     0.057 A 
ATOM     75  C   UNL A   1      43.664  28.092  35.864  1.00  0.00     0.134 A 
ATOM     76  C   UNL A   1      41.756  26.942  35.029  1.00  0.00     0.134 A 
ATOM     77  F   UNL A   1      44.599  29.051  35.800  1.00  0.00    -0.206 F 
ATOM     78  C   UNL A   1      43.638  27.294  37.017  1.00  0.00     0.040 A 
ATOM     79  C   UNL A   1      41.725  26.132  36.168  1.00  0.00     0.040 A 
ATOM     80  F   UNL A   1      40.750  26.761  34.161  1.00  0.00    -0.206 F 
ATOM     81  C   UNL A   1      42.660  26.316  37.175  1.00  0.00     0.006 A 
ENDBRANCH  53  74
BRANCH  65  82
ATOM     82  C   UNL A   1      43.289  33.443  31.761  1.00  0.00     0.057 A 
ATOM     83  C   UNL A   1      44.119  34.339  32.452  1.00  0.00     0.134 A 
ATOM     84  C   UNL A   1      43.897  32.646  30.785  1.00  0.00     0.134 A 
ATOM     85  F   UNL A   1      43.653  35.062  33.478  1.00  0.00    -0.206 F 
ATOM     86  C   UNL A   1      45.479  34.467  32.156  1.00  0.00     0.040 A 
ATOM     87  C   UNL A   1      45.263  32.740  30.503  1.00  0.00     0.040 A 
ATOM     88  F   UNL A   1      43.182  31.720  30.127  1.00  0.00    -0.206 F 
ATOM     89  C   UNL A   1      46.058  33.659  31.183  1.00  0.00     0.006 A 
ENDBRANCH  65  82
ENDBRANCH  39  40
ENDBRANCH  32  34
ENDBRANCH  31  32
ENDBRANCH  30  31
ENDBRANCH  29  30
ENDBRANCH  28  29
ENDBRANCH  27  28
ENDBRANCH  26  27
ENDBRANCH   1  26
TORSDOF 22
ENDMDL
MODEL 2
REMARK VINA RESULT:      -9.5      1.895      5.505
REMARK SMILES Cc1nc(C(=O)OCCOCCOCCOCCOC(=O)c2ccc(-c3c4nc(c(-c5c(F)cccc5F)c5ccc([nH]5)c(-c5c(F)cccc5F)c5nc(c(-c6c(F)cccc6F)c6ccc3[nH]6)C=C5)C=C4)cc2)nn1-c1cccc(C(F)(F)F)c1
REMARK SMILES IDX 13 1 12 2 11 3 10 4 9 5 8 6 7 7 5 8 6 9 4 10 1 11 2 12 3 13
REMARK SMILES IDX 77 14 76 15 78 16 79 17 87 18 80 19 82 20 81 21 83 22 84 23
REMARK SMILES IDX 85 24 86 25 14 26 15 27 16 28 17 29 18 30 19 31 20 32 21 33
REMARK SMILES IDX 22 34 23 35 75 36 24 37 74 38 25 39 26 40 27 41 68 42 28 43
REMARK SMILES IDX 73 44 67 45 69 46 29 47 72 48 66 49 65 50 30 52 56 53 39 54
REMARK SMILES IDX 55 55 40 56 43 57 54 58 70 59 41 60 42 61 53 63 71 64 44 65
REMARK SMILES IDX 31 66 32 67 37 68 33 69 34 70 36 71 38 72 35 73 57 74 58 75
REMARK SMILES IDX 63 76 59 77 60 78 62 79 64 80 61 81 45 82 46 83 51 84 47 85
REMARK SMILES IDX 48 86 50 87 52 88 49 89
REMARK H PARENT 69 51 43 62
REMARK Flexibility Score: inf
ROOT
ATOM      1  O   UNL A   1      40.166  21.901  27.626  1.00  0.00    -0.377 OA
ENDROOT
BRANCH   1   2
ATOM      2  C   UNL A   1      39.895  22.829  26.573  1.00  0.00     0.188 C 
BRANCH   2   3
ATOM      3  C   UNL A   1      38.852  23.966  26.696  1.00  0.00     0.188 C 
BRANCH   3   4
ATOM      4  O   UNL A   1      37.561  23.607  26.246  1.00  0.00    -0.376 OA
BRANCH   4   5
ATOM      5  C   UNL A   1      37.391  22.672  25.209  1.00  0.00     0.202 C 
BRANCH   5   6
ATOM      6  C   UNL A   1      36.648  21.369  25.520  1.00  0.00     0.261 C 
BRANCH   6   7
ATOM      7  O   UNL A   1      35.345  21.496  26.093  1.00  0.00    -0.457 OA
BRANCH   7   8
ATOM      8  C   UNL A   1      34.277  21.156  25.317  1.00  0.00     0.378 C 
ATOM      9  O   UNL A   1      33.922  19.995  25.109  1.00  0.00    -0.242 OA
BRANCH   8  10
ATOM     10  C   UNL A   1      33.526  22.350  24.891  1.00  0.00     0.260 A 
ATOM     11  C   UNL A   1      30.728  24.025  23.441  1.00  0.00     0.090 C 
ATOM     12  C   UNL A   1      31.914  23.570  24.210  1.00  0.00     0.130 A 
ATOM     13  N   UNL A   1      32.257  22.302  24.354  1.00  0.00    -0.206 NA
ATOM     14  N   UNL A   1      32.935  24.373  24.694  1.00  0.00    -0.217 N 
ATOM     15  N   UNL A   1      33.978  23.598  25.077  1.00  0.00    -0.138 NA
BRANCH  14  16
ATOM     16  C   UNL A   1      33.055  25.782  24.780  1.00  0.00     0.067 A 
ATOM     17  C   UNL A   1      33.560  26.466  23.663  1.00  0.00     0.028 A 
ATOM     18  C   UNL A   1      32.726  26.497  25.939  1.00  0.00     0.041 A 
ATOM     19  C   UNL A   1      33.665  27.854  23.673  1.00  0.00     0.003 A 
ATOM     20  C   UNL A   1      32.868  27.898  25.969  1.00  0.00     0.058 A 
ATOM     21  C   UNL A   1      33.317  28.566  24.818  1.00  0.00     0.013 A 
BRANCH  20  22
ATOM     22  C   UNL A   1      32.579  28.700  27.217  1.00  0.00     0.416 C 
ATOM     23  F   UNL A   1      31.959  27.961  28.179  1.00  0.00    -0.166 F 
ATOM     24  F   UNL A   1      33.711  29.190  27.794  1.00  0.00    -0.166 F 
ATOM     25  F   UNL A   1      31.775  29.777  26.996  1.00  0.00    -0.166 F 
ENDBRANCH  20  22
ENDBRANCH  14  16
ENDBRANCH   8  10
ENDBRANCH   7   8
ENDBRANCH   6   7
ENDBRANCH   5   6
ENDBRANCH   4   5
ENDBRANCH   3   4
ENDBRANCH   2   3
ENDBRANCH   1   2
BRANCH   1  26
ATOM     26  C   UNL A   1      40.781  20.652  27.342  1.00  0.00     0.188 C 
BRANCH  26  27
ATOM     27  C   UNL A   1      41.751  20.549  26.136  1.00  0.00     0.188 C 
BRANCH  27  28
ATOM     28  O   UNL A   1      42.983  21.231  26.307  1.00  0.00    -0.376 OA
BRANCH  28  29
ATOM     29  C   UNL A   1      43.925  21.405  25.266  1.00  0.00     0.202 C 
BRANCH  29  30
ATOM     30  C   UNL A   1      44.254  22.805  24.756  1.00  0.00     0.261 C 
BRANCH  30  31
ATOM     31  O   UNL A   1      44.555  23.723  25.781  1.00  0.00    -0.460 OA
BRANCH  31  32
ATOM     32  C   UNL A   1      44.067  24.956  25.597  1.00  0.00     0.338 C 
ATOM     33  O   UNL A   1      44.596  25.876  24.975  1.00  0.00    -0.246 OA
BRANCH  32  34
ATOM     34  C   UNL A   1      42.801  25.061  26.336  1.00  0.00     0.060 A 
ATOM     35  C   UNL A   1      41.886  25.921  25.737  1.00  0.00     0.016 A 
ATOM     36  C   UNL A   1      42.885  24.887  27.727  1.00  0.00     0.016 A 
ATOM     37  C   UNL A   1      41.428  26.944  26.517  1.00  0.00     0.010 A 
ATOM     38  C   UNL A   1      42.458  25.925  28.502  1.00  0.00     0.010 A 
ATOM     39  C   UNL A   1      41.852  26.993  27.851  1.00  0.00    -0.014 A 
BRANCH  39  40
ATOM     40  C   UNL A   1      41.620  28.217  28.564  1.00  0.00     0.031 A 
ATOM     41  C   UNL A   1      42.653  29.221  28.283  1.00  0.00     0.074 A 
ATOM     42  C   UNL A   1      40.547  28.392  29.351  1.00  0.00     0.049 A 
ATOM     43  N   UNL A   1      43.575  29.635  29.083  1.00  0.00    -0.248 NA
ATOM     44  C   UNL A   1      42.814  29.645  26.885  1.00  0.00     0.031 C 
ATOM     45  C   UNL A   1      39.350  27.561  29.492  1.00  0.00     0.029 A 
ATOM     46  N   UNL A   1      40.279  29.459  30.140  1.00  0.00    -0.354 N 
ATOM     47  C   UNL A   1      44.329  30.526  28.335  1.00  0.00     0.074 A 
ATOM     48  C   UNL A   1      43.951  30.335  26.961  1.00  0.00     0.031 C 
ATOM     49  C   UNL A   1      38.395  28.274  30.132  1.00  0.00     0.029 A 
ATOM     50  C   UNL A   1      38.955  29.551  30.539  1.00  0.00     0.049 A 
ATOM     51  H   UNL A   1      40.965  30.113  30.407  1.00  0.00     0.167 HD
ATOM     52  C   UNL A   1      45.030  31.523  28.933  1.00  0.00     0.037 A 
ATOM     53  C   UNL A   1      38.390  30.678  31.038  1.00  0.00     0.037 A 
ATOM     54  C   UNL A   1      45.208  31.268  30.340  1.00  0.00     0.049 A 
ATOM     55  C   UNL A   1      39.503  31.541  31.539  1.00  0.00     0.074 A 
ATOM     56  C   UNL A   1      45.830  30.268  31.064  1.00  0.00     0.029 A 
ATOM     57  N   UNL A   1      44.363  31.901  31.221  1.00  0.00    -0.354 N 
ATOM     58  N   UNL A   1      40.240  31.238  32.574  1.00  0.00    -0.248 NA
ATOM     59  C   UNL A   1      40.111  32.480  30.603  1.00  0.00     0.031 C 
ATOM     60  C   UNL A   1      44.992  30.050  32.195  1.00  0.00     0.029 A 
ATOM     61  C   UNL A   1      43.936  30.960  32.125  1.00  0.00     0.049 A 
ATOM     62  H   UNL A   1      44.112  32.853  31.207  1.00  0.00     0.167 HD
ATOM     63  C   UNL A   1      41.533  31.605  32.218  1.00  0.00     0.074 A 
ATOM     64  C   UNL A   1      41.379  32.432  31.023  1.00  0.00     0.031 C 
ATOM     65  C   UNL A   1      42.625  30.967  32.736  1.00  0.00     0.037 A 
BRANCH  52  66
ATOM     66  C   UNL A   1      45.229  32.877  28.314  1.00  0.00     0.057 A 
ATOM     67  C   UNL A   1      46.535  33.324  28.063  1.00  0.00     0.134 A 
ATOM     68  C   UNL A   1      44.224  33.863  28.207  1.00  0.00     0.134 A 
ATOM     69  F   UNL A   1      47.578  32.484  28.148  1.00  0.00    -0.206 F 
ATOM     70  C   UNL A   1      46.827  34.665  27.794  1.00  0.00     0.040 A 
ATOM     71  C   UNL A   1      44.498  35.191  27.881  1.00  0.00     0.040 A 
ATOM     72  F   UNL A   1      42.942  33.627  28.506  1.00  0.00    -0.206 F 
ATOM     73  C   UNL A   1      45.807  35.605  27.708  1.00  0.00     0.006 A 
ENDBRANCH  52  66
BRANCH  53  74
ATOM     74  C   UNL A   1      37.027  31.189  30.760  1.00  0.00     0.057 A 
ATOM     75  C   UNL A   1      36.172  31.574  31.802  1.00  0.00     0.134 A 
ATOM     76  C   UNL A   1      36.611  31.551  29.464  1.00  0.00     0.134 A 
ATOM     77  F   UNL A   1      36.498  31.319  33.078  1.00  0.00    -0.206 F 
ATOM     78  C   UNL A   1      34.986  32.286  31.571  1.00  0.00     0.040 A 
ATOM     79  C   UNL A   1      35.426  32.250  29.218  1.00  0.00     0.040 A 
ATOM     80  F   UNL A   1      37.379  31.317  28.391  1.00  0.00    -0.206 F 
ATOM     81  C   UNL A   1      34.614  32.634  30.275  1.00  0.00     0.006 A 
ENDBRANCH  53  74
BRANCH  65  82
ATOM     82  C   UNL A   1      42.405  29.988  33.859  1.00  0.00     0.057 A 
ATOM     83  C   UNL A   1      42.355  30.356  35.212  1.00  0.00     0.134 A 
ATOM     84  C   UNL A   1      42.055  28.668  33.552  1.00  0.00     0.134 A 
ATOM     85  F   UNL A   1      42.564  31.623  35.591  1.00  0.00    -0.206 F 
ATOM     86  C   UNL A   1      42.017  29.445  36.216  1.00  0.00     0.040 A 
ATOM     87  C   UNL A   1      41.681  27.756  34.543  1.00  0.00     0.040 A 
ATOM     88  F   UNL A   1      42.014  28.259  32.274  1.00  0.00    -0.206 F 
ATOM     89  C   UNL A   1      41.670  28.140  35.881  1.00  0.00     0.006 A 
ENDBRANCH  65  82
ENDBRANCH  39  40
ENDBRANCH  32  34
ENDBRANCH  31  32
ENDBRANCH  30  31
ENDBRANCH  29  30
ENDBRANCH  28  29
ENDBRANCH  27  28
ENDBRANCH  26  27
ENDBRANCH   1  26
TORSDOF 22
ENDMDL
MODEL 3
REMARK VINA RESULT:      -9.4      4.082      8.219
REMARK SMILES Cc1nc(C(=O)OCCOCCOCCOCCOC(=O)c2ccc(-c3c4nc(c(-c5c(F)cccc5F)c5ccc([nH]5)c(-c5c(F)cccc5F)c5nc(c(-c6c(F)cccc6F)c6ccc3[nH]6)C=C5)C=C4)cc2)nn1-c1cccc(C(F)(F)F)c1
REMARK SMILES IDX 13 1 12 2 11 3 10 4 9 5 8 6 7 7 5 8 6 9 4 10 1 11 2 12 3 13
REMARK SMILES IDX 77 14 76 15 78 16 79 17 87 18 80 19 82 20 81 21 83 22 84 23
REMARK SMILES IDX 85 24 86 25 14 26 15 27 16 28 17 29 18 30 19 31 20 32 21 33
REMARK SMILES IDX 22 34 23 35 75 36 24 37 74 38 25 39 26 40 27 41 68 42 28 43
REMARK SMILES IDX 73 44 67 45 69 46 29 47 72 48 66 49 65 50 30 52 56 53 39 54
REMARK SMILES IDX 55 55 40 56 43 57 54 58 70 59 41 60 42 61 53 63 71 64 44 65
REMARK SMILES IDX 31 66 32 67 37 68 33 69 34 70 36 71 38 72 35 73 57 74 58 75
REMARK SMILES IDX 63 76 59 77 60 78 62 79 64 80 61 81 45 82 46 83 51 84 47 85
REMARK SMILES IDX 48 86 50 87 52 88 49 89
REMARK H PARENT 69 51 43 62
REMARK Flexibility Score: inf
ROOT
ATOM      1  O   UNL A   1      34.031  30.709  27.988  1.00  0.00    -0.377 OA
ENDROOT
BRANCH   1   2
ATOM      2  C   UNL A   1      33.360  29.943  26.986  1.00  0.00     0.188 C 
BRANCH   2   3
ATOM      3  C   UNL A   1      32.191  30.499  26.136  1.00  0.00     0.188 C 
BRANCH   3   4
ATOM      4  O   UNL A   1      31.913  29.737  24.980  1.00  0.00    -0.376 OA
BRANCH   4   5
ATOM      5  C   UNL A   1      30.648  29.788  24.367  1.00  0.00     0.202 C 
BRANCH   5   6
ATOM      6  C   UNL A   1      30.525  29.321  22.913  1.00  0.00     0.261 C 
BRANCH   6   7
ATOM      7  O   UNL A   1      29.466  28.407  22.622  1.00  0.00    -0.457 OA
BRANCH   7   8
ATOM      8  C   UNL A   1      29.453  27.220  23.293  1.00  0.00     0.378 C 
ATOM      9  O   UNL A   1      28.587  26.903  24.108  1.00  0.00    -0.242 OA
BRANCH   8  10
ATOM     10  C   UNL A   1      30.514  26.321  22.805  1.00  0.00     0.260 A 
ATOM     11  C   UNL A   1      32.903  25.191  20.407  1.00  0.00     0.090 C 
ATOM     12  C   UNL A   1      32.100  25.555  21.602  1.00  0.00     0.130 A 
ATOM     13  N   UNL A   1      31.174  26.498  21.608  1.00  0.00    -0.206 NA
ATOM     14  N   UNL A   1      32.035  24.849  22.793  1.00  0.00    -0.217 N 
ATOM     15  N   UNL A   1      30.995  25.302  23.532  1.00  0.00    -0.138 NA
BRANCH  14  16
ATOM     16  C   UNL A   1      32.806  23.764  23.280  1.00  0.00     0.067 A 
ATOM     17  C   UNL A   1      32.121  22.652  23.792  1.00  0.00     0.028 A 
ATOM     18  C   UNL A   1      34.207  23.785  23.299  1.00  0.00     0.041 A 
ATOM     19  C   UNL A   1      32.823  21.540  24.249  1.00  0.00     0.003 A 
ATOM     20  C   UNL A   1      34.923  22.679  23.798  1.00  0.00     0.058 A 
ATOM     21  C   UNL A   1      34.215  21.551  24.248  1.00  0.00     0.013 A 
BRANCH  20  22
ATOM     22  C   UNL A   1      36.431  22.683  23.890  1.00  0.00     0.416 C 
ATOM     23  F   UNL A   1      37.027  22.736  22.667  1.00  0.00    -0.166 F 
ATOM     24  F   UNL A   1      36.907  23.753  24.585  1.00  0.00    -0.166 F 
ATOM     25  F   UNL A   1      36.940  21.581  24.507  1.00  0.00    -0.166 F 
ENDBRANCH  20  22
ENDBRANCH  14  16
ENDBRANCH   8  10
ENDBRANCH   7   8
ENDBRANCH   6   7
ENDBRANCH   5   6
ENDBRANCH   4   5
ENDBRANCH   3   4
ENDBRANCH   2   3
ENDBRANCH   1   2
BRANCH   1  26
ATOM     26  C   UNL A   1      33.961  32.129  27.973  1.00  0.00     0.188 C 
BRANCH  26  27
ATOM     27  C   UNL A   1      35.280  32.946  28.014  1.00  0.00     0.188 C 
BRANCH  27  28
ATOM     28  O   UNL A   1      35.317  33.959  29.007  1.00  0.00    -0.376 OA
BRANCH  28  29
ATOM     29  C   UNL A   1      34.518  33.933  30.174  1.00  0.00     0.202 C 
BRANCH  29  30
ATOM     30  C   UNL A   1      34.777  32.891  31.258  1.00  0.00     0.261 C 
BRANCH  30  31
ATOM     31  O   UNL A   1      36.144  32.640  31.485  1.00  0.00    -0.460 OA
BRANCH  31  32
ATOM     32  C   UNL A   1      36.483  31.346  31.526  1.00  0.00     0.338 C 
ATOM     33  O   UNL A   1      36.332  30.571  32.469  1.00  0.00    -0.246 OA
BRANCH  32  34
ATOM     34  C   UNL A   1      37.147  31.008  30.259  1.00  0.00     0.060 A 
ATOM     35  C   UNL A   1      36.817  29.741  29.788  1.00  0.00     0.016 A 
ATOM     36  C   UNL A   1      38.406  31.595  30.049  1.00  0.00     0.016 A 
ATOM     37  C   UNL A   1      37.865  28.894  29.565  1.00  0.00     0.010 A 
ATOM     38  C   UNL A   1      39.455  30.744  29.861  1.00  0.00     0.010 A 
ATOM     39  C   UNL A   1      39.160  29.390  29.754  1.00  0.00    -0.014 A 
BRANCH  39  40
ATOM     40  C   UNL A   1      40.223  28.427  29.819  1.00  0.00     0.031 A 
ATOM     41  C   UNL A   1      40.736  28.265  31.185  1.00  0.00     0.074 A 
ATOM     42  C   UNL A   1      40.637  27.748  28.739  1.00  0.00     0.049 A 
ATOM     43  N   UNL A   1      41.875  28.657  31.641  1.00  0.00    -0.248 NA
ATOM     44  C   UNL A   1      39.783  27.818  32.210  1.00  0.00     0.031 C 
ATOM     45  C   UNL A   1      40.031  27.652  27.409  1.00  0.00     0.029 A 
ATOM     46  N   UNL A   1      41.686  26.894  28.664  1.00  0.00    -0.354 N 
ATOM     47  C   UNL A   1      41.857  28.331  32.988  1.00  0.00     0.074 A 
ATOM     48  C   UNL A   1      40.493  28.017  33.319  1.00  0.00     0.031 C 
ATOM     49  C   UNL A   1      40.590  26.613  26.747  1.00  0.00     0.029 A 
ATOM     50  C   UNL A   1      41.659  26.058  27.559  1.00  0.00     0.049 A 
ATOM     51  H   UNL A   1      42.405  26.869  29.335  1.00  0.00     0.167 HD
ATOM     52  C   UNL A   1      43.010  28.108  33.669  1.00  0.00     0.037 A 
ATOM     53  C   UNL A   1      42.395  24.924  27.446  1.00  0.00     0.037 A 
ATOM     54  C   UNL A   1      44.147  28.641  32.964  1.00  0.00     0.049 A 
ATOM     55  C   UNL A   1      43.534  25.046  28.407  1.00  0.00     0.074 A 
ATOM     56  C   UNL A   1      44.520  29.910  32.562  1.00  0.00     0.029 A 
ATOM     57  N   UNL A   1      44.910  27.771  32.220  1.00  0.00    -0.354 N 
ATOM     58  N   UNL A   1      44.507  25.907  28.267  1.00  0.00    -0.248 NA
ATOM     59  C   UNL A   1      43.332  24.562  29.768  1.00  0.00     0.031 C 
ATOM     60  C   UNL A   1      45.129  29.732  31.285  1.00  0.00     0.029 A 
ATOM     61  C   UNL A   1      45.139  28.365  31.004  1.00  0.00     0.049 A 
ATOM     62  H   UNL A   1      45.232  26.886  32.507  1.00  0.00     0.167 HD
ATOM     63  C   UNL A   1      44.760  26.381  29.549  1.00  0.00     0.074 A 
ATOM     64  C   UNL A   1      44.057  25.462  30.441  1.00  0.00     0.031 C 
ATOM     65  C   UNL A   1      45.258  27.636  29.761  1.00  0.00     0.037 A 
BRANCH  52  66
ATOM     66  C   UNL A   1      43.132  27.102  34.778  1.00  0.00     0.057 A 
ATOM     67  C   UNL A   1      43.294  25.747  34.451  1.00  0.00     0.134 A 
ATOM     68  C   UNL A   1      42.828  27.363  36.132  1.00  0.00     0.134 A 
ATOM     69  F   UNL A   1      43.570  25.370  33.193  1.00  0.00    -0.206 F 
ATOM     70  C   UNL A   1      43.098  24.725  35.385  1.00  0.00     0.040 A 
ATOM     71  C   UNL A   1      42.688  26.354  37.084  1.00  0.00     0.040 A 
ATOM     72  F   UNL A   1      42.549  28.588  36.589  1.00  0.00    -0.206 F 
ATOM     73  C   UNL A   1      42.789  25.027  36.706  1.00  0.00     0.006 A 
ENDBRANCH  52  66
BRANCH  53  74
ATOM     74  C   UNL A   1      41.963  23.635  26.858  1.00  0.00     0.057 A 
ATOM     75  C   UNL A   1      42.848  22.850  26.107  1.00  0.00     0.134 A 
ATOM     76  C   UNL A   1      40.751  23.014  27.219  1.00  0.00     0.134 A 
ATOM     77  F   UNL A   1      44.048  23.330  25.751  1.00  0.00    -0.206 F 
ATOM     78  C   UNL A   1      42.553  21.526  25.751  1.00  0.00     0.040 A 
ATOM     79  C   UNL A   1      40.439  21.699  26.861  1.00  0.00     0.040 A 
ATOM     80  F   UNL A   1      39.858  23.628  28.008  1.00  0.00    -0.206 F 
ATOM     81  C   UNL A   1      41.348  20.944  26.135  1.00  0.00     0.006 A 
ENDBRANCH  53  74
BRANCH  65  82
ATOM     82  C   UNL A   1      45.720  28.425  28.564  1.00  0.00     0.057 A 
ATOM     83  C   UNL A   1      46.998  28.300  27.998  1.00  0.00     0.134 A 
ATOM     84  C   UNL A   1      44.791  29.196  27.857  1.00  0.00     0.134 A 
ATOM     85  F   UNL A   1      47.918  27.494  28.541  1.00  0.00    -0.206 F 
ATOM     86  C   UNL A   1      47.348  28.947  26.809  1.00  0.00     0.040 A 
ATOM     87  C   UNL A   1      45.117  29.820  26.650  1.00  0.00     0.040 A 
ATOM     88  F   UNL A   1      43.529  29.308  28.301  1.00  0.00    -0.206 F 
ATOM     89  C   UNL A   1      46.402  29.704  26.126  1.00  0.00     0.006 A 
ENDBRANCH  65  82
ENDBRANCH  39  40
ENDBRANCH  32  34
ENDBRANCH  31  32
ENDBRANCH  30  31
ENDBRANCH  29  30
ENDBRANCH  28  29
ENDBRANCH  27  28
ENDBRANCH  26  27
ENDBRANCH   1  26
TORSDOF 22
ENDMDL
