MODEL 1
REMARK VINA RESULT:      -9.3      0.000      0.000
REMARK SMILES CCCc1nn2c(=O)cc(CSc3ccccc3C(=O)OCCOCCOCCOCCOC(=O)c3ccc(-c4c5nc(c(-c6c(F)cccc6F)c6ccc([nH]6)c(-c6c(F)cccc6F)c6nc(c(-c7c(F)cccc7F)c7ccc4[nH]7)C=C6)C=C5)cc3)nc2s1
REMARK SMILES IDX 25 1 24 2 23 3 22 4 21 5 19 6 20 7 18 8 13 9 14 10 15 11
REMARK SMILES IDX 17 12 16 13 12 14 11 15 10 16 4 17 5 18 92 19 6 20 91 21
REMARK SMILES IDX 7 22 90 23 8 24 9 25 3 26 2 27 1 28 26 29 27 30 28 31 29 32
REMARK SMILES IDX 30 33 31 34 32 35 33 36 34 37 35 38 36 39 37 40 89 41 38 42
REMARK SMILES IDX 88 43 39 44 40 45 41 46 82 47 42 48 87 49 81 50 83 51 43 52
REMARK SMILES IDX 86 53 80 54 79 55 44 57 70 58 53 59 69 60 54 61 57 62 68 63
REMARK SMILES IDX 84 64 55 65 56 66 67 68 85 69 58 70 45 71 46 72 51 73 47 74
REMARK SMILES IDX 48 75 50 76 52 77 49 78 71 79 72 80 77 81 73 82 74 83 76 84
REMARK SMILES IDX 78 85 75 86 59 87 60 88 65 89 61 90 62 91 64 92 66 93 63 94
REMARK H PARENT 83 56 57 67
REMARK Flexibility Score: inf
ROOT
ATOM      1  C   UNL A   1      45.787  23.738  33.789  1.00  0.00     0.188 C 
ENDROOT
BRANCH   1   2
ATOM      2  O   UNL A   1      44.977  24.517  32.920  1.00  0.00    -0.376 OA
BRANCH   2   3
ATOM      3  C   UNL A   1      44.120  23.852  31.992  1.00  0.00     0.202 C 
BRANCH   3   4
ATOM      4  C   UNL A   1      44.854  23.720  30.634  1.00  0.00     0.261 C 
BRANCH   4   5
ATOM      5  O   UNL A   1      43.971  24.118  29.561  1.00  0.00    -0.460 OA
BRANCH   5   6
ATOM      6  C   UNL A   1      44.330  23.580  28.368  1.00  0.00     0.339 C 
ATOM      7  O   UNL A   1      45.480  23.325  28.031  1.00  0.00    -0.246 OA
BRANCH   6   8
ATOM      8  C   UNL A   1      43.158  23.039  27.633  1.00  0.00     0.073 A 
ATOM      9  C   UNL A   1      43.065  22.817  26.249  1.00  0.00     0.022 A 
ATOM     10  C   UNL A   1      41.918  22.133  25.785  1.00  0.00     0.016 A 
ATOM     11  C   UNL A   1      40.862  21.774  26.637  1.00  0.00     0.001 A 
ATOM     12  C   UNL A   1      42.064  22.714  28.476  1.00  0.00     0.017 A 
ATOM     13  C   UNL A   1      40.919  22.098  27.982  1.00  0.00     0.001 A 
BRANCH   9  14
ATOM     14  S   UNL A   1      44.362  23.017  25.037  1.00  0.00    -0.119 SA
BRANCH  14  15
ATOM     15  C   UNL A   1      44.713  24.797  24.775  1.00  0.00     0.131 C 
BRANCH  15  16
ATOM     16  C   UNL A   1      45.857  25.494  25.472  1.00  0.00     0.060 A 
ATOM     17  C   UNL A   1      48.035  30.004  28.513  1.00  0.00     0.117 A 
ATOM     18  N   UNL A   1      48.927  29.258  27.444  1.00  0.00    -0.156 NA
ATOM     19  S   UNL A   1      46.004  29.009  28.948  1.00  0.00    -0.079 S 
ATOM     20  N   UNL A   1      48.162  27.555  26.837  1.00  0.00    -0.167 N 
ATOM     21  C   UNL A   1      46.358  27.451  27.346  1.00  0.00     0.215 A 
ATOM     22  C   UNL A   1      48.881  26.160  25.768  1.00  0.00     0.275 A 
ATOM     23  N   UNL A   1      45.402  26.629  26.669  1.00  0.00    -0.223 NA
ATOM     24  O   UNL A   1      49.996  25.875  25.330  1.00  0.00    -0.267 OA
ATOM     25  C   UNL A   1      47.303  25.190  24.993  1.00  0.00     0.098 A 
BRANCH  17  26
ATOM     26  C   UNL A   1      48.353  31.152  29.434  1.00  0.00     0.069 C 
BRANCH  26  27
ATOM     27  C   UNL A   1      49.110  30.814  30.710  1.00  0.00     0.004 C 
ATOM     28  C   UNL A   1      48.207  30.612  31.917  1.00  0.00     0.004 C 
ENDBRANCH  26  27
ENDBRANCH  17  26
ENDBRANCH  15  16
ENDBRANCH  14  15
ENDBRANCH   9  14
ENDBRANCH   6   8
ENDBRANCH   5   6
ENDBRANCH   4   5
ENDBRANCH   3   4
ENDBRANCH   2   3
ENDBRANCH   1   2
BRANCH   1  29
ATOM     29  C   UNL A   1      45.228  22.298  34.125  1.00  0.00     0.188 C 
BRANCH  29  30
ATOM     30  O   UNL A   1      45.859  21.089  34.889  1.00  0.00    -0.377 OA
BRANCH  30  31
ATOM     31  C   UNL A   1      45.637  19.189  35.548  1.00  0.00     0.188 C 
BRANCH  31  32
ATOM     32  C   UNL A   1      45.914  19.043  37.466  1.00  0.00     0.188 C 
BRANCH  32  33
ATOM     33  O   UNL A   1      46.591  20.365  38.332  1.00  0.00    -0.376 OA
BRANCH  33  34
ATOM     34  C   UNL A   1      46.281  22.011  37.994  1.00  0.00     0.202 C 
BRANCH  34  35
ATOM     35  C   UNL A   1      47.675  23.040  37.153  1.00  0.00     0.261 C 
BRANCH  35  36
ATOM     36  O   UNL A   1      47.081  25.021  37.021  1.00  0.00    -0.460 OA
BRANCH  36  37
ATOM     37  C   UNL A   1      46.101  26.071  37.233  1.00  0.00     0.338 C 
ATOM     38  O   UNL A   1      45.991  26.777  38.234  1.00  0.00    -0.246 OA
BRANCH  37  39
ATOM     39  C   UNL A   1      45.196  26.443  36.136  1.00  0.00     0.060 A 
ATOM     40  C   UNL A   1      45.526  27.616  35.429  1.00  0.00     0.016 A 
ATOM     41  C   UNL A   1      43.951  25.848  35.971  1.00  0.00     0.016 A 
ATOM     42  C   UNL A   1      44.630  28.185  34.539  1.00  0.00     0.010 A 
ATOM     43  C   UNL A   1      43.032  26.442  35.096  1.00  0.00     0.010 A 
ATOM     44  C   UNL A   1      43.361  27.620  34.398  1.00  0.00    -0.014 A 
BRANCH  44  45
ATOM     45  C   UNL A   1      42.342  28.366  33.632  1.00  0.00     0.031 A 
ATOM     46  C   UNL A   1      41.529  29.416  34.331  1.00  0.00     0.074 A 
ATOM     47  C   UNL A   1      42.197  28.143  32.316  1.00  0.00     0.049 A 
ATOM     48  N   UNL A   1      40.559  30.158  33.868  1.00  0.00    -0.248 NA
ATOM     49  C   UNL A   1      41.859  29.665  35.744  1.00  0.00     0.031 C 
ATOM     50  C   UNL A   1      42.988  27.198  31.530  1.00  0.00     0.029 A 
ATOM     51  N   UNL A   1      41.327  28.694  31.412  1.00  0.00    -0.354 N 
ATOM     52  C   UNL A   1      40.151  30.953  34.932  1.00  0.00     0.074 A 
ATOM     53  C   UNL A   1      40.966  30.587  36.070  1.00  0.00     0.031 C 
ATOM     54  C   UNL A   1      42.553  27.219  30.260  1.00  0.00     0.029 A 
ATOM     55  C   UNL A   1      41.432  28.150  30.156  1.00  0.00     0.049 A 
ATOM     56  H   UNL A   1      40.691  29.409  31.640  1.00  0.00     0.167 HD
ATOM     57  C   UNL A   1      39.186  31.902  34.951  1.00  0.00     0.037 A 
ATOM     58  C   UNL A   1      40.682  28.363  29.058  1.00  0.00     0.037 A 
ATOM     59  C   UNL A   1      38.378  32.245  33.810  1.00  0.00     0.049 A 
ATOM     60  C   UNL A   1      39.561  29.363  29.125  1.00  0.00     0.074 A 
ATOM     61  C   UNL A   1      37.368  33.186  33.717  1.00  0.00     0.029 A 
ATOM     62  N   UNL A   1      38.486  31.649  32.561  1.00  0.00    -0.354 N 
ATOM     63  N   UNL A   1      39.179  30.111  30.133  1.00  0.00    -0.248 NA
ATOM     64  C   UNL A   1      38.770  29.554  27.902  1.00  0.00     0.031 C 
ATOM     65  C   UNL A   1      36.830  33.122  32.426  1.00  0.00     0.029 A 
ATOM     66  C   UNL A   1      37.545  32.184  31.697  1.00  0.00     0.049 A 
ATOM     67  H   UNL A   1      39.136  30.948  32.324  1.00  0.00     0.167 HD
ATOM     68  C   UNL A   1      38.123  30.880  29.662  1.00  0.00     0.074 A 
ATOM     69  C   UNL A   1      37.935  30.515  28.272  1.00  0.00     0.031 C 
ATOM     70  C   UNL A   1      37.379  31.806  30.315  1.00  0.00     0.037 A 
BRANCH  57  71
ATOM     71  C   UNL A   1      38.927  32.597  36.258  1.00  0.00     0.057 A 
ATOM     72  C   UNL A   1      38.135  32.024  37.262  1.00  0.00     0.134 A 
ATOM     73  C   UNL A   1      39.484  33.857  36.516  1.00  0.00     0.134 A 
ATOM     74  F   UNL A   1      37.559  30.828  37.074  1.00  0.00    -0.206 F 
ATOM     75  C   UNL A   1      37.883  32.691  38.463  1.00  0.00     0.040 A 
ATOM     76  C   UNL A   1      39.261  34.521  37.724  1.00  0.00     0.040 A 
ATOM     77  F   UNL A   1      40.253  34.464  35.601  1.00  0.00    -0.206 F 
ATOM     78  C   UNL A   1      38.451  33.942  38.699  1.00  0.00     0.006 A 
ENDBRANCH  57  71
BRANCH  58  79
ATOM     79  C   UNL A   1      40.961  27.600  27.815  1.00  0.00     0.057 A 
ATOM     80  C   UNL A   1      41.781  28.123  26.809  1.00  0.00     0.134 A 
ATOM     81  C   UNL A   1      40.418  26.326  27.607  1.00  0.00     0.134 A 
ATOM     82  F   UNL A   1      42.315  29.346  26.942  1.00  0.00    -0.206 F 
ATOM     83  C   UNL A   1      42.041  27.413  25.636  1.00  0.00     0.040 A 
ATOM     84  C   UNL A   1      40.692  25.593  26.451  1.00  0.00     0.040 A 
ATOM     85  F   UNL A   1      39.628  25.765  28.534  1.00  0.00    -0.206 F 
ATOM     86  C   UNL A   1      41.502  26.141  25.458  1.00  0.00     0.006 A 
ENDBRANCH  58  79
BRANCH  70  87
ATOM     87  C   UNL A   1      36.321  32.518  29.522  1.00  0.00     0.057 A 
ATOM     88  C   UNL A   1      36.484  33.836  29.082  1.00  0.00     0.134 A 
ATOM     89  C   UNL A   1      35.138  31.856  29.164  1.00  0.00     0.134 A 
ATOM     90  F   UNL A   1      37.587  34.529  29.402  1.00  0.00    -0.206 F 
ATOM     91  C   UNL A   1      35.498  34.481  28.332  1.00  0.00     0.040 A 
ATOM     92  C   UNL A   1      34.160  32.480  28.389  1.00  0.00     0.040 A 
ATOM     93  F   UNL A   1      34.923  30.588  29.545  1.00  0.00    -0.206 F 
ATOM     94  C   UNL A   1      34.335  33.800  27.978  1.00  0.00     0.006 A 
ENDBRANCH  70  87
ENDBRANCH  44  45
ENDBRANCH  37  39
ENDBRANCH  36  37
ENDBRANCH  35  36
ENDBRANCH  34  35
ENDBRANCH  33  34
ENDBRANCH  32  33
ENDBRANCH  31  32
ENDBRANCH  30  31
ENDBRANCH  29  30
ENDBRANCH   1  29
TORSDOF 25
ENDMDL
MODEL 2
REMARK VINA RESULT:      -9.1      1.726      3.057
REMARK SMILES CCCc1nn2c(=O)cc(CSc3ccccc3C(=O)OCCOCCOCCOCCOC(=O)c3ccc(-c4c5nc(c(-c6c(F)cccc6F)c6ccc([nH]6)c(-c6c(F)cccc6F)c6nc(c(-c7c(F)cccc7F)c7ccc4[nH]7)C=C6)C=C5)cc3)nc2s1
REMARK SMILES IDX 25 1 24 2 23 3 22 4 21 5 19 6 20 7 18 8 13 9 14 10 15 11
REMARK SMILES IDX 17 12 16 13 12 14 11 15 10 16 4 17 5 18 92 19 6 20 91 21
REMARK SMILES IDX 7 22 90 23 8 24 9 25 3 26 2 27 1 28 26 29 27 30 28 31 29 32
REMARK SMILES IDX 30 33 31 34 32 35 33 36 34 37 35 38 36 39 37 40 89 41 38 42
REMARK SMILES IDX 88 43 39 44 40 45 41 46 82 47 42 48 87 49 81 50 83 51 43 52
REMARK SMILES IDX 86 53 80 54 79 55 44 57 70 58 53 59 69 60 54 61 57 62 68 63
REMARK SMILES IDX 84 64 55 65 56 66 67 68 85 69 58 70 45 71 46 72 51 73 47 74
REMARK SMILES IDX 48 75 50 76 52 77 49 78 71 79 72 80 77 81 73 82 74 83 76 84
REMARK SMILES IDX 78 85 75 86 59 87 60 88 65 89 61 90 62 91 64 92 66 93 63 94
REMARK H PARENT 83 56 57 67
REMARK Flexibility Score: inf
ROOT
ATOM      1  C   UNL A   1      45.094  23.318  33.617  1.00  0.00     0.188 C 
ENDROOT
BRANCH   1   2
ATOM      2  O   UNL A   1      43.940  23.819  32.959  1.00  0.00    -0.376 OA
BRANCH   2   3
ATOM      3  C   UNL A   1      43.740  23.508  31.580  1.00  0.00     0.202 C 
BRANCH   3   4
ATOM      4  C   UNL A   1      45.012  23.899  30.786  1.00  0.00     0.261 C 
BRANCH   4   5
ATOM      5  O   UNL A   1      44.638  24.425  29.493  1.00  0.00    -0.460 OA
BRANCH   5   6
ATOM      6  C   UNL A   1      45.715  24.792  28.752  1.00  0.00     0.339 C 
ATOM      7  O   UNL A   1      46.839  24.986  29.197  1.00  0.00    -0.246 OA
BRANCH   6   8
ATOM      8  C   UNL A   1      45.462  24.630  27.297  1.00  0.00     0.073 A 
ATOM      9  C   UNL A   1      45.864  25.505  26.273  1.00  0.00     0.022 A 
ATOM     10  C   UNL A   1      45.668  25.067  24.943  1.00  0.00     0.016 A 
ATOM     11  C   UNL A   1      45.012  23.866  24.636  1.00  0.00     0.001 A 
ATOM     12  C   UNL A   1      44.758  23.441  26.975  1.00  0.00     0.017 A 
ATOM     13  C   UNL A   1      44.524  23.066  25.656  1.00  0.00     0.001 A 
BRANCH   9  14
ATOM     14  S   UNL A   1      46.876  26.968  26.442  1.00  0.00    -0.119 SA
BRANCH  14  15
ATOM     15  C   UNL A   1      45.862  28.370  27.047  1.00  0.00     0.131 C 
BRANCH  15  16
ATOM     16  C   UNL A   1      45.867  28.790  28.497  1.00  0.00     0.060 A 
ATOM     17  C   UNL A   1      44.643  32.652  32.730  1.00  0.00     0.117 A 
ATOM     18  N   UNL A   1      45.947  31.765  32.813  1.00  0.00    -0.156 NA
ATOM     19  S   UNL A   1      43.198  32.098  31.024  1.00  0.00    -0.079 S 
ATOM     20  N   UNL A   1      45.965  30.279  31.530  1.00  0.00    -0.167 N 
ATOM     21  C   UNL A   1      44.638  30.545  30.229  1.00  0.00     0.215 A 
ATOM     22  C   UNL A   1      47.132  28.793  31.338  1.00  0.00     0.275 A 
ATOM     23  N   UNL A   1      44.696  29.963  28.923  1.00  0.00    -0.223 NA
ATOM     24  O   UNL A   1      48.032  28.290  32.013  1.00  0.00    -0.267 OA
ATOM     25  C   UNL A   1      46.962  28.200  29.428  1.00  0.00     0.098 A 
BRANCH  17  26
ATOM     26  C   UNL A   1      44.089  33.682  33.678  1.00  0.00     0.069 C 
BRANCH  26  27
ATOM     27  C   UNL A   1      43.067  33.193  34.696  1.00  0.00     0.004 C 
ATOM     28  C   UNL A   1      42.917  34.114  35.897  1.00  0.00     0.004 C 
ENDBRANCH  26  27
ENDBRANCH  17  26
ENDBRANCH  15  16
ENDBRANCH  14  15
ENDBRANCH   9  14
ENDBRANCH   6   8
ENDBRANCH   5   6
ENDBRANCH   4   5
ENDBRANCH   3   4
ENDBRANCH   2   3
ENDBRANCH   1   2
BRANCH   1  29
ATOM     29  C   UNL A   1      44.817  22.250  34.750  1.00  0.00     0.188 C 
BRANCH  29  30
ATOM     30  O   UNL A   1      45.760  21.243  35.483  1.00  0.00    -0.377 OA
BRANCH  30  31
ATOM     31  C   UNL A   1      45.956  19.441  36.382  1.00  0.00     0.188 C 
BRANCH  31  32
ATOM     32  C   UNL A   1      47.097  19.527  37.953  1.00  0.00     0.188 C 
BRANCH  32  33
ATOM     33  O   UNL A   1      48.047  20.931  38.239  1.00  0.00    -0.376 OA
BRANCH  33  34
ATOM     34  C   UNL A   1      47.486  22.536  38.076  1.00  0.00     0.202 C 
BRANCH  34  35
ATOM     35  C   UNL A   1      48.591  23.790  37.120  1.00  0.00     0.261 C 
BRANCH  35  36
ATOM     36  O   UNL A   1      47.630  25.623  37.027  1.00  0.00    -0.460 OA
BRANCH  36  37
ATOM     37  C   UNL A   1      46.464  26.459  37.251  1.00  0.00     0.338 C 
ATOM     38  O   UNL A   1      46.190  27.070  38.283  1.00  0.00    -0.246 OA
BRANCH  37  39
ATOM     39  C   UNL A   1      45.545  26.726  36.135  1.00  0.00     0.060 A 
ATOM     40  C   UNL A   1      45.817  27.874  35.366  1.00  0.00     0.016 A 
ATOM     41  C   UNL A   1      44.331  26.062  36.003  1.00  0.00     0.016 A 
ATOM     42  C   UNL A   1      44.896  28.349  34.447  1.00  0.00     0.010 A 
ATOM     43  C   UNL A   1      43.386  26.560  35.097  1.00  0.00     0.010 A 
ATOM     44  C   UNL A   1      43.658  27.714  34.337  1.00  0.00    -0.014 A 
BRANCH  44  45
ATOM     45  C   UNL A   1      42.604  28.366  33.532  1.00  0.00     0.031 A 
ATOM     46  C   UNL A   1      41.692  29.359  34.192  1.00  0.00     0.074 A 
ATOM     47  C   UNL A   1      42.513  28.113  32.217  1.00  0.00     0.049 A 
ATOM     48  N   UNL A   1      40.679  30.014  33.691  1.00  0.00    -0.248 NA
ATOM     49  C   UNL A   1      41.963  29.654  35.609  1.00  0.00     0.031 C 
ATOM     50  C   UNL A   1      43.398  27.222  31.468  1.00  0.00     0.029 A 
ATOM     51  N   UNL A   1      41.628  28.580  31.281  1.00  0.00    -0.354 N 
ATOM     52  C   UNL A   1      40.182  30.790  34.730  1.00  0.00     0.074 A 
ATOM     53  C   UNL A   1      40.991  30.507  35.896  1.00  0.00     0.031 C 
ATOM     54  C   UNL A   1      42.997  27.190  30.186  1.00  0.00     0.029 A 
ATOM     55  C   UNL A   1      41.810  28.027  30.037  1.00  0.00     0.049 A 
ATOM     56  H   UNL A   1      40.931  29.246  31.480  1.00  0.00     0.167 HD
ATOM     57  C   UNL A   1      39.145  31.660  34.709  1.00  0.00     0.037 A 
ATOM     58  C   UNL A   1      41.076  28.165  28.917  1.00  0.00     0.037 A 
ATOM     59  C   UNL A   1      38.344  31.921  33.541  1.00  0.00     0.049 A 
ATOM     60  C   UNL A   1      39.878  29.074  28.938  1.00  0.00     0.074 A 
ATOM     61  C   UNL A   1      37.265  32.778  33.406  1.00  0.00     0.029 A 
ATOM     62  N   UNL A   1      38.532  31.318  32.306  1.00  0.00    -0.354 N 
ATOM     63  N   UNL A   1      39.411  29.804  29.923  1.00  0.00    -0.248 NA
ATOM     64  C   UNL A   1      39.108  29.184  27.692  1.00  0.00     0.031 C 
ATOM     65  C   UNL A   1      36.770  32.653  32.103  1.00  0.00     0.029 A 
ATOM     66  C   UNL A   1      37.576  31.764  31.408  1.00  0.00     0.049 A 
ATOM     67  H   UNL A   1      39.242  30.667  32.098  1.00  0.00     0.167 HD
ATOM     68  C   UNL A   1      38.311  30.480  29.411  1.00  0.00     0.074 A 
ATOM     69  C   UNL A   1      38.190  30.081  28.023  1.00  0.00     0.031 C 
ATOM     70  C   UNL A   1      37.479  31.354  30.029  1.00  0.00     0.037 A 
BRANCH  57  71
ATOM     71  C   UNL A   1      38.796  32.352  35.996  1.00  0.00     0.057 A 
ATOM     72  C   UNL A   1      39.155  33.682  36.248  1.00  0.00     0.134 A 
ATOM     73  C   UNL A   1      38.085  31.676  36.997  1.00  0.00     0.134 A 
ATOM     74  F   UNL A   1      39.851  34.383  35.340  1.00  0.00    -0.206 F 
ATOM     75  C   UNL A   1      38.846  34.306  37.458  1.00  0.00     0.040 A 
ATOM     76  C   UNL A   1      37.746  32.298  38.200  1.00  0.00     0.040 A 
ATOM     77  F   UNL A   1      37.707  30.401  36.823  1.00  0.00    -0.206 F 
ATOM     78  C   UNL A   1      38.134  33.615  38.437  1.00  0.00     0.006 A 
ENDBRANCH  57  71
BRANCH  58  79
ATOM     79  C   UNL A   1      41.448  27.408  27.695  1.00  0.00     0.057 A 
ATOM     80  C   UNL A   1      41.108  26.060  27.543  1.00  0.00     0.134 A 
ATOM     81  C   UNL A   1      42.148  28.018  26.646  1.00  0.00     0.134 A 
ATOM     82  F   UNL A   1      40.454  25.414  28.520  1.00  0.00    -0.206 F 
ATOM     83  C   UNL A   1      41.460  25.341  26.399  1.00  0.00     0.040 A 
ATOM     84  C   UNL A   1      42.483  27.320  25.485  1.00  0.00     0.040 A 
ATOM     85  F   UNL A   1      42.499  29.310  26.727  1.00  0.00    -0.206 F 
ATOM     86  C   UNL A   1      42.144  25.974  25.363  1.00  0.00     0.006 A 
ENDBRANCH  58  79
BRANCH  70  87
ATOM     87  C   UNL A   1      36.390  31.968  29.197  1.00  0.00     0.057 A 
ATOM     88  C   UNL A   1      35.257  31.245  28.807  1.00  0.00     0.134 A 
ATOM     89  C   UNL A   1      36.462  33.314  28.817  1.00  0.00     0.134 A 
ATOM     90  F   UNL A   1      35.133  29.948  29.128  1.00  0.00    -0.206 F 
ATOM     91  C   UNL A   1      34.244  31.832  28.046  1.00  0.00     0.040 A 
ATOM     92  C   UNL A   1      35.442  33.920  28.082  1.00  0.00     0.040 A 
ATOM     93  F   UNL A   1      37.516  34.067  29.167  1.00  0.00    -0.206 F 
ATOM     94  C   UNL A   1      34.333  33.176  27.688  1.00  0.00     0.006 A 
ENDBRANCH  70  87
ENDBRANCH  44  45
ENDBRANCH  37  39
ENDBRANCH  36  37
ENDBRANCH  35  36
ENDBRANCH  34  35
ENDBRANCH  33  34
ENDBRANCH  32  33
ENDBRANCH  31  32
ENDBRANCH  30  31
ENDBRANCH  29  30
ENDBRANCH   1  29
TORSDOF 25
ENDMDL
MODEL 3
REMARK VINA RESULT:      -9.0      5.638     11.083
REMARK SMILES CCCc1nn2c(=O)cc(CSc3ccccc3C(=O)OCCOCCOCCOCCOC(=O)c3ccc(-c4c5nc(c(-c6c(F)cccc6F)c6ccc([nH]6)c(-c6c(F)cccc6F)c6nc(c(-c7c(F)cccc7F)c7ccc4[nH]7)C=C6)C=C5)cc3)nc2s1
REMARK SMILES IDX 25 1 24 2 23 3 22 4 21 5 19 6 20 7 18 8 13 9 14 10 15 11
REMARK SMILES IDX 17 12 16 13 12 14 11 15 10 16 4 17 5 18 92 19 6 20 91 21
REMARK SMILES IDX 7 22 90 23 8 24 9 25 3 26 2 27 1 28 26 29 27 30 28 31 29 32
REMARK SMILES IDX 30 33 31 34 32 35 33 36 34 37 35 38 36 39 37 40 89 41 38 42
REMARK SMILES IDX 88 43 39 44 40 45 41 46 82 47 42 48 87 49 81 50 83 51 43 52
REMARK SMILES IDX 86 53 80 54 79 55 44 57 70 58 53 59 69 60 54 61 57 62 68 63
REMARK SMILES IDX 84 64 55 65 56 66 67 68 85 69 58 70 45 71 46 72 51 73 47 74
REMARK SMILES IDX 48 75 50 76 52 77 49 78 71 79 72 80 77 81 73 82 74 83 76 84
REMARK SMILES IDX 78 85 75 86 59 87 60 88 65 89 61 90 62 91 64 92 66 93 63 94
REMARK H PARENT 83 56 57 67
REMARK Flexibility Score: inf
ROOT
ATOM      1  C   UNL A   1      43.741  20.423  25.027  1.00  0.00     0.188 C 
ENDROOT
BRANCH   1   2
ATOM      2  O   UNL A   1      43.030  20.587  26.247  1.00  0.00    -0.376 OA
BRANCH   2   3
ATOM      3  C   UNL A   1      41.875  21.425  26.267  1.00  0.00     0.202 C 
BRANCH   3   4
ATOM      4  C   UNL A   1      42.258  22.825  25.725  1.00  0.00     0.261 C 
BRANCH   4   5
ATOM      5  O   UNL A   1      41.853  23.842  26.669  1.00  0.00    -0.460 OA
BRANCH   5   6
ATOM      6  C   UNL A   1      42.241  25.086  26.289  1.00  0.00     0.339 C 
ATOM      7  O   UNL A   1      41.956  25.613  25.220  1.00  0.00    -0.246 OA
BRANCH   6   8
ATOM      8  C   UNL A   1      42.784  25.866  27.431  1.00  0.00     0.073 A 
ATOM      9  C   UNL A   1      42.204  27.001  28.022  1.00  0.00     0.022 A 
ATOM     10  C   UNL A   1      42.802  27.482  29.210  1.00  0.00     0.016 A 
ATOM     11  C   UNL A   1      43.980  26.929  29.734  1.00  0.00     0.001 A 
ATOM     12  C   UNL A   1      44.000  25.345  27.944  1.00  0.00     0.017 A 
ATOM     13  C   UNL A   1      44.601  25.878  29.079  1.00  0.00     0.001 A 
BRANCH   9  14
ATOM     14  S   UNL A   1      40.619  27.728  27.632  1.00  0.00    -0.119 SA
BRANCH  14  15
ATOM     15  C   UNL A   1      40.407  29.306  28.541  1.00  0.00     0.131 C 
BRANCH  15  16
ATOM     16  C   UNL A   1      39.221  29.553  29.442  1.00  0.00     0.060 A 
ATOM     17  C   UNL A   1      35.151  33.101  31.716  1.00  0.00     0.117 A 
ATOM     18  N   UNL A   1      35.782  31.948  32.591  1.00  0.00    -0.156 NA
ATOM     19  S   UNL A   1      35.739  33.065  29.489  1.00  0.00    -0.079 S 
ATOM     20  N   UNL A   1      36.809  30.644  31.544  1.00  0.00    -0.167 N 
ATOM     21  C   UNL A   1      37.154  31.333  29.831  1.00  0.00     0.215 A 
ATOM     22  C   UNL A   1      37.573  28.970  32.014  1.00  0.00     0.275 A 
ATOM     23  N   UNL A   1      38.251  30.898  29.021  1.00  0.00    -0.223 NA
ATOM     24  O   UNL A   1      37.500  28.213  32.983  1.00  0.00    -0.267 OA
ATOM     25  C   UNL A   1      39.042  28.641  30.687  1.00  0.00     0.098 A 
BRANCH  17  26
ATOM     26  C   UNL A   1      34.087  34.117  32.041  1.00  0.00     0.069 C 
BRANCH  26  27
ATOM     27  C   UNL A   1      34.415  35.122  33.136  1.00  0.00     0.004 C 
ATOM     28  C   UNL A   1      35.564  34.690  34.033  1.00  0.00     0.004 C 
ENDBRANCH  26  27
ENDBRANCH  17  26
ENDBRANCH  15  16
ENDBRANCH  14  15
ENDBRANCH   9  14
ENDBRANCH   6   8
ENDBRANCH   5   6
ENDBRANCH   4   5
ENDBRANCH   3   4
ENDBRANCH   2   3
ENDBRANCH   1   2
BRANCH   1  29
ATOM     29  C   UNL A   1      45.285  20.755  25.094  1.00  0.00     0.188 C 
BRANCH  29  30
ATOM     30  O   UNL A   1      46.092  21.781  25.954  1.00  0.00    -0.377 OA
BRANCH  30  31
ATOM     31  C   UNL A   1      46.565  23.719  26.292  1.00  0.00     0.188 C 
BRANCH  31  32
ATOM     32  C   UNL A   1      45.800  24.903  24.953  1.00  0.00     0.188 C 
BRANCH  32  33
ATOM     33  O   UNL A   1      46.717  26.237  24.374  1.00  0.00    -0.376 OA
BRANCH  33  34
ATOM     34  C   UNL A   1      48.322  26.139  23.798  1.00  0.00     0.202 C 
BRANCH  34  35
ATOM     35  C   UNL A   1      49.748  26.609  25.003  1.00  0.00     0.261 C 
BRANCH  35  36
ATOM     36  O   UNL A   1      49.154  26.232  26.952  1.00  0.00    -0.460 OA
BRANCH  36  37
ATOM     37  C   UNL A   1      48.226  26.410  28.055  1.00  0.00     0.338 C 
ATOM     38  O   UNL A   1      47.991  25.600  28.950  1.00  0.00    -0.246 OA
BRANCH  37  39
ATOM     39  C   UNL A   1      47.556  27.707  28.229  1.00  0.00     0.060 A 
ATOM     40  C   UNL A   1      47.054  28.309  27.059  1.00  0.00     0.016 A 
ATOM     41  C   UNL A   1      47.648  28.433  29.411  1.00  0.00     0.016 A 
ATOM     42  C   UNL A   1      46.618  29.624  27.068  1.00  0.00     0.010 A 
ATOM     43  C   UNL A   1      47.238  29.772  29.412  1.00  0.00     0.010 A 
ATOM     44  C   UNL A   1      46.744  30.374  28.238  1.00  0.00    -0.014 A 
BRANCH  44  45
ATOM     45  C   UNL A   1      46.498  31.829  28.169  1.00  0.00     0.031 A 
ATOM     46  C   UNL A   1      47.571  32.724  27.620  1.00  0.00     0.074 A 
ATOM     47  C   UNL A   1      45.306  32.325  28.536  1.00  0.00     0.049 A 
ATOM     48  N   UNL A   1      47.586  34.026  27.507  1.00  0.00    -0.248 NA
ATOM     49  C   UNL A   1      48.789  32.060  27.129  1.00  0.00     0.031 C 
ATOM     50  C   UNL A   1      44.174  31.531  29.012  1.00  0.00     0.029 A 
ATOM     51  N   UNL A   1      44.853  33.618  28.571  1.00  0.00    -0.354 N 
ATOM     52  C   UNL A   1      48.817  34.341  26.945  1.00  0.00     0.074 A 
ATOM     53  C   UNL A   1      49.530  33.095  26.761  1.00  0.00     0.031 C 
ATOM     54  C   UNL A   1      43.159  32.358  29.312  1.00  0.00     0.029 A 
ATOM     55  C   UNL A   1      43.585  33.736  29.084  1.00  0.00     0.049 A 
ATOM     56  H   UNL A   1      45.384  34.385  28.258  1.00  0.00     0.167 HD
ATOM     57  C   UNL A   1      49.303  35.560  26.613  1.00  0.00     0.037 A 
ATOM     58  C   UNL A   1      42.867  34.841  29.363  1.00  0.00     0.037 A 
ATOM     59  C   UNL A   1      48.583  36.790  26.814  1.00  0.00     0.049 A 
ATOM     60  C   UNL A   1      43.461  36.189  29.062  1.00  0.00     0.074 A 
ATOM     61  C   UNL A   1      48.980  38.083  26.521  1.00  0.00     0.029 A 
ATOM     62  N   UNL A   1      47.314  36.878  27.369  1.00  0.00    -0.354 N 
ATOM     63  N   UNL A   1      44.625  36.482  28.533  1.00  0.00    -0.248 NA
ATOM     64  C   UNL A   1      42.639  37.362  29.391  1.00  0.00     0.031 C 
ATOM     65  C   UNL A   1      47.973  38.956  26.947  1.00  0.00     0.029 A 
ATOM     66  C   UNL A   1      46.922  38.204  27.450  1.00  0.00     0.049 A 
ATOM     67  H   UNL A   1      46.772  36.110  27.663  1.00  0.00     0.167 HD
ATOM     68  C   UNL A   1      44.667  37.867  28.440  1.00  0.00     0.074 A 
ATOM     69  C   UNL A   1      43.404  38.355  28.956  1.00  0.00     0.031 C 
ATOM     70  C   UNL A   1      45.657  38.664  27.967  1.00  0.00     0.037 A 
BRANCH  57  71
ATOM     71  C   UNL A   1      50.692  35.618  26.044  1.00  0.00     0.057 A 
ATOM     72  C   UNL A   1      51.831  35.439  26.840  1.00  0.00     0.134 A 
ATOM     73  C   UNL A   1      50.891  35.851  24.677  1.00  0.00     0.134 A 
ATOM     74  F   UNL A   1      51.713  35.228  28.159  1.00  0.00    -0.206 F 
ATOM     75  C   UNL A   1      53.118  35.519  26.303  1.00  0.00     0.040 A 
ATOM     76  C   UNL A   1      52.172  35.905  24.124  1.00  0.00     0.040 A 
ATOM     77  F   UNL A   1      49.847  36.029  23.855  1.00  0.00    -0.206 F 
ATOM     78  C   UNL A   1      53.291  35.748  24.938  1.00  0.00     0.006 A 
ENDBRANCH  57  71
BRANCH  58  79
ATOM     79  C   UNL A   1      41.522  34.710  29.976  1.00  0.00     0.057 A 
ATOM     80  C   UNL A   1      40.358  34.893  29.221  1.00  0.00     0.134 A 
ATOM     81  C   UNL A   1      41.367  34.393  31.332  1.00  0.00     0.134 A 
ATOM     82  F   UNL A   1      40.440  35.216  27.922  1.00  0.00    -0.206 F 
ATOM     83  C   UNL A   1      39.090  34.777  29.793  1.00  0.00     0.040 A 
ATOM     84  C   UNL A   1      40.106  34.247  31.911  1.00  0.00     0.040 A 
ATOM     85  F   UNL A   1      42.443  34.200  32.109  1.00  0.00    -0.206 F 
ATOM     86  C   UNL A   1      38.962  34.446  31.141  1.00  0.00     0.006 A 
ENDBRANCH  58  79
BRANCH  70  87
ATOM     87  C   UNL A   1      45.395  40.143  27.949  1.00  0.00     0.057 A 
ATOM     88  C   UNL A   1      45.796  40.980  28.996  1.00  0.00     0.134 A 
ATOM     89  C   UNL A   1      44.767  40.739  26.847  1.00  0.00     0.134 A 
ATOM     90  F   UNL A   1      46.391  40.470  30.086  1.00  0.00    -0.206 F 
ATOM     91  C   UNL A   1      45.561  42.356  28.961  1.00  0.00     0.040 A 
ATOM     92  C   UNL A   1      44.554  42.116  26.787  1.00  0.00     0.040 A 
ATOM     93  F   UNL A   1      44.367  39.995  25.805  1.00  0.00    -0.206 F 
ATOM     94  C   UNL A   1      44.944  42.928  27.850  1.00  0.00     0.006 A 
ENDBRANCH  70  87
ENDBRANCH  44  45
ENDBRANCH  37  39
ENDBRANCH  36  37
ENDBRANCH  35  36
ENDBRANCH  34  35
ENDBRANCH  33  34
ENDBRANCH  32  33
ENDBRANCH  31  32
ENDBRANCH  30  31
ENDBRANCH  29  30
ENDBRANCH   1  29
TORSDOF 25
ENDMDL
