MODEL 1
REMARK VINA RESULT:     -12.3      0.000      0.000
REMARK SMILES O=C(OCCOCCOCCOCCOC(=O)c1ccccc1C(=O)Nc1ccc(N2C(=O)[C@H]3[C@@H]4CC[C@@H](C4)[C@@H]3C2=O)cc1)c1ccc(-c2c3nc(c(-c4c(F)cccc4F)c4ccc([nH]4)c(-c4c(F)cccc4F)c4nc(c(-c5c(F)cccc5F)c5ccc2[nH]5)C=C4)C=C3)cc1
REMARK SMILES IDX 10 1 9 2 8 3 7 4 6 5 5 6 4 7 3 8 2 9 1 10 45 11 46 12 98 13
REMARK SMILES IDX 47 14 97 15 48 16 49 17 50 18 91 19 51 20 96 21 90 22 92 23
REMARK SMILES IDX 52 24 95 25 89 26 88 27 53 29 79 30 62 31 78 32 63 33 66 34
REMARK SMILES IDX 77 35 93 36 64 37 65 38 76 40 94 41 67 42 54 43 55 44 60 45
REMARK SMILES IDX 56 46 57 47 59 48 61 49 58 50 80 51 81 52 86 53 82 54 83 55
REMARK SMILES IDX 85 56 87 57 84 58 68 59 69 60 74 61 70 62 71 63 73 64 75 65
REMARK SMILES IDX 72 66 11 67 12 68 13 69 14 70 15 71 16 72 17 73 18 74 19 75
REMARK SMILES IDX 23 76 20 77 22 78 21 79 24 80 25 81 26 82 27 84 28 85 44 86
REMARK SMILES IDX 29 87 43 88 30 89 31 90 32 91 41 92 33 93 34 94 40 95 42 96
REMARK SMILES IDX 35 97 38 98 36 99 39 100 37 101
REMARK H PARENT 92 28 66 39 26 83
REMARK Flexibility Score: inf
ROOT
ATOM      1  C   UNL A   1      33.737  27.170  24.480  1.00  0.00     0.188 C 
ENDROOT
BRANCH   1   2
ATOM      2  O   UNL A   1      33.596  28.292  25.383  1.00  0.00    -0.377 OA
BRANCH   2   3
ATOM      3  C   UNL A   1      33.090  29.584  25.018  1.00  0.00     0.188 C 
BRANCH   3   4
ATOM      4  C   UNL A   1      32.303  30.343  26.151  1.00  0.00     0.188 C 
BRANCH   4   5
ATOM      5  O   UNL A   1      31.117  31.053  25.795  1.00  0.00    -0.376 OA
BRANCH   5   6
ATOM      6  C   UNL A   1      31.038  32.387  26.270  1.00  0.00     0.202 C 
BRANCH   6   7
ATOM      7  C   UNL A   1      32.314  32.734  27.040  1.00  0.00     0.261 C 
BRANCH   7   8
ATOM      8  O   UNL A   1      32.163  34.001  27.722  1.00  0.00    -0.460 OA
BRANCH   8   9
ATOM      9  C   UNL A   1      33.056  34.568  28.569  1.00  0.00     0.338 C 
ATOM     10  O   UNL A   1      32.886  35.708  28.994  1.00  0.00    -0.246 OA
BRANCH   9  11
ATOM     11  C   UNL A   1      34.227  33.813  29.072  1.00  0.00     0.060 A 
ATOM     12  C   UNL A   1      34.093  32.536  29.589  1.00  0.00     0.016 A 
ATOM     13  C   UNL A   1      35.515  34.316  28.868  1.00  0.00     0.016 A 
ATOM     14  C   UNL A   1      35.225  31.833  30.034  1.00  0.00     0.010 A 
ATOM     15  C   UNL A   1      36.647  33.587  29.292  1.00  0.00     0.010 A 
ATOM     16  C   UNL A   1      36.526  32.364  29.974  1.00  0.00    -0.014 A 
BRANCH  16  17
ATOM     17  C   UNL A   1      37.707  31.759  30.724  1.00  0.00     0.031 A 
ATOM     18  C   UNL A   1      38.667  30.820  29.986  1.00  0.00     0.074 A 
ATOM     19  C   UNL A   1      38.087  32.108  31.978  1.00  0.00     0.049 A 
ATOM     20  N   UNL A   1      39.623  30.055  30.461  1.00  0.00    -0.248 NA
ATOM     21  C   UNL A   1      38.558  30.768  28.518  1.00  0.00     0.031 C 
ATOM     22  C   UNL A   1      37.444  33.104  32.830  1.00  0.00     0.029 A 
ATOM     23  N   UNL A   1      39.177  31.703  32.735  1.00  0.00    -0.354 N 
ATOM     24  C   UNL A   1      40.147  29.365  29.370  1.00  0.00     0.074 A 
ATOM     25  C   UNL A   1      39.435  29.827  28.201  1.00  0.00     0.031 C 
ATOM     26  C   UNL A   1      38.204  33.321  33.916  1.00  0.00     0.029 A 
ATOM     27  C   UNL A   1      39.315  32.375  33.932  1.00  0.00     0.049 A 
ATOM     28  H   UNL A   1      39.797  30.997  32.443  1.00  0.00     0.167 HD
ATOM     29  C   UNL A   1      41.127  28.429  29.328  1.00  0.00     0.037 A 
ATOM     30  C   UNL A   1      40.185  32.225  34.957  1.00  0.00     0.037 A 
ATOM     31  C   UNL A   1      41.947  28.028  30.439  1.00  0.00     0.049 A 
ATOM     32  C   UNL A   1      41.185  31.095  34.941  1.00  0.00     0.074 A 
ATOM     33  C   UNL A   1      42.926  27.047  30.478  1.00  0.00     0.029 A 
ATOM     34  N   UNL A   1      41.918  28.613  31.689  1.00  0.00    -0.354 N 
ATOM     35  N   UNL A   1      41.538  30.310  33.954  1.00  0.00    -0.248 NA
ATOM     36  C   UNL A   1      41.860  30.785  36.216  1.00  0.00     0.031 C 
ATOM     37  C   UNL A   1      43.464  27.014  31.769  1.00  0.00     0.029 A 
ATOM     38  C   UNL A   1      42.838  27.993  32.520  1.00  0.00     0.049 A 
ATOM     39  H   UNL A   1      41.333  29.359  31.952  1.00  0.00     0.167 HD
ATOM     40  C   UNL A   1      42.444  29.403  34.496  1.00  0.00     0.074 A 
ATOM     41  C   UNL A   1      42.639  29.766  35.880  1.00  0.00     0.031 C 
ATOM     42  C   UNL A   1      43.032  28.339  33.900  1.00  0.00     0.037 A 
BRANCH  29  43
ATOM     43  C   UNL A   1      41.324  27.694  28.038  1.00  0.00     0.057 A 
ATOM     44  C   UNL A   1      40.625  26.527  27.717  1.00  0.00     0.134 A 
ATOM     45  C   UNL A   1      42.195  28.219  27.073  1.00  0.00     0.134 A 
ATOM     46  F   UNL A   1      39.788  25.969  28.605  1.00  0.00    -0.206 F 
ATOM     47  C   UNL A   1      40.796  25.898  26.481  1.00  0.00     0.040 A 
ATOM     48  C   UNL A   1      42.360  27.611  25.829  1.00  0.00     0.040 A 
ATOM     49  F   UNL A   1      42.885  29.343  27.321  1.00  0.00    -0.206 F 
ATOM     50  C   UNL A   1      41.659  26.446  25.531  1.00  0.00     0.006 A 
ENDBRANCH  29  43
BRANCH  30  51
ATOM     51  C   UNL A   1      40.093  33.080  36.180  1.00  0.00     0.057 A 
ATOM     52  C   UNL A   1      39.181  32.791  37.205  1.00  0.00     0.134 A 
ATOM     53  C   UNL A   1      40.838  34.260  36.308  1.00  0.00     0.134 A 
ATOM     54  F   UNL A   1      38.388  31.711  37.121  1.00  0.00    -0.206 F 
ATOM     55  C   UNL A   1      39.010  33.643  38.299  1.00  0.00     0.040 A 
ATOM     56  C   UNL A   1      40.705  35.100  37.415  1.00  0.00     0.040 A 
ATOM     57  F   UNL A   1      41.702  34.625  35.349  1.00  0.00    -0.206 F 
ATOM     58  C   UNL A   1      39.781  34.798  38.411  1.00  0.00     0.006 A 
ENDBRANCH  30  51
BRANCH  42  59
ATOM     59  C   UNL A   1      43.905  27.454  34.738  1.00  0.00     0.057 A 
ATOM     60  C   UNL A   1      43.376  26.332  35.391  1.00  0.00     0.134 A 
ATOM     61  C   UNL A   1      45.284  27.672  34.844  1.00  0.00     0.134 A 
ATOM     62  F   UNL A   1      42.062  26.071  35.336  1.00  0.00    -0.206 F 
ATOM     63  C   UNL A   1      44.187  25.463  36.124  1.00  0.00     0.040 A 
ATOM     64  C   UNL A   1      46.108  26.800  35.559  1.00  0.00     0.040 A 
ATOM     65  F   UNL A   1      45.857  28.723  34.236  1.00  0.00    -0.206 F 
ATOM     66  C   UNL A   1      45.559  25.692  36.202  1.00  0.00     0.006 A 
ENDBRANCH  42  59
ENDBRANCH  16  17
ENDBRANCH   9  11
ENDBRANCH   8   9
ENDBRANCH   7   8
ENDBRANCH   6   7
ENDBRANCH   5   6
ENDBRANCH   4   5
ENDBRANCH   3   4
ENDBRANCH   2   3
ENDBRANCH   1   2
BRANCH   1  67
ATOM     67  C   UNL A   1      34.388  25.602  24.957  1.00  0.00     0.188 C 
BRANCH  67  68
ATOM     68  O   UNL A   1      34.991  25.035  26.309  1.00  0.00    -0.376 OA
BRANCH  68  69
ATOM     69  C   UNL A   1      35.393  23.530  26.866  1.00  0.00     0.202 C 
BRANCH  69  70
ATOM     70  C   UNL A   1      34.237  22.372  27.851  1.00  0.00     0.261 C 
BRANCH  70  71
ATOM     71  O   UNL A   1      32.270  22.217  27.274  1.00  0.00    -0.460 OA
BRANCH  71  72
ATOM     72  C   UNL A   1      31.248  22.647  26.275  1.00  0.00     0.339 C 
ATOM     73  O   UNL A   1      30.218  21.994  25.998  1.00  0.00    -0.246 OA
BRANCH  72  74
ATOM     74  C   UNL A   1      31.442  23.615  25.154  1.00  0.00     0.072 A 
ATOM     75  C   UNL A   1      31.089  24.936  25.626  1.00  0.00     0.016 A 
ATOM     76  C   UNL A   1      31.126  23.317  23.819  1.00  0.00     0.054 A 
ATOM     77  C   UNL A   1      30.328  25.849  24.901  1.00  0.00     0.001 A 
ATOM     78  C   UNL A   1      30.386  24.294  23.083  1.00  0.00     0.015 A 
ATOM     79  C   UNL A   1      29.952  25.513  23.624  1.00  0.00     0.001 A 
BRANCH  76  80
ATOM     80  C   UNL A   1      31.636  22.189  22.966  1.00  0.00     0.256 C 
ATOM     81  O   UNL A   1      30.820  21.656  22.204  1.00  0.00    -0.269 OA
ATOM     82  N   UNL A   1      32.942  21.772  22.852  1.00  0.00    -0.322 N 
ATOM     83  H   UNL A   1      33.144  21.182  22.090  1.00  0.00     0.170 HD
BRANCH  82  84
ATOM     84  C   UNL A   1      34.010  22.085  23.684  1.00  0.00     0.041 A 
ATOM     85  C   UNL A   1      34.479  20.773  24.771  1.00  0.00     0.028 A 
ATOM     86  C   UNL A   1      35.182  23.257  23.088  1.00  0.00     0.028 A 
ATOM     87  C   UNL A   1      36.158  20.486  25.233  1.00  0.00     0.029 A 
ATOM     88  C   UNL A   1      36.924  22.987  23.522  1.00  0.00     0.029 A 
ATOM     89  C   UNL A   1      37.435  21.584  24.702  1.00  0.00     0.052 A 
BRANCH  89  90
ATOM     90  N   UNL A   1      38.700  21.461  25.612  1.00  0.00    -0.250 N 
ATOM     91  C   UNL A   1      39.327  22.467  26.394  1.00  0.00     0.237 C 
ATOM     92  C   UNL A   1      39.486  20.325  25.851  1.00  0.00     0.237 C 
ATOM     93  O   UNL A   1      38.837  23.223  27.218  1.00  0.00    -0.274 OA
ATOM     94  C   UNL A   1      40.805  22.162  26.211  1.00  0.00     0.095 C 
ATOM     95  C   UNL A   1      40.643  20.761  26.716  1.00  0.00     0.095 C 
ATOM     96  O   UNL A   1      39.381  19.153  25.560  1.00  0.00    -0.274 OA
ATOM     97  C   UNL A   1      42.222  22.513  26.681  1.00  0.00     0.002 C 
ATOM     98  C   UNL A   1      42.077  20.267  26.838  1.00  0.00     0.002 C 
ATOM     99  C   UNL A   1      43.164  22.002  25.541  1.00  0.00     0.005 C 
ATOM    100  C   UNL A   1      42.591  21.436  27.710  1.00  0.00     0.009 C 
ATOM    101  C   UNL A   1      42.911  20.471  25.559  1.00  0.00     0.005 C 
ENDBRANCH  89  90
ENDBRANCH  82  84
ENDBRANCH  76  80
ENDBRANCH  72  74
ENDBRANCH  71  72
ENDBRANCH  70  71
ENDBRANCH  69  70
ENDBRANCH  68  69
ENDBRANCH  67  68
ENDBRANCH   1  67
TORSDOF 23
ENDMDL
MODEL 2
REMARK VINA RESULT:     -12.3      0.857      5.710
REMARK SMILES O=C(OCCOCCOCCOCCOC(=O)c1ccccc1C(=O)Nc1ccc(N2C(=O)[C@H]3[C@@H]4CC[C@@H](C4)[C@@H]3C2=O)cc1)c1ccc(-c2c3nc(c(-c4c(F)cccc4F)c4ccc([nH]4)c(-c4c(F)cccc4F)c4nc(c(-c5c(F)cccc5F)c5ccc2[nH]5)C=C4)C=C3)cc1
REMARK SMILES IDX 10 1 9 2 8 3 7 4 6 5 5 6 4 7 3 8 2 9 1 10 45 11 46 12 98 13
REMARK SMILES IDX 47 14 97 15 48 16 49 17 50 18 91 19 51 20 96 21 90 22 92 23
REMARK SMILES IDX 52 24 95 25 89 26 88 27 53 29 79 30 62 31 78 32 63 33 66 34
REMARK SMILES IDX 77 35 93 36 64 37 65 38 76 40 94 41 67 42 54 43 55 44 60 45
REMARK SMILES IDX 56 46 57 47 59 48 61 49 58 50 80 51 81 52 86 53 82 54 83 55
REMARK SMILES IDX 85 56 87 57 84 58 68 59 69 60 74 61 70 62 71 63 73 64 75 65
REMARK SMILES IDX 72 66 11 67 12 68 13 69 14 70 15 71 16 72 17 73 18 74 19 75
REMARK SMILES IDX 23 76 20 77 22 78 21 79 24 80 25 81 26 82 27 84 28 85 44 86
REMARK SMILES IDX 29 87 43 88 30 89 31 90 32 91 41 92 33 93 34 94 40 95 42 96
REMARK SMILES IDX 35 97 38 98 36 99 39 100 37 101
REMARK H PARENT 92 28 66 39 26 83
REMARK Flexibility Score: inf
ROOT
ATOM      1  C   UNL A   1      33.665  27.133  24.413  1.00  0.00     0.188 C 
ENDROOT
BRANCH   1   2
ATOM      2  O   UNL A   1      33.378  28.225  25.318  1.00  0.00    -0.377 OA
BRANCH   2   3
ATOM      3  C   UNL A   1      32.874  29.510  24.923  1.00  0.00     0.188 C 
BRANCH   3   4
ATOM      4  C   UNL A   1      31.927  30.210  25.968  1.00  0.00     0.188 C 
BRANCH   4   5
ATOM      5  O   UNL A   1      30.895  31.067  25.480  1.00  0.00    -0.376 OA
BRANCH   5   6
ATOM      6  C   UNL A   1      30.841  32.356  26.069  1.00  0.00     0.202 C 
BRANCH   6   7
ATOM      7  C   UNL A   1      32.131  32.617  26.850  1.00  0.00     0.261 C 
BRANCH   7   8
ATOM      8  O   UNL A   1      32.037  33.864  27.577  1.00  0.00    -0.460 OA
BRANCH   8   9
ATOM      9  C   UNL A   1      32.968  34.375  28.419  1.00  0.00     0.338 C 
ATOM     10  O   UNL A   1      32.795  35.460  28.967  1.00  0.00    -0.246 OA
BRANCH   9  11
ATOM     11  C   UNL A   1      34.191  33.615  28.767  1.00  0.00     0.060 A 
ATOM     12  C   UNL A   1      34.166  32.238  28.918  1.00  0.00     0.016 A 
ATOM     13  C   UNL A   1      35.430  34.261  28.775  1.00  0.00     0.016 A 
ATOM     14  C   UNL A   1      35.346  31.540  29.222  1.00  0.00     0.010 A 
ATOM     15  C   UNL A   1      36.614  33.543  29.052  1.00  0.00     0.010 A 
ATOM     16  C   UNL A   1      36.591  32.175  29.377  1.00  0.00    -0.014 A 
BRANCH  16  17
ATOM     17  C   UNL A   1      37.801  31.494  30.003  1.00  0.00     0.031 A 
ATOM     18  C   UNL A   1      38.035  31.612  31.512  1.00  0.00     0.074 A 
ATOM     19  C   UNL A   1      38.630  30.639  29.354  1.00  0.00     0.049 A 
ATOM     20  N   UNL A   1      39.082  31.273  32.229  1.00  0.00    -0.248 NA
ATOM     21  C   UNL A   1      36.926  32.146  32.323  1.00  0.00     0.031 C 
ATOM     22  C   UNL A   1      38.522  30.225  27.958  1.00  0.00     0.029 A 
ATOM     23  N   UNL A   1      39.703  29.894  29.820  1.00  0.00    -0.354 N 
ATOM     24  C   UNL A   1      38.795  31.647  33.540  1.00  0.00     0.074 A 
ATOM     25  C   UNL A   1      37.461  32.202  33.534  1.00  0.00     0.031 C 
ATOM     26  C   UNL A   1      39.391  29.228  27.719  1.00  0.00     0.029 A 
ATOM     27  C   UNL A   1      40.235  29.025  28.891  1.00  0.00     0.049 A 
ATOM     28  H   UNL A   1      40.054  29.980  30.736  1.00  0.00     0.167 HD
ATOM     29  C   UNL A   1      39.559  31.548  34.655  1.00  0.00     0.037 A 
ATOM     30  C   UNL A   1      41.307  28.200  28.935  1.00  0.00     0.037 A 
ATOM     31  C   UNL A   1      40.836  30.893  34.737  1.00  0.00     0.049 A 
ATOM     32  C   UNL A   1      42.213  28.202  30.142  1.00  0.00     0.074 A 
ATOM     33  C   UNL A   1      41.689  30.800  35.826  1.00  0.00     0.029 A 
ATOM     34  N   UNL A   1      41.423  30.183  33.709  1.00  0.00    -0.354 N 
ATOM     35  N   UNL A   1      42.023  28.730  31.325  1.00  0.00    -0.248 NA
ATOM     36  C   UNL A   1      43.527  27.546  29.989  1.00  0.00     0.031 C 
ATOM     37  C   UNL A   1      42.813  30.062  35.442  1.00  0.00     0.029 A 
ATOM     38  C   UNL A   1      42.643  29.676  34.124  1.00  0.00     0.049 A 
ATOM     39  H   UNL A   1      41.033  30.056  32.814  1.00  0.00     0.167 HD
ATOM     40  C   UNL A   1      43.195  28.496  32.038  1.00  0.00     0.074 A 
ATOM     41  C   UNL A   1      44.071  27.728  31.184  1.00  0.00     0.031 C 
ATOM     42  C   UNL A   1      43.526  28.920  33.281  1.00  0.00     0.037 A 
BRANCH  29  43
ATOM     43  C   UNL A   1      39.071  32.244  35.889  1.00  0.00     0.057 A 
ATOM     44  C   UNL A   1      39.354  33.585  36.164  1.00  0.00     0.134 A 
ATOM     45  C   UNL A   1      38.243  31.554  36.786  1.00  0.00     0.134 A 
ATOM     46  F   UNL A   1      40.151  34.292  35.351  1.00  0.00    -0.206 F 
ATOM     47  C   UNL A   1      38.837  34.215  37.299  1.00  0.00     0.040 A 
ATOM     48  C   UNL A   1      37.707  32.177  37.912  1.00  0.00     0.040 A 
ATOM     49  F   UNL A   1      37.929  30.268  36.568  1.00  0.00    -0.206 F 
ATOM     50  C   UNL A   1      38.005  33.512  38.171  1.00  0.00     0.006 A 
ENDBRANCH  29  43
BRANCH  30  51
ATOM     51  C   UNL A   1      41.694  27.372  27.753  1.00  0.00     0.057 A 
ATOM     52  C   UNL A   1      42.515  27.888  26.740  1.00  0.00     0.134 A 
ATOM     53  C   UNL A   1      41.173  26.087  27.553  1.00  0.00     0.134 A 
ATOM     54  F   UNL A   1      43.000  29.136  26.831  1.00  0.00    -0.206 F 
ATOM     55  C   UNL A   1      42.793  27.163  25.578  1.00  0.00     0.040 A 
ATOM     56  C   UNL A   1      41.474  25.336  26.416  1.00  0.00     0.040 A 
ATOM     57  F   UNL A   1      40.347  25.541  28.459  1.00  0.00    -0.206 F 
ATOM     58  C   UNL A   1      42.279  25.878  25.418  1.00  0.00     0.006 A 
ENDBRANCH  30  51
BRANCH  42  59
ATOM     59  C   UNL A   1      44.903  28.611  33.788  1.00  0.00     0.057 A 
ATOM     60  C   UNL A   1      45.927  29.566  33.714  1.00  0.00     0.134 A 
ATOM     61  C   UNL A   1      45.199  27.395  34.414  1.00  0.00     0.134 A 
ATOM     62  F   UNL A   1      45.711  30.749  33.120  1.00  0.00    -0.206 F 
ATOM     63  C   UNL A   1      47.197  29.317  34.238  1.00  0.00     0.040 A 
ATOM     64  C   UNL A   1      46.460  27.141  34.958  1.00  0.00     0.040 A 
ATOM     65  F   UNL A   1      44.261  26.441  34.527  1.00  0.00    -0.206 F 
ATOM     66  C   UNL A   1      47.464  28.105  34.870  1.00  0.00     0.006 A 
ENDBRANCH  42  59
ENDBRANCH  16  17
ENDBRANCH   9  11
ENDBRANCH   8   9
ENDBRANCH   7   8
ENDBRANCH   6   7
ENDBRANCH   5   6
ENDBRANCH   4   5
ENDBRANCH   3   4
ENDBRANCH   2   3
ENDBRANCH   1   2
BRANCH   1  67
ATOM     67  C   UNL A   1      34.427  25.622  24.910  1.00  0.00     0.188 C 
BRANCH  67  68
ATOM     68  O   UNL A   1      34.946  25.065  26.301  1.00  0.00    -0.376 OA
BRANCH  68  69
ATOM     69  C   UNL A   1      35.467  23.593  26.846  1.00  0.00     0.202 C 
BRANCH  69  70
ATOM     70  C   UNL A   1      34.388  22.307  27.755  1.00  0.00     0.261 C 
BRANCH  70  71
ATOM     71  O   UNL A   1      32.404  22.143  27.240  1.00  0.00    -0.460 OA
BRANCH  71  72
ATOM     72  C   UNL A   1      31.344  22.585  26.286  1.00  0.00     0.339 C 
ATOM     73  O   UNL A   1      30.315  21.925  26.024  1.00  0.00    -0.246 OA
BRANCH  72  74
ATOM     74  C   UNL A   1      31.489  23.586  25.187  1.00  0.00     0.072 A 
ATOM     75  C   UNL A   1      31.136  24.890  25.707  1.00  0.00     0.016 A 
ATOM     76  C   UNL A   1      31.131  23.322  23.855  1.00  0.00     0.054 A 
ATOM     77  C   UNL A   1      30.341  25.812  25.034  1.00  0.00     0.001 A 
ATOM     78  C   UNL A   1      30.355  24.309  23.172  1.00  0.00     0.015 A 
ATOM     79  C   UNL A   1      29.925  25.507  23.761  1.00  0.00     0.001 A 
BRANCH  76  80
ATOM     80  C   UNL A   1      31.626  22.224  22.954  1.00  0.00     0.256 C 
ATOM     81  O   UNL A   1      30.804  21.737  22.168  1.00  0.00    -0.269 OA
ATOM     82  N   UNL A   1      32.925  21.793  22.823  1.00  0.00    -0.322 N 
ATOM     83  H   UNL A   1      33.121  21.234  22.036  1.00  0.00     0.170 HD
BRANCH  82  84
ATOM     84  C   UNL A   1      33.997  22.054  23.669  1.00  0.00     0.041 A 
ATOM     85  C   UNL A   1      34.444  20.689  24.699  1.00  0.00     0.028 A 
ATOM     86  C   UNL A   1      35.188  23.232  23.125  1.00  0.00     0.028 A 
ATOM     87  C   UNL A   1      36.117  20.357  25.151  1.00  0.00     0.029 A 
ATOM     88  C   UNL A   1      36.925  22.915  23.549  1.00  0.00     0.029 A 
ATOM     89  C   UNL A   1      37.412  21.456  24.669  1.00  0.00     0.052 A 
BRANCH  89  90
ATOM     90  N   UNL A   1      38.673  21.274  25.574  1.00  0.00    -0.250 N 
ATOM     91  C   UNL A   1      39.367  22.256  26.330  1.00  0.00     0.237 C 
ATOM     92  C   UNL A   1      39.388  20.097  25.834  1.00  0.00     0.237 C 
ATOM     93  O   UNL A   1      38.931  23.059  27.139  1.00  0.00    -0.274 OA
ATOM     94  C   UNL A   1      40.821  21.855  26.146  1.00  0.00     0.095 C 
ATOM     95  C   UNL A   1      40.576  20.478  26.683  1.00  0.00     0.095 C 
ATOM     96  O   UNL A   1      39.208  18.927  25.571  1.00  0.00    -0.274 OA
ATOM     97  C   UNL A   1      42.261  22.126  26.600  1.00  0.00     0.002 C 
ATOM     98  C   UNL A   1      41.977  19.898  26.808  1.00  0.00     0.002 C 
ATOM     99  C   UNL A   1      43.161  21.532  25.466  1.00  0.00     0.005 C 
ATOM    100  C   UNL A   1      42.570  21.052  27.651  1.00  0.00     0.009 C 
ATOM    101  C   UNL A   1      42.814  20.021  25.521  1.00  0.00     0.005 C 
ENDBRANCH  89  90
ENDBRANCH  82  84
ENDBRANCH  76  80
ENDBRANCH  72  74
ENDBRANCH  71  72
ENDBRANCH  70  71
ENDBRANCH  69  70
ENDBRANCH  68  69
ENDBRANCH  67  68
ENDBRANCH   1  67
TORSDOF 23
ENDMDL
MODEL 3
REMARK VINA RESULT:     -11.8      4.072     11.825
REMARK SMILES O=C(OCCOCCOCCOCCOC(=O)c1ccccc1C(=O)Nc1ccc(N2C(=O)[C@H]3[C@@H]4CC[C@@H](C4)[C@@H]3C2=O)cc1)c1ccc(-c2c3nc(c(-c4c(F)cccc4F)c4ccc([nH]4)c(-c4c(F)cccc4F)c4nc(c(-c5c(F)cccc5F)c5ccc2[nH]5)C=C4)C=C3)cc1
REMARK SMILES IDX 10 1 9 2 8 3 7 4 6 5 5 6 4 7 3 8 2 9 1 10 45 11 46 12 98 13
REMARK SMILES IDX 47 14 97 15 48 16 49 17 50 18 91 19 51 20 96 21 90 22 92 23
REMARK SMILES IDX 52 24 95 25 89 26 88 27 53 29 79 30 62 31 78 32 63 33 66 34
REMARK SMILES IDX 77 35 93 36 64 37 65 38 76 40 94 41 67 42 54 43 55 44 60 45
REMARK SMILES IDX 56 46 57 47 59 48 61 49 58 50 80 51 81 52 86 53 82 54 83 55
REMARK SMILES IDX 85 56 87 57 84 58 68 59 69 60 74 61 70 62 71 63 73 64 75 65
REMARK SMILES IDX 72 66 11 67 12 68 13 69 14 70 15 71 16 72 17 73 18 74 19 75
REMARK SMILES IDX 23 76 20 77 22 78 21 79 24 80 25 81 26 82 27 84 28 85 44 86
REMARK SMILES IDX 29 87 43 88 30 89 31 90 32 91 41 92 33 93 34 94 40 95 42 96
REMARK SMILES IDX 35 97 38 98 36 99 39 100 37 101
REMARK H PARENT 92 28 66 39 26 83
REMARK Flexibility Score: inf
ROOT
ATOM      1  C   UNL A   1      33.399  28.299  25.664  1.00  0.00     0.188 C 
ENDROOT
BRANCH   1   2
ATOM      2  O   UNL A   1      32.430  27.228  25.763  1.00  0.00    -0.377 OA
BRANCH   2   3
ATOM      3  C   UNL A   1      32.549  25.949  25.124  1.00  0.00     0.188 C 
BRANCH   3   4
ATOM      4  C   UNL A   1      32.678  24.720  26.100  1.00  0.00     0.188 C 
BRANCH   4   5
ATOM      5  O   UNL A   1      33.913  24.005  26.132  1.00  0.00    -0.376 OA
BRANCH   5   6
ATOM      6  C   UNL A   1      33.836  22.635  25.774  1.00  0.00     0.202 C 
BRANCH   6   7
ATOM      7  C   UNL A   1      34.988  21.869  26.427  1.00  0.00     0.261 C 
BRANCH   7   8
ATOM      8  O   UNL A   1      35.949  21.454  25.429  1.00  0.00    -0.460 OA
BRANCH   8   9
ATOM      9  C   UNL A   1      37.256  21.165  25.644  1.00  0.00     0.338 C 
ATOM     10  O   UNL A   1      37.662  20.007  25.593  1.00  0.00    -0.246 OA
BRANCH   9  11
ATOM     11  C   UNL A   1      38.254  22.235  25.874  1.00  0.00     0.060 A 
ATOM     12  C   UNL A   1      39.521  21.949  26.353  1.00  0.00     0.016 A 
ATOM     13  C   UNL A   1      37.986  23.537  25.442  1.00  0.00     0.016 A 
ATOM     14  C   UNL A   1      40.455  22.981  26.538  1.00  0.00     0.010 A 
ATOM     15  C   UNL A   1      38.945  24.560  25.604  1.00  0.00     0.010 A 
ATOM     16  C   UNL A   1      40.174  24.328  26.245  1.00  0.00    -0.014 A 
BRANCH  16  17
ATOM     17  C   UNL A   1      41.045  25.483  26.722  1.00  0.00     0.031 A 
ATOM     18  C   UNL A   1      40.547  26.384  27.856  1.00  0.00     0.074 A 
ATOM     19  C   UNL A   1      42.326  25.700  26.330  1.00  0.00     0.049 A 
ATOM     20  N   UNL A   1      41.030  27.523  28.298  1.00  0.00    -0.248 NA
ATOM     21  C   UNL A   1      39.372  25.920  28.614  1.00  0.00     0.031 C 
ATOM     22  C   UNL A   1      43.091  24.884  25.391  1.00  0.00     0.029 A 
ATOM     23  N   UNL A   1      43.247  26.650  26.744  1.00  0.00    -0.354 N 
ATOM     24  C   UNL A   1      40.164  27.950  29.302  1.00  0.00     0.074 A 
ATOM     25  C   UNL A   1      39.146  26.933  29.437  1.00  0.00     0.031 C 
ATOM     26  C   UNL A   1      44.373  25.284  25.396  1.00  0.00     0.029 A 
ATOM     27  C   UNL A   1      44.509  26.484  26.215  1.00  0.00     0.049 A 
ATOM     28  H   UNL A   1      43.018  27.381  27.363  1.00  0.00     0.167 HD
ATOM     29  C   UNL A   1      40.196  29.081  30.049  1.00  0.00     0.037 A 
ATOM     30  C   UNL A   1      45.636  27.225  26.315  1.00  0.00     0.037 A 
ATOM     31  C   UNL A   1      41.251  30.058  30.040  1.00  0.00     0.049 A 
ATOM     32  C   UNL A   1      45.612  28.543  27.049  1.00  0.00     0.074 A 
ATOM     33  C   UNL A   1      41.323  31.255  30.736  1.00  0.00     0.029 A 
ATOM     34  N   UNL A   1      42.432  29.933  29.338  1.00  0.00    -0.354 N 
ATOM     35  N   UNL A   1      44.696  29.035  27.847  1.00  0.00    -0.248 NA
ATOM     36  C   UNL A   1      46.758  29.447  26.834  1.00  0.00     0.031 C 
ATOM     37  C   UNL A   1      42.538  31.873  30.423  1.00  0.00     0.029 A 
ATOM     38  C   UNL A   1      43.228  31.046  29.555  1.00  0.00     0.049 A 
ATOM     39  H   UNL A   1      42.674  29.168  28.767  1.00  0.00     0.167 HD
ATOM     40  C   UNL A   1      45.142  30.305  28.199  1.00  0.00     0.074 A 
ATOM     41  C   UNL A   1      46.435  30.492  27.582  1.00  0.00     0.031 C 
ATOM     42  C   UNL A   1      44.510  31.246  28.939  1.00  0.00     0.037 A 
BRANCH  29  43
ATOM     43  C   UNL A   1      39.000  29.379  30.900  1.00  0.00     0.057 A 
ATOM     44  C   UNL A   1      38.908  28.989  32.240  1.00  0.00     0.134 A 
ATOM     45  C   UNL A   1      37.945  30.132  30.366  1.00  0.00     0.134 A 
ATOM     46  F   UNL A   1      39.879  28.255  32.803  1.00  0.00    -0.206 F 
ATOM     47  C   UNL A   1      37.800  29.331  33.018  1.00  0.00     0.040 A 
ATOM     48  C   UNL A   1      36.842  30.494  31.138  1.00  0.00     0.040 A 
ATOM     49  F   UNL A   1      37.983  30.542  29.089  1.00  0.00    -0.206 F 
ATOM     50  C   UNL A   1      36.767  30.092  32.469  1.00  0.00     0.006 A 
ENDBRANCH  29  43
BRANCH  30  51
ATOM     51  C   UNL A   1      46.887  26.831  25.598  1.00  0.00     0.057 A 
ATOM     52  C   UNL A   1      47.859  26.031  26.215  1.00  0.00     0.134 A 
ATOM     53  C   UNL A   1      47.190  27.327  24.323  1.00  0.00     0.134 A 
ATOM     54  F   UNL A   1      47.667  25.572  27.461  1.00  0.00    -0.206 F 
ATOM     55  C   UNL A   1      49.080  25.748  25.596  1.00  0.00     0.040 A 
ATOM     56  C   UNL A   1      48.389  27.021  23.677  1.00  0.00     0.040 A 
ATOM     57  F   UNL A   1      46.328  28.133  23.685  1.00  0.00    -0.206 F 
ATOM     58  C   UNL A   1      49.344  26.236  24.319  1.00  0.00     0.006 A 
ENDBRANCH  30  51
BRANCH  42  59
ATOM     59  C   UNL A   1      45.172  32.583  29.094  1.00  0.00     0.057 A 
ATOM     60  C   UNL A   1      44.859  33.644  28.233  1.00  0.00     0.134 A 
ATOM     61  C   UNL A   1      46.066  32.843  30.138  1.00  0.00     0.134 A 
ATOM     62  F   UNL A   1      44.015  33.460  27.206  1.00  0.00    -0.206 F 
ATOM     63  C   UNL A   1      45.418  34.912  28.401  1.00  0.00     0.040 A 
ATOM     64  C   UNL A   1      46.618  34.112  30.329  1.00  0.00     0.040 A 
ATOM     65  F   UNL A   1      46.402  31.874  31.005  1.00  0.00    -0.206 F 
ATOM     66  C   UNL A   1      46.294  35.151  29.457  1.00  0.00     0.006 A 
ENDBRANCH  42  59
ENDBRANCH  16  17
ENDBRANCH   9  11
ENDBRANCH   8   9
ENDBRANCH   7   8
ENDBRANCH   6   7
ENDBRANCH   5   6
ENDBRANCH   4   5
ENDBRANCH   3   4
ENDBRANCH   2   3
ENDBRANCH   1   2
BRANCH   1  67
ATOM     67  C   UNL A   1      34.672  28.583  26.852  1.00  0.00     0.188 C 
BRANCH  67  68
ATOM     68  O   UNL A   1      35.272  29.890  27.518  1.00  0.00    -0.376 OA
BRANCH  68  69
ATOM     69  C   UNL A   1      34.748  31.448  27.707  1.00  0.00     0.202 C 
BRANCH  69  70
ATOM     70  C   UNL A   1      35.788  32.884  28.413  1.00  0.00     0.261 C 
BRANCH  70  71
ATOM     71  O   UNL A   1      34.832  34.375  29.457  1.00  0.00    -0.460 OA
BRANCH  71  72
ATOM     72  C   UNL A   1      33.516  34.870  29.959  1.00  0.00     0.339 C 
ATOM     73  O   UNL A   1      32.573  35.229  29.220  1.00  0.00    -0.246 OA
BRANCH  72  74
ATOM     74  C   UNL A   1      33.228  35.439  31.310  1.00  0.00     0.072 A 
ATOM     75  C   UNL A   1      32.903  36.841  31.154  1.00  0.00     0.016 A 
ATOM     76  C   UNL A   1      33.947  35.084  32.462  1.00  0.00     0.054 A 
ATOM     77  C   UNL A   1      33.388  37.853  31.977  1.00  0.00     0.001 A 
ATOM     78  C   UNL A   1      34.391  36.142  33.315  1.00  0.00     0.015 A 
ATOM     79  C   UNL A   1      34.161  37.500  33.055  1.00  0.00     0.001 A 
BRANCH  76  80
ATOM     80  C   UNL A   1      34.147  33.716  33.054  1.00  0.00     0.256 C 
ATOM     81  O   UNL A   1      33.149  32.989  33.124  1.00  0.00    -0.269 OA
ATOM     82  N   UNL A   1      35.346  33.143  33.410  1.00  0.00    -0.322 N 
ATOM     83  H   UNL A   1      35.334  32.171  33.565  1.00  0.00     0.170 HD
BRANCH  82  84
ATOM     84  C   UNL A   1      36.574  33.774  33.575  1.00  0.00     0.041 A 
ATOM     85  C   UNL A   1      37.199  33.700  35.227  1.00  0.00     0.028 A 
ATOM     86  C   UNL A   1      37.647  33.831  32.180  1.00  0.00     0.028 A 
ATOM     87  C   UNL A   1      38.924  33.563  35.576  1.00  0.00     0.029 A 
ATOM     88  C   UNL A   1      39.428  33.670  32.494  1.00  0.00     0.029 A 
ATOM     89  C   UNL A   1      40.110  33.603  34.269  1.00  0.00     0.052 A 
BRANCH  89  90
ATOM     90  N   UNL A   1      41.528  33.986  34.805  1.00  0.00    -0.250 N 
ATOM     91  C   UNL A   1      41.894  35.079  35.635  1.00  0.00     0.237 C 
ATOM     92  C   UNL A   1      42.744  33.325  34.581  1.00  0.00     0.237 C 
ATOM     93  O   UNL A   1      41.421  35.430  36.703  1.00  0.00    -0.274 OA
ATOM     94  C   UNL A   1      43.226  35.515  35.047  1.00  0.00     0.095 C 
ATOM     95  C   UNL A   1      43.825  34.154  35.231  1.00  0.00     0.095 C 
ATOM     96  O   UNL A   1      43.048  32.275  34.055  1.00  0.00    -0.274 OA
ATOM     97  C   UNL A   1      44.440  36.431  35.244  1.00  0.00     0.002 C 
ATOM     98  C   UNL A   1      45.293  34.371  34.898  1.00  0.00     0.002 C 
ATOM     99  C   UNL A   1      45.100  36.537  33.829  1.00  0.00     0.005 C 
ATOM    100  C   UNL A   1      45.523  35.546  35.876  1.00  0.00     0.009 C 
ATOM    101  C   UNL A   1      45.522  35.071  33.545  1.00  0.00     0.005 C 
ENDBRANCH  89  90
ENDBRANCH  82  84
ENDBRANCH  76  80
ENDBRANCH  72  74
ENDBRANCH  71  72
ENDBRANCH  70  71
ENDBRANCH  69  70
ENDBRANCH  68  69
ENDBRANCH  67  68
ENDBRANCH   1  67
TORSDOF 23
ENDMDL
