MODEL 1
REMARK VINA RESULT:     -10.5      0.000      0.000
REMARK SMILES Cc1cc(F)cc(N[C@@](C)(C(=O)OCCOCCOCCOCCOC(=O)c2ccc(-c3c4nc(c(-c5c(F)cccc5F)c5ccc([nH]5)c(-c5c(F)cccc5F)c5nc(c(-c6c(F)cccc6F)c6ccc3[nH]6)C=C5)C=C4)cc2)c2ccc(O)cc2)c1
REMARK SMILES IDX 19 1 18 2 17 3 16 4 15 5 14 6 13 7 11 8 12 9 9 10 10 11 8 12
REMARK SMILES IDX 7 14 1 15 2 16 3 17 89 18 4 19 5 20 6 21 82 22 83 23 88 24
REMARK SMILES IDX 84 25 87 26 85 27 86 28 20 30 21 31 22 32 23 33 24 34 25 35
REMARK SMILES IDX 26 36 27 37 28 38 29 39 81 40 30 41 80 42 31 43 32 44 33 45
REMARK SMILES IDX 74 46 34 47 79 48 73 49 75 50 35 51 78 52 72 53 71 54 36 56
REMARK SMILES IDX 62 57 45 58 61 59 46 60 49 61 60 62 76 63 47 64 48 65 59 67
REMARK SMILES IDX 77 68 50 69 37 70 38 71 43 72 39 73 40 74 42 75 44 76 41 77
REMARK SMILES IDX 63 78 64 79 69 80 65 81 66 82 68 83 70 84 67 85 51 86 52 87
REMARK SMILES IDX 57 88 53 89 54 90 56 91 58 92 55 93
REMARK H PARENT 8 13 86 29 75 55 49 66
REMARK Flexibility Score: inf
ROOT
ATOM      1  O   UNL A   1      40.312  22.218  27.617  1.00  0.00    -0.377 OA
ENDROOT
BRANCH   1   2
ATOM      2  C   UNL A   1      39.738  22.708  26.422  1.00  0.00     0.188 C 
BRANCH   2   3
ATOM      3  C   UNL A   1      38.692  23.823  26.600  1.00  0.00     0.188 C 
BRANCH   3   4
ATOM      4  O   UNL A   1      37.340  23.642  26.186  1.00  0.00    -0.376 OA
BRANCH   4   5
ATOM      5  C   UNL A   1      37.019  22.676  25.200  1.00  0.00     0.202 C 
BRANCH   5   6
ATOM      6  C   UNL A   1      36.276  23.102  23.914  1.00  0.00     0.261 C 
BRANCH   6   7
ATOM      7  O   UNL A   1      35.245  24.100  24.072  1.00  0.00    -0.461 OA
BRANCH   7   8
ATOM      8  C   UNL A   1      34.195  24.044  23.214  1.00  0.00     0.336 C 
ATOM      9  O   UNL A   1      34.212  23.332  22.208  1.00  0.00    -0.249 OA
BRANCH   8  10
ATOM     10  C   UNL A   1      32.971  24.988  23.584  1.00  0.00     0.158 C 
ATOM     11  C   UNL A   1      32.089  24.848  22.320  1.00  0.00     0.053 C 
BRANCH  10  12
ATOM     12  N   UNL A   1      33.310  26.466  23.660  1.00  0.00    -0.366 N 
ATOM     13  H   UNL A   1      34.258  26.650  23.473  1.00  0.00     0.162 HD
BRANCH  12  14
ATOM     14  C   UNL A   1      32.581  27.618  23.935  1.00  0.00     0.038 A 
ATOM     15  C   UNL A   1      29.726  29.653  22.300  1.00  0.00     0.044 C 
ATOM     16  C   UNL A   1      30.747  29.163  23.287  1.00  0.00    -0.046 A 
ATOM     17  C   UNL A   1      30.851  29.814  24.514  1.00  0.00     0.042 A 
ATOM     18  C   UNL A   1      31.587  28.053  23.025  1.00  0.00     0.029 A 
ATOM     19  C   UNL A   1      31.854  29.441  25.388  1.00  0.00     0.125 A 
ATOM     20  F   UNL A   1      31.988  30.095  26.549  1.00  0.00    -0.207 F 
ATOM     21  C   UNL A   1      32.733  28.401  25.080  1.00  0.00     0.065 A 
ENDBRANCH  12  14
ENDBRANCH  10  12
BRANCH  10  22
ATOM     22  C   UNL A   1      32.200  24.463  24.818  1.00  0.00    -0.011 A 
ATOM     23  C   UNL A   1      32.623  23.295  25.485  1.00  0.00     0.010 A 
ATOM     24  C   UNL A   1      31.001  25.058  25.270  1.00  0.00     0.010 A 
ATOM     25  C   UNL A   1      31.805  22.666  26.429  1.00  0.00     0.046 A 
ATOM     26  C   UNL A   1      30.212  24.463  26.258  1.00  0.00     0.046 A 
ATOM     27  C   UNL A   1      30.599  23.245  26.794  1.00  0.00     0.115 A 
BRANCH  27  28
ATOM     28  O   UNL A   1      29.799  22.575  27.671  1.00  0.00    -0.508 OA
ATOM     29  H   UNL A   1      30.081  22.443  28.554  1.00  0.00     0.293 HD
ENDBRANCH  27  28
ENDBRANCH  10  22
ENDBRANCH   8  10
ENDBRANCH   7   8
ENDBRANCH   6   7
ENDBRANCH   5   6
ENDBRANCH   4   5
ENDBRANCH   3   4
ENDBRANCH   2   3
ENDBRANCH   1   2
BRANCH   1  30
ATOM     30  C   UNL A   1      40.896  20.937  27.540  1.00  0.00     0.188 C 
BRANCH  30  31
ATOM     31  C   UNL A   1      41.165  20.391  26.129  1.00  0.00     0.188 C 
BRANCH  31  32
ATOM     32  O   UNL A   1      42.545  20.229  25.826  1.00  0.00    -0.376 OA
BRANCH  32  33
ATOM     33  C   UNL A   1      43.435  21.318  26.026  1.00  0.00     0.202 C 
BRANCH  33  34
ATOM     34  C   UNL A   1      43.920  22.110  24.799  1.00  0.00     0.261 C 
BRANCH  34  35
ATOM     35  O   UNL A   1      43.475  23.470  24.680  1.00  0.00    -0.460 OA
BRANCH  35  36
ATOM     36  C   UNL A   1      44.310  24.452  25.092  1.00  0.00     0.338 C 
ATOM     37  O   UNL A   1      45.414  24.701  24.669  1.00  0.00    -0.246 OA
BRANCH  36  38
ATOM     38  C   UNL A   1      43.546  25.322  26.020  1.00  0.00     0.060 A 
ATOM     39  C   UNL A   1      43.800  26.700  26.011  1.00  0.00     0.016 A 
ATOM     40  C   UNL A   1      42.571  24.791  26.868  1.00  0.00     0.016 A 
ATOM     41  C   UNL A   1      43.106  27.547  26.873  1.00  0.00     0.010 A 
ATOM     42  C   UNL A   1      41.898  25.637  27.755  1.00  0.00     0.010 A 
ATOM     43  C   UNL A   1      42.189  27.012  27.785  1.00  0.00    -0.014 A 
BRANCH  43  44
ATOM     44  C   UNL A   1      41.714  27.847  28.914  1.00  0.00     0.031 A 
ATOM     45  C   UNL A   1      42.455  27.758  30.220  1.00  0.00     0.074 A 
ATOM     46  C   UNL A   1      40.667  28.679  28.788  1.00  0.00     0.049 A 
ATOM     47  N   UNL A   1      42.209  28.346  31.362  1.00  0.00    -0.248 NA
ATOM     48  C   UNL A   1      43.632  26.875  30.237  1.00  0.00     0.031 C 
ATOM     49  C   UNL A   1      39.892  28.885  27.568  1.00  0.00     0.029 A 
ATOM     50  N   UNL A   1      40.068  29.497  29.714  1.00  0.00    -0.354 N 
ATOM     51  C   UNL A   1      43.188  27.893  32.235  1.00  0.00     0.074 A 
ATOM     52  C   UNL A   1      44.013  26.959  31.501  1.00  0.00     0.031 C 
ATOM     53  C   UNL A   1      38.902  29.756  27.826  1.00  0.00     0.029 A 
ATOM     54  C   UNL A   1      38.955  30.143  29.236  1.00  0.00     0.049 A 
ATOM     55  H   UNL A   1      40.404  29.609  30.632  1.00  0.00     0.167 HD
ATOM     56  C   UNL A   1      43.385  28.226  33.533  1.00  0.00     0.037 A 
ATOM     57  C   UNL A   1      38.066  30.930  29.872  1.00  0.00     0.037 A 
ATOM     58  C   UNL A   1      42.558  29.151  34.260  1.00  0.00     0.049 A 
ATOM     59  C   UNL A   1      38.264  31.243  31.333  1.00  0.00     0.074 A 
ATOM     60  C   UNL A   1      42.693  29.586  35.566  1.00  0.00     0.029 A 
ATOM     61  N   UNL A   1      41.426  29.770  33.747  1.00  0.00    -0.354 N 
ATOM     62  N   UNL A   1      39.215  30.843  32.143  1.00  0.00    -0.248 NA
ATOM     63  C   UNL A   1      37.269  32.121  31.965  1.00  0.00     0.031 C 
ATOM     64  C   UNL A   1      41.604  30.411  35.866  1.00  0.00     0.029 A 
ATOM     65  C   UNL A   1      40.829  30.550  34.724  1.00  0.00     0.049 A 
ATOM     66  H   UNL A   1      41.095  29.668  32.826  1.00  0.00     0.167 HD
ATOM     67  C   UNL A   1      38.948  31.438  33.372  1.00  0.00     0.074 A 
ATOM     68  C   UNL A   1      37.752  32.235  33.195  1.00  0.00     0.031 C 
ATOM     69  C   UNL A   1      39.635  31.337  34.538  1.00  0.00     0.037 A 
BRANCH  56  70
ATOM     70  C   UNL A   1      44.509  27.538  34.254  1.00  0.00     0.057 A 
ATOM     71  C   UNL A   1      45.805  28.068  34.305  1.00  0.00     0.134 A 
ATOM     72  C   UNL A   1      44.288  26.316  34.902  1.00  0.00     0.134 A 
ATOM     73  F   UNL A   1      46.091  29.227  33.691  1.00  0.00    -0.206 F 
ATOM     74  C   UNL A   1      46.848  27.389  34.938  1.00  0.00     0.040 A 
ATOM     75  C   UNL A   1      45.315  25.643  35.566  1.00  0.00     0.040 A 
ATOM     76  F   UNL A   1      43.071  25.751  34.897  1.00  0.00    -0.206 F 
ATOM     77  C   UNL A   1      46.603  26.174  35.574  1.00  0.00     0.006 A 
ENDBRANCH  56  70
BRANCH  57  78
ATOM     78  C   UNL A   1      36.895  31.461  29.129  1.00  0.00     0.057 A 
ATOM     79  C   UNL A   1      35.774  30.666  28.865  1.00  0.00     0.134 A 
ATOM     80  C   UNL A   1      36.866  32.786  28.676  1.00  0.00     0.134 A 
ATOM     81  F   UNL A   1      35.752  29.382  29.250  1.00  0.00    -0.206 F 
ATOM     82  C   UNL A   1      34.669  31.167  28.173  1.00  0.00     0.040 A 
ATOM     83  C   UNL A   1      35.758  33.308  28.008  1.00  0.00     0.040 A 
ATOM     84  F   UNL A   1      37.909  33.600  28.897  1.00  0.00    -0.206 F 
ATOM     85  C   UNL A   1      34.655  32.495  27.751  1.00  0.00     0.006 A 
ENDBRANCH  57  78
BRANCH  69  86
ATOM     86  C   UNL A   1      39.133  32.132  35.711  1.00  0.00     0.057 A 
ATOM     87  C   UNL A   1      39.452  33.485  35.886  1.00  0.00     0.134 A 
ATOM     88  C   UNL A   1      38.274  31.547  36.651  1.00  0.00     0.134 A 
ATOM     89  F   UNL A   1      40.276  34.106  35.029  1.00  0.00    -0.206 F 
ATOM     90  C   UNL A   1      38.956  34.218  36.967  1.00  0.00     0.040 A 
ATOM     91  C   UNL A   1      37.747  32.277  37.717  1.00  0.00     0.040 A 
ATOM     92  F   UNL A   1      37.917  30.258  36.538  1.00  0.00    -0.206 F 
ATOM     93  C   UNL A   1      38.094  33.616  37.882  1.00  0.00     0.006 A 
ENDBRANCH  69  86
ENDBRANCH  43  44
ENDBRANCH  36  38
ENDBRANCH  35  36
ENDBRANCH  34  35
ENDBRANCH  33  34
ENDBRANCH  32  33
ENDBRANCH  31  32
ENDBRANCH  30  31
ENDBRANCH   1  30
TORSDOF 24
ENDMDL
MODEL 2
REMARK VINA RESULT:     -10.0      0.645      5.851
REMARK SMILES Cc1cc(F)cc(N[C@@](C)(C(=O)OCCOCCOCCOCCOC(=O)c2ccc(-c3c4nc(c(-c5c(F)cccc5F)c5ccc([nH]5)c(-c5c(F)cccc5F)c5nc(c(-c6c(F)cccc6F)c6ccc3[nH]6)C=C5)C=C4)cc2)c2ccc(O)cc2)c1
REMARK SMILES IDX 19 1 18 2 17 3 16 4 15 5 14 6 13 7 11 8 12 9 9 10 10 11 8 12
REMARK SMILES IDX 7 14 1 15 2 16 3 17 89 18 4 19 5 20 6 21 82 22 83 23 88 24
REMARK SMILES IDX 84 25 87 26 85 27 86 28 20 30 21 31 22 32 23 33 24 34 25 35
REMARK SMILES IDX 26 36 27 37 28 38 29 39 81 40 30 41 80 42 31 43 32 44 33 45
REMARK SMILES IDX 74 46 34 47 79 48 73 49 75 50 35 51 78 52 72 53 71 54 36 56
REMARK SMILES IDX 62 57 45 58 61 59 46 60 49 61 60 62 76 63 47 64 48 65 59 67
REMARK SMILES IDX 77 68 50 69 37 70 38 71 43 72 39 73 40 74 42 75 44 76 41 77
REMARK SMILES IDX 63 78 64 79 69 80 65 81 66 82 68 83 70 84 67 85 51 86 52 87
REMARK SMILES IDX 57 88 53 89 54 90 56 91 58 92 55 93
REMARK H PARENT 8 13 86 29 75 55 49 66
REMARK Flexibility Score: inf
ROOT
ATOM      1  O   UNL A   1      40.290  22.276  27.346  1.00  0.00    -0.377 OA
ENDROOT
BRANCH   1   2
ATOM      2  C   UNL A   1      39.573  22.478  26.146  1.00  0.00     0.188 C 
BRANCH   2   3
ATOM      3  C   UNL A   1      38.365  23.427  26.250  1.00  0.00     0.188 C 
BRANCH   3   4
ATOM      4  O   UNL A   1      37.054  22.929  26.503  1.00  0.00    -0.376 OA
BRANCH   4   5
ATOM      5  C   UNL A   1      36.545  21.843  25.746  1.00  0.00     0.202 C 
BRANCH   5   6
ATOM      6  C   UNL A   1      35.592  22.107  24.559  1.00  0.00     0.261 C 
BRANCH   6   7
ATOM      7  O   UNL A   1      35.416  23.488  24.176  1.00  0.00    -0.461 OA
BRANCH   7   8
ATOM      8  C   UNL A   1      34.611  23.735  23.111  1.00  0.00     0.336 C 
ATOM      9  O   UNL A   1      34.879  23.322  21.982  1.00  0.00    -0.249 OA
BRANCH   8  10
ATOM     10  C   UNL A   1      33.331  24.624  23.426  1.00  0.00     0.158 C 
ATOM     11  C   UNL A   1      32.512  24.445  22.124  1.00  0.00     0.053 C 
BRANCH  10  12
ATOM     12  N   UNL A   1      33.599  26.115  23.514  1.00  0.00    -0.366 N 
ATOM     13  H   UNL A   1      34.538  26.346  23.325  1.00  0.00     0.162 HD
BRANCH  12  14
ATOM     14  C   UNL A   1      32.818  27.229  23.803  1.00  0.00     0.038 A 
ATOM     15  C   UNL A   1      29.257  28.509  22.999  1.00  0.00     0.044 C 
ATOM     16  C   UNL A   1      30.628  28.383  23.601  1.00  0.00    -0.046 A 
ATOM     17  C   UNL A   1      31.034  29.335  24.534  1.00  0.00     0.042 A 
ATOM     18  C   UNL A   1      31.509  27.323  23.273  1.00  0.00     0.029 A 
ATOM     19  C   UNL A   1      32.329  29.291  25.015  1.00  0.00     0.125 A 
ATOM     20  F   UNL A   1      32.739  30.232  25.876  1.00  0.00    -0.207 F 
ATOM     21  C   UNL A   1      33.217  28.291  24.617  1.00  0.00     0.065 A 
ENDBRANCH  12  14
ENDBRANCH  10  12
BRANCH  10  22
ATOM     22  C   UNL A   1      32.531  24.064  24.626  1.00  0.00    -0.011 A 
ATOM     23  C   UNL A   1      31.597  23.024  24.443  1.00  0.00     0.010 A 
ATOM     24  C   UNL A   1      32.621  24.622  25.921  1.00  0.00     0.010 A 
ATOM     25  C   UNL A   1      30.688  22.684  25.451  1.00  0.00     0.046 A 
ATOM     26  C   UNL A   1      31.753  24.239  26.947  1.00  0.00     0.046 A 
ATOM     27  C   UNL A   1      30.762  23.307  26.687  1.00  0.00     0.115 A 
BRANCH  27  28
ATOM     28  O   UNL A   1      29.824  22.995  27.625  1.00  0.00    -0.508 OA
ATOM     29  H   UNL A   1      29.543  22.108  27.730  1.00  0.00     0.293 HD
ENDBRANCH  27  28
ENDBRANCH  10  22
ENDBRANCH   8  10
ENDBRANCH   7   8
ENDBRANCH   6   7
ENDBRANCH   5   6
ENDBRANCH   4   5
ENDBRANCH   3   4
ENDBRANCH   2   3
ENDBRANCH   1   2
BRANCH   1  30
ATOM     30  C   UNL A   1      41.028  21.076  27.428  1.00  0.00     0.188 C 
BRANCH  30  31
ATOM     31  C   UNL A   1      41.694  20.593  26.130  1.00  0.00     0.188 C 
BRANCH  31  32
ATOM     32  O   UNL A   1      43.116  20.588  26.178  1.00  0.00    -0.376 OA
BRANCH  32  33
ATOM     33  C   UNL A   1      43.822  21.812  26.037  1.00  0.00     0.202 C 
BRANCH  33  34
ATOM     34  C   UNL A   1      43.754  22.553  24.690  1.00  0.00     0.261 C 
BRANCH  34  35
ATOM     35  O   UNL A   1      43.253  23.899  24.708  1.00  0.00    -0.460 OA
BRANCH  35  36
ATOM     36  C   UNL A   1      44.087  24.883  25.118  1.00  0.00     0.338 C 
ATOM     37  O   UNL A   1      45.144  25.201  24.626  1.00  0.00    -0.246 OA
BRANCH  36  38
ATOM     38  C   UNL A   1      43.374  25.659  26.163  1.00  0.00     0.060 A 
ATOM     39  C   UNL A   1      43.760  26.987  26.392  1.00  0.00     0.016 A 
ATOM     40  C   UNL A   1      42.320  25.097  26.886  1.00  0.00     0.016 A 
ATOM     41  C   UNL A   1      43.116  27.746  27.369  1.00  0.00     0.010 A 
ATOM     42  C   UNL A   1      41.696  25.847  27.887  1.00  0.00     0.010 A 
ATOM     43  C   UNL A   1      42.117  27.162  28.156  1.00  0.00    -0.014 A 
BRANCH  43  44
ATOM     44  C   UNL A   1      41.680  27.843  29.399  1.00  0.00     0.031 A 
ATOM     45  C   UNL A   1      40.461  28.720  29.333  1.00  0.00     0.074 A 
ATOM     46  C   UNL A   1      42.332  27.679  30.562  1.00  0.00     0.049 A 
ATOM     47  N   UNL A   1      39.910  29.455  30.264  1.00  0.00    -0.248 NA
ATOM     48  C   UNL A   1      39.774  28.777  28.033  1.00  0.00     0.031 C 
ATOM     49  C   UNL A   1      43.501  26.828  30.764  1.00  0.00     0.029 A 
ATOM     50  N   UNL A   1      42.102  28.241  31.793  1.00  0.00    -0.354 N 
ATOM     51  C   UNL A   1      38.824  30.074  29.658  1.00  0.00     0.074 A 
ATOM     52  C   UNL A   1      38.812  29.652  28.275  1.00  0.00     0.031 C 
ATOM     53  C   UNL A   1      43.903  26.941  32.042  1.00  0.00     0.029 A 
ATOM     54  C   UNL A   1      43.039  27.897  32.736  1.00  0.00     0.049 A 
ATOM     55  H   UNL A   1      41.339  28.833  31.982  1.00  0.00     0.167 HD
ATOM     56  C   UNL A   1      37.916  30.917  30.206  1.00  0.00     0.037 A 
ATOM     57  C   UNL A   1      43.198  28.329  34.002  1.00  0.00     0.037 A 
ATOM     58  C   UNL A   1      37.937  31.337  31.581  1.00  0.00     0.049 A 
ATOM     59  C   UNL A   1      42.215  29.315  34.579  1.00  0.00     0.074 A 
ATOM     60  C   UNL A   1      37.044  32.158  32.245  1.00  0.00     0.029 A 
ATOM     61  N   UNL A   1      38.915  30.985  32.500  1.00  0.00    -0.354 N 
ATOM     62  N   UNL A   1      41.167  29.866  34.013  1.00  0.00    -0.248 NA
ATOM     63  C   UNL A   1      42.433  29.734  35.971  1.00  0.00     0.031 C 
ATOM     64  C   UNL A   1      37.520  32.360  33.544  1.00  0.00     0.029 A 
ATOM     65  C   UNL A   1      38.670  31.606  33.714  1.00  0.00     0.049 A 
ATOM     66  H   UNL A   1      39.672  30.383  32.316  1.00  0.00     0.167 HD
ATOM     67  C   UNL A   1      40.588  30.676  34.984  1.00  0.00     0.074 A 
ATOM     68  C   UNL A   1      41.396  30.534  36.178  1.00  0.00     0.031 C 
ATOM     69  C   UNL A   1      39.485  31.461  34.896  1.00  0.00     0.037 A 
BRANCH  56  70
ATOM     70  C   UNL A   1      36.863  31.476  29.293  1.00  0.00     0.057 A 
ATOM     71  C   UNL A   1      36.916  32.787  28.800  1.00  0.00     0.134 A 
ATOM     72  C   UNL A   1      35.771  30.689  28.907  1.00  0.00     0.134 A 
ATOM     73  F   UNL A   1      37.925  33.603  29.142  1.00  0.00    -0.206 F 
ATOM     74  C   UNL A   1      35.902  33.306  27.993  1.00  0.00     0.040 A 
ATOM     75  C   UNL A   1      34.768  31.185  28.074  1.00  0.00     0.040 A 
ATOM     76  F   UNL A   1      35.657  29.423  29.338  1.00  0.00    -0.206 F 
ATOM     77  C   UNL A   1      34.825  32.502  27.625  1.00  0.00     0.006 A 
ENDBRANCH  56  70
BRANCH  57  78
ATOM     78  C   UNL A   1      44.350  27.841  34.803  1.00  0.00     0.057 A 
ATOM     79  C   UNL A   1      44.258  26.687  35.589  1.00  0.00     0.134 A 
ATOM     80  C   UNL A   1      45.576  28.517  34.790  1.00  0.00     0.134 A 
ATOM     81  F   UNL A   1      43.103  26.011  35.664  1.00  0.00    -0.206 F 
ATOM     82  C   UNL A   1      45.344  26.224  36.336  1.00  0.00     0.040 A 
ATOM     83  C   UNL A   1      46.677  28.050  35.511  1.00  0.00     0.040 A 
ATOM     84  F   UNL A   1      45.729  29.630  34.058  1.00  0.00    -0.206 F 
ATOM     85  C   UNL A   1      46.560  26.901  36.290  1.00  0.00     0.006 A 
ENDBRANCH  57  78
BRANCH  69  86
ATOM     86  C   UNL A   1      39.061  32.205  36.131  1.00  0.00     0.057 A 
ATOM     87  C   UNL A   1      39.472  33.520  36.388  1.00  0.00     0.134 A 
ATOM     88  C   UNL A   1      38.186  31.613  37.052  1.00  0.00     0.134 A 
ATOM     89  F   UNL A   1      40.316  34.144  35.553  1.00  0.00    -0.206 F 
ATOM     90  C   UNL A   1      39.048  34.208  37.527  1.00  0.00     0.040 A 
ATOM     91  C   UNL A   1      37.731  32.301  38.178  1.00  0.00     0.040 A 
ATOM     92  F   UNL A   1      37.743  30.361  36.863  1.00  0.00    -0.206 F 
ATOM     93  C   UNL A   1      38.168  33.601  38.422  1.00  0.00     0.006 A 
ENDBRANCH  69  86
ENDBRANCH  43  44
ENDBRANCH  36  38
ENDBRANCH  35  36
ENDBRANCH  34  35
ENDBRANCH  33  34
ENDBRANCH  32  33
ENDBRANCH  31  32
ENDBRANCH  30  31
ENDBRANCH   1  30
TORSDOF 24
ENDMDL
MODEL 3
REMARK VINA RESULT:      -9.9      4.742      9.972
REMARK SMILES Cc1cc(F)cc(N[C@@](C)(C(=O)OCCOCCOCCOCCOC(=O)c2ccc(-c3c4nc(c(-c5c(F)cccc5F)c5ccc([nH]5)c(-c5c(F)cccc5F)c5nc(c(-c6c(F)cccc6F)c6ccc3[nH]6)C=C5)C=C4)cc2)c2ccc(O)cc2)c1
REMARK SMILES IDX 19 1 18 2 17 3 16 4 15 5 14 6 13 7 11 8 12 9 9 10 10 11 8 12
REMARK SMILES IDX 7 14 1 15 2 16 3 17 89 18 4 19 5 20 6 21 82 22 83 23 88 24
REMARK SMILES IDX 84 25 87 26 85 27 86 28 20 30 21 31 22 32 23 33 24 34 25 35
REMARK SMILES IDX 26 36 27 37 28 38 29 39 81 40 30 41 80 42 31 43 32 44 33 45
REMARK SMILES IDX 74 46 34 47 79 48 73 49 75 50 35 51 78 52 72 53 71 54 36 56
REMARK SMILES IDX 62 57 45 58 61 59 46 60 49 61 60 62 76 63 47 64 48 65 59 67
REMARK SMILES IDX 77 68 50 69 37 70 38 71 43 72 39 73 40 74 42 75 44 76 41 77
REMARK SMILES IDX 63 78 64 79 69 80 65 81 66 82 68 83 70 84 67 85 51 86 52 87
REMARK SMILES IDX 57 88 53 89 54 90 56 91 58 92 55 93
REMARK H PARENT 8 13 86 29 75 55 49 66
REMARK Flexibility Score: inf
ROOT
ATOM      1  O   UNL A   1      34.562  33.323  27.655  1.00  0.00    -0.377 OA
ENDROOT
BRANCH   1   2
ATOM      2  C   UNL A   1      34.227  31.973  27.907  1.00  0.00     0.188 C 
BRANCH   2   3
ATOM      3  C   UNL A   1      32.752  31.604  27.672  1.00  0.00     0.188 C 
BRANCH   3   4
ATOM      4  O   UNL A   1      32.298  31.142  26.402  1.00  0.00    -0.376 OA
BRANCH   4   5
ATOM      5  C   UNL A   1      32.453  29.780  26.041  1.00  0.00     0.202 C 
BRANCH   5   6
ATOM      6  C   UNL A   1      31.932  28.668  26.979  1.00  0.00     0.261 C 
BRANCH   6   7
ATOM      7  O   UNL A   1      32.269  27.313  26.612  1.00  0.00    -0.461 OA
BRANCH   7   8
ATOM      8  C   UNL A   1      31.277  26.550  26.088  1.00  0.00     0.336 C 
ATOM      9  O   UNL A   1      30.391  26.060  26.790  1.00  0.00    -0.249 OA
BRANCH   8  10
ATOM     10  C   UNL A   1      31.368  26.311  24.519  1.00  0.00     0.158 C 
ATOM     11  C   UNL A   1      30.354  25.156  24.330  1.00  0.00     0.053 C 
BRANCH  10  12
ATOM     12  N   UNL A   1      32.693  25.746  24.039  1.00  0.00    -0.366 N 
ATOM     13  H   UNL A   1      32.993  26.146  23.191  1.00  0.00     0.162 HD
BRANCH  12  14
ATOM     14  C   UNL A   1      33.577  24.790  24.528  1.00  0.00     0.038 A 
ATOM     15  C   UNL A   1      36.713  22.896  23.286  1.00  0.00     0.044 C 
ATOM     16  C   UNL A   1      35.621  23.425  24.173  1.00  0.00    -0.046 A 
ATOM     17  C   UNL A   1      35.599  23.028  25.508  1.00  0.00     0.042 A 
ATOM     18  C   UNL A   1      34.633  24.327  23.707  1.00  0.00     0.029 A 
ATOM     19  C   UNL A   1      34.543  23.424  26.306  1.00  0.00     0.125 A 
ATOM     20  F   UNL A   1      34.492  23.006  27.578  1.00  0.00    -0.207 F 
ATOM     21  C   UNL A   1      33.527  24.242  25.811  1.00  0.00     0.065 A 
ENDBRANCH  12  14
ENDBRANCH  10  12
BRANCH  10  22
ATOM     22  C   UNL A   1      30.898  27.553  23.725  1.00  0.00    -0.011 A 
ATOM     23  C   UNL A   1      29.527  27.869  23.633  1.00  0.00     0.010 A 
ATOM     24  C   UNL A   1      31.791  28.360  22.985  1.00  0.00     0.010 A 
ATOM     25  C   UNL A   1      29.065  28.823  22.720  1.00  0.00     0.046 A 
ATOM     26  C   UNL A   1      31.334  29.356  22.118  1.00  0.00     0.046 A 
ATOM     27  C   UNL A   1      29.971  29.545  21.958  1.00  0.00     0.115 A 
BRANCH  27  28
ATOM     28  O   UNL A   1      29.484  30.423  21.036  1.00  0.00    -0.508 OA
ATOM     29  H   UNL A   1      28.928  30.118  20.347  1.00  0.00     0.293 HD
ENDBRANCH  27  28
ENDBRANCH  10  22
ENDBRANCH   8  10
ENDBRANCH   7   8
ENDBRANCH   6   7
ENDBRANCH   5   6
ENDBRANCH   4   5
ENDBRANCH   3   4
ENDBRANCH   2   3
ENDBRANCH   1   2
BRANCH   1  30
ATOM     30  C   UNL A   1      33.846  34.284  28.398  1.00  0.00     0.188 C 
BRANCH  30  31
ATOM     31  C   UNL A   1      34.430  34.667  29.766  1.00  0.00     0.188 C 
BRANCH  31  32
ATOM     32  O   UNL A   1      33.516  34.524  30.845  1.00  0.00    -0.376 OA
BRANCH  32  33
ATOM     33  C   UNL A   1      33.991  34.076  32.107  1.00  0.00     0.202 C 
BRANCH  33  34
ATOM     34  C   UNL A   1      34.617  32.673  32.204  1.00  0.00     0.261 C 
BRANCH  34  35
ATOM     35  O   UNL A   1      35.784  32.532  33.030  1.00  0.00    -0.460 OA
BRANCH  35  36
ATOM     36  C   UNL A   1      36.870  33.282  32.731  1.00  0.00     0.338 C 
ATOM     37  O   UNL A   1      37.130  34.390  33.134  1.00  0.00    -0.246 OA
BRANCH  36  38
ATOM     38  C   UNL A   1      37.811  32.414  31.979  1.00  0.00     0.060 A 
ATOM     39  C   UNL A   1      38.736  31.646  32.699  1.00  0.00     0.016 A 
ATOM     40  C   UNL A   1      37.764  32.337  30.585  1.00  0.00     0.016 A 
ATOM     41  C   UNL A   1      39.639  30.824  32.027  1.00  0.00     0.010 A 
ATOM     42  C   UNL A   1      38.691  31.537  29.910  1.00  0.00     0.010 A 
ATOM     43  C   UNL A   1      39.655  30.806  30.628  1.00  0.00    -0.014 A 
BRANCH  43  44
ATOM     44  C   UNL A   1      40.815  30.213  29.921  1.00  0.00     0.031 A 
ATOM     45  C   UNL A   1      41.998  31.097  29.637  1.00  0.00     0.074 A 
ATOM     46  C   UNL A   1      40.836  28.921  29.553  1.00  0.00     0.049 A 
ATOM     47  N   UNL A   1      43.106  30.831  28.996  1.00  0.00    -0.248 NA
ATOM     48  C   UNL A   1      41.910  32.476  30.144  1.00  0.00     0.031 C 
ATOM     49  C   UNL A   1      39.772  27.953  29.804  1.00  0.00     0.029 A 
ATOM     50  N   UNL A   1      41.792  28.208  28.873  1.00  0.00    -0.354 N 
ATOM     51  C   UNL A   1      43.838  32.010  29.007  1.00  0.00     0.074 A 
ATOM     52  C   UNL A   1      43.038  33.001  29.692  1.00  0.00     0.031 C 
ATOM     53  C   UNL A   1      40.122  26.774  29.263  1.00  0.00     0.029 A 
ATOM     54  C   UNL A   1      41.420  26.915  28.601  1.00  0.00     0.049 A 
ATOM     55  H   UNL A   1      42.659  28.587  28.606  1.00  0.00     0.167 HD
ATOM     56  C   UNL A   1      45.070  32.247  28.496  1.00  0.00     0.037 A 
ATOM     57  C   UNL A   1      42.042  25.966  27.875  1.00  0.00     0.037 A 
ATOM     58  C   UNL A   1      45.859  31.259  27.810  1.00  0.00     0.049 A 
ATOM     59  C   UNL A   1      43.385  26.264  27.258  1.00  0.00     0.074 A 
ATOM     60  C   UNL A   1      47.133  31.385  27.286  1.00  0.00     0.029 A 
ATOM     61  N   UNL A   1      45.439  29.965  27.534  1.00  0.00    -0.354 N 
ATOM     62  N   UNL A   1      44.090  27.368  27.307  1.00  0.00    -0.248 NA
ATOM     63  C   UNL A   1      44.019  25.182  26.492  1.00  0.00     0.031 C 
ATOM     64  C   UNL A   1      47.455  30.192  26.632  1.00  0.00     0.029 A 
ATOM     65  C   UNL A   1      46.413  29.296  26.812  1.00  0.00     0.049 A 
ATOM     66  H   UNL A   1      44.577  29.580  27.811  1.00  0.00     0.167 HD
ATOM     67  C   UNL A   1      45.260  27.109  26.601  1.00  0.00     0.074 A 
ATOM     68  C   UNL A   1      45.173  25.736  26.145  1.00  0.00     0.031 C 
ATOM     69  C   UNL A   1      46.313  27.930  26.358  1.00  0.00     0.037 A 
BRANCH  56  70
ATOM     70  C   UNL A   1      45.604  33.646  28.615  1.00  0.00     0.057 A 
ATOM     71  C   UNL A   1      46.391  34.059  29.698  1.00  0.00     0.134 A 
ATOM     72  C   UNL A   1      45.316  34.598  27.629  1.00  0.00     0.134 A 
ATOM     73  F   UNL A   1      46.691  33.204  30.687  1.00  0.00    -0.206 F 
ATOM     74  C   UNL A   1      46.836  35.378  29.817  1.00  0.00     0.040 A 
ATOM     75  C   UNL A   1      45.783  35.910  27.719  1.00  0.00     0.040 A 
ATOM     76  F   UNL A   1      44.570  34.271  26.562  1.00  0.00    -0.206 F 
ATOM     77  C   UNL A   1      46.535  36.306  28.823  1.00  0.00     0.006 A 
ENDBRANCH  56  70
BRANCH  57  78
ATOM     78  C   UNL A   1      41.387  24.648  27.677  1.00  0.00     0.057 A 
ATOM     79  C   UNL A   1      40.339  24.482  26.764  1.00  0.00     0.134 A 
ATOM     80  C   UNL A   1      41.804  23.518  28.391  1.00  0.00     0.134 A 
ATOM     81  F   UNL A   1      39.877  25.531  26.069  1.00  0.00    -0.206 F 
ATOM     82  C   UNL A   1      39.727  23.241  26.571  1.00  0.00     0.040 A 
ATOM     83  C   UNL A   1      41.220  22.266  28.189  1.00  0.00     0.040 A 
ATOM     84  F   UNL A   1      42.802  23.610  29.282  1.00  0.00    -0.206 F 
ATOM     85  C   UNL A   1      40.175  22.127  27.278  1.00  0.00     0.006 A 
ENDBRANCH  57  78
BRANCH  69  86
ATOM     86  C   UNL A   1      47.474  27.362  25.591  1.00  0.00     0.057 A 
ATOM     87  C   UNL A   1      47.608  27.531  24.207  1.00  0.00     0.134 A 
ATOM     88  C   UNL A   1      48.501  26.679  26.258  1.00  0.00     0.134 A 
ATOM     89  F   UNL A   1      46.659  28.167  23.504  1.00  0.00    -0.206 F 
ATOM     90  C   UNL A   1      48.707  27.021  23.512  1.00  0.00     0.040 A 
ATOM     91  C   UNL A   1      49.619  26.192  25.580  1.00  0.00     0.040 A 
ATOM     92  F   UNL A   1      48.443  26.492  27.585  1.00  0.00    -0.206 F 
ATOM     93  C   UNL A   1      49.720  26.356  24.200  1.00  0.00     0.006 A 
ENDBRANCH  69  86
ENDBRANCH  43  44
ENDBRANCH  36  38
ENDBRANCH  35  36
ENDBRANCH  34  35
ENDBRANCH  33  34
ENDBRANCH  32  33
ENDBRANCH  31  32
ENDBRANCH  30  31
ENDBRANCH   1  30
TORSDOF 24
ENDMDL
