MODEL 1
REMARK VINA RESULT:     -10.6      0.000      0.000
REMARK SMILES CC1(C)[C@H]2CC[C@]1(C)C(=O)N(CC(=O)OCCOCCOCCOCCOC(=O)c1ccc(-c3c4nc(c(-c5c(F)cccc5F)c5ccc([nH]5)c(-c5c(F)cccc5F)c5nc(c(-c6c(F)cccc6F)c6ccc3[nH]6)C=C5)C=C4)cc1)C2=O
REMARK SMILES IDX 22 1 21 2 20 3 19 4 18 5 17 6 16 7 15 8 13 9 14 10 12 11
REMARK SMILES IDX 11 12 1 13 2 14 4 15 7 16 3 17 5 18 84 19 6 20 9 21 8 22
REMARK SMILES IDX 85 23 10 24 23 25 24 26 25 27 26 28 27 29 28 30 29 31 30 32
REMARK SMILES IDX 31 33 83 34 32 35 82 36 33 37 34 38 35 39 76 40 36 41 81 42
REMARK SMILES IDX 75 43 77 44 37 45 80 46 74 47 73 48 38 50 64 51 47 52 63 53
REMARK SMILES IDX 48 54 51 55 62 56 78 57 49 58 50 59 61 61 79 62 52 63 39 64
REMARK SMILES IDX 40 65 45 66 41 67 42 68 44 69 46 70 43 71 65 72 66 73 71 74
REMARK SMILES IDX 67 75 68 76 70 77 72 78 69 79 53 80 54 81 59 82 55 83 56 84
REMARK SMILES IDX 58 85 60 86 57 87
REMARK H PARENT 77 49 51 60
REMARK Flexibility Score: inf
ROOT
ATOM      1  C   UNL A   1      43.405  19.606  25.729  1.00  0.00     0.188 C 
ENDROOT
BRANCH   1   2
ATOM      2  O   UNL A   1      42.217  20.337  25.455  1.00  0.00    -0.377 OA
BRANCH   2   3
ATOM      3  C   UNL A   1      41.920  21.438  26.303  1.00  0.00     0.188 C 
BRANCH   3   4
ATOM      4  C   UNL A   1      40.672  21.337  27.191  1.00  0.00     0.188 C 
BRANCH   4   5
ATOM      5  O   UNL A   1      39.453  21.639  26.545  1.00  0.00    -0.376 OA
BRANCH   5   6
ATOM      6  C   UNL A   1      38.974  22.981  26.533  1.00  0.00     0.202 C 
BRANCH   6   7
ATOM      7  C   UNL A   1      37.675  23.427  25.842  1.00  0.00     0.261 C 
BRANCH   7   8
ATOM      8  O   UNL A   1      36.540  22.567  26.008  1.00  0.00    -0.462 OA
BRANCH   8   9
ATOM      9  C   UNL A   1      36.244  21.784  24.933  1.00  0.00     0.326 C 
ATOM     10  O   UNL A   1      37.038  21.012  24.403  1.00  0.00    -0.250 OA
BRANCH   9  11
ATOM     11  C   UNL A   1      34.800  21.877  24.455  1.00  0.00     0.251 C 
BRANCH  11  12
ATOM     12  N   UNL A   1      34.094  23.151  24.485  1.00  0.00    -0.271 N 
ATOM     13  C   UNL A   1      31.066  26.278  23.828  1.00  0.00     0.013 C 
ATOM     14  C   UNL A   1      31.890  24.982  24.032  1.00  0.00    -0.010 C 
ATOM     15  C   UNL A   1      33.271  25.202  23.393  1.00  0.00     0.086 C 
ATOM     16  C   UNL A   1      32.380  24.667  25.479  1.00  0.00     0.053 C 
ATOM     17  C   UNL A   1      31.068  23.835  23.413  1.00  0.00     0.013 C 
ATOM     18  C   UNL A   1      33.956  26.146  24.384  1.00  0.00     0.015 C 
ATOM     19  C   UNL A   1      34.042  23.889  23.310  1.00  0.00     0.233 C 
ATOM     20  C   UNL A   1      33.476  25.706  25.764  1.00  0.00     0.018 C 
ATOM     21  C   UNL A   1      33.106  23.297  25.464  1.00  0.00     0.236 C 
ATOM     22  C   UNL A   1      31.342  24.694  26.600  1.00  0.00     0.022 C 
ATOM     23  O   UNL A   1      34.492  23.491  22.236  1.00  0.00    -0.274 OA
ATOM     24  O   UNL A   1      32.780  22.381  26.219  1.00  0.00    -0.274 OA
ENDBRANCH  11  12
ENDBRANCH   9  11
ENDBRANCH   8   9
ENDBRANCH   7   8
ENDBRANCH   6   7
ENDBRANCH   5   6
ENDBRANCH   4   5
ENDBRANCH   3   4
ENDBRANCH   2   3
ENDBRANCH   1   2
BRANCH   1  25
ATOM     25  C   UNL A   1      44.380  19.253  24.600  1.00  0.00     0.188 C 
BRANCH  25  26
ATOM     26  O   UNL A   1      45.371  20.178  24.191  1.00  0.00    -0.376 OA
BRANCH  26  27
ATOM     27  C   UNL A   1      45.327  21.499  24.716  1.00  0.00     0.202 C 
BRANCH  27  28
ATOM     28  C   UNL A   1      44.786  22.578  23.783  1.00  0.00     0.261 C 
BRANCH  28  29
ATOM     29  O   UNL A   1      43.921  23.480  24.496  1.00  0.00    -0.460 OA
BRANCH  29  30
ATOM     30  C   UNL A   1      44.514  24.610  24.938  1.00  0.00     0.338 C 
ATOM     31  O   UNL A   1      45.635  25.009  24.688  1.00  0.00    -0.246 OA
BRANCH  30  32
ATOM     32  C   UNL A   1      43.539  25.420  25.683  1.00  0.00     0.060 A 
ATOM     33  C   UNL A   1      43.789  26.793  25.783  1.00  0.00     0.016 A 
ATOM     34  C   UNL A   1      42.482  24.830  26.381  1.00  0.00     0.016 A 
ATOM     35  C   UNL A   1      43.038  27.569  26.658  1.00  0.00     0.010 A 
ATOM     36  C   UNL A   1      41.722  25.613  27.255  1.00  0.00     0.010 A 
ATOM     37  C   UNL A   1      42.045  26.969  27.445  1.00  0.00    -0.014 A 
BRANCH  37  38
ATOM     38  C   UNL A   1      41.545  27.704  28.631  1.00  0.00     0.031 A 
ATOM     39  C   UNL A   1      42.304  27.567  29.927  1.00  0.00     0.074 A 
ATOM     40  C   UNL A   1      40.501  28.545  28.541  1.00  0.00     0.049 A 
ATOM     41  N   UNL A   1      42.066  28.111  31.092  1.00  0.00    -0.248 NA
ATOM     42  C   UNL A   1      43.494  26.699  29.902  1.00  0.00     0.031 C 
ATOM     43  C   UNL A   1      39.725  28.807  27.331  1.00  0.00     0.029 A 
ATOM     44  N   UNL A   1      39.919  29.341  29.495  1.00  0.00    -0.354 N 
ATOM     45  C   UNL A   1      43.070  27.649  31.935  1.00  0.00     0.074 A 
ATOM     46  C   UNL A   1      43.895  26.748  31.163  1.00  0.00     0.031 C 
ATOM     47  C   UNL A   1      38.763  29.703  27.616  1.00  0.00     0.029 A 
ATOM     48  C   UNL A   1      38.837  30.051  29.034  1.00  0.00     0.049 A 
ATOM     49  H   UNL A   1      40.246  29.399  30.423  1.00  0.00     0.167 HD
ATOM     50  C   UNL A   1      43.296  27.961  33.233  1.00  0.00     0.037 A 
ATOM     51  C   UNL A   1      37.996  30.871  29.693  1.00  0.00     0.037 A 
ATOM     52  C   UNL A   1      42.484  28.868  33.997  1.00  0.00     0.049 A 
ATOM     53  C   UNL A   1      38.223  31.139  31.159  1.00  0.00     0.074 A 
ATOM     54  C   UNL A   1      42.629  29.251  35.318  1.00  0.00     0.029 A 
ATOM     55  N   UNL A   1      41.372  29.534  33.505  1.00  0.00    -0.354 N 
ATOM     56  N   UNL A   1      39.180  30.704  31.944  1.00  0.00    -0.248 NA
ATOM     57  C   UNL A   1      37.255  32.019  31.829  1.00  0.00     0.031 C 
ATOM     58  C   UNL A   1      41.574  30.111  35.641  1.00  0.00     0.029 A 
ATOM     59  C   UNL A   1      40.808  30.310  34.504  1.00  0.00     0.049 A 
ATOM     60  H   UNL A   1      41.033  29.465  32.583  1.00  0.00     0.167 HD
ATOM     61  C   UNL A   1      38.949  31.285  33.185  1.00  0.00     0.074 A 
ATOM     62  C   UNL A   1      37.772  32.115  33.045  1.00  0.00     0.031 C 
ATOM     63  C   UNL A   1      39.646  31.145  34.341  1.00  0.00     0.037 A 
BRANCH  50  64
ATOM     64  C   UNL A   1      44.459  27.301  33.914  1.00  0.00     0.057 A 
ATOM     65  C   UNL A   1      45.728  27.893  33.956  1.00  0.00     0.134 A 
ATOM     66  C   UNL A   1      44.297  26.073  34.570  1.00  0.00     0.134 A 
ATOM     67  F   UNL A   1      45.956  29.059  33.332  1.00  0.00    -0.206 F 
ATOM     68  C   UNL A   1      46.798  27.281  34.613  1.00  0.00     0.040 A 
ATOM     69  C   UNL A   1      45.351  25.466  35.253  1.00  0.00     0.040 A 
ATOM     70  F   UNL A   1      43.108  25.452  34.567  1.00  0.00    -0.206 F 
ATOM     71  C   UNL A   1      46.608  26.068  35.272  1.00  0.00     0.006 A 
ENDBRANCH  50  64
BRANCH  51  72
ATOM     72  C   UNL A   1      36.841  31.485  28.987  1.00  0.00     0.057 A 
ATOM     73  C   UNL A   1      36.852  32.832  28.603  1.00  0.00     0.134 A 
ATOM     74  C   UNL A   1      35.675  30.753  28.731  1.00  0.00     0.134 A 
ATOM     75  F   UNL A   1      37.930  33.593  28.841  1.00  0.00    -0.206 F 
ATOM     76  C   UNL A   1      35.736  33.436  28.021  1.00  0.00     0.040 A 
ATOM     77  C   UNL A   1      34.563  31.336  28.122  1.00  0.00     0.040 A 
ATOM     78  F   UNL A   1      35.598  29.459  29.074  1.00  0.00    -0.206 F 
ATOM     79  C   UNL A   1      34.587  32.685  27.777  1.00  0.00     0.006 A 
ENDBRANCH  51  72
BRANCH  63  80
ATOM     80  C   UNL A   1      39.188  31.946  35.526  1.00  0.00     0.057 A 
ATOM     81  C   UNL A   1      38.332  31.413  36.498  1.00  0.00     0.134 A 
ATOM     82  C   UNL A   1      39.642  33.258  35.715  1.00  0.00     0.134 A 
ATOM     83  F   UNL A   1      37.853  30.166  36.373  1.00  0.00    -0.206 F 
ATOM     84  C   UNL A   1      37.920  32.166  37.599  1.00  0.00     0.040 A 
ATOM     85  C   UNL A   1      39.262  34.010  36.827  1.00  0.00     0.040 A 
ATOM     86  F   UNL A   1      40.475  33.825  34.829  1.00  0.00    -0.206 F 
ATOM     87  C   UNL A   1      38.391  33.467  37.768  1.00  0.00     0.006 A 
ENDBRANCH  63  80
ENDBRANCH  37  38
ENDBRANCH  30  32
ENDBRANCH  29  30
ENDBRANCH  28  29
ENDBRANCH  27  28
ENDBRANCH  26  27
ENDBRANCH  25  26
ENDBRANCH   1  25
TORSDOF 21
ENDMDL
MODEL 2
REMARK VINA RESULT:     -10.1      0.879      6.133
REMARK SMILES CC1(C)[C@H]2CC[C@]1(C)C(=O)N(CC(=O)OCCOCCOCCOCCOC(=O)c1ccc(-c3c4nc(c(-c5c(F)cccc5F)c5ccc([nH]5)c(-c5c(F)cccc5F)c5nc(c(-c6c(F)cccc6F)c6ccc3[nH]6)C=C5)C=C4)cc1)C2=O
REMARK SMILES IDX 22 1 21 2 20 3 19 4 18 5 17 6 16 7 15 8 13 9 14 10 12 11
REMARK SMILES IDX 11 12 1 13 2 14 4 15 7 16 3 17 5 18 84 19 6 20 9 21 8 22
REMARK SMILES IDX 85 23 10 24 23 25 24 26 25 27 26 28 27 29 28 30 29 31 30 32
REMARK SMILES IDX 31 33 83 34 32 35 82 36 33 37 34 38 35 39 76 40 36 41 81 42
REMARK SMILES IDX 75 43 77 44 37 45 80 46 74 47 73 48 38 50 64 51 47 52 63 53
REMARK SMILES IDX 48 54 51 55 62 56 78 57 49 58 50 59 61 61 79 62 52 63 39 64
REMARK SMILES IDX 40 65 45 66 41 67 42 68 44 69 46 70 43 71 65 72 66 73 71 74
REMARK SMILES IDX 67 75 68 76 70 77 72 78 69 79 53 80 54 81 59 82 55 83 56 84
REMARK SMILES IDX 58 85 60 86 57 87
REMARK H PARENT 77 49 51 60
REMARK Flexibility Score: inf
ROOT
ATOM      1  C   UNL A   1      43.698  18.648  25.646  1.00  0.00     0.188 C 
ENDROOT
BRANCH   1   2
ATOM      2  O   UNL A   1      42.344  18.991  25.384  1.00  0.00    -0.377 OA
BRANCH   2   3
ATOM      3  C   UNL A   1      41.610  19.597  26.438  1.00  0.00     0.188 C 
BRANCH   3   4
ATOM      4  C   UNL A   1      40.201  20.116  26.122  1.00  0.00     0.188 C 
BRANCH   4   5
ATOM      5  O   UNL A   1      39.755  21.173  26.945  1.00  0.00    -0.376 OA
BRANCH   5   6
ATOM      6  C   UNL A   1      39.136  22.314  26.356  1.00  0.00     0.202 C 
BRANCH   6   7
ATOM      7  C   UNL A   1      37.739  22.304  25.716  1.00  0.00     0.261 C 
BRANCH   7   8
ATOM      8  O   UNL A   1      37.690  22.064  24.302  1.00  0.00    -0.462 OA
BRANCH   8   9
ATOM      9  C   UNL A   1      36.569  22.518  23.677  1.00  0.00     0.326 C 
ATOM     10  O   UNL A   1      36.547  22.950  22.527  1.00  0.00    -0.250 OA
BRANCH   9  11
ATOM     11  C   UNL A   1      35.287  22.389  24.491  1.00  0.00     0.251 C 
BRANCH  11  12
ATOM     12  N   UNL A   1      34.229  23.383  24.362  1.00  0.00    -0.271 N 
ATOM     13  C   UNL A   1      30.636  25.801  25.149  1.00  0.00     0.013 C 
ATOM     14  C   UNL A   1      31.911  24.922  25.182  1.00  0.00    -0.010 C 
ATOM     15  C   UNL A   1      31.883  24.012  23.943  1.00  0.00     0.086 C 
ATOM     16  C   UNL A   1      33.273  25.625  24.892  1.00  0.00     0.053 C 
ATOM     17  C   UNL A   1      31.896  24.175  26.530  1.00  0.00     0.013 C 
ATOM     18  C   UNL A   1      32.222  24.980  22.806  1.00  0.00     0.015 C 
ATOM     19  C   UNL A   1      32.955  22.932  24.041  1.00  0.00     0.233 C 
ATOM     20  C   UNL A   1      33.239  25.956  23.391  1.00  0.00     0.018 C 
ATOM     21  C   UNL A   1      34.409  24.582  25.057  1.00  0.00     0.236 C 
ATOM     22  C   UNL A   1      33.603  26.886  25.689  1.00  0.00     0.022 C 
ATOM     23  O   UNL A   1      32.661  21.743  23.937  1.00  0.00    -0.274 OA
ATOM     24  O   UNL A   1      35.365  24.778  25.808  1.00  0.00    -0.274 OA
ENDBRANCH  11  12
ENDBRANCH   9  11
ENDBRANCH   8   9
ENDBRANCH   7   8
ENDBRANCH   6   7
ENDBRANCH   5   6
ENDBRANCH   4   5
ENDBRANCH   3   4
ENDBRANCH   2   3
ENDBRANCH   1   2
BRANCH   1  25
ATOM     25  C   UNL A   1      44.827  19.201  24.766  1.00  0.00     0.188 C 
BRANCH  25  26
ATOM     26  O   UNL A   1      45.281  20.532  24.935  1.00  0.00    -0.376 OA
BRANCH  26  27
ATOM     27  C   UNL A   1      44.565  21.582  24.295  1.00  0.00     0.202 C 
BRANCH  27  28
ATOM     28  C   UNL A   1      43.551  22.328  25.156  1.00  0.00     0.261 C 
BRANCH  28  29
ATOM     29  O   UNL A   1      43.262  23.621  24.596  1.00  0.00    -0.460 OA
BRANCH  29  30
ATOM     30  C   UNL A   1      43.983  24.641  25.112  1.00  0.00     0.338 C 
ATOM     31  O   UNL A   1      45.132  24.944  24.856  1.00  0.00    -0.246 OA
BRANCH  30  32
ATOM     32  C   UNL A   1      43.119  25.474  25.962  1.00  0.00     0.060 A 
ATOM     33  C   UNL A   1      43.376  26.849  25.983  1.00  0.00     0.016 A 
ATOM     34  C   UNL A   1      42.173  24.908  26.819  1.00  0.00     0.016 A 
ATOM     35  C   UNL A   1      42.752  27.653  26.929  1.00  0.00     0.010 A 
ATOM     36  C   UNL A   1      41.541  25.718  27.766  1.00  0.00     0.010 A 
ATOM     37  C   UNL A   1      41.882  27.079  27.867  1.00  0.00    -0.014 A 
BRANCH  37  38
ATOM     38  C   UNL A   1      41.551  27.851  29.088  1.00  0.00     0.031 A 
ATOM     39  C   UNL A   1      40.344  28.754  29.055  1.00  0.00     0.074 A 
ATOM     40  C   UNL A   1      42.247  27.688  30.226  1.00  0.00     0.049 A 
ATOM     41  N   UNL A   1      39.853  29.522  29.993  1.00  0.00    -0.248 NA
ATOM     42  C   UNL A   1      39.586  28.793  27.792  1.00  0.00     0.031 C 
ATOM     43  C   UNL A   1      43.395  26.801  30.398  1.00  0.00     0.029 A 
ATOM     44  N   UNL A   1      42.077  28.264  31.459  1.00  0.00    -0.354 N 
ATOM     45  C   UNL A   1      38.738  30.135  29.434  1.00  0.00     0.074 A 
ATOM     46  C   UNL A   1      38.647  29.685  28.064  1.00  0.00     0.031 C 
ATOM     47  C   UNL A   1      43.831  26.894  31.667  1.00  0.00     0.029 A 
ATOM     48  C   UNL A   1      43.013  27.871  32.384  1.00  0.00     0.049 A 
ATOM     49  H   UNL A   1      41.353  28.901  31.662  1.00  0.00     0.167 HD
ATOM     50  C   UNL A   1      37.858  30.984  30.015  1.00  0.00     0.037 A 
ATOM     51  C   UNL A   1      43.193  28.272  33.657  1.00  0.00     0.037 A 
ATOM     52  C   UNL A   1      37.941  31.420  31.381  1.00  0.00     0.049 A 
ATOM     53  C   UNL A   1      42.245  29.279  34.255  1.00  0.00     0.074 A 
ATOM     54  C   UNL A   1      37.099  32.278  32.065  1.00  0.00     0.029 A 
ATOM     55  N   UNL A   1      38.929  31.031  32.274  1.00  0.00    -0.354 N 
ATOM     56  N   UNL A   1      41.189  29.846  33.720  1.00  0.00    -0.248 NA
ATOM     57  C   UNL A   1      42.510  29.699  35.639  1.00  0.00     0.031 C 
ATOM     58  C   UNL A   1      37.605  32.448  33.357  1.00  0.00     0.029 A 
ATOM     59  C   UNL A   1      38.728  31.648  33.496  1.00  0.00     0.049 A 
ATOM     60  H   UNL A   1      39.663  30.408  32.068  1.00  0.00     0.167 HD
ATOM     61  C   UNL A   1      40.647  30.656  34.711  1.00  0.00     0.074 A 
ATOM     62  C   UNL A   1      41.481  30.497  35.883  1.00  0.00     0.031 C 
ATOM     63  C   UNL A   1      39.559  31.463  34.658  1.00  0.00     0.037 A 
BRANCH  50  64
ATOM     64  C   UNL A   1      36.738  31.510  29.166  1.00  0.00     0.057 A 
ATOM     65  C   UNL A   1      35.588  30.754  28.901  1.00  0.00     0.134 A 
ATOM     66  C   UNL A   1      36.793  32.807  28.638  1.00  0.00     0.134 A 
ATOM     67  F   UNL A   1      35.480  29.497  29.360  1.00  0.00    -0.206 F 
ATOM     68  C   UNL A   1      34.542  31.263  28.129  1.00  0.00     0.040 A 
ATOM     69  C   UNL A   1      35.741  33.337  27.890  1.00  0.00     0.040 A 
ATOM     70  F   UNL A   1      37.865  33.584  28.854  1.00  0.00    -0.206 F 
ATOM     71  C   UNL A   1      34.613  32.562  27.630  1.00  0.00     0.006 A 
ENDBRANCH  50  64
BRANCH  51  72
ATOM     72  C   UNL A   1      44.330  27.744  34.456  1.00  0.00     0.057 A 
ATOM     73  C   UNL A   1      45.590  28.356  34.427  1.00  0.00     0.134 A 
ATOM     74  C   UNL A   1      44.198  26.581  35.224  1.00  0.00     0.134 A 
ATOM     75  F   UNL A   1      45.787  29.460  33.692  1.00  0.00    -0.206 F 
ATOM     76  C   UNL A   1      46.683  27.813  35.105  1.00  0.00     0.040 A 
ATOM     77  C   UNL A   1      45.274  26.044  35.932  1.00  0.00     0.040 A 
ATOM     78  F   UNL A   1      43.019  25.946  35.296  1.00  0.00    -0.206 F 
ATOM     79  C   UNL A   1      46.525  26.654  35.863  1.00  0.00     0.006 A 
ENDBRANCH  51  72
BRANCH  63  80
ATOM     80  C   UNL A   1      39.175  32.191  35.915  1.00  0.00     0.057 A 
ATOM     81  C   UNL A   1      38.316  31.628  36.867  1.00  0.00     0.134 A 
ATOM     82  C   UNL A   1      39.705  33.458  36.192  1.00  0.00     0.134 A 
ATOM     83  F   UNL A   1      37.767  30.422  36.660  1.00  0.00    -0.206 F 
ATOM     84  C   UNL A   1      37.973  32.313  38.035  1.00  0.00     0.040 A 
ATOM     85  C   UNL A   1      39.394  34.138  37.370  1.00  0.00     0.040 A 
ATOM     86  F   UNL A   1      40.545  34.049  35.329  1.00  0.00    -0.206 F 
ATOM     87  C   UNL A   1      38.519  33.569  38.291  1.00  0.00     0.006 A 
ENDBRANCH  63  80
ENDBRANCH  37  38
ENDBRANCH  30  32
ENDBRANCH  29  30
ENDBRANCH  28  29
ENDBRANCH  27  28
ENDBRANCH  26  27
ENDBRANCH  25  26
ENDBRANCH   1  25
TORSDOF 21
ENDMDL
MODEL 3
REMARK VINA RESULT:     -10.0      4.746     10.244
REMARK SMILES CC1(C)[C@H]2CC[C@]1(C)C(=O)N(CC(=O)OCCOCCOCCOCCOC(=O)c1ccc(-c3c4nc(c(-c5c(F)cccc5F)c5ccc([nH]5)c(-c5c(F)cccc5F)c5nc(c(-c6c(F)cccc6F)c6ccc3[nH]6)C=C5)C=C4)cc1)C2=O
REMARK SMILES IDX 22 1 21 2 20 3 19 4 18 5 17 6 16 7 15 8 13 9 14 10 12 11
REMARK SMILES IDX 11 12 1 13 2 14 4 15 7 16 3 17 5 18 84 19 6 20 9 21 8 22
REMARK SMILES IDX 85 23 10 24 23 25 24 26 25 27 26 28 27 29 28 30 29 31 30 32
REMARK SMILES IDX 31 33 83 34 32 35 82 36 33 37 34 38 35 39 76 40 36 41 81 42
REMARK SMILES IDX 75 43 77 44 37 45 80 46 74 47 73 48 38 50 64 51 47 52 63 53
REMARK SMILES IDX 48 54 51 55 62 56 78 57 49 58 50 59 61 61 79 62 52 63 39 64
REMARK SMILES IDX 40 65 45 66 41 67 42 68 44 69 46 70 43 71 65 72 66 73 71 74
REMARK SMILES IDX 67 75 68 76 70 77 72 78 69 79 53 80 54 81 59 82 55 83 56 84
REMARK SMILES IDX 58 85 60 86 57 87
REMARK H PARENT 77 49 51 60
REMARK Flexibility Score: inf
ROOT
ATOM      1  C   UNL A   1      34.088  34.017  28.650  1.00  0.00     0.188 C 
ENDROOT
BRANCH   1   2
ATOM      2  O   UNL A   1      33.909  32.608  28.710  1.00  0.00    -0.377 OA
BRANCH   2   3
ATOM      3  C   UNL A   1      34.716  31.812  27.854  1.00  0.00     0.188 C 
BRANCH   3   4
ATOM      4  C   UNL A   1      34.090  30.542  27.261  1.00  0.00     0.188 C 
BRANCH   4   5
ATOM      5  O   UNL A   1      32.700  30.617  27.022  1.00  0.00    -0.376 OA
BRANCH   5   6
ATOM      6  C   UNL A   1      31.950  29.419  26.833  1.00  0.00     0.202 C 
BRANCH   6   7
ATOM      7  C   UNL A   1      32.104  28.488  25.620  1.00  0.00     0.261 C 
BRANCH   7   8
ATOM      8  O   UNL A   1      30.959  27.695  25.279  1.00  0.00    -0.462 OA
BRANCH   8   9
ATOM      9  C   UNL A   1      31.137  26.348  25.376  1.00  0.00     0.326 C 
ATOM     10  O   UNL A   1      30.523  25.521  24.706  1.00  0.00    -0.250 OA
BRANCH   9  11
ATOM     11  C   UNL A   1      32.229  25.917  26.347  1.00  0.00     0.251 C 
BRANCH  11  12
ATOM     12  N   UNL A   1      32.875  24.619  26.201  1.00  0.00    -0.271 N 
ATOM     13  C   UNL A   1      33.757  20.501  24.922  1.00  0.00     0.013 C 
ATOM     14  C   UNL A   1      33.307  21.973  25.093  1.00  0.00    -0.010 C 
ATOM     15  C   UNL A   1      32.962  22.184  26.577  1.00  0.00     0.086 C 
ATOM     16  C   UNL A   1      34.405  23.074  24.978  1.00  0.00     0.053 C 
ATOM     17  C   UNL A   1      32.133  22.191  24.121  1.00  0.00     0.013 C 
ATOM     18  C   UNL A   1      34.340  22.217  27.243  1.00  0.00     0.015 C 
ATOM     19  C   UNL A   1      32.255  23.520  26.781  1.00  0.00     0.233 C 
ATOM     20  C   UNL A   1      35.256  22.925  26.249  1.00  0.00     0.018 C 
ATOM     21  C   UNL A   1      33.723  24.462  25.101  1.00  0.00     0.236 C 
ATOM     22  C   UNL A   1      35.311  23.047  23.748  1.00  0.00     0.022 C 
ATOM     23  O   UNL A   1      31.161  23.573  27.341  1.00  0.00    -0.274 OA
ATOM     24  O   UNL A   1      33.870  25.335  24.245  1.00  0.00    -0.274 OA
ENDBRANCH  11  12
ENDBRANCH   9  11
ENDBRANCH   8   9
ENDBRANCH   7   8
ENDBRANCH   6   7
ENDBRANCH   5   6
ENDBRANCH   4   5
ENDBRANCH   3   4
ENDBRANCH   2   3
ENDBRANCH   1   2
BRANCH   1  25
ATOM     25  C   UNL A   1      33.390  34.935  29.661  1.00  0.00     0.188 C 
BRANCH  25  26
ATOM     26  O   UNL A   1      33.413  34.628  31.043  1.00  0.00    -0.376 OA
BRANCH  26  27
ATOM     27  C   UNL A   1      34.441  35.191  31.849  1.00  0.00     0.202 C 
BRANCH  27  28
ATOM     28  C   UNL A   1      35.109  34.249  32.846  1.00  0.00     0.261 C 
BRANCH  28  29
ATOM     29  O   UNL A   1      35.888  33.253  32.161  1.00  0.00    -0.460 OA
BRANCH  29  30
ATOM     30  C   UNL A   1      36.524  32.374  32.965  1.00  0.00     0.338 C 
ATOM     31  O   UNL A   1      36.362  32.204  34.158  1.00  0.00    -0.246 OA
BRANCH  30  32
ATOM     32  C   UNL A   1      37.382  31.496  32.154  1.00  0.00     0.060 A 
ATOM     33  C   UNL A   1      38.368  30.766  32.826  1.00  0.00     0.016 A 
ATOM     34  C   UNL A   1      37.312  31.493  30.759  1.00  0.00     0.016 A 
ATOM     35  C   UNL A   1      39.349  30.102  32.100  1.00  0.00     0.010 A 
ATOM     36  C   UNL A   1      38.295  30.819  30.030  1.00  0.00     0.010 A 
ATOM     37  C   UNL A   1      39.354  30.181  30.700  1.00  0.00    -0.014 A 
BRANCH  37  38
ATOM     38  C   UNL A   1      40.598  29.822  29.978  1.00  0.00     0.031 A 
ATOM     39  C   UNL A   1      40.705  28.439  29.386  1.00  0.00     0.074 A 
ATOM     40  C   UNL A   1      41.569  30.728  29.769  1.00  0.00     0.049 A 
ATOM     41  N   UNL A   1      41.685  27.897  28.711  1.00  0.00    -0.248 NA
ATOM     42  C   UNL A   1      39.548  27.549  29.583  1.00  0.00     0.031 C 
ATOM     43  C   UNL A   1      41.553  32.111  30.239  1.00  0.00     0.029 A 
ATOM     44  N   UNL A   1      42.759  30.612  29.097  1.00  0.00    -0.354 N 
ATOM     45  C   UNL A   1      41.265  26.607  28.407  1.00  0.00     0.074 A 
ATOM     46  C   UNL A   1      39.962  26.431  29.007  1.00  0.00     0.031 C 
ATOM     47  C   UNL A   1      42.686  32.718  29.842  1.00  0.00     0.029 A 
ATOM     48  C   UNL A   1      43.517  31.757  29.120  1.00  0.00     0.049 A 
ATOM     49  H   UNL A   1      43.043  29.786  28.641  1.00  0.00     0.167 HD
ATOM     50  C   UNL A   1      41.900  25.659  27.680  1.00  0.00     0.037 A 
ATOM     51  C   UNL A   1      44.749  31.989  28.629  1.00  0.00     0.037 A 
ATOM     52  C   UNL A   1      43.189  25.839  27.072  1.00  0.00     0.049 A 
ATOM     53  C   UNL A   1      45.468  30.889  27.890  1.00  0.00     0.074 A 
ATOM     54  C   UNL A   1      43.918  24.940  26.314  1.00  0.00     0.029 A 
ATOM     55  N   UNL A   1      43.944  26.999  27.154  1.00  0.00    -0.354 N 
ATOM     56  N   UNL A   1      45.059  29.676  27.602  1.00  0.00    -0.248 NA
ATOM     57  C   UNL A   1      46.821  31.193  27.402  1.00  0.00     0.031 C 
ATOM     58  C   UNL A   1      45.137  25.539  25.979  1.00  0.00     0.029 A 
ATOM     59  C   UNL A   1      45.140  26.832  26.478  1.00  0.00     0.049 A 
ATOM     60  H   UNL A   1      43.669  27.820  27.623  1.00  0.00     0.167 HD
ATOM     61  C   UNL A   1      46.085  29.090  26.871  1.00  0.00     0.074 A 
ATOM     62  C   UNL A   1      47.129  30.084  26.746  1.00  0.00     0.031 C 
ATOM     63  C   UNL A   1      46.161  27.840  26.349  1.00  0.00     0.037 A 
BRANCH  50  64
ATOM     64  C   UNL A   1      41.214  24.334  27.516  1.00  0.00     0.057 A 
ATOM     65  C   UNL A   1      40.156  24.151  26.617  1.00  0.00     0.134 A 
ATOM     66  C   UNL A   1      41.645  23.215  28.241  1.00  0.00     0.134 A 
ATOM     67  F   UNL A   1      39.681  25.186  25.905  1.00  0.00    -0.206 F 
ATOM     68  C   UNL A   1      39.541  22.908  26.456  1.00  0.00     0.040 A 
ATOM     69  C   UNL A   1      41.058  21.961  28.068  1.00  0.00     0.040 A 
ATOM     70  F   UNL A   1      42.654  23.321  29.119  1.00  0.00    -0.206 F 
ATOM     71  C   UNL A   1      39.998  21.806  27.176  1.00  0.00     0.006 A 
ENDBRANCH  50  64
BRANCH  51  72
ATOM     72  C   UNL A   1      45.403  33.307  28.833  1.00  0.00     0.057 A 
ATOM     73  C   UNL A   1      46.157  33.579  29.982  1.00  0.00     0.134 A 
ATOM     74  C   UNL A   1      45.241  34.348  27.910  1.00  0.00     0.134 A 
ATOM     75  F   UNL A   1      46.330  32.632  30.915  1.00  0.00    -0.206 F 
ATOM     76  C   UNL A   1      46.699  34.844  30.220  1.00  0.00     0.040 A 
ATOM     77  C   UNL A   1      45.802  35.609  28.120  1.00  0.00     0.040 A 
ATOM     78  F   UNL A   1      44.531  34.155  26.789  1.00  0.00    -0.206 F 
ATOM     79  C   UNL A   1      46.523  35.862  29.285  1.00  0.00     0.006 A 
ENDBRANCH  51  72
BRANCH  63  80
ATOM     80  C   UNL A   1      47.386  27.496  25.552  1.00  0.00     0.057 A 
ATOM     81  C   UNL A   1      47.436  27.651  24.161  1.00  0.00     0.134 A 
ATOM     82  C   UNL A   1      48.545  27.040  26.193  1.00  0.00     0.134 A 
ATOM     83  F   UNL A   1      46.359  28.076  23.484  1.00  0.00    -0.206 F 
ATOM     84  C   UNL A   1      48.585  27.334  23.432  1.00  0.00     0.040 A 
ATOM     85  C   UNL A   1      49.709  26.749  25.479  1.00  0.00     0.040 A 
ATOM     86  F   UNL A   1      48.571  26.882  27.524  1.00  0.00    -0.206 F 
ATOM     87  C   UNL A   1      49.727  26.888  24.094  1.00  0.00     0.006 A 
ENDBRANCH  63  80
ENDBRANCH  37  38
ENDBRANCH  30  32
ENDBRANCH  29  30
ENDBRANCH  28  29
ENDBRANCH  27  28
ENDBRANCH  26  27
ENDBRANCH  25  26
ENDBRANCH   1  25
TORSDOF 21
ENDMDL
