MODEL 1
REMARK VINA RESULT:      -8.6      0.000      0.000
REMARK SMILES CC(C)Oc1ccc(-c2ccc(/C(=C\c3ccc(S(C)(=O)=O)cc3)C(=O)OCCOCCOCCOCCOC(=O)c3ccc(-c4c5nc(c(-c6c(F)cccc6F)c6ccc([nH]6)c(-c6c(F)cccc6F)c6nc(c(-c7c(F)cccc7F)c7ccc4[nH]7)C=C6)C=C5)cc3)cc2)cc1
REMARK SMILES IDX 32 1 31 2 30 3 29 4 28 5 27 6 25 7 26 8 13 9 14 10 12 11
REMARK SMILES IDX 9 12 10 13 97 14 11 15 96 16 8 17 5 18 6 19 99 20 7 21 98 22
REMARK SMILES IDX 4 23 2 24 1 25 3 26 15 27 16 28 24 29 17 30 23 31 18 32
REMARK SMILES IDX 19 33 20 34 21 35 22 36 33 37 34 38 35 39 36 40 37 41 38 42
REMARK SMILES IDX 39 43 40 44 41 45 42 46 43 47 95 48 44 49 94 50 45 51 46 52
REMARK SMILES IDX 47 53 88 54 48 55 93 56 87 57 89 58 49 59 92 60 86 61 85 62
REMARK SMILES IDX 50 64 76 65 59 66 75 67 60 68 63 69 74 70 90 71 61 72 62 73
REMARK SMILES IDX 73 75 91 76 64 77 51 78 52 79 57 80 53 81 54 82 56 83 58 84
REMARK SMILES IDX 55 85 77 86 78 87 83 88 79 89 80 90 82 91 84 92 81 93 65 94
REMARK SMILES IDX 66 95 71 96 67 97 68 98 70 99 72 100 69 101
REMARK H PARENT 89 63 63 74
REMARK Flexibility Score: inf
ROOT
ATOM      1  C   UNL A   1      32.776  36.605  32.039  1.00  0.00     0.188 C 
ENDROOT
BRANCH   1   2
ATOM      2  C   UNL A   1      33.844  37.216  32.969  1.00  0.00     0.188 C 
BRANCH   2   3
ATOM      3  O   UNL A   1      34.696  36.274  33.601  1.00  0.00    -0.376 OA
BRANCH   3   4
ATOM      4  C   UNL A   1      34.486  34.903  33.305  1.00  0.00     0.202 C 
BRANCH   4   5
ATOM      5  C   UNL A   1      35.240  33.883  34.169  1.00  0.00     0.261 C 
BRANCH   5   6
ATOM      6  O   UNL A   1      36.426  33.335  33.574  1.00  0.00    -0.460 OA
BRANCH   6   7
ATOM      7  C   UNL A   1      37.535  34.117  33.520  1.00  0.00     0.338 C 
ATOM      8  O   UNL A   1      37.657  35.111  32.822  1.00  0.00    -0.246 OA
BRANCH   7   9
ATOM      9  C   UNL A   1      38.529  33.671  34.566  1.00  0.00     0.067 C 
ATOM     10  C   UNL A   1      38.715  34.550  35.588  1.00  0.00     0.024 C 
BRANCH   9  11
ATOM     11  C   UNL A   1      39.275  32.381  34.378  1.00  0.00    -0.011 A 
ATOM     12  C   UNL A   1      40.960  30.053  34.295  1.00  0.00    -0.018 A 
ATOM     13  C   UNL A   1      39.807  30.103  35.088  1.00  0.00     0.009 A 
ATOM     14  C   UNL A   1      41.224  31.167  33.493  1.00  0.00     0.009 A 
ATOM     15  C   UNL A   1      38.962  31.219  35.086  1.00  0.00     0.009 A 
ATOM     16  C   UNL A   1      40.388  32.296  33.525  1.00  0.00     0.009 A 
BRANCH  12  17
ATOM     17  C   UNL A   1      41.796  28.840  34.252  1.00  0.00    -0.018 A 
ATOM     18  C   UNL A   1      43.485  26.575  34.159  1.00  0.00     0.119 A 
ATOM     19  C   UNL A   1      43.683  27.631  33.277  1.00  0.00     0.047 A 
ATOM     20  C   UNL A   1      42.466  26.648  35.103  1.00  0.00     0.047 A 
ATOM     21  C   UNL A   1      42.846  28.746  33.321  1.00  0.00     0.012 A 
ATOM     22  C   UNL A   1      41.618  27.764  35.138  1.00  0.00     0.012 A 
BRANCH  18  23
ATOM     23  O   UNL A   1      44.417  25.580  34.131  1.00  0.00    -0.491 OA
BRANCH  23  24
ATOM     24  C   UNL A   1      44.036  24.303  33.598  1.00  0.00     0.167 C 
ATOM     25  C   UNL A   1      44.465  24.121  32.147  1.00  0.00     0.052 C 
ATOM     26  C   UNL A   1      44.404  23.110  34.480  1.00  0.00     0.052 C 
ENDBRANCH  23  24
ENDBRANCH  18  23
ENDBRANCH  12  17
ENDBRANCH   9  11
BRANCH  10  27
ATOM     27  C   UNL A   1      39.532  34.368  36.800  1.00  0.00    -0.025 A 
ATOM     28  C   UNL A   1      38.842  34.369  38.020  1.00  0.00     0.009 A 
ATOM     29  C   UNL A   1      40.891  34.022  36.772  1.00  0.00     0.009 A 
ATOM     30  C   UNL A   1      39.450  33.877  39.173  1.00  0.00     0.021 A 
ATOM     31  C   UNL A   1      41.505  33.517  37.925  1.00  0.00     0.021 A 
ATOM     32  C   UNL A   1      40.764  33.409  39.107  1.00  0.00     0.067 A 
BRANCH  32  33
ATOM     33  S   UNL A   1      41.395  32.481  40.486  1.00  0.00     0.175 S 
ATOM     34  C   UNL A   1      42.067  33.707  41.569  1.00  0.00     0.163 C 
ATOM     35  O   UNL A   1      40.248  31.879  41.142  1.00  0.00    -0.224 OA
ATOM     36  O   UNL A   1      42.488  31.658  40.005  1.00  0.00    -0.224 OA
ENDBRANCH  32  33
ENDBRANCH  10  27
ENDBRANCH   7   9
ENDBRANCH   6   7
ENDBRANCH   5   6
ENDBRANCH   4   5
ENDBRANCH   3   4
ENDBRANCH   2   3
ENDBRANCH   1   2
BRANCH   1  37
ATOM     37  O   UNL A   1      32.696  37.042  30.691  1.00  0.00    -0.377 OA
BRANCH  37  38
ATOM     38  C   UNL A   1      32.685  36.073  29.647  1.00  0.00     0.188 C 
BRANCH  38  39
ATOM     39  C   UNL A   1      34.008  35.485  29.094  1.00  0.00     0.188 C 
BRANCH  39  40
ATOM     40  O   UNL A   1      34.464  34.318  29.757  1.00  0.00    -0.376 OA
BRANCH  40  41
ATOM     41  C   UNL A   1      35.727  33.793  29.395  1.00  0.00     0.202 C 
BRANCH  41  42
ATOM     42  C   UNL A   1      35.960  32.289  29.604  1.00  0.00     0.261 C 
BRANCH  42  43
ATOM     43  O   UNL A   1      36.836  31.924  30.679  1.00  0.00    -0.460 OA
BRANCH  43  44
ATOM     44  C   UNL A   1      36.833  30.634  31.074  1.00  0.00     0.338 C 
ATOM     45  O   UNL A   1      35.940  30.037  31.652  1.00  0.00    -0.246 OA
BRANCH  44  46
ATOM     46  C   UNL A   1      38.045  30.003  30.514  1.00  0.00     0.060 A 
ATOM     47  C   UNL A   1      38.984  29.418  31.377  1.00  0.00     0.016 A 
ATOM     48  C   UNL A   1      38.235  29.973  29.131  1.00  0.00     0.016 A 
ATOM     49  C   UNL A   1      40.136  28.829  30.857  1.00  0.00     0.010 A 
ATOM     50  C   UNL A   1      39.402  29.412  28.614  1.00  0.00     0.010 A 
ATOM     51  C   UNL A   1      40.373  28.874  29.477  1.00  0.00    -0.014 A 
BRANCH  51  52
ATOM     52  C   UNL A   1      41.731  28.604  28.949  1.00  0.00     0.031 A 
ATOM     53  C   UNL A   1      42.022  27.212  28.462  1.00  0.00     0.074 A 
ATOM     54  C   UNL A   1      42.681  29.554  28.909  1.00  0.00     0.049 A 
ATOM     55  N   UNL A   1      43.152  26.685  28.071  1.00  0.00    -0.248 NA
ATOM     56  C   UNL A   1      40.878  26.286  28.423  1.00  0.00     0.031 C 
ATOM     57  C   UNL A   1      42.504  30.950  29.297  1.00  0.00     0.029 A 
ATOM     58  N   UNL A   1      43.998  29.470  28.534  1.00  0.00    -0.354 N 
ATOM     59  C   UNL A   1      42.857  25.364  27.754  1.00  0.00     0.074 A 
ATOM     60  C   UNL A   1      41.452  25.162  28.028  1.00  0.00     0.031 C 
ATOM     61  C   UNL A   1      43.678  31.591  29.158  1.00  0.00     0.029 A 
ATOM     62  C   UNL A   1      44.694  30.640  28.712  1.00  0.00     0.049 A 
ATOM     63  H   UNL A   1      44.405  28.650  28.172  1.00  0.00     0.167 HD
ATOM     64  C   UNL A   1      43.683  24.407  27.271  1.00  0.00     0.037 A 
ATOM     65  C   UNL A   1      46.009  30.897  28.559  1.00  0.00     0.037 A 
ATOM     66  C   UNL A   1      45.081  24.613  27.009  1.00  0.00     0.049 A 
ATOM     67  C   UNL A   1      46.930  29.790  28.110  1.00  0.00     0.074 A 
ATOM     68  C   UNL A   1      46.008  23.711  26.520  1.00  0.00     0.029 A 
ATOM     69  N   UNL A   1      45.755  25.806  27.226  1.00  0.00    -0.354 N 
ATOM     70  N   UNL A   1      46.647  28.546  27.806  1.00  0.00    -0.248 NA
ATOM     71  C   UNL A   1      48.358  30.123  27.985  1.00  0.00     0.031 C 
ATOM     72  C   UNL A   1      47.256  24.341  26.495  1.00  0.00     0.029 A 
ATOM     73  C   UNL A   1      47.092  25.656  26.901  1.00  0.00     0.049 A 
ATOM     74  H   UNL A   1      45.343  26.635  27.561  1.00  0.00     0.167 HD
ATOM     75  C   UNL A   1      47.846  27.964  27.409  1.00  0.00     0.074 A 
ATOM     76  C   UNL A   1      48.861  28.991  27.515  1.00  0.00     0.031 C 
ATOM     77  C   UNL A   1      48.085  26.698  26.987  1.00  0.00     0.037 A 
BRANCH  64  78
ATOM     78  C   UNL A   1      43.095  23.047  27.035  1.00  0.00     0.057 A 
ATOM     79  C   UNL A   1      42.835  22.156  28.084  1.00  0.00     0.134 A 
ATOM     80  C   UNL A   1      42.776  22.626  25.737  1.00  0.00     0.134 A 
ATOM     81  F   UNL A   1      43.135  22.488  29.349  1.00  0.00    -0.206 F 
ATOM     82  C   UNL A   1      42.307  20.884  27.849  1.00  0.00     0.040 A 
ATOM     83  C   UNL A   1      42.219  21.370  25.493  1.00  0.00     0.040 A 
ATOM     84  F   UNL A   1      42.998  23.429  24.686  1.00  0.00    -0.206 F 
ATOM     85  C   UNL A   1      41.991  20.492  26.550  1.00  0.00     0.006 A 
ENDBRANCH  64  78
BRANCH  65  86
ATOM     86  C   UNL A   1      46.544  32.254  28.843  1.00  0.00     0.057 A 
ATOM     87  C   UNL A   1      46.688  33.203  27.824  1.00  0.00     0.134 A 
ATOM     88  C   UNL A   1      46.951  32.626  30.130  1.00  0.00     0.134 A 
ATOM     89  F   UNL A   1      46.340  32.899  26.565  1.00  0.00    -0.206 F 
ATOM     90  C   UNL A   1      47.236  34.464  28.068  1.00  0.00     0.040 A 
ATOM     91  C   UNL A   1      47.474  33.893  30.395  1.00  0.00     0.040 A 
ATOM     92  F   UNL A   1      46.841  31.764  31.152  1.00  0.00    -0.206 F 
ATOM     93  C   UNL A   1      47.626  34.813  29.360  1.00  0.00     0.006 A 
ENDBRANCH  65  86
BRANCH  77  94
ATOM     94  C   UNL A   1      49.478  26.361  26.536  1.00  0.00     0.057 A 
ATOM     95  C   UNL A   1      50.391  25.692  27.360  1.00  0.00     0.134 A 
ATOM     96  C   UNL A   1      49.882  26.651  25.226  1.00  0.00     0.134 A 
ATOM     97  F   UNL A   1      50.072  25.392  28.628  1.00  0.00    -0.206 F 
ATOM     98  C   UNL A   1      51.663  25.341  26.902  1.00  0.00     0.040 A 
ATOM     99  C   UNL A   1      51.138  26.278  24.748  1.00  0.00     0.040 A 
ATOM    100  F   UNL A   1      49.051  27.280  24.380  1.00  0.00    -0.206 F 
ATOM    101  C   UNL A   1      52.035  25.624  25.589  1.00  0.00     0.006 A 
ENDBRANCH  77  94
ENDBRANCH  51  52
ENDBRANCH  44  46
ENDBRANCH  43  44
ENDBRANCH  42  43
ENDBRANCH  41  42
ENDBRANCH  40  41
ENDBRANCH  39  40
ENDBRANCH  38  39
ENDBRANCH  37  38
ENDBRANCH   1  37
TORSDOF 26
ENDMDL
MODEL 2
REMARK VINA RESULT:      -8.3      1.274      2.067
REMARK SMILES CC(C)Oc1ccc(-c2ccc(/C(=C\c3ccc(S(C)(=O)=O)cc3)C(=O)OCCOCCOCCOCCOC(=O)c3ccc(-c4c5nc(c(-c6c(F)cccc6F)c6ccc([nH]6)c(-c6c(F)cccc6F)c6nc(c(-c7c(F)cccc7F)c7ccc4[nH]7)C=C6)C=C5)cc3)cc2)cc1
REMARK SMILES IDX 32 1 31 2 30 3 29 4 28 5 27 6 25 7 26 8 13 9 14 10 12 11
REMARK SMILES IDX 9 12 10 13 97 14 11 15 96 16 8 17 5 18 6 19 99 20 7 21 98 22
REMARK SMILES IDX 4 23 2 24 1 25 3 26 15 27 16 28 24 29 17 30 23 31 18 32
REMARK SMILES IDX 19 33 20 34 21 35 22 36 33 37 34 38 35 39 36 40 37 41 38 42
REMARK SMILES IDX 39 43 40 44 41 45 42 46 43 47 95 48 44 49 94 50 45 51 46 52
REMARK SMILES IDX 47 53 88 54 48 55 93 56 87 57 89 58 49 59 92 60 86 61 85 62
REMARK SMILES IDX 50 64 76 65 59 66 75 67 60 68 63 69 74 70 90 71 61 72 62 73
REMARK SMILES IDX 73 75 91 76 64 77 51 78 52 79 57 80 53 81 54 82 56 83 58 84
REMARK SMILES IDX 55 85 77 86 78 87 83 88 79 89 80 90 82 91 84 92 81 93 65 94
REMARK SMILES IDX 66 95 71 96 67 97 68 98 70 99 72 100 69 101
REMARK H PARENT 89 63 63 74
REMARK Flexibility Score: inf
ROOT
ATOM      1  C   UNL A   1      32.780  36.361  31.800  1.00  0.00     0.188 C 
ENDROOT
BRANCH   1   2
ATOM      2  C   UNL A   1      33.786  36.972  32.797  1.00  0.00     0.188 C 
BRANCH   2   3
ATOM      3  O   UNL A   1      34.855  36.116  33.167  1.00  0.00    -0.376 OA
BRANCH   3   4
ATOM      4  C   UNL A   1      34.713  34.735  32.882  1.00  0.00     0.202 C 
BRANCH   4   5
ATOM      5  C   UNL A   1      35.148  33.752  33.978  1.00  0.00     0.261 C 
BRANCH   5   6
ATOM      6  O   UNL A   1      36.452  33.179  33.803  1.00  0.00    -0.460 OA
BRANCH   6   7
ATOM      7  C   UNL A   1      37.520  33.855  34.300  1.00  0.00     0.338 C 
ATOM      8  O   UNL A   1      37.891  34.955  33.919  1.00  0.00    -0.246 OA
BRANCH   7   9
ATOM      9  C   UNL A   1      38.080  33.125  35.497  1.00  0.00     0.067 C 
ATOM     10  C   UNL A   1      37.572  33.519  36.696  1.00  0.00     0.024 C 
BRANCH   9  11
ATOM     11  C   UNL A   1      39.172  32.112  35.303  1.00  0.00    -0.011 A 
ATOM     12  C   UNL A   1      41.219  30.245  34.533  1.00  0.00    -0.018 A 
ATOM     13  C   UNL A   1      41.522  31.557  34.915  1.00  0.00     0.009 A 
ATOM     14  C   UNL A   1      39.877  29.861  34.601  1.00  0.00     0.009 A 
ATOM     15  C   UNL A   1      40.527  32.448  35.338  1.00  0.00     0.009 A 
ATOM     16  C   UNL A   1      38.882  30.772  34.993  1.00  0.00     0.009 A 
BRANCH  12  17
ATOM     17  C   UNL A   1      42.288  29.299  34.164  1.00  0.00    -0.018 A 
ATOM     18  C   UNL A   1      44.312  27.500  33.354  1.00  0.00     0.119 A 
ATOM     19  C   UNL A   1      43.054  27.448  32.764  1.00  0.00     0.047 A 
ATOM     20  C   UNL A   1      44.577  28.457  34.329  1.00  0.00     0.047 A 
ATOM     21  C   UNL A   1      42.056  28.335  33.168  1.00  0.00     0.012 A 
ATOM     22  C   UNL A   1      43.568  29.339  34.742  1.00  0.00     0.012 A 
BRANCH  18  23
ATOM     23  O   UNL A   1      45.265  26.683  32.821  1.00  0.00    -0.491 OA
BRANCH  23  24
ATOM     24  C   UNL A   1      45.605  26.844  31.436  1.00  0.00     0.167 C 
ATOM     25  C   UNL A   1      46.145  28.234  31.122  1.00  0.00     0.052 C 
ATOM     26  C   UNL A   1      46.471  25.726  30.859  1.00  0.00     0.052 C 
ENDBRANCH  23  24
ENDBRANCH  18  23
ENDBRANCH  12  17
ENDBRANCH   9  11
BRANCH  10  27
ATOM     27  C   UNL A   1      37.835  32.940  38.024  1.00  0.00    -0.025 A 
ATOM     28  C   UNL A   1      38.719  33.651  38.847  1.00  0.00     0.009 A 
ATOM     29  C   UNL A   1      37.126  31.850  38.548  1.00  0.00     0.009 A 
ATOM     30  C   UNL A   1      38.776  33.386  40.213  1.00  0.00     0.021 A 
ATOM     31  C   UNL A   1      37.170  31.585  39.923  1.00  0.00     0.021 A 
ATOM     32  C   UNL A   1      37.964  32.386  40.751  1.00  0.00     0.067 A 
BRANCH  32  33
ATOM     33  S   UNL A   1      37.798  32.298  42.520  1.00  0.00     0.175 S 
ATOM     34  C   UNL A   1      37.510  30.585  42.848  1.00  0.00     0.163 C 
ATOM     35  O   UNL A   1      39.092  32.654  43.076  1.00  0.00    -0.224 OA
ATOM     36  O   UNL A   1      36.606  33.035  42.891  1.00  0.00    -0.224 OA
ENDBRANCH  32  33
ENDBRANCH  10  27
ENDBRANCH   7   9
ENDBRANCH   6   7
ENDBRANCH   5   6
ENDBRANCH   4   5
ENDBRANCH   3   4
ENDBRANCH   2   3
ENDBRANCH   1   2
BRANCH   1  37
ATOM     37  O   UNL A   1      32.631  36.948  30.516  1.00  0.00    -0.377 OA
BRANCH  37  38
ATOM     38  C   UNL A   1      32.686  36.115  29.362  1.00  0.00     0.188 C 
BRANCH  38  39
ATOM     39  C   UNL A   1      34.047  35.647  28.785  1.00  0.00     0.188 C 
BRANCH  39  40
ATOM     40  O   UNL A   1      34.577  34.477  29.384  1.00  0.00    -0.376 OA
BRANCH  40  41
ATOM     41  C   UNL A   1      35.918  34.127  29.097  1.00  0.00     0.202 C 
BRANCH  41  42
ATOM     42  C   UNL A   1      36.325  32.657  29.279  1.00  0.00     0.261 C 
BRANCH  42  43
ATOM     43  O   UNL A   1      36.923  32.314  30.537  1.00  0.00    -0.460 OA
BRANCH  43  44
ATOM     44  C   UNL A   1      36.841  31.027  30.935  1.00  0.00     0.338 C 
ATOM     45  O   UNL A   1      35.896  30.477  31.476  1.00  0.00    -0.246 OA
BRANCH  44  46
ATOM     46  C   UNL A   1      38.043  30.336  30.429  1.00  0.00     0.060 A 
ATOM     47  C   UNL A   1      39.065  29.978  31.322  1.00  0.00     0.016 A 
ATOM     48  C   UNL A   1      38.143  30.022  29.072  1.00  0.00     0.016 A 
ATOM     49  C   UNL A   1      40.209  29.335  30.850  1.00  0.00     0.010 A 
ATOM     50  C   UNL A   1      39.300  29.407  28.597  1.00  0.00     0.010 A 
ATOM     51  C   UNL A   1      40.352  29.096  29.478  1.00  0.00    -0.014 A 
BRANCH  51  52
ATOM     52  C   UNL A   1      41.684  28.770  28.916  1.00  0.00     0.031 A 
ATOM     53  C   UNL A   1      41.923  27.352  28.477  1.00  0.00     0.074 A 
ATOM     54  C   UNL A   1      42.656  29.691  28.808  1.00  0.00     0.049 A 
ATOM     55  N   UNL A   1      43.025  26.779  28.071  1.00  0.00    -0.248 NA
ATOM     56  C   UNL A   1      40.754  26.456  28.513  1.00  0.00     0.031 C 
ATOM     57  C   UNL A   1      42.528  31.106  29.145  1.00  0.00     0.029 A 
ATOM     58  N   UNL A   1      43.957  29.557  28.393  1.00  0.00    -0.354 N 
ATOM     59  C   UNL A   1      42.685  25.456  27.818  1.00  0.00     0.074 A 
ATOM     60  C   UNL A   1      41.286  25.303  28.145  1.00  0.00     0.031 C 
ATOM     61  C   UNL A   1      43.712  31.709  28.941  1.00  0.00     0.029 A 
ATOM     62  C   UNL A   1      44.689  30.713  28.501  1.00  0.00     0.049 A 
ATOM     63  H   UNL A   1      44.330  28.712  28.052  1.00  0.00     0.167 HD
ATOM     64  C   UNL A   1      43.470  24.458  27.348  1.00  0.00     0.037 A 
ATOM     65  C   UNL A   1      46.004  30.929  28.295  1.00  0.00     0.037 A 
ATOM     66  C   UNL A   1      44.863  24.616  27.032  1.00  0.00     0.049 A 
ATOM     67  C   UNL A   1      46.881  29.780  27.861  1.00  0.00     0.074 A 
ATOM     68  C   UNL A   1      45.750  23.670  26.550  1.00  0.00     0.029 A 
ATOM     69  N   UNL A   1      45.575  25.797  27.179  1.00  0.00    -0.354 N 
ATOM     70  N   UNL A   1      46.555  28.533  27.617  1.00  0.00    -0.248 NA
ATOM     71  C   UNL A   1      48.311  30.070  27.676  1.00  0.00     0.031 C 
ATOM     72  C   UNL A   1      47.012  24.265  26.458  1.00  0.00     0.029 A 
ATOM     73  C   UNL A   1      46.896  25.599  26.817  1.00  0.00     0.049 A 
ATOM     74  H   UNL A   1      45.196  26.650  27.493  1.00  0.00     0.167 HD
ATOM     75  C   UNL A   1      47.726  27.904  27.206  1.00  0.00     0.074 A 
ATOM     76  C   UNL A   1      48.770  28.907  27.237  1.00  0.00     0.031 C 
ATOM     77  C   UNL A   1      47.918  26.616  26.828  1.00  0.00     0.037 A 
BRANCH  64  78
ATOM     78  C   UNL A   1      42.840  23.106  27.186  1.00  0.00     0.057 A 
ATOM     79  C   UNL A   1      42.579  22.270  28.280  1.00  0.00     0.134 A 
ATOM     80  C   UNL A   1      42.480  22.637  25.916  1.00  0.00     0.134 A 
ATOM     81  F   UNL A   1      42.916  22.650  29.522  1.00  0.00    -0.206 F 
ATOM     82  C   UNL A   1      42.011  21.006  28.114  1.00  0.00     0.040 A 
ATOM     83  C   UNL A   1      41.884  21.387  25.741  1.00  0.00     0.040 A 
ATOM     84  F   UNL A   1      42.701  23.385  24.824  1.00  0.00    -0.206 F 
ATOM     85  C   UNL A   1      41.655  20.564  26.841  1.00  0.00     0.006 A 
ENDBRANCH  64  78
BRANCH  65  86
ATOM     86  C   UNL A   1      46.583  32.281  28.506  1.00  0.00     0.057 A 
ATOM     87  C   UNL A   1      47.026  32.690  29.769  1.00  0.00     0.134 A 
ATOM     88  C   UNL A   1      46.680  33.206  27.459  1.00  0.00     0.134 A 
ATOM     89  F   UNL A   1      46.936  31.859  30.818  1.00  0.00    -0.206 F 
ATOM     90  C   UNL A   1      47.526  33.975  29.990  1.00  0.00     0.040 A 
ATOM     91  C   UNL A   1      47.205  34.484  27.659  1.00  0.00     0.040 A 
ATOM     92  F   UNL A   1      46.274  32.879  26.224  1.00  0.00    -0.206 F 
ATOM     93  C   UNL A   1      47.620  34.875  28.931  1.00  0.00     0.006 A 
ENDBRANCH  65  86
BRANCH  77  94
ATOM     94  C   UNL A   1      49.285  26.224  26.346  1.00  0.00     0.057 A 
ATOM     95  C   UNL A   1      49.718  26.473  25.038  1.00  0.00     0.134 A 
ATOM     96  C   UNL A   1      50.207  25.652  27.233  1.00  0.00     0.134 A 
ATOM     97  F   UNL A   1      48.884  27.010  24.135  1.00  0.00    -0.206 F 
ATOM     98  C   UNL A   1      51.013  26.149  24.625  1.00  0.00     0.040 A 
ATOM     99  C   UNL A   1      51.511  25.353  26.841  1.00  0.00     0.040 A 
ATOM    100  F   UNL A   1      49.861  25.399  28.505  1.00  0.00    -0.206 F 
ATOM    101  C   UNL A   1      51.917  25.598  25.532  1.00  0.00     0.006 A 
ENDBRANCH  77  94
ENDBRANCH  51  52
ENDBRANCH  44  46
ENDBRANCH  43  44
ENDBRANCH  42  43
ENDBRANCH  41  42
ENDBRANCH  40  41
ENDBRANCH  39  40
ENDBRANCH  38  39
ENDBRANCH  37  38
ENDBRANCH   1  37
TORSDOF 26
ENDMDL
MODEL 3
REMARK VINA RESULT:      -8.2      3.595      7.616
REMARK SMILES CC(C)Oc1ccc(-c2ccc(/C(=C\c3ccc(S(C)(=O)=O)cc3)C(=O)OCCOCCOCCOCCOC(=O)c3ccc(-c4c5nc(c(-c6c(F)cccc6F)c6ccc([nH]6)c(-c6c(F)cccc6F)c6nc(c(-c7c(F)cccc7F)c7ccc4[nH]7)C=C6)C=C5)cc3)cc2)cc1
REMARK SMILES IDX 32 1 31 2 30 3 29 4 28 5 27 6 25 7 26 8 13 9 14 10 12 11
REMARK SMILES IDX 9 12 10 13 97 14 11 15 96 16 8 17 5 18 6 19 99 20 7 21 98 22
REMARK SMILES IDX 4 23 2 24 1 25 3 26 15 27 16 28 24 29 17 30 23 31 18 32
REMARK SMILES IDX 19 33 20 34 21 35 22 36 33 37 34 38 35 39 36 40 37 41 38 42
REMARK SMILES IDX 39 43 40 44 41 45 42 46 43 47 95 48 44 49 94 50 45 51 46 52
REMARK SMILES IDX 47 53 88 54 48 55 93 56 87 57 89 58 49 59 92 60 86 61 85 62
REMARK SMILES IDX 50 64 76 65 59 66 75 67 60 68 63 69 74 70 90 71 61 72 62 73
REMARK SMILES IDX 73 75 91 76 64 77 51 78 52 79 57 80 53 81 54 82 56 83 58 84
REMARK SMILES IDX 55 85 77 86 78 87 83 88 79 89 80 90 82 91 84 92 81 93 65 94
REMARK SMILES IDX 66 95 71 96 67 97 68 98 70 99 72 100 69 101
REMARK H PARENT 89 63 63 74
REMARK Flexibility Score: inf
ROOT
ATOM      1  C   UNL A   1      33.518  35.796  29.301  1.00  0.00     0.188 C 
ENDROOT
BRANCH   1   2
ATOM      2  C   UNL A   1      33.094  34.483  28.612  1.00  0.00     0.188 C 
BRANCH   2   3
ATOM      3  O   UNL A   1      34.056  33.441  28.668  1.00  0.00    -0.376 OA
BRANCH   3   4
ATOM      4  C   UNL A   1      35.394  33.770  28.336  1.00  0.00     0.202 C 
BRANCH   4   5
ATOM      5  C   UNL A   1      36.378  33.933  29.503  1.00  0.00     0.261 C 
BRANCH   5   6
ATOM      6  O   UNL A   1      36.923  32.710  30.018  1.00  0.00    -0.460 OA
BRANCH   6   7
ATOM      7  C   UNL A   1      38.254  32.486  29.862  1.00  0.00     0.338 C 
ATOM      8  O   UNL A   1      39.138  33.243  30.230  1.00  0.00    -0.246 OA
BRANCH   7   9
ATOM      9  C   UNL A   1      38.481  31.096  29.316  1.00  0.00     0.067 C 
ATOM     10  C   UNL A   1      39.766  30.656  29.394  1.00  0.00     0.024 C 
BRANCH   9  11
ATOM     11  C   UNL A   1      37.341  30.355  28.680  1.00  0.00    -0.011 A 
ATOM     12  C   UNL A   1      35.021  29.299  27.348  1.00  0.00    -0.018 A 
ATOM     13  C   UNL A   1      36.266  29.376  26.714  1.00  0.00     0.009 A 
ATOM     14  C   UNL A   1      34.967  29.703  28.685  1.00  0.00     0.009 A 
ATOM     15  C   UNL A   1      37.405  29.843  27.382  1.00  0.00     0.009 A 
ATOM     16  C   UNL A   1      36.108  30.203  29.337  1.00  0.00     0.009 A 
BRANCH  12  17
ATOM     17  C   UNL A   1      33.851  28.734  26.652  1.00  0.00    -0.018 A 
ATOM     18  C   UNL A   1      31.672  27.613  25.243  1.00  0.00     0.119 A 
ATOM     19  C   UNL A   1      32.675  28.287  24.557  1.00  0.00     0.047 A 
ATOM     20  C   UNL A   1      31.757  27.473  26.625  1.00  0.00     0.047 A 
ATOM     21  C   UNL A   1      33.747  28.843  25.255  1.00  0.00     0.012 A 
ATOM     22  C   UNL A   1      32.829  28.043  27.326  1.00  0.00     0.012 A 
BRANCH  18  23
ATOM     23  O   UNL A   1      30.725  26.997  24.480  1.00  0.00    -0.491 OA
BRANCH  23  24
ATOM     24  C   UNL A   1      31.157  26.065  23.477  1.00  0.00     0.167 C 
ATOM     25  C   UNL A   1      30.446  24.721  23.580  1.00  0.00     0.052 C 
ATOM     26  C   UNL A   1      31.169  26.623  22.054  1.00  0.00     0.052 C 
ENDBRANCH  23  24
ENDBRANCH  18  23
ENDBRANCH  12  17
ENDBRANCH   9  11
BRANCH  10  27
ATOM     27  C   UNL A   1      40.288  29.324  29.044  1.00  0.00    -0.025 A 
ATOM     28  C   UNL A   1      40.983  29.228  27.830  1.00  0.00     0.009 A 
ATOM     29  C   UNL A   1      40.279  28.233  29.925  1.00  0.00     0.009 A 
ATOM     30  C   UNL A   1      41.792  28.126  27.568  1.00  0.00     0.021 A 
ATOM     31  C   UNL A   1      41.099  27.126  29.672  1.00  0.00     0.021 A 
ATOM     32  C   UNL A   1      41.882  27.103  28.513  1.00  0.00     0.067 A 
BRANCH  32  33
ATOM     33  S   UNL A   1      43.167  25.888  28.317  1.00  0.00     0.175 S 
ATOM     34  C   UNL A   1      43.196  25.558  26.580  1.00  0.00     0.163 C 
ATOM     35  O   UNL A   1      44.414  26.542  28.674  1.00  0.00    -0.224 OA
ATOM     36  O   UNL A   1      42.744  24.680  28.998  1.00  0.00    -0.224 OA
ENDBRANCH  32  33
ENDBRANCH  10  27
ENDBRANCH   7   9
ENDBRANCH   6   7
ENDBRANCH   5   6
ENDBRANCH   4   5
ENDBRANCH   3   4
ENDBRANCH   2   3
ENDBRANCH   1   2
BRANCH   1  37
ATOM     37  O   UNL A   1      32.587  36.480  30.127  1.00  0.00    -0.377 OA
BRANCH  37  38
ATOM     38  C   UNL A   1      32.678  36.336  31.541  1.00  0.00     0.188 C 
BRANCH  38  39
ATOM     39  C   UNL A   1      34.039  36.048  32.224  1.00  0.00     0.188 C 
BRANCH  39  40
ATOM     40  O   UNL A   1      33.945  35.511  33.533  1.00  0.00    -0.376 OA
BRANCH  40  41
ATOM     41  C   UNL A   1      35.107  34.943  34.108  1.00  0.00     0.202 C 
BRANCH  41  42
ATOM     42  C   UNL A   1      36.109  34.261  33.165  1.00  0.00     0.261 C 
BRANCH  42  43
ATOM     43  O   UNL A   1      37.425  34.037  33.689  1.00  0.00    -0.460 OA
BRANCH  43  44
ATOM     44  C   UNL A   1      37.599  32.974  34.503  1.00  0.00     0.338 C 
ATOM     45  O   UNL A   1      36.848  32.582  35.381  1.00  0.00    -0.246 OA
BRANCH  44  46
ATOM     46  C   UNL A   1      38.787  32.243  34.018  1.00  0.00     0.060 A 
ATOM     47  C   UNL A   1      40.068  32.700  34.360  1.00  0.00     0.016 A 
ATOM     48  C   UNL A   1      38.625  31.092  33.246  1.00  0.00     0.016 A 
ATOM     49  C   UNL A   1      41.196  32.022  33.898  1.00  0.00     0.010 A 
ATOM     50  C   UNL A   1      39.753  30.433  32.758  1.00  0.00     0.010 A 
ATOM     51  C   UNL A   1      41.040  30.918  33.051  1.00  0.00    -0.014 A 
BRANCH  51  52
ATOM     52  C   UNL A   1      42.189  30.423  32.257  1.00  0.00     0.031 A 
ATOM     53  C   UNL A   1      42.772  29.091  32.637  1.00  0.00     0.074 A 
ATOM     54  C   UNL A   1      42.710  31.132  31.241  1.00  0.00     0.049 A 
ATOM     55  N   UNL A   1      43.845  28.492  32.191  1.00  0.00    -0.248 NA
ATOM     56  C   UNL A   1      42.046  28.336  33.673  1.00  0.00     0.031 C 
ATOM     57  C   UNL A   1      42.200  32.405  30.743  1.00  0.00     0.029 A 
ATOM     58  N   UNL A   1      43.807  30.875  30.457  1.00  0.00    -0.354 N 
ATOM     59  C   UNL A   1      43.928  27.300  32.901  1.00  0.00     0.074 A 
ATOM     60  C   UNL A   1      42.820  27.275  33.827  1.00  0.00     0.031 C 
ATOM     61  C   UNL A   1      42.995  32.831  29.745  1.00  0.00     0.029 A 
ATOM     62  C   UNL A   1      44.091  31.880  29.567  1.00  0.00     0.049 A 
ATOM     63  H   UNL A   1      44.339  30.049  30.527  1.00  0.00     0.167 HD
ATOM     64  C   UNL A   1      44.846  26.312  32.786  1.00  0.00     0.037 A 
ATOM     65  C   UNL A   1      45.137  32.024  28.728  1.00  0.00     0.037 A 
ATOM     66  C   UNL A   1      45.951  26.348  31.868  1.00  0.00     0.049 A 
ATOM     67  C   UNL A   1      46.200  30.954  28.682  1.00  0.00     0.074 A 
ATOM     68  C   UNL A   1      46.938  25.399  31.671  1.00  0.00     0.029 A 
ATOM     69  N   UNL A   1      46.220  27.395  30.999  1.00  0.00    -0.354 N 
ATOM     70  N   UNL A   1      46.272  29.828  29.350  1.00  0.00    -0.248 NA
ATOM     71  C   UNL A   1      47.329  31.177  27.766  1.00  0.00     0.031 C 
ATOM     72  C   UNL A   1      47.837  25.899  30.723  1.00  0.00     0.029 A 
ATOM     73  C   UNL A   1      47.370  27.126  30.279  1.00  0.00     0.049 A 
ATOM     74  H   UNL A   1      45.672  28.209  30.909  1.00  0.00     0.167 HD
ATOM     75  C   UNL A   1      47.424  29.188  28.902  1.00  0.00     0.074 A 
ATOM     76  C   UNL A   1      48.020  30.056  27.907  1.00  0.00     0.031 C 
ATOM     77  C   UNL A   1      47.936  27.989  29.273  1.00  0.00     0.037 A 
BRANCH  64  78
ATOM     78  C   UNL A   1      44.705  25.132  33.703  1.00  0.00     0.057 A 
ATOM     79  C   UNL A   1      44.175  23.910  33.268  1.00  0.00     0.134 A 
ATOM     80  C   UNL A   1      45.115  25.218  35.039  1.00  0.00     0.134 A 
ATOM     81  F   UNL A   1      43.745  23.766  32.005  1.00  0.00    -0.206 F 
ATOM     82  C   UNL A   1      44.030  22.827  34.137  1.00  0.00     0.040 A 
ATOM     83  C   UNL A   1      45.004  24.132  35.908  1.00  0.00     0.040 A 
ATOM     84  F   UNL A   1      45.632  26.358  35.522  1.00  0.00    -0.206 F 
ATOM     85  C   UNL A   1      44.453  22.934  35.460  1.00  0.00     0.006 A 
ENDBRANCH  64  78
BRANCH  65  86
ATOM     86  C   UNL A   1      45.246  33.231  27.868  1.00  0.00     0.057 A 
ATOM     87  C   UNL A   1      45.868  34.396  28.330  1.00  0.00     0.134 A 
ATOM     88  C   UNL A   1      44.706  33.259  26.575  1.00  0.00     0.134 A 
ATOM     89  F   UNL A   1      46.383  34.441  29.567  1.00  0.00    -0.206 F 
ATOM     90  C   UNL A   1      45.933  35.552  27.549  1.00  0.00     0.040 A 
ATOM     91  C   UNL A   1      44.788  34.398  25.773  1.00  0.00     0.040 A 
ATOM     92  F   UNL A   1      44.095  32.177  26.071  1.00  0.00    -0.206 F 
ATOM     93  C   UNL A   1      45.395  35.553  26.263  1.00  0.00     0.006 A 
ENDBRANCH  65  86
BRANCH  77  94
ATOM     94  C   UNL A   1      49.162  27.501  28.556  1.00  0.00     0.057 A 
ATOM     95  C   UNL A   1      50.456  27.738  29.036  1.00  0.00     0.134 A 
ATOM     96  C   UNL A   1      49.036  26.716  27.401  1.00  0.00     0.134 A 
ATOM     97  F   UNL A   1      50.649  28.489  30.131  1.00  0.00    -0.206 F 
ATOM     98  C   UNL A   1      51.580  27.228  28.383  1.00  0.00     0.040 A 
ATOM     99  C   UNL A   1      50.150  26.176  26.758  1.00  0.00     0.040 A 
ATOM    100  F   UNL A   1      47.824  26.439  26.895  1.00  0.00    -0.206 F 
ATOM    101  C   UNL A   1      51.428  26.436  27.246  1.00  0.00     0.006 A 
ENDBRANCH  77  94
ENDBRANCH  51  52
ENDBRANCH  44  46
ENDBRANCH  43  44
ENDBRANCH  42  43
ENDBRANCH  41  42
ENDBRANCH  40  41
ENDBRANCH  39  40
ENDBRANCH  38  39
ENDBRANCH  37  38
ENDBRANCH   1  37
TORSDOF 26
ENDMDL
