MODEL 1
REMARK VINA RESULT:     -11.0      0.000      0.000
REMARK SMILES O=C(Cn1c(-c2nc(-c3ccc(C(F)(F)F)cc3)no2)cc2ccccc21)OCCOCCOCCOCCOC(=O)c1ccc(-c2c3nc(c(-c4c(F)cccc4F)c4ccc([nH]4)c(-c4c(F)cccc4F)c4nc(c(-c5c(F)cccc5F)c5ccc2[nH]5)C=C4)C=C3)cc1
REMARK SMILES IDX 33 1 32 2 31 3 30 4 29 5 28 6 2 7 1 8 3 9 4 10 5 11 27 12
REMARK SMILES IDX 21 13 22 14 26 15 23 16 25 17 24 18 6 19 7 20 20 21 8 22
REMARK SMILES IDX 19 23 9 24 10 25 18 26 11 27 17 28 12 29 13 30 14 31 15 32
REMARK SMILES IDX 16 33 34 34 35 35 36 36 37 37 38 38 39 39 40 40 41 41 42 42
REMARK SMILES IDX 43 43 44 44 96 45 45 46 95 47 46 48 47 49 48 50 89 51 49 52
REMARK SMILES IDX 94 53 88 54 90 55 50 56 93 57 87 58 86 59 51 61 77 62 60 63
REMARK SMILES IDX 76 64 61 65 64 66 75 67 91 68 62 69 63 70 74 72 92 73 65 74
REMARK SMILES IDX 52 75 53 76 58 77 54 78 55 79 57 80 59 81 56 82 78 83 79 84
REMARK SMILES IDX 84 85 80 86 81 87 83 88 85 89 82 90 66 91 67 92 72 93 68 94
REMARK SMILES IDX 69 95 71 96 73 97 70 98
REMARK H PARENT 90 60 64 71
REMARK Flexibility Score: inf
ROOT
ATOM      1  C   UNL A   1      42.174  19.422  26.214  1.00  0.00     0.188 C 
ENDROOT
BRANCH   1   2
ATOM      2  C   UNL A   1      40.765  18.908  25.961  1.00  0.00     0.188 C 
BRANCH   2   3
ATOM      3  O   UNL A   1      39.619  19.761  25.941  1.00  0.00    -0.376 OA
BRANCH   3   4
ATOM      4  C   UNL A   1      39.553  21.164  26.119  1.00  0.00     0.202 C 
BRANCH   4   5
ATOM      5  C   UNL A   1      38.470  21.994  25.454  1.00  0.00     0.261 C 
BRANCH   5   6
ATOM      6  O   UNL A   1      37.142  21.471  25.530  1.00  0.00    -0.462 OA
BRANCH   6   7
ATOM      7  C   UNL A   1      36.012  22.135  25.836  1.00  0.00     0.326 C 
ATOM      8  O   UNL A   1      35.997  23.355  25.648  1.00  0.00    -0.250 OA
BRANCH   7   9
ATOM      9  C   UNL A   1      34.815  21.463  26.473  1.00  0.00     0.245 C 
BRANCH   9  10
ATOM     10  N   UNL A   1      33.747  21.051  25.580  1.00  0.00    -0.325 N 
ATOM     11  C   UNL A   1      32.593  21.751  25.242  1.00  0.00     0.109 A 
ATOM     12  C   UNL A   1      33.821  19.854  24.885  1.00  0.00     0.049 A 
ATOM     13  C   UNL A   1      31.909  20.946  24.345  1.00  0.00     0.042 A 
ATOM     14  C   UNL A   1      32.679  19.773  24.095  1.00  0.00     0.000 A 
ATOM     15  C   UNL A   1      34.799  18.841  24.899  1.00  0.00     0.027 A 
ATOM     16  C   UNL A   1      32.522  18.646  23.265  1.00  0.00     0.010 A 
ATOM     17  C   UNL A   1      34.612  17.727  24.088  1.00  0.00     0.002 A 
ATOM     18  C   UNL A   1      33.493  17.634  23.271  1.00  0.00     0.001 A 
BRANCH  11  19
ATOM     19  C   UNL A   1      32.198  23.055  25.740  1.00  0.00     0.274 A 
ATOM     20  N   UNL A   1      32.889  24.177  25.585  1.00  0.00    -0.185 NA
ATOM     21  O   UNL A   1      31.033  23.270  26.428  1.00  0.00    -0.332 OA
ATOM     22  C   UNL A   1      32.097  25.124  26.213  1.00  0.00     0.202 A 
ATOM     23  N   UNL A   1      30.975  24.619  26.745  1.00  0.00    -0.057 NA
BRANCH  22  24
ATOM     24  C   UNL A   1      32.433  26.540  26.369  1.00  0.00     0.023 A 
ATOM     25  C   UNL A   1      33.679  27.004  25.920  1.00  0.00     0.013 A 
ATOM     26  C   UNL A   1      31.610  27.424  27.082  1.00  0.00     0.013 A 
ATOM     27  C   UNL A   1      34.112  28.307  26.204  1.00  0.00     0.014 A 
ATOM     28  C   UNL A   1      32.049  28.730  27.375  1.00  0.00     0.014 A 
ATOM     29  C   UNL A   1      33.311  29.179  26.954  1.00  0.00     0.056 A 
BRANCH  29  30
ATOM     30  C   UNL A   1      33.841  30.548  27.326  1.00  0.00     0.416 C 
ATOM     31  F   UNL A   1      35.135  30.728  26.938  1.00  0.00    -0.166 F 
ATOM     32  F   UNL A   1      33.137  31.559  26.744  1.00  0.00    -0.166 F 
ATOM     33  F   UNL A   1      33.817  30.801  28.664  1.00  0.00    -0.166 F 
ENDBRANCH  29  30
ENDBRANCH  22  24
ENDBRANCH  11  19
ENDBRANCH   9  10
ENDBRANCH   7   9
ENDBRANCH   6   7
ENDBRANCH   5   6
ENDBRANCH   4   5
ENDBRANCH   3   4
ENDBRANCH   2   3
ENDBRANCH   1   2
BRANCH   1  34
ATOM     34  O   UNL A   1      42.861  19.704  25.015  1.00  0.00    -0.377 OA
BRANCH  34  35
ATOM     35  C   UNL A   1      44.261  19.594  25.140  1.00  0.00     0.188 C 
BRANCH  35  36
ATOM     36  C   UNL A   1      45.074  20.793  24.588  1.00  0.00     0.188 C 
BRANCH  36  37
ATOM     37  O   UNL A   1      44.422  21.983  24.172  1.00  0.00    -0.376 OA
BRANCH  37  38
ATOM     38  C   UNL A   1      44.057  22.926  25.163  1.00  0.00     0.202 C 
BRANCH  38  39
ATOM     39  C   UNL A   1      42.569  23.324  25.291  1.00  0.00     0.261 C 
BRANCH  39  40
ATOM     40  O   UNL A   1      42.302  24.344  26.275  1.00  0.00    -0.460 OA
BRANCH  40  41
ATOM     41  C   UNL A   1      41.755  23.979  27.469  1.00  0.00     0.338 C 
ATOM     42  O   UNL A   1      41.912  22.931  28.047  1.00  0.00    -0.246 OA
BRANCH  41  43
ATOM     43  C   UNL A   1      41.215  25.223  28.111  1.00  0.00     0.060 A 
ATOM     44  C   UNL A   1      40.225  26.006  27.513  1.00  0.00     0.016 A 
ATOM     45  C   UNL A   1      41.959  25.746  29.183  1.00  0.00     0.016 A 
ATOM     46  C   UNL A   1      40.084  27.343  27.901  1.00  0.00     0.010 A 
ATOM     47  C   UNL A   1      41.820  27.088  29.565  1.00  0.00     0.010 A 
ATOM     48  C   UNL A   1      40.903  27.907  28.906  1.00  0.00    -0.014 A 
BRANCH  48  49
ATOM     49  C   UNL A   1      40.522  29.240  29.424  1.00  0.00     0.031 A 
ATOM     50  C   UNL A   1      41.686  30.177  29.415  1.00  0.00     0.074 A 
ATOM     51  C   UNL A   1      39.303  29.761  29.702  1.00  0.00     0.049 A 
ATOM     52  N   UNL A   1      42.239  30.798  30.406  1.00  0.00    -0.248 NA
ATOM     53  C   UNL A   1      42.398  30.318  28.133  1.00  0.00     0.031 C 
ATOM     54  C   UNL A   1      37.985  29.175  29.462  1.00  0.00     0.029 A 
ATOM     55  N   UNL A   1      38.995  31.009  30.195  1.00  0.00    -0.354 N 
ATOM     56  C   UNL A   1      43.278  31.537  29.843  1.00  0.00     0.074 A 
ATOM     57  C   UNL A   1      43.428  31.082  28.488  1.00  0.00     0.031 C 
ATOM     58  C   UNL A   1      37.033  30.123  29.633  1.00  0.00     0.029 A 
ATOM     59  C   UNL A   1      37.653  31.364  30.078  1.00  0.00     0.049 A 
ATOM     60  H   UNL A   1      39.669  31.604  30.597  1.00  0.00     0.167 HD
ATOM     61  C   UNL A   1      43.808  32.630  30.452  1.00  0.00     0.037 A 
ATOM     62  C   UNL A   1      37.096  32.591  30.268  1.00  0.00     0.037 A 
ATOM     63  C   UNL A   1      43.527  32.654  31.860  1.00  0.00     0.049 A 
ATOM     64  C   UNL A   1      38.061  33.441  31.005  1.00  0.00     0.074 A 
ATOM     65  C   UNL A   1      43.781  31.819  32.932  1.00  0.00     0.029 A 
ATOM     66  N   UNL A   1      42.622  33.578  32.317  1.00  0.00    -0.354 N 
ATOM     67  N   UNL A   1      38.314  33.353  32.277  1.00  0.00    -0.248 NA
ATOM     68  C   UNL A   1      39.003  34.240  30.235  1.00  0.00     0.031 C 
ATOM     69  C   UNL A   1      42.684  32.006  33.822  1.00  0.00     0.029 A 
ATOM     70  C   UNL A   1      41.838  32.950  33.242  1.00  0.00     0.049 A 
ATOM     71  H   UNL A   1      42.551  34.517  32.031  1.00  0.00     0.167 HD
ATOM     72  C   UNL A   1      39.646  33.712  32.393  1.00  0.00     0.074 A 
ATOM     73  C   UNL A   1      39.979  34.367  31.134  1.00  0.00     0.031 C 
ATOM     74  C   UNL A   1      40.425  33.188  33.381  1.00  0.00     0.037 A 
BRANCH  61  75
ATOM     75  C   UNL A   1      44.239  33.870  29.701  1.00  0.00     0.057 A 
ATOM     76  C   UNL A   1      45.585  34.239  29.493  1.00  0.00     0.134 A 
ATOM     77  C   UNL A   1      43.306  34.530  28.883  1.00  0.00     0.134 A 
ATOM     78  F   UNL A   1      46.603  33.663  30.142  1.00  0.00    -0.206 F 
ATOM     79  C   UNL A   1      45.975  35.158  28.516  1.00  0.00     0.040 A 
ATOM     80  C   UNL A   1      43.692  35.406  27.861  1.00  0.00     0.040 A 
ATOM     81  F   UNL A   1      41.994  34.264  28.982  1.00  0.00    -0.206 F 
ATOM     82  C   UNL A   1      45.032  35.712  27.668  1.00  0.00     0.006 A 
ENDBRANCH  61  75
BRANCH  62  83
ATOM     83  C   UNL A   1      35.850  33.190  29.722  1.00  0.00     0.057 A 
ATOM     84  C   UNL A   1      35.737  33.546  28.368  1.00  0.00     0.134 A 
ATOM     85  C   UNL A   1      34.833  33.676  30.565  1.00  0.00     0.134 A 
ATOM     86  F   UNL A   1      36.691  33.214  27.487  1.00  0.00    -0.206 F 
ATOM     87  C   UNL A   1      34.688  34.336  27.882  1.00  0.00     0.040 A 
ATOM     88  C   UNL A   1      33.784  34.479  30.093  1.00  0.00     0.040 A 
ATOM     89  F   UNL A   1      34.861  33.434  31.883  1.00  0.00    -0.206 F 
ATOM     90  C   UNL A   1      33.714  34.819  28.748  1.00  0.00     0.006 A 
ENDBRANCH  62  83
BRANCH  74  91
ATOM     91  C   UNL A   1      39.742  32.540  34.542  1.00  0.00     0.057 A 
ATOM     92  C   UNL A   1      39.262  31.233  34.390  1.00  0.00     0.134 A 
ATOM     93  C   UNL A   1      39.420  33.211  35.728  1.00  0.00     0.134 A 
ATOM     94  F   UNL A   1      39.483  30.559  33.250  1.00  0.00    -0.206 F 
ATOM     95  C   UNL A   1      38.507  30.610  35.383  1.00  0.00     0.040 A 
ATOM     96  C   UNL A   1      38.692  32.586  36.741  1.00  0.00     0.040 A 
ATOM     97  F   UNL A   1      39.749  34.500  35.913  1.00  0.00    -0.206 F 
ATOM     98  C   UNL A   1      38.229  31.283  36.569  1.00  0.00     0.006 A 
ENDBRANCH  74  91
ENDBRANCH  48  49
ENDBRANCH  41  43
ENDBRANCH  40  41
ENDBRANCH  39  40
ENDBRANCH  38  39
ENDBRANCH  37  38
ENDBRANCH  36  37
ENDBRANCH  35  36
ENDBRANCH  34  35
ENDBRANCH   1  34
TORSDOF 24
ENDMDL
MODEL 2
REMARK VINA RESULT:     -11.0      4.777      9.862
REMARK SMILES O=C(Cn1c(-c2nc(-c3ccc(C(F)(F)F)cc3)no2)cc2ccccc21)OCCOCCOCCOCCOC(=O)c1ccc(-c2c3nc(c(-c4c(F)cccc4F)c4ccc([nH]4)c(-c4c(F)cccc4F)c4nc(c(-c5c(F)cccc5F)c5ccc2[nH]5)C=C4)C=C3)cc1
REMARK SMILES IDX 33 1 32 2 31 3 30 4 29 5 28 6 2 7 1 8 3 9 4 10 5 11 27 12
REMARK SMILES IDX 21 13 22 14 26 15 23 16 25 17 24 18 6 19 7 20 20 21 8 22
REMARK SMILES IDX 19 23 9 24 10 25 18 26 11 27 17 28 12 29 13 30 14 31 15 32
REMARK SMILES IDX 16 33 34 34 35 35 36 36 37 37 38 38 39 39 40 40 41 41 42 42
REMARK SMILES IDX 43 43 44 44 96 45 45 46 95 47 46 48 47 49 48 50 89 51 49 52
REMARK SMILES IDX 94 53 88 54 90 55 50 56 93 57 87 58 86 59 51 61 77 62 60 63
REMARK SMILES IDX 76 64 61 65 64 66 75 67 91 68 62 69 63 70 74 72 92 73 65 74
REMARK SMILES IDX 52 75 53 76 58 77 54 78 55 79 57 80 59 81 56 82 78 83 79 84
REMARK SMILES IDX 84 85 80 86 81 87 83 88 85 89 82 90 66 91 67 92 72 93 68 94
REMARK SMILES IDX 69 95 71 96 73 97 70 98
REMARK H PARENT 90 60 64 71
REMARK Flexibility Score: inf
ROOT
ATOM      1  C   UNL A   1      35.074  33.174  28.001  1.00  0.00     0.188 C 
ENDROOT
BRANCH   1   2
ATOM      2  C   UNL A   1      34.344  31.864  28.256  1.00  0.00     0.188 C 
BRANCH   2   3
ATOM      3  O   UNL A   1      34.330  30.788  27.317  1.00  0.00    -0.376 OA
BRANCH   3   4
ATOM      4  C   UNL A   1      33.277  29.894  27.006  1.00  0.00     0.202 C 
BRANCH   4   5
ATOM      5  C   UNL A   1      32.666  29.848  25.618  1.00  0.00     0.261 C 
BRANCH   5   6
ATOM      6  O   UNL A   1      32.826  28.623  24.900  1.00  0.00    -0.462 OA
BRANCH   6   7
ATOM      7  C   UNL A   1      33.130  28.465  23.598  1.00  0.00     0.326 C 
ATOM      8  O   UNL A   1      34.040  29.160  23.135  1.00  0.00    -0.250 OA
BRANCH   7   9
ATOM      9  C   UNL A   1      32.349  27.549  22.681  1.00  0.00     0.245 C 
BRANCH   9  10
ATOM     10  N   UNL A   1      31.031  27.144  23.135  1.00  0.00    -0.325 N 
ATOM     11  C   UNL A   1      30.680  25.988  23.825  1.00  0.00     0.109 A 
ATOM     12  C   UNL A   1      29.931  27.968  22.957  1.00  0.00     0.049 A 
ATOM     13  C   UNL A   1      29.313  26.077  24.043  1.00  0.00     0.042 A 
ATOM     14  C   UNL A   1      28.842  27.320  23.530  1.00  0.00     0.000 A 
ATOM     15  C   UNL A   1      29.814  29.225  22.332  1.00  0.00     0.027 A 
ATOM     16  C   UNL A   1      27.590  27.966  23.501  1.00  0.00     0.010 A 
ATOM     17  C   UNL A   1      28.565  29.835  22.296  1.00  0.00     0.002 A 
ATOM     18  C   UNL A   1      27.467  29.220  22.883  1.00  0.00     0.001 A 
BRANCH  11  19
ATOM     19  C   UNL A   1      31.571  24.916  24.223  1.00  0.00     0.274 A 
ATOM     20  N   UNL A   1      31.610  23.707  23.677  1.00  0.00    -0.185 NA
ATOM     21  O   UNL A   1      32.501  25.049  25.221  1.00  0.00    -0.332 OA
ATOM     22  C   UNL A   1      32.619  23.075  24.383  1.00  0.00     0.202 A 
ATOM     23  N   UNL A   1      33.176  23.843  25.330  1.00  0.00    -0.057 NA
BRANCH  22  24
ATOM     24  C   UNL A   1      33.037  21.684  24.200  1.00  0.00     0.023 A 
ATOM     25  C   UNL A   1      32.268  20.837  23.388  1.00  0.00     0.013 A 
ATOM     26  C   UNL A   1      34.101  21.127  24.925  1.00  0.00     0.013 A 
ATOM     27  C   UNL A   1      32.529  19.460  23.324  1.00  0.00     0.014 A 
ATOM     28  C   UNL A   1      34.358  19.743  24.868  1.00  0.00     0.014 A 
ATOM     29  C   UNL A   1      33.564  18.893  24.080  1.00  0.00     0.056 A 
BRANCH  29  30
ATOM     30  C   UNL A   1      33.766  17.393  24.066  1.00  0.00     0.416 C 
ATOM     31  F   UNL A   1      34.857  17.008  24.787  1.00  0.00    -0.166 F 
ATOM     32  F   UNL A   1      32.712  16.716  24.603  1.00  0.00    -0.166 F 
ATOM     33  F   UNL A   1      33.944  16.874  22.820  1.00  0.00    -0.166 F 
ENDBRANCH  29  30
ENDBRANCH  22  24
ENDBRANCH  11  19
ENDBRANCH   9  10
ENDBRANCH   7   9
ENDBRANCH   6   7
ENDBRANCH   5   6
ENDBRANCH   4   5
ENDBRANCH   3   4
ENDBRANCH   2   3
ENDBRANCH   1   2
BRANCH   1  34
ATOM     34  O   UNL A   1      34.905  34.093  29.059  1.00  0.00    -0.377 OA
BRANCH  34  35
ATOM     35  C   UNL A   1      34.517  35.375  28.622  1.00  0.00     0.188 C 
BRANCH  35  36
ATOM     36  C   UNL A   1      33.069  35.792  28.988  1.00  0.00     0.188 C 
BRANCH  36  37
ATOM     37  O   UNL A   1      32.815  37.005  29.679  1.00  0.00    -0.376 OA
BRANCH  37  38
ATOM     38  C   UNL A   1      33.084  37.050  31.069  1.00  0.00     0.202 C 
BRANCH  38  39
ATOM     39  C   UNL A   1      32.693  35.832  31.936  1.00  0.00     0.261 C 
BRANCH  39  40
ATOM     40  O   UNL A   1      33.771  34.911  32.201  1.00  0.00    -0.460 OA
BRANCH  40  41
ATOM     41  C   UNL A   1      34.685  35.228  33.161  1.00  0.00     0.338 C 
ATOM     42  O   UNL A   1      34.510  35.935  34.123  1.00  0.00    -0.246 OA
BRANCH  41  43
ATOM     43  C   UNL A   1      35.833  34.272  33.016  1.00  0.00     0.060 A 
ATOM     44  C   UNL A   1      37.156  34.702  32.887  1.00  0.00     0.016 A 
ATOM     45  C   UNL A   1      35.502  32.943  32.696  1.00  0.00     0.016 A 
ATOM     46  C   UNL A   1      38.101  33.843  32.315  1.00  0.00     0.010 A 
ATOM     47  C   UNL A   1      36.450  32.088  32.117  1.00  0.00     0.010 A 
ATOM     48  C   UNL A   1      37.750  32.541  31.893  1.00  0.00    -0.014 A 
BRANCH  48  49
ATOM     49  C   UNL A   1      38.855  31.623  31.534  1.00  0.00     0.031 A 
ATOM     50  C   UNL A   1      39.693  31.291  32.725  1.00  0.00     0.074 A 
ATOM     51  C   UNL A   1      39.086  30.928  30.394  1.00  0.00     0.049 A 
ATOM     52  N   UNL A   1      40.954  31.502  32.918  1.00  0.00    -0.248 NA
ATOM     53  C   UNL A   1      38.973  30.777  33.904  1.00  0.00     0.031 C 
ATOM     54  C   UNL A   1      38.232  30.804  29.214  1.00  0.00     0.029 A 
ATOM     55  N   UNL A   1      40.137  30.090  30.097  1.00  0.00    -0.354 N 
ATOM     56  C   UNL A   1      41.221  30.999  34.191  1.00  0.00     0.074 A 
ATOM     57  C   UNL A   1      39.951  30.718  34.803  1.00  0.00     0.031 C 
ATOM     58  C   UNL A   1      38.703  29.812  28.420  1.00  0.00     0.029 A 
ATOM     59  C   UNL A   1      39.938  29.281  28.982  1.00  0.00     0.049 A 
ATOM     60  H   UNL A   1      40.965  30.065  30.632  1.00  0.00     0.167 HD
ATOM     61  C   UNL A   1      42.470  30.637  34.583  1.00  0.00     0.037 A 
ATOM     62  C   UNL A   1      40.687  28.219  28.579  1.00  0.00     0.037 A 
ATOM     63  C   UNL A   1      43.489  31.237  33.768  1.00  0.00     0.049 A 
ATOM     64  C   UNL A   1      41.992  28.265  29.279  1.00  0.00     0.074 A 
ATOM     65  C   UNL A   1      43.863  32.528  33.448  1.00  0.00     0.029 A 
ATOM     66  N   UNL A   1      44.174  30.426  32.900  1.00  0.00    -0.354 N 
ATOM     67  N   UNL A   1      42.969  29.071  28.985  1.00  0.00    -0.248 NA
ATOM     68  C   UNL A   1      42.113  27.575  30.555  1.00  0.00     0.031 C 
ATOM     69  C   UNL A   1      44.389  32.450  32.126  1.00  0.00     0.029 A 
ATOM     70  C   UNL A   1      44.312  31.116  31.729  1.00  0.00     0.049 A 
ATOM     71  H   UNL A   1      44.504  29.518  33.086  1.00  0.00     0.167 HD
ATOM     72  C   UNL A   1      43.594  29.315  30.196  1.00  0.00     0.074 A 
ATOM     73  C   UNL A   1      43.110  28.277  31.096  1.00  0.00     0.031 C 
ATOM     74  C   UNL A   1      44.219  30.503  30.429  1.00  0.00     0.037 A 
BRANCH  61  75
ATOM     75  C   UNL A   1      42.749  29.431  35.453  1.00  0.00     0.057 A 
ATOM     76  C   UNL A   1      42.423  28.106  35.096  1.00  0.00     0.134 A 
ATOM     77  C   UNL A   1      43.660  29.555  36.517  1.00  0.00     0.134 A 
ATOM     78  F   UNL A   1      41.621  27.811  34.065  1.00  0.00    -0.206 F 
ATOM     79  C   UNL A   1      42.993  26.993  35.716  1.00  0.00     0.040 A 
ATOM     80  C   UNL A   1      44.282  28.447  37.104  1.00  0.00     0.040 A 
ATOM     81  F   UNL A   1      44.053  30.763  36.949  1.00  0.00    -0.206 F 
ATOM     82  C   UNL A   1      43.957  27.161  36.694  1.00  0.00     0.006 A 
ENDBRANCH  61  75
BRANCH  62  83
ATOM     83  C   UNL A   1      40.331  27.032  27.756  1.00  0.00     0.057 A 
ATOM     84  C   UNL A   1      39.592  25.964  28.288  1.00  0.00     0.134 A 
ATOM     85  C   UNL A   1      40.932  26.793  26.506  1.00  0.00     0.134 A 
ATOM     86  F   UNL A   1      39.046  26.044  29.510  1.00  0.00    -0.206 F 
ATOM     87  C   UNL A   1      39.461  24.735  27.628  1.00  0.00     0.040 A 
ATOM     88  C   UNL A   1      40.819  25.563  25.840  1.00  0.00     0.040 A 
ATOM     89  F   UNL A   1      41.696  27.727  25.922  1.00  0.00    -0.206 F 
ATOM     90  C   UNL A   1      40.089  24.526  26.406  1.00  0.00     0.006 A 
ENDBRANCH  62  83
BRANCH  74  91
ATOM     91  C   UNL A   1      44.548  31.365  29.252  1.00  0.00     0.057 A 
ATOM     92  C   UNL A   1      45.829  31.272  28.694  1.00  0.00     0.134 A 
ATOM     93  C   UNL A   1      43.702  32.368  28.763  1.00  0.00     0.134 A 
ATOM     94  F   UNL A   1      46.709  30.373  29.163  1.00  0.00    -0.206 F 
ATOM     95  C   UNL A   1      46.249  32.130  27.678  1.00  0.00     0.040 A 
ATOM     96  C   UNL A   1      44.102  33.211  27.725  1.00  0.00     0.040 A 
ATOM     97  F   UNL A   1      42.499  32.596  29.312  1.00  0.00    -0.206 F 
ATOM     98  C   UNL A   1      45.380  33.097  27.182  1.00  0.00     0.006 A 
ENDBRANCH  74  91
ENDBRANCH  48  49
ENDBRANCH  41  43
ENDBRANCH  40  41
ENDBRANCH  39  40
ENDBRANCH  38  39
ENDBRANCH  37  38
ENDBRANCH  36  37
ENDBRANCH  35  36
ENDBRANCH  34  35
ENDBRANCH   1  34
TORSDOF 24
ENDMDL
MODEL 3
REMARK VINA RESULT:     -10.3      3.942      8.505
REMARK SMILES O=C(Cn1c(-c2nc(-c3ccc(C(F)(F)F)cc3)no2)cc2ccccc21)OCCOCCOCCOCCOC(=O)c1ccc(-c2c3nc(c(-c4c(F)cccc4F)c4ccc([nH]4)c(-c4c(F)cccc4F)c4nc(c(-c5c(F)cccc5F)c5ccc2[nH]5)C=C4)C=C3)cc1
REMARK SMILES IDX 33 1 32 2 31 3 30 4 29 5 28 6 2 7 1 8 3 9 4 10 5 11 27 12
REMARK SMILES IDX 21 13 22 14 26 15 23 16 25 17 24 18 6 19 7 20 20 21 8 22
REMARK SMILES IDX 19 23 9 24 10 25 18 26 11 27 17 28 12 29 13 30 14 31 15 32
REMARK SMILES IDX 16 33 34 34 35 35 36 36 37 37 38 38 39 39 40 40 41 41 42 42
REMARK SMILES IDX 43 43 44 44 96 45 45 46 95 47 46 48 47 49 48 50 89 51 49 52
REMARK SMILES IDX 94 53 88 54 90 55 50 56 93 57 87 58 86 59 51 61 77 62 60 63
REMARK SMILES IDX 76 64 61 65 64 66 75 67 91 68 62 69 63 70 74 72 92 73 65 74
REMARK SMILES IDX 52 75 53 76 58 77 54 78 55 79 57 80 59 81 56 82 78 83 79 84
REMARK SMILES IDX 84 85 80 86 81 87 83 88 85 89 82 90 66 91 67 92 72 93 68 94
REMARK SMILES IDX 69 95 71 96 73 97 70 98
REMARK H PARENT 90 60 64 71
REMARK Flexibility Score: inf
ROOT
ATOM      1  C   UNL A   1      33.616  31.059  27.219  1.00  0.00     0.188 C 
ENDROOT
BRANCH   1   2
ATOM      2  C   UNL A   1      34.101  29.703  26.732  1.00  0.00     0.188 C 
BRANCH   2   3
ATOM      3  O   UNL A   1      33.590  29.072  25.557  1.00  0.00    -0.376 OA
BRANCH   3   4
ATOM      4  C   UNL A   1      34.297  28.414  24.522  1.00  0.00     0.202 C 
BRANCH   4   5
ATOM      5  C   UNL A   1      33.773  27.134  23.898  1.00  0.00     0.261 C 
BRANCH   5   6
ATOM      6  O   UNL A   1      34.201  25.915  24.509  1.00  0.00    -0.462 OA
BRANCH   6   7
ATOM      7  C   UNL A   1      33.741  25.357  25.644  1.00  0.00     0.326 C 
ATOM      8  O   UNL A   1      33.134  26.086  26.434  1.00  0.00    -0.250 OA
BRANCH   7   9
ATOM      9  C   UNL A   1      34.017  23.917  26.017  1.00  0.00     0.245 C 
BRANCH   9  10
ATOM     10  N   UNL A   1      33.183  22.909  25.386  1.00  0.00    -0.325 N 
ATOM     11  C   UNL A   1      31.881  23.046  24.914  1.00  0.00     0.109 A 
ATOM     12  C   UNL A   1      33.673  21.640  25.124  1.00  0.00     0.049 A 
ATOM     13  C   UNL A   1      31.538  21.812  24.384  1.00  0.00     0.042 A 
ATOM     14  C   UNL A   1      32.658  20.937  24.485  1.00  0.00     0.000 A 
ATOM     15  C   UNL A   1      34.926  21.061  25.407  1.00  0.00     0.027 A 
ATOM     16  C   UNL A   1      32.914  19.609  24.089  1.00  0.00     0.010 A 
ATOM     17  C   UNL A   1      35.149  19.742  25.026  1.00  0.00     0.002 A 
ATOM     18  C   UNL A   1      34.160  19.027  24.364  1.00  0.00     0.001 A 
BRANCH  11  19
ATOM     19  C   UNL A   1      31.062  24.241  24.977  1.00  0.00     0.274 A 
ATOM     20  N   UNL A   1      30.864  25.089  23.976  1.00  0.00    -0.185 NA
ATOM     21  O   UNL A   1      30.379  24.620  26.103  1.00  0.00    -0.332 OA
ATOM     22  C   UNL A   1      30.012  26.032  24.527  1.00  0.00     0.202 A 
ATOM     23  N   UNL A   1      29.703  25.795  25.809  1.00  0.00    -0.057 NA
BRANCH  22  24
ATOM     24  C   UNL A   1      29.517  27.228  23.843  1.00  0.00     0.023 A 
ATOM     25  C   UNL A   1      30.403  28.285  23.579  1.00  0.00     0.013 A 
ATOM     26  C   UNL A   1      28.155  27.417  23.569  1.00  0.00     0.013 A 
ATOM     27  C   UNL A   1      29.939  29.513  23.086  1.00  0.00     0.014 A 
ATOM     28  C   UNL A   1      27.688  28.654  23.083  1.00  0.00     0.014 A 
ATOM     29  C   UNL A   1      28.573  29.720  22.853  1.00  0.00     0.056 A 
BRANCH  29  30
ATOM     30  C   UNL A   1      28.087  31.084  22.410  1.00  0.00     0.416 C 
ATOM     31  F   UNL A   1      27.589  31.072  21.142  1.00  0.00    -0.166 F 
ATOM     32  F   UNL A   1      27.083  31.564  23.196  1.00  0.00    -0.166 F 
ATOM     33  F   UNL A   1      29.055  32.042  22.419  1.00  0.00    -0.166 F 
ENDBRANCH  29  30
ENDBRANCH  22  24
ENDBRANCH  11  19
ENDBRANCH   9  10
ENDBRANCH   7   9
ENDBRANCH   6   7
ENDBRANCH   5   6
ENDBRANCH   4   5
ENDBRANCH   3   4
ENDBRANCH   2   3
ENDBRANCH   1   2
BRANCH   1  34
ATOM     34  O   UNL A   1      34.607  31.748  27.951  1.00  0.00    -0.377 OA
BRANCH  34  35
ATOM     35  C   UNL A   1      34.379  33.138  28.020  1.00  0.00     0.188 C 
BRANCH  35  36
ATOM     36  C   UNL A   1      33.801  33.650  29.364  1.00  0.00     0.188 C 
BRANCH  36  37
ATOM     37  O   UNL A   1      32.935  34.774  29.399  1.00  0.00    -0.376 OA
BRANCH  37  38
ATOM     38  C   UNL A   1      33.184  35.778  30.365  1.00  0.00     0.202 C 
BRANCH  38  39
ATOM     39  C   UNL A   1      32.537  35.636  31.762  1.00  0.00     0.261 C 
BRANCH  39  40
ATOM     40  O   UNL A   1      33.217  34.726  32.651  1.00  0.00    -0.460 OA
BRANCH  40  41
ATOM     41  C   UNL A   1      34.426  35.090  33.164  1.00  0.00     0.338 C 
ATOM     42  O   UNL A   1      34.624  35.789  34.128  1.00  0.00    -0.246 OA
BRANCH  41  43
ATOM     43  C   UNL A   1      35.459  34.192  32.549  1.00  0.00     0.060 A 
ATOM     44  C   UNL A   1      35.320  32.803  32.511  1.00  0.00     0.016 A 
ATOM     45  C   UNL A   1      36.716  34.769  32.294  1.00  0.00     0.016 A 
ATOM     46  C   UNL A   1      36.459  32.005  32.355  1.00  0.00     0.010 A 
ATOM     47  C   UNL A   1      37.856  33.968  32.144  1.00  0.00     0.010 A 
ATOM     48  C   UNL A   1      37.743  32.579  32.205  1.00  0.00    -0.014 A 
BRANCH  48  49
ATOM     49  C   UNL A   1      38.846  31.678  31.800  1.00  0.00     0.031 A 
ATOM     50  C   UNL A   1      39.706  31.316  32.966  1.00  0.00     0.074 A 
ATOM     51  C   UNL A   1      39.061  31.019  30.636  1.00  0.00     0.049 A 
ATOM     52  N   UNL A   1      40.969  31.528  33.144  1.00  0.00    -0.248 NA
ATOM     53  C   UNL A   1      39.008  30.763  34.141  1.00  0.00     0.031 C 
ATOM     54  C   UNL A   1      38.188  30.925  29.467  1.00  0.00     0.029 A 
ATOM     55  N   UNL A   1      40.111  30.197  30.297  1.00  0.00    -0.354 N 
ATOM     56  C   UNL A   1      41.260  30.989  34.396  1.00  0.00     0.074 A 
ATOM     57  C   UNL A   1      40.002  30.683  35.022  1.00  0.00     0.031 C 
ATOM     58  C   UNL A   1      38.650  29.960  28.636  1.00  0.00     0.029 A 
ATOM     59  C   UNL A   1      39.897  29.420  29.161  1.00  0.00     0.049 A 
ATOM     60  H   UNL A   1      40.947  30.160  30.817  1.00  0.00     0.167 HD
ATOM     61  C   UNL A   1      42.518  30.622  34.757  1.00  0.00     0.037 A 
ATOM     62  C   UNL A   1      40.644  28.374  28.714  1.00  0.00     0.037 A 
ATOM     63  C   UNL A   1      43.519  31.252  33.943  1.00  0.00     0.049 A 
ATOM     64  C   UNL A   1      41.961  28.406  29.392  1.00  0.00     0.074 A 
ATOM     65  C   UNL A   1      43.882  32.554  33.655  1.00  0.00     0.029 A 
ATOM     66  N   UNL A   1      44.193  30.471  33.039  1.00  0.00    -0.354 N 
ATOM     67  N   UNL A   1      42.929  29.227  29.107  1.00  0.00    -0.248 NA
ATOM     68  C   UNL A   1      42.108  27.680  30.645  1.00  0.00     0.031 C 
ATOM     69  C   UNL A   1      44.385  32.518  32.323  1.00  0.00     0.029 A 
ATOM     70  C   UNL A   1      44.308  31.197  31.888  1.00  0.00     0.049 A 
ATOM     71  H   UNL A   1      44.531  29.560  33.192  1.00  0.00     0.167 HD
ATOM     72  C   UNL A   1      43.573  29.438  30.313  1.00  0.00     0.074 A 
ATOM     73  C   UNL A   1      43.110  28.370  31.190  1.00  0.00     0.031 C 
ATOM     74  C   UNL A   1      44.196  30.622  30.572  1.00  0.00     0.037 A 
BRANCH  61  75
ATOM     75  C   UNL A   1      42.817  29.393  35.585  1.00  0.00     0.057 A 
ATOM     76  C   UNL A   1      42.494  28.077  35.193  1.00  0.00     0.134 A 
ATOM     77  C   UNL A   1      43.743  29.491  36.639  1.00  0.00     0.134 A 
ATOM     78  F   UNL A   1      41.679  27.807  34.166  1.00  0.00    -0.206 F 
ATOM     79  C   UNL A   1      43.081  26.949  35.770  1.00  0.00     0.040 A 
ATOM     80  C   UNL A   1      44.381  28.370  37.182  1.00  0.00     0.040 A 
ATOM     81  F   UNL A   1      44.135  30.688  37.102  1.00  0.00    -0.206 F 
ATOM     82  C   UNL A   1      44.059  27.094  36.739  1.00  0.00     0.006 A 
ENDBRANCH  61  75
BRANCH  62  83
ATOM     83  C   UNL A   1      40.280  27.211  27.862  1.00  0.00     0.057 A 
ATOM     84  C   UNL A   1      39.584  26.108  28.382  1.00  0.00     0.134 A 
ATOM     85  C   UNL A   1      40.837  27.029  26.582  1.00  0.00     0.134 A 
ATOM     86  F   UNL A   1      39.084  26.134  29.626  1.00  0.00    -0.206 F 
ATOM     87  C   UNL A   1      39.451  24.902  27.683  1.00  0.00     0.040 A 
ATOM     88  C   UNL A   1      40.723  25.822  25.877  1.00  0.00     0.040 A 
ATOM     89  F   UNL A   1      41.560  27.999  26.005  1.00  0.00    -0.206 F 
ATOM     90  C   UNL A   1      40.036  24.750  26.431  1.00  0.00     0.006 A 
ENDBRANCH  62  83
BRANCH  74  91
ATOM     91  C   UNL A   1      44.501  31.520  29.416  1.00  0.00     0.057 A 
ATOM     92  C   UNL A   1      45.788  31.488  28.865  1.00  0.00     0.134 A 
ATOM     93  C   UNL A   1      43.620  32.501  28.940  1.00  0.00     0.134 A 
ATOM     94  F   UNL A   1      46.698  30.613  29.323  1.00  0.00    -0.206 F 
ATOM     95  C   UNL A   1      46.182  32.383  27.871  1.00  0.00     0.040 A 
ATOM     96  C   UNL A   1      43.995  33.380  27.923  1.00  0.00     0.040 A 
ATOM     97  F   UNL A   1      42.405  32.671  29.484  1.00  0.00    -0.206 F 
ATOM     98  C   UNL A   1      45.280  33.326  27.388  1.00  0.00     0.006 A 
ENDBRANCH  74  91
ENDBRANCH  48  49
ENDBRANCH  41  43
ENDBRANCH  40  41
ENDBRANCH  39  40
ENDBRANCH  38  39
ENDBRANCH  37  38
ENDBRANCH  36  37
ENDBRANCH  35  36
ENDBRANCH  34  35
ENDBRANCH   1  34
TORSDOF 24
ENDMDL
