MODEL 1
REMARK VINA RESULT:      -9.3      0.000      0.000
REMARK SMILES C[NH2+][C@@]1(C(=O)OCCOCCOCCOCCOC(=O)c2ccc(-c3c4nc(c(-c5c(F)cccc5F)c5ccc([nH]5)c(-c5c(F)cccc5F)c5nc(c(-c6c(F)cccc6F)c6ccc3[nH]6)C=C5)C=C4)cc2)CCC[C@H](Oc2cccc(OC)c2)C1
REMARK SMILES IDX 11 1 10 2 9 3 8 4 7 5 6 6 4 7 5 8 3 9 75 10 88 11 76 12
REMARK SMILES IDX 78 13 77 14 2 15 1 16 79 19 80 20 81 21 87 22 82 23 84 24
REMARK SMILES IDX 83 25 85 26 86 27 12 28 13 29 14 30 15 31 16 32 17 33 18 34
REMARK SMILES IDX 19 35 20 36 21 37 22 38 74 39 23 40 73 41 24 42 25 43 26 44
REMARK SMILES IDX 67 45 27 46 72 47 66 48 68 49 28 50 71 51 65 52 64 53 29 55
REMARK SMILES IDX 55 56 38 57 54 58 39 59 42 60 53 61 69 62 40 63 41 64 52 66
REMARK SMILES IDX 70 67 43 68 30 69 31 70 36 71 32 72 33 73 35 74 37 75 34 76
REMARK SMILES IDX 56 77 57 78 62 79 58 80 59 81 61 82 63 83 60 84 44 85 45 86
REMARK SMILES IDX 50 87 46 88 47 89 49 90 51 91 48 92
REMARK H PARENT 2 17 2 18 68 54 42 65
REMARK Flexibility Score: inf
ROOT
ATOM      1  C   UNL A   1      33.328  27.999  23.552  1.00  0.00     0.188 C 
ENDROOT
BRANCH   1   2
ATOM      2  C   UNL A   1      33.924  27.497  22.234  1.00  0.00     0.188 C 
BRANCH   2   3
ATOM      3  O   UNL A   1      33.267  26.456  21.539  1.00  0.00    -0.376 OA
BRANCH   3   4
ATOM      4  C   UNL A   1      32.924  25.206  22.108  1.00  0.00     0.202 C 
BRANCH   4   5
ATOM      5  C   UNL A   1      33.905  24.072  22.450  1.00  0.00     0.261 C 
BRANCH   5   6
ATOM      6  O   UNL A   1      34.923  24.342  23.428  1.00  0.00    -0.459 OA
BRANCH   6   7
ATOM      7  C   UNL A   1      35.926  23.433  23.505  1.00  0.00     0.368 C 
ATOM      8  O   UNL A   1      36.460  22.951  22.503  1.00  0.00    -0.245 OA
BRANCH   7   9
ATOM      9  C   UNL A   1      36.340  22.951  24.951  1.00  0.00     0.197 C 
ATOM     10  C   UNL A   1      36.441  21.413  24.853  1.00  0.00     0.081 C 
ATOM     11  C   UNL A   1      35.529  23.323  26.225  1.00  0.00     0.126 C 
ATOM     12  C   UNL A   1      35.081  20.730  24.961  1.00  0.00     0.011 C 
ATOM     13  C   UNL A   1      34.193  22.594  26.447  1.00  0.00     0.180 C 
ATOM     14  C   UNL A   1      34.397  21.083  26.274  1.00  0.00     0.046 C 
BRANCH   9  15
ATOM     15  N   UNL A   1      37.770  23.421  25.123  1.00  0.00    -0.334 N 
ATOM     16  C   UNL A   1      38.579  22.647  26.057  1.00  0.00     0.331 C 
ATOM     17  H   UNL A   1      38.224  23.385  24.210  1.00  0.00     0.347 HD
ATOM     18  H   UNL A   1      37.710  24.360  25.517  1.00  0.00     0.347 HD
ENDBRANCH   9  15
BRANCH  13  19
ATOM     19  O   UNL A   1      33.249  23.178  25.552  1.00  0.00    -0.490 OA
BRANCH  19  20
ATOM     20  C   UNL A   1      32.028  23.562  26.017  1.00  0.00     0.123 A 
ATOM     21  C   UNL A   1      31.213  22.832  26.876  1.00  0.00     0.047 A 
ATOM     22  C   UNL A   1      31.594  24.789  25.514  1.00  0.00     0.092 A 
ATOM     23  C   UNL A   1      29.905  23.251  27.099  1.00  0.00     0.008 A 
ATOM     24  C   UNL A   1      30.301  25.230  25.757  1.00  0.00     0.122 A 
ATOM     25  C   UNL A   1      29.440  24.419  26.496  1.00  0.00     0.046 A 
BRANCH  24  26
ATOM     26  O   UNL A   1      29.784  26.406  25.288  1.00  0.00    -0.497 OA
ATOM     27  C   UNL A   1      30.038  26.678  23.909  1.00  0.00     0.278 C 
ENDBRANCH  24  26
ENDBRANCH  19  20
ENDBRANCH  13  19
ENDBRANCH   7   9
ENDBRANCH   6   7
ENDBRANCH   5   6
ENDBRANCH   4   5
ENDBRANCH   3   4
ENDBRANCH   2   3
ENDBRANCH   1   2
BRANCH   1  28
ATOM     28  O   UNL A   1      34.028  27.851  24.763  1.00  0.00    -0.377 OA
BRANCH  28  29
ATOM     29  C   UNL A   1      33.333  28.241  25.920  1.00  0.00     0.188 C 
BRANCH  29  30
ATOM     30  C   UNL A   1      33.784  29.612  26.438  1.00  0.00     0.188 C 
BRANCH  30  31
ATOM     31  O   UNL A   1      32.856  30.591  26.897  1.00  0.00    -0.376 OA
BRANCH  31  32
ATOM     32  C   UNL A   1      33.256  31.670  27.726  1.00  0.00     0.202 C 
BRANCH  32  33
ATOM     33  C   UNL A   1      32.887  33.118  27.344  1.00  0.00     0.261 C 
BRANCH  33  34
ATOM     34  O   UNL A   1      32.267  33.930  28.351  1.00  0.00    -0.460 OA
BRANCH  34  35
ATOM     35  C   UNL A   1      32.967  35.011  28.747  1.00  0.00     0.338 C 
ATOM     36  O   UNL A   1      32.661  36.192  28.591  1.00  0.00    -0.246 OA
BRANCH  35  37
ATOM     37  C   UNL A   1      34.141  34.590  29.535  1.00  0.00     0.060 A 
ATOM     38  C   UNL A   1      35.397  34.587  28.912  1.00  0.00     0.016 A 
ATOM     39  C   UNL A   1      34.009  34.133  30.849  1.00  0.00     0.016 A 
ATOM     40  C   UNL A   1      36.514  34.091  29.580  1.00  0.00     0.010 A 
ATOM     41  C   UNL A   1      35.128  33.607  31.508  1.00  0.00     0.010 A 
ATOM     42  C   UNL A   1      36.376  33.547  30.862  1.00  0.00    -0.014 A 
BRANCH  42  43
ATOM     43  C   UNL A   1      37.481  32.729  31.425  1.00  0.00     0.031 A 
ATOM     44  C   UNL A   1      38.067  33.126  32.745  1.00  0.00     0.074 A 
ATOM     45  C   UNL A   1      37.906  31.601  30.834  1.00  0.00     0.049 A 
ATOM     46  N   UNL A   1      39.054  32.580  33.408  1.00  0.00    -0.248 NA
ATOM     47  C   UNL A   1      37.443  34.273  33.421  1.00  0.00     0.031 C 
ATOM     48  C   UNL A   1      37.326  31.028  29.632  1.00  0.00     0.029 A 
ATOM     49  N   UNL A   1      38.921  30.734  31.162  1.00  0.00    -0.354 N 
ATOM     50  C   UNL A   1      39.155  33.302  34.586  1.00  0.00     0.074 A 
ATOM     51  C   UNL A   1      38.165  34.356  34.528  1.00  0.00     0.031 C 
ATOM     52  C   UNL A   1      38.007  29.920  29.299  1.00  0.00     0.029 A 
ATOM     53  C   UNL A   1      39.117  29.749  30.225  1.00  0.00     0.049 A 
ATOM     54  H   UNL A   1      39.453  30.811  31.985  1.00  0.00     0.167 HD
ATOM     55  C   UNL A   1      39.986  33.090  35.632  1.00  0.00     0.037 A 
ATOM     56  C   UNL A   1      40.100  28.839  30.094  1.00  0.00     0.037 A 
ATOM     57  C   UNL A   1      40.980  32.049  35.679  1.00  0.00     0.049 A 
ATOM     58  C   UNL A   1      41.135  28.737  31.175  1.00  0.00     0.074 A 
ATOM     59  C   UNL A   1      41.875  31.760  36.695  1.00  0.00     0.029 A 
ATOM     60  N   UNL A   1      41.220  31.137  34.662  1.00  0.00    -0.354 N 
ATOM     61  N   UNL A   1      41.230  29.427  32.285  1.00  0.00    -0.248 NA
ATOM     62  C   UNL A   1      42.178  27.718  31.008  1.00  0.00     0.031 C 
ATOM     63  C   UNL A   1      42.696  30.712  36.267  1.00  0.00     0.029 A 
ATOM     64  C   UNL A   1      42.274  30.306  35.011  1.00  0.00     0.049 A 
ATOM     65  H   UNL A   1      40.717  31.087  33.818  1.00  0.00     0.167 HD
ATOM     66  C   UNL A   1      42.308  28.891  32.974  1.00  0.00     0.074 A 
ATOM     67  C   UNL A   1      42.839  27.823  32.153  1.00  0.00     0.031 C 
ATOM     68  C   UNL A   1      42.796  29.242  34.189  1.00  0.00     0.037 A 
BRANCH  55  69
ATOM     69  C   UNL A   1      39.870  34.032  36.791  1.00  0.00     0.057 A 
ATOM     70  C   UNL A   1      40.575  35.241  36.838  1.00  0.00     0.134 A 
ATOM     71  C   UNL A   1      39.040  33.723  37.876  1.00  0.00     0.134 A 
ATOM     72  F   UNL A   1      41.404  35.586  35.841  1.00  0.00    -0.206 F 
ATOM     73  C   UNL A   1      40.478  36.098  37.936  1.00  0.00     0.040 A 
ATOM     74  C   UNL A   1      38.914  34.584  38.965  1.00  0.00     0.040 A 
ATOM     75  F   UNL A   1      38.340  32.578  37.894  1.00  0.00    -0.206 F 
ATOM     76  C   UNL A   1      39.640  35.772  39.001  1.00  0.00     0.006 A 
ENDBRANCH  55  69
BRANCH  56  77
ATOM     77  C   UNL A   1      40.175  27.983  28.881  1.00  0.00     0.057 A 
ATOM     78  C   UNL A   1      39.559  26.729  28.824  1.00  0.00     0.134 A 
ATOM     79  C   UNL A   1      40.902  28.394  27.754  1.00  0.00     0.134 A 
ATOM     80  F   UNL A   1      38.868  26.270  29.877  1.00  0.00    -0.206 F 
ATOM     81  C   UNL A   1      39.680  25.904  27.703  1.00  0.00     0.040 A 
ATOM     82  C   UNL A   1      41.013  27.588  26.618  1.00  0.00     0.040 A 
ATOM     83  F   UNL A   1      41.516  29.587  27.739  1.00  0.00    -0.206 F 
ATOM     84  C   UNL A   1      40.407  26.334  26.595  1.00  0.00     0.006 A 
ENDBRANCH  56  77
BRANCH  68  85
ATOM     85  C   UNL A   1      43.934  28.427  34.730  1.00  0.00     0.057 A 
ATOM     86  C   UNL A   1      43.726  27.252  35.462  1.00  0.00     0.134 A 
ATOM     87  C   UNL A   1      45.259  28.814  34.488  1.00  0.00     0.134 A 
ATOM     88  F   UNL A   1      42.482  26.836  35.743  1.00  0.00    -0.206 F 
ATOM     89  C   UNL A   1      44.796  26.503  35.955  1.00  0.00     0.040 A 
ATOM     90  C   UNL A   1      46.336  28.058  34.949  1.00  0.00     0.040 A 
ATOM     91  F   UNL A   1      45.527  29.927  33.788  1.00  0.00    -0.206 F 
ATOM     92  C   UNL A   1      46.106  26.902  35.692  1.00  0.00     0.006 A 
ENDBRANCH  68  85
ENDBRANCH  42  43
ENDBRANCH  35  37
ENDBRANCH  34  35
ENDBRANCH  33  34
ENDBRANCH  32  33
ENDBRANCH  31  32
ENDBRANCH  30  31
ENDBRANCH  29  30
ENDBRANCH  28  29
ENDBRANCH   1  28
TORSDOF 24
ENDMDL
MODEL 2
REMARK VINA RESULT:      -9.0      2.149      4.225
REMARK SMILES C[NH2+][C@@]1(C(=O)OCCOCCOCCOCCOC(=O)c2ccc(-c3c4nc(c(-c5c(F)cccc5F)c5ccc([nH]5)c(-c5c(F)cccc5F)c5nc(c(-c6c(F)cccc6F)c6ccc3[nH]6)C=C5)C=C4)cc2)CCC[C@H](Oc2cccc(OC)c2)C1
REMARK SMILES IDX 11 1 10 2 9 3 8 4 7 5 6 6 4 7 5 8 3 9 75 10 88 11 76 12
REMARK SMILES IDX 78 13 77 14 2 15 1 16 79 19 80 20 81 21 87 22 82 23 84 24
REMARK SMILES IDX 83 25 85 26 86 27 12 28 13 29 14 30 15 31 16 32 17 33 18 34
REMARK SMILES IDX 19 35 20 36 21 37 22 38 74 39 23 40 73 41 24 42 25 43 26 44
REMARK SMILES IDX 67 45 27 46 72 47 66 48 68 49 28 50 71 51 65 52 64 53 29 55
REMARK SMILES IDX 55 56 38 57 54 58 39 59 42 60 53 61 69 62 40 63 41 64 52 66
REMARK SMILES IDX 70 67 43 68 30 69 31 70 36 71 32 72 33 73 35 74 37 75 34 76
REMARK SMILES IDX 56 77 57 78 62 79 58 80 59 81 61 82 63 83 60 84 44 85 45 86
REMARK SMILES IDX 50 87 46 88 47 89 49 90 51 91 48 92
REMARK H PARENT 2 17 2 18 68 54 42 65
REMARK Flexibility Score: inf
ROOT
ATOM      1  C   UNL A   1      31.881  25.118  26.668  1.00  0.00     0.188 C 
ENDROOT
BRANCH   1   2
ATOM      2  C   UNL A   1      30.746  24.310  26.033  1.00  0.00     0.188 C 
BRANCH   2   3
ATOM      3  O   UNL A   1      30.295  24.664  24.740  1.00  0.00    -0.376 OA
BRANCH   3   4
ATOM      4  C   UNL A   1      30.975  24.346  23.540  1.00  0.00     0.202 C 
BRANCH   4   5
ATOM      5  C   UNL A   1      32.500  24.347  23.340  1.00  0.00     0.261 C 
BRANCH   5   6
ATOM      6  O   UNL A   1      33.240  23.222  23.842  1.00  0.00    -0.459 OA
BRANCH   6   7
ATOM      7  C   UNL A   1      33.027  22.042  23.210  1.00  0.00     0.368 C 
ATOM      8  O   UNL A   1      32.717  21.978  22.017  1.00  0.00    -0.245 OA
BRANCH   7   9
ATOM      9  C   UNL A   1      33.116  20.735  24.092  1.00  0.00     0.197 C 
ATOM     10  C   UNL A   1      32.237  21.020  25.330  1.00  0.00     0.081 C 
ATOM     11  C   UNL A   1      34.469  20.130  24.563  1.00  0.00     0.126 C 
ATOM     12  C   UNL A   1      32.966  21.843  26.387  1.00  0.00     0.011 C 
ATOM     13  C   UNL A   1      35.208  20.857  25.700  1.00  0.00     0.180 C 
ATOM     14  C   UNL A   1      34.232  21.137  26.851  1.00  0.00     0.046 C 
BRANCH   9  15
ATOM     15  N   UNL A   1      32.353  19.686  23.311  1.00  0.00    -0.334 N 
ATOM     16  C   UNL A   1      32.434  18.327  23.835  1.00  0.00     0.331 C 
ATOM     17  H   UNL A   1      31.370  19.958  23.296  1.00  0.00     0.347 HD
ATOM     18  H   UNL A   1      32.786  19.654  22.388  1.00  0.00     0.347 HD
ENDBRANCH   9  15
BRANCH  13  19
ATOM     19  O   UNL A   1      35.809  22.017  25.128  1.00  0.00    -0.490 OA
BRANCH  19  20
ATOM     20  C   UNL A   1      36.922  22.551  25.702  1.00  0.00     0.123 A 
ATOM     21  C   UNL A   1      37.048  23.846  26.193  1.00  0.00     0.047 A 
ATOM     22  C   UNL A   1      38.014  21.682  25.731  1.00  0.00     0.092 A 
ATOM     23  C   UNL A   1      38.305  24.320  26.559  1.00  0.00     0.008 A 
ATOM     24  C   UNL A   1      39.264  22.137  26.125  1.00  0.00     0.122 A 
ATOM     25  C   UNL A   1      39.413  23.479  26.473  1.00  0.00     0.046 A 
BRANCH  24  26
ATOM     26  O   UNL A   1      40.391  21.363  26.164  1.00  0.00    -0.497 OA
ATOM     27  C   UNL A   1      40.167  19.954  26.119  1.00  0.00     0.278 C 
ENDBRANCH  24  26
ENDBRANCH  19  20
ENDBRANCH  13  19
ENDBRANCH   7   9
ENDBRANCH   6   7
ENDBRANCH   5   6
ENDBRANCH   4   5
ENDBRANCH   3   4
ENDBRANCH   2   3
ENDBRANCH   1   2
BRANCH   1  28
ATOM     28  O   UNL A   1      32.233  26.384  26.166  1.00  0.00    -0.377 OA
BRANCH  28  29
ATOM     29  C   UNL A   1      31.202  27.339  26.142  1.00  0.00     0.188 C 
BRANCH  29  30
ATOM     30  C   UNL A   1      31.084  28.038  24.783  1.00  0.00     0.188 C 
BRANCH  30  31
ATOM     31  O   UNL A   1      32.051  28.981  24.329  1.00  0.00    -0.376 OA
BRANCH  31  32
ATOM     32  C   UNL A   1      32.963  29.604  25.218  1.00  0.00     0.202 C 
BRANCH  32  33
ATOM     33  C   UNL A   1      32.573  30.913  25.935  1.00  0.00     0.261 C 
BRANCH  33  34
ATOM     34  O   UNL A   1      32.836  31.001  27.342  1.00  0.00    -0.460 OA
BRANCH  34  35
ATOM     35  C   UNL A   1      33.655  31.999  27.726  1.00  0.00     0.338 C 
ATOM     36  O   UNL A   1      33.364  33.185  27.872  1.00  0.00    -0.246 OA
BRANCH  35  37
ATOM     37  C   UNL A   1      34.980  31.455  28.082  1.00  0.00     0.060 A 
ATOM     38  C   UNL A   1      35.073  30.101  28.434  1.00  0.00     0.016 A 
ATOM     39  C   UNL A   1      36.110  32.275  28.143  1.00  0.00     0.016 A 
ATOM     40  C   UNL A   1      36.280  29.572  28.887  1.00  0.00     0.010 A 
ATOM     41  C   UNL A   1      37.315  31.749  28.627  1.00  0.00     0.010 A 
ATOM     42  C   UNL A   1      37.394  30.405  29.038  1.00  0.00    -0.014 A 
BRANCH  42  43
ATOM     43  C   UNL A   1      38.558  29.922  29.824  1.00  0.00     0.031 A 
ATOM     44  C   UNL A   1      38.789  30.491  31.190  1.00  0.00     0.074 A 
ATOM     45  C   UNL A   1      39.354  28.933  29.385  1.00  0.00     0.049 A 
ATOM     46  N   UNL A   1      39.755  30.241  32.036  1.00  0.00    -0.248 NA
ATOM     47  C   UNL A   1      37.785  31.447  31.679  1.00  0.00     0.031 C 
ATOM     48  C   UNL A   1      39.154  28.198  28.148  1.00  0.00     0.029 A 
ATOM     49  N   UNL A   1      40.485  28.373  29.927  1.00  0.00    -0.354 N 
ATOM     50  C   UNL A   1      39.464  30.991  33.164  1.00  0.00     0.074 A 
ATOM     51  C   UNL A   1      38.261  31.744  32.879  1.00  0.00     0.031 C 
ATOM     52  C   UNL A   1      40.144  27.302  28.003  1.00  0.00     0.029 A 
ATOM     53  C   UNL A   1      41.085  27.453  29.103  1.00  0.00     0.049 A 
ATOM     54  H   UNL A   1      40.832  28.608  30.818  1.00  0.00     0.167 HD
ATOM     55  C   UNL A   1      40.130  31.032  34.341  1.00  0.00     0.037 A 
ATOM     56  C   UNL A   1      42.276  26.833  29.191  1.00  0.00     0.037 A 
ATOM     57  C   UNL A   1      41.335  30.293  34.615  1.00  0.00     0.049 A 
ATOM     58  C   UNL A   1      43.102  27.034  30.427  1.00  0.00     0.074 A 
ATOM     59  C   UNL A   1      42.087  30.274  35.777  1.00  0.00     0.029 A 
ATOM     60  N   UNL A   1      41.972  29.453  33.713  1.00  0.00    -0.354 N 
ATOM     61  N   UNL A   1      42.826  27.750  31.489  1.00  0.00    -0.248 NA
ATOM     62  C   UNL A   1      44.385  26.323  30.497  1.00  0.00     0.031 C 
ATOM     63  C   UNL A   1      43.211  29.471  35.556  1.00  0.00     0.029 A 
ATOM     64  C   UNL A   1      43.127  28.939  34.280  1.00  0.00     0.049 A 
ATOM     65  H   UNL A   1      41.650  29.251  32.805  1.00  0.00     0.167 HD
ATOM     66  C   UNL A   1      43.871  27.535  32.375  1.00  0.00     0.074 A 
ATOM     67  C   UNL A   1      44.791  26.626  31.722  1.00  0.00     0.031 C 
ATOM     68  C   UNL A   1      44.038  28.032  33.625  1.00  0.00     0.037 A 
BRANCH  55  69
ATOM     69  C   UNL A   1      39.580  31.937  35.400  1.00  0.00     0.057 A 
ATOM     70  C   UNL A   1      39.951  33.284  35.491  1.00  0.00     0.134 A 
ATOM     71  C   UNL A   1      38.666  31.451  36.343  1.00  0.00     0.134 A 
ATOM     72  F   UNL A   1      40.840  33.806  34.632  1.00  0.00    -0.206 F 
ATOM     73  C   UNL A   1      39.451  34.111  36.499  1.00  0.00     0.040 A 
ATOM     74  C   UNL A   1      38.138  32.274  37.337  1.00  0.00     0.040 A 
ATOM     75  F   UNL A   1      38.273  30.168  36.313  1.00  0.00    -0.206 F 
ATOM     76  C   UNL A   1      38.536  33.606  37.422  1.00  0.00     0.006 A 
ENDBRANCH  55  69
BRANCH  56  77
ATOM     77  C   UNL A   1      42.775  25.999  28.066  1.00  0.00     0.057 A 
ATOM     78  C   UNL A   1      42.555  24.618  28.018  1.00  0.00     0.134 A 
ATOM     79  C   UNL A   1      43.519  26.568  27.022  1.00  0.00     0.134 A 
ATOM     80  F   UNL A   1      41.870  24.011  28.997  1.00  0.00    -0.206 F 
ATOM     81  C   UNL A   1      43.074  23.830  26.988  1.00  0.00     0.040 A 
ATOM     82  C   UNL A   1      44.025  25.795  25.975  1.00  0.00     0.040 A 
ATOM     83  F   UNL A   1      43.764  27.887  27.004  1.00  0.00    -0.206 F 
ATOM     84  C   UNL A   1      43.810  24.419  25.961  1.00  0.00     0.006 A 
ENDBRANCH  56  77
BRANCH  68  85
ATOM     85  C   UNL A   1      45.237  27.559  34.394  1.00  0.00     0.057 A 
ATOM     86  C   UNL A   1      46.428  28.292  34.440  1.00  0.00     0.134 A 
ATOM     87  C   UNL A   1      45.185  26.361  35.120  1.00  0.00     0.134 A 
ATOM     88  F   UNL A   1      46.550  29.438  33.752  1.00  0.00    -0.206 F 
ATOM     89  C   UNL A   1      47.534  27.839  35.162  1.00  0.00     0.040 A 
ATOM     90  C   UNL A   1      46.272  25.914  35.869  1.00  0.00     0.040 A 
ATOM     91  F   UNL A   1      44.070  25.613  35.122  1.00  0.00    -0.206 F 
ATOM     92  C   UNL A   1      47.454  26.650  35.886  1.00  0.00     0.006 A 
ENDBRANCH  68  85
ENDBRANCH  42  43
ENDBRANCH  35  37
ENDBRANCH  34  35
ENDBRANCH  33  34
ENDBRANCH  32  33
ENDBRANCH  31  32
ENDBRANCH  30  31
ENDBRANCH  29  30
ENDBRANCH  28  29
ENDBRANCH   1  28
TORSDOF 24
ENDMDL
MODEL 3
REMARK VINA RESULT:      -8.9      0.693      5.946
REMARK SMILES C[NH2+][C@@]1(C(=O)OCCOCCOCCOCCOC(=O)c2ccc(-c3c4nc(c(-c5c(F)cccc5F)c5ccc([nH]5)c(-c5c(F)cccc5F)c5nc(c(-c6c(F)cccc6F)c6ccc3[nH]6)C=C5)C=C4)cc2)CCC[C@H](Oc2cccc(OC)c2)C1
REMARK SMILES IDX 11 1 10 2 9 3 8 4 7 5 6 6 4 7 5 8 3 9 75 10 88 11 76 12
REMARK SMILES IDX 78 13 77 14 2 15 1 16 79 19 80 20 81 21 87 22 82 23 84 24
REMARK SMILES IDX 83 25 85 26 86 27 12 28 13 29 14 30 15 31 16 32 17 33 18 34
REMARK SMILES IDX 19 35 20 36 21 37 22 38 74 39 23 40 73 41 24 42 25 43 26 44
REMARK SMILES IDX 67 45 27 46 72 47 66 48 68 49 28 50 71 51 65 52 64 53 29 55
REMARK SMILES IDX 55 56 38 57 54 58 39 59 42 60 53 61 69 62 40 63 41 64 52 66
REMARK SMILES IDX 70 67 43 68 30 69 31 70 36 71 32 72 33 73 35 74 37 75 34 76
REMARK SMILES IDX 56 77 57 78 62 79 58 80 59 81 61 82 63 83 60 84 44 85 45 86
REMARK SMILES IDX 50 87 46 88 47 89 49 90 51 91 48 92
REMARK H PARENT 2 17 2 18 68 54 42 65
REMARK Flexibility Score: inf
ROOT
ATOM      1  C   UNL A   1      33.075  28.377  23.311  1.00  0.00     0.188 C 
ENDROOT
BRANCH   1   2
ATOM      2  C   UNL A   1      33.480  27.784  21.958  1.00  0.00     0.188 C 
BRANCH   2   3
ATOM      3  O   UNL A   1      33.983  26.464  21.914  1.00  0.00    -0.376 OA
BRANCH   3   4
ATOM      4  C   UNL A   1      33.423  25.369  22.616  1.00  0.00     0.202 C 
BRANCH   4   5
ATOM      5  C   UNL A   1      34.073  23.988  22.800  1.00  0.00     0.261 C 
BRANCH   5   6
ATOM      6  O   UNL A   1      34.884  23.782  23.968  1.00  0.00    -0.459 OA
BRANCH   6   7
ATOM      7  C   UNL A   1      35.900  22.895  23.835  1.00  0.00     0.368 C 
ATOM      8  O   UNL A   1      36.611  22.849  22.829  1.00  0.00    -0.245 OA
BRANCH   7   9
ATOM      9  C   UNL A   1      36.093  21.853  25.008  1.00  0.00     0.197 C 
ATOM     10  C   UNL A   1      35.231  20.634  24.613  1.00  0.00     0.081 C 
ATOM     11  C   UNL A   1      35.817  22.204  26.498  1.00  0.00     0.126 C 
ATOM     12  C   UNL A   1      33.758  20.823  24.957  1.00  0.00     0.011 C 
ATOM     13  C   UNL A   1      34.347  22.310  26.935  1.00  0.00     0.180 C 
ATOM     14  C   UNL A   1      33.575  21.077  26.447  1.00  0.00     0.046 C 
BRANCH   9  15
ATOM     15  N   UNL A   1      37.524  21.376  24.871  1.00  0.00    -0.334 N 
ATOM     16  C   UNL A   1      38.476  21.965  25.805  1.00  0.00     0.331 C 
ATOM     17  H   UNL A   1      37.532  20.365  25.011  1.00  0.00     0.347 HD
ATOM     18  H   UNL A   1      37.828  21.667  23.942  1.00  0.00     0.347 HD
ENDBRANCH   9  15
BRANCH  13  19
ATOM     19  O   UNL A   1      33.857  23.557  26.446  1.00  0.00    -0.490 OA
BRANCH  19  20
ATOM     20  C   UNL A   1      32.529  23.839  26.531  1.00  0.00     0.123 A 
ATOM     21  C   UNL A   1      31.547  23.008  27.061  1.00  0.00     0.047 A 
ATOM     22  C   UNL A   1      32.178  25.073  25.980  1.00  0.00     0.092 A 
ATOM     23  C   UNL A   1      30.205  23.338  26.891  1.00  0.00     0.008 A 
ATOM     24  C   UNL A   1      30.843  25.424  25.835  1.00  0.00     0.122 A 
ATOM     25  C   UNL A   1      29.861  24.517  26.233  1.00  0.00     0.046 A 
BRANCH  24  26
ATOM     26  O   UNL A   1      30.408  26.600  25.288  1.00  0.00    -0.497 OA
ATOM     27  C   UNL A   1      29.467  26.465  24.222  1.00  0.00     0.278 C 
ENDBRANCH  24  26
ENDBRANCH  19  20
ENDBRANCH  13  19
ENDBRANCH   7   9
ENDBRANCH   6   7
ENDBRANCH   5   6
ENDBRANCH   4   5
ENDBRANCH   3   4
ENDBRANCH   2   3
ENDBRANCH   1   2
BRANCH   1  28
ATOM     28  O   UNL A   1      34.000  28.459  24.367  1.00  0.00    -0.377 OA
BRANCH  28  29
ATOM     29  C   UNL A   1      33.449  28.464  25.660  1.00  0.00     0.188 C 
BRANCH  29  30
ATOM     30  C   UNL A   1      33.187  29.883  26.177  1.00  0.00     0.188 C 
BRANCH  30  31
ATOM     31  O   UNL A   1      33.548  30.289  27.494  1.00  0.00    -0.376 OA
BRANCH  31  32
ATOM     32  C   UNL A   1      33.991  31.606  27.777  1.00  0.00     0.202 C 
BRANCH  32  33
ATOM     33  C   UNL A   1      33.082  32.812  27.463  1.00  0.00     0.261 C 
BRANCH  33  34
ATOM     34  O   UNL A   1      32.625  33.602  28.570  1.00  0.00    -0.460 OA
BRANCH  34  35
ATOM     35  C   UNL A   1      33.326  34.724  28.820  1.00  0.00     0.338 C 
ATOM     36  O   UNL A   1      33.040  35.871  28.479  1.00  0.00    -0.246 OA
BRANCH  35  37
ATOM     37  C   UNL A   1      34.473  34.418  29.697  1.00  0.00     0.060 A 
ATOM     38  C   UNL A   1      35.765  34.497  29.159  1.00  0.00     0.016 A 
ATOM     39  C   UNL A   1      34.286  33.986  31.014  1.00  0.00     0.016 A 
ATOM     40  C   UNL A   1      36.868  34.107  29.916  1.00  0.00     0.010 A 
ATOM     41  C   UNL A   1      35.393  33.567  31.762  1.00  0.00     0.010 A 
ATOM     42  C   UNL A   1      36.684  33.588  31.202  1.00  0.00    -0.014 A 
BRANCH  42  43
ATOM     43  C   UNL A   1      37.807  32.874  31.863  1.00  0.00     0.031 A 
ATOM     44  C   UNL A   1      38.381  31.663  31.193  1.00  0.00     0.074 A 
ATOM     45  C   UNL A   1      38.379  33.331  32.988  1.00  0.00     0.049 A 
ATOM     46  N   UNL A   1      39.337  30.869  31.602  1.00  0.00    -0.248 NA
ATOM     47  C   UNL A   1      37.822  31.314  29.879  1.00  0.00     0.031 C 
ATOM     48  C   UNL A   1      38.016  34.569  33.656  1.00  0.00     0.029 A 
ATOM     49  N   UNL A   1      39.384  32.812  33.769  1.00  0.00    -0.354 N 
ATOM     50  C   UNL A   1      39.510  29.942  30.587  1.00  0.00     0.074 A 
ATOM     51  C   UNL A   1      38.527  30.237  29.567  1.00  0.00     0.031 C 
ATOM     52  C   UNL A   1      38.762  34.707  34.764  1.00  0.00     0.029 A 
ATOM     53  C   UNL A   1      39.603  33.529  34.920  1.00  0.00     0.049 A 
ATOM     54  H   UNL A   1      39.896  32.008  33.527  1.00  0.00     0.167 HD
ATOM     55  C   UNL A   1      40.421  28.946  30.506  1.00  0.00     0.037 A 
ATOM     56  C   UNL A   1      40.357  33.254  36.000  1.00  0.00     0.037 A 
ATOM     57  C   UNL A   1      41.387  28.645  31.531  1.00  0.00     0.049 A 
ATOM     58  C   UNL A   1      41.230  32.035  35.977  1.00  0.00     0.074 A 
ATOM     59  C   UNL A   1      42.348  27.650  31.542  1.00  0.00     0.029 A 
ATOM     60  N   UNL A   1      41.505  29.330  32.732  1.00  0.00    -0.354 N 
ATOM     61  N   UNL A   1      41.384  31.156  35.018  1.00  0.00    -0.248 NA
ATOM     62  C   UNL A   1      42.054  31.780  37.165  1.00  0.00     0.031 C 
ATOM     63  C   UNL A   1      43.007  27.693  32.775  1.00  0.00     0.029 A 
ATOM     64  C   UNL A   1      42.500  28.755  33.507  1.00  0.00     0.049 A 
ATOM     65  H   UNL A   1      40.964  30.108  32.994  1.00  0.00     0.167 HD
ATOM     66  C   UNL A   1      42.361  30.277  35.461  1.00  0.00     0.074 A 
ATOM     67  C   UNL A   1      42.757  30.724  36.780  1.00  0.00     0.031 C 
ATOM     68  C   UNL A   1      42.892  29.207  34.819  1.00  0.00     0.037 A 
BRANCH  55  69
ATOM     69  C   UNL A   1      40.382  28.090  29.277  1.00  0.00     0.057 A 
ATOM     70  C   UNL A   1      41.146  28.386  28.142  1.00  0.00     0.134 A 
ATOM     71  C   UNL A   1      39.566  26.953  29.231  1.00  0.00     0.134 A 
ATOM     72  F   UNL A   1      41.931  29.474  28.114  1.00  0.00    -0.206 F 
ATOM     73  C   UNL A   1      41.082  27.595  26.993  1.00  0.00     0.040 A 
ATOM     74  C   UNL A   1      39.515  26.139  28.099  1.00  0.00     0.040 A 
ATOM     75  F   UNL A   1      38.806  26.615  30.284  1.00  0.00    -0.206 F 
ATOM     76  C   UNL A   1      40.268  26.464  26.973  1.00  0.00     0.006 A 
ENDBRANCH  55  69
BRANCH  56  77
ATOM     77  C   UNL A   1      40.290  34.124  37.204  1.00  0.00     0.057 A 
ATOM     78  C   UNL A   1      39.327  33.932  38.200  1.00  0.00     0.134 A 
ATOM     79  C   UNL A   1      41.179  35.197  37.367  1.00  0.00     0.134 A 
ATOM     80  F   UNL A   1      38.435  32.937  38.091  1.00  0.00    -0.206 F 
ATOM     81  C   UNL A   1      39.232  34.786  39.301  1.00  0.00     0.040 A 
ATOM     82  C   UNL A   1      41.109  36.046  38.474  1.00  0.00     0.040 A 
ATOM     83  F   UNL A   1      42.130  35.437  36.452  1.00  0.00    -0.206 F 
ATOM     84  C   UNL A   1      40.127  35.846  39.442  1.00  0.00     0.006 A 
ENDBRANCH  56  77
BRANCH  68  85
ATOM     85  C   UNL A   1      44.004  28.477  35.514  1.00  0.00     0.057 A 
ATOM     86  C   UNL A   1      45.348  28.827  35.342  1.00  0.00     0.134 A 
ATOM     87  C   UNL A   1      43.717  27.422  36.391  1.00  0.00     0.134 A 
ATOM     88  F   UNL A   1      45.692  29.817  34.503  1.00  0.00    -0.206 F 
ATOM     89  C   UNL A   1      46.370  28.140  35.999  1.00  0.00     0.040 A 
ATOM     90  C   UNL A   1      44.726  26.747  37.077  1.00  0.00     0.040 A 
ATOM     91  F   UNL A   1      42.448  27.039  36.605  1.00  0.00    -0.206 F 
ATOM     92  C   UNL A   1      46.058  27.101  36.876  1.00  0.00     0.006 A 
ENDBRANCH  68  85
ENDBRANCH  42  43
ENDBRANCH  35  37
ENDBRANCH  34  35
ENDBRANCH  33  34
ENDBRANCH  32  33
ENDBRANCH  31  32
ENDBRANCH  30  31
ENDBRANCH  29  30
ENDBRANCH  28  29
ENDBRANCH   1  28
TORSDOF 24
ENDMDL
