MODEL 1
REMARK VINA RESULT:      -8.8      0.000      0.000
REMARK SMILES N#CC[C@@H]1C[NH2+][C@H](C(=O)OCCOCCOCCOCCOC(=O)c2ccc(-c3c4nc(c(-c5c(F)cccc5F)c5ccc([nH]5)c(-c5c(F)cccc5F)c5nc(c(-c6c(F)cccc6F)c6ccc3[nH]6)C=C5)C=C4)cc2)C1
REMARK SMILES IDX 16 1 15 2 14 3 13 4 12 5 11 6 10 7 8 8 9 9 7 10 4 11 5 12
REMARK SMILES IDX 79 13 6 14 3 17 2 18 1 19 17 20 18 21 19 22 20 23 21 24
REMARK SMILES IDX 22 25 23 26 24 27 25 28 26 29 78 30 27 31 77 32 28 33 29 34
REMARK SMILES IDX 30 35 71 36 31 37 76 38 70 39 72 40 32 41 75 42 69 43 68 44
REMARK SMILES IDX 33 46 59 47 42 48 58 49 43 50 46 51 57 52 73 53 44 54 45 55
REMARK SMILES IDX 56 57 74 58 47 59 34 60 35 61 40 62 36 63 37 64 39 65 41 66
REMARK SMILES IDX 38 67 60 68 61 69 66 70 62 71 63 72 65 73 67 74 64 75 48 76
REMARK SMILES IDX 49 77 54 78 50 79 51 80 53 81 55 82 52 83
REMARK H PARENT 6 15 6 16 72 45 46 56
REMARK Flexibility Score: inf
ROOT
ATOM      1  O   UNL A   1      39.948  22.202  26.227  1.00  0.00    -0.377 OA
ENDROOT
BRANCH   1   2
ATOM      2  C   UNL A   1      38.865  21.412  25.749  1.00  0.00     0.188 C 
BRANCH   2   3
ATOM      3  C   UNL A   1      37.435  21.976  25.523  1.00  0.00     0.188 C 
BRANCH   3   4
ATOM      4  O   UNL A   1      36.986  21.892  24.181  1.00  0.00    -0.376 OA
BRANCH   4   5
ATOM      5  C   UNL A   1      36.645  23.113  23.550  1.00  0.00     0.202 C 
BRANCH   5   6
ATOM      6  C   UNL A   1      35.179  23.257  23.122  1.00  0.00     0.261 C 
BRANCH   6   7
ATOM      7  O   UNL A   1      34.186  22.904  24.107  1.00  0.00    -0.459 OA
BRANCH   7   8
ATOM      8  C   UNL A   1      33.467  21.755  23.937  1.00  0.00     0.364 C 
ATOM      9  O   UNL A   1      32.727  21.551  22.987  1.00  0.00    -0.245 OA
BRANCH   8  10
ATOM     10  C   UNL A   1      33.807  20.764  25.088  1.00  0.00     0.294 C 
ATOM     11  C   UNL A   1      33.591  18.314  24.995  1.00  0.00     0.065 C 
ATOM     12  C   UNL A   1      32.240  19.014  25.135  1.00  0.00     0.266 C 
ATOM     13  C   UNL A   1      34.510  19.477  24.629  1.00  0.00     0.088 C 
ATOM     14  N   UNL A   1      32.582  20.289  25.781  1.00  0.00    -0.334 N 
ATOM     15  H   UNL A   1      32.765  20.149  26.774  1.00  0.00     0.347 HD
ATOM     16  H   UNL A   1      31.822  20.965  25.713  1.00  0.00     0.347 HD
BRANCH  11  17
ATOM     17  C   UNL A   1      33.675  17.128  24.003  1.00  0.00     0.129 C 
BRANCH  17  18
ATOM     18  C   UNL A   1      33.662  15.806  24.753  1.00  0.00     0.063 C 
ATOM     19  N   UNL A   1      33.652  14.710  25.376  1.00  0.00    -0.198 NA
ENDBRANCH  17  18
ENDBRANCH  11  17
ENDBRANCH   8  10
ENDBRANCH   7   8
ENDBRANCH   6   7
ENDBRANCH   5   6
ENDBRANCH   4   5
ENDBRANCH   3   4
ENDBRANCH   2   3
ENDBRANCH   1   2
BRANCH   1  20
ATOM     20  C   UNL A   1      40.818  21.645  27.196  1.00  0.00     0.188 C 
BRANCH  20  21
ATOM     21  C   UNL A   1      41.854  20.643  26.655  1.00  0.00     0.188 C 
BRANCH  21  22
ATOM     22  O   UNL A   1      42.485  21.082  25.459  1.00  0.00    -0.376 OA
BRANCH  22  23
ATOM     23  C   UNL A   1      43.395  22.164  25.536  1.00  0.00     0.202 C 
BRANCH  23  24
ATOM     24  C   UNL A   1      42.987  23.509  24.917  1.00  0.00     0.261 C 
BRANCH  24  25
ATOM     25  O   UNL A   1      43.932  24.581  25.025  1.00  0.00    -0.460 OA
BRANCH  25  26
ATOM     26  C   UNL A   1      44.694  24.639  26.135  1.00  0.00     0.338 C 
ATOM     27  O   UNL A   1      45.832  24.225  26.276  1.00  0.00    -0.246 OA
BRANCH  26  28
ATOM     28  C   UNL A   1      43.970  25.475  27.112  1.00  0.00     0.060 A 
ATOM     29  C   UNL A   1      44.276  26.841  27.207  1.00  0.00     0.016 A 
ATOM     30  C   UNL A   1      42.958  24.918  27.897  1.00  0.00     0.016 A 
ATOM     31  C   UNL A   1      43.578  27.650  28.101  1.00  0.00     0.010 A 
ATOM     32  C   UNL A   1      42.285  25.721  28.819  1.00  0.00     0.010 A 
ATOM     33  C   UNL A   1      42.615  27.082  28.944  1.00  0.00    -0.014 A 
BRANCH  33  34
ATOM     34  C   UNL A   1      42.129  27.847  30.114  1.00  0.00     0.031 A 
ATOM     35  C   UNL A   1      40.904  28.699  29.931  1.00  0.00     0.074 A 
ATOM     36  C   UNL A   1      42.742  27.781  31.307  1.00  0.00     0.049 A 
ATOM     37  N   UNL A   1      40.312  29.502  30.775  1.00  0.00    -0.248 NA
ATOM     38  C   UNL A   1      40.264  28.636  28.607  1.00  0.00     0.031 C 
ATOM     39  C   UNL A   1      43.907  26.956  31.618  1.00  0.00     0.029 A 
ATOM     40  N   UNL A   1      42.466  28.436  32.481  1.00  0.00    -0.354 N 
ATOM     41  C   UNL A   1      39.238  30.043  30.084  1.00  0.00     0.074 A 
ATOM     42  C   UNL A   1      39.277  29.507  28.742  1.00  0.00     0.031 C 
ATOM     43  C   UNL A   1      44.254  27.163  32.900  1.00  0.00     0.029 A 
ATOM     44  C   UNL A   1      43.359  28.160  33.486  1.00  0.00     0.049 A 
ATOM     45  H   UNL A   1      41.701  29.046  32.591  1.00  0.00     0.167 HD
ATOM     46  C   UNL A   1      38.295  30.906  30.530  1.00  0.00     0.037 A 
ATOM     47  C   UNL A   1      43.450  28.677  34.727  1.00  0.00     0.037 A 
ATOM     48  C   UNL A   1      38.268  31.447  31.862  1.00  0.00     0.049 A 
ATOM     49  C   UNL A   1      42.443  29.705  35.175  1.00  0.00     0.074 A 
ATOM     50  C   UNL A   1      37.354  32.321  32.419  1.00  0.00     0.029 A 
ATOM     51  N   UNL A   1      39.213  31.175  32.841  1.00  0.00    -0.354 N 
ATOM     52  N   UNL A   1      41.414  30.197  34.526  1.00  0.00    -0.248 NA
ATOM     53  C   UNL A   1      42.610  30.251  36.530  1.00  0.00     0.031 C 
ATOM     54  C   UNL A   1      37.777  32.625  33.717  1.00  0.00     0.029 A 
ATOM     55  C   UNL A   1      38.920  31.889  33.991  1.00  0.00     0.049 A 
ATOM     56  H   UNL A   1      39.978  30.565  32.735  1.00  0.00     0.167 HD
ATOM     57  C   UNL A   1      40.794  31.080  35.403  1.00  0.00     0.074 A 
ATOM     58  C   UNL A   1      41.558  31.049  36.633  1.00  0.00     0.031 C 
ATOM     59  C   UNL A   1      39.689  31.842  35.210  1.00  0.00     0.037 A 
BRANCH  46  60
ATOM     60  C   UNL A   1      37.245  31.341  29.549  1.00  0.00     0.057 A 
ATOM     61  C   UNL A   1      37.311  32.572  28.885  1.00  0.00     0.134 A 
ATOM     62  C   UNL A   1      36.149  30.515  29.270  1.00  0.00     0.134 A 
ATOM     63  F   UNL A   1      38.323  33.421  29.122  1.00  0.00    -0.206 F 
ATOM     64  C   UNL A   1      36.308  32.983  28.003  1.00  0.00     0.040 A 
ATOM     65  C   UNL A   1      35.156  30.899  28.367  1.00  0.00     0.040 A 
ATOM     66  F   UNL A   1      36.022  29.323  29.871  1.00  0.00    -0.206 F 
ATOM     67  C   UNL A   1      35.231  32.141  27.738  1.00  0.00     0.006 A 
ENDBRANCH  46  60
BRANCH  47  68
ATOM     68  C   UNL A   1      44.540  28.238  35.637  1.00  0.00     0.057 A 
ATOM     69  C   UNL A   1      44.353  27.181  36.536  1.00  0.00     0.134 A 
ATOM     70  C   UNL A   1      45.787  28.874  35.643  1.00  0.00     0.134 A 
ATOM     71  F   UNL A   1      43.173  26.547  36.595  1.00  0.00    -0.206 F 
ATOM     72  C   UNL A   1      45.361  26.782  37.416  1.00  0.00     0.040 A 
ATOM     73  C   UNL A   1      46.812  28.469  36.500  1.00  0.00     0.040 A 
ATOM     74  F   UNL A   1      46.030  29.896  34.809  1.00  0.00    -0.206 F 
ATOM     75  C   UNL A   1      46.597  27.423  37.395  1.00  0.00     0.006 A 
ENDBRANCH  47  68
BRANCH  59  76
ATOM     76  C   UNL A   1      39.210  32.674  36.367  1.00  0.00     0.057 A 
ATOM     77  C   UNL A   1      38.301  32.182  37.313  1.00  0.00     0.134 A 
ATOM     78  C   UNL A   1      39.704  33.970  36.561  1.00  0.00     0.134 A 
ATOM     79  F   UNL A   1      37.781  30.951  37.181  1.00  0.00    -0.206 F 
ATOM     80  C   UNL A   1      37.884  32.957  38.396  1.00  0.00     0.040 A 
ATOM     81  C   UNL A   1      39.319  34.744  37.657  1.00  0.00     0.040 A 
ATOM     82  F   UNL A   1      40.586  34.500  35.699  1.00  0.00    -0.206 F 
ATOM     83  C   UNL A   1      38.400  34.241  38.575  1.00  0.00     0.006 A 
ENDBRANCH  59  76
ENDBRANCH  33  34
ENDBRANCH  26  28
ENDBRANCH  25  26
ENDBRANCH  24  25
ENDBRANCH  23  24
ENDBRANCH  22  23
ENDBRANCH  21  22
ENDBRANCH  20  21
ENDBRANCH   1  20
TORSDOF 22
ENDMDL
MODEL 2
REMARK VINA RESULT:      -8.8      2.740      7.668
REMARK SMILES N#CC[C@@H]1C[NH2+][C@H](C(=O)OCCOCCOCCOCCOC(=O)c2ccc(-c3c4nc(c(-c5c(F)cccc5F)c5ccc([nH]5)c(-c5c(F)cccc5F)c5nc(c(-c6c(F)cccc6F)c6ccc3[nH]6)C=C5)C=C4)cc2)C1
REMARK SMILES IDX 16 1 15 2 14 3 13 4 12 5 11 6 10 7 8 8 9 9 7 10 4 11 5 12
REMARK SMILES IDX 79 13 6 14 3 17 2 18 1 19 17 20 18 21 19 22 20 23 21 24
REMARK SMILES IDX 22 25 23 26 24 27 25 28 26 29 78 30 27 31 77 32 28 33 29 34
REMARK SMILES IDX 30 35 71 36 31 37 76 38 70 39 72 40 32 41 75 42 69 43 68 44
REMARK SMILES IDX 33 46 59 47 42 48 58 49 43 50 46 51 57 52 73 53 44 54 45 55
REMARK SMILES IDX 56 57 74 58 47 59 34 60 35 61 40 62 36 63 37 64 39 65 41 66
REMARK SMILES IDX 38 67 60 68 61 69 66 70 62 71 63 72 65 73 67 74 64 75 48 76
REMARK SMILES IDX 49 77 54 78 50 79 51 80 53 81 55 82 52 83
REMARK H PARENT 6 15 6 16 72 45 46 56
REMARK Flexibility Score: inf
ROOT
ATOM      1  O   UNL A   1      32.120  25.991  23.137  1.00  0.00    -0.377 OA
ENDROOT
BRANCH   1   2
ATOM      2  C   UNL A   1      33.409  25.697  23.663  1.00  0.00     0.188 C 
BRANCH   2   3
ATOM      3  C   UNL A   1      33.648  25.261  25.135  1.00  0.00     0.188 C 
BRANCH   3   4
ATOM      4  O   UNL A   1      34.838  24.517  25.332  1.00  0.00    -0.376 OA
BRANCH   4   5
ATOM      5  C   UNL A   1      34.736  23.363  26.147  1.00  0.00     0.202 C 
BRANCH   5   6
ATOM      6  C   UNL A   1      35.382  22.090  25.586  1.00  0.00     0.261 C 
BRANCH   6   7
ATOM      7  O   UNL A   1      34.491  20.996  25.290  1.00  0.00    -0.459 OA
BRANCH   7   8
ATOM      8  C   UNL A   1      33.552  21.156  24.311  1.00  0.00     0.364 C 
ATOM      9  O   UNL A   1      33.607  22.023  23.452  1.00  0.00    -0.245 OA
BRANCH   8  10
ATOM     10  C   UNL A   1      32.483  20.032  24.439  1.00  0.00     0.294 C 
ATOM     11  C   UNL A   1      32.835  17.643  23.961  1.00  0.00     0.065 C 
ATOM     12  C   UNL A   1      32.726  18.483  22.689  1.00  0.00     0.266 C 
ATOM     13  C   UNL A   1      33.014  18.718  25.032  1.00  0.00     0.088 C 
ATOM     14  N   UNL A   1      31.934  19.646  23.114  1.00  0.00    -0.334 N 
ATOM     15  H   UNL A   1      30.949  19.396  23.196  1.00  0.00     0.347 HD
ATOM     16  H   UNL A   1      31.990  20.411  22.443  1.00  0.00     0.347 HD
BRANCH  11  17
ATOM     17  C   UNL A   1      33.930  16.550  23.997  1.00  0.00     0.129 C 
BRANCH  17  18
ATOM     18  C   UNL A   1      33.496  15.392  24.881  1.00  0.00     0.063 C 
ATOM     19  N   UNL A   1      33.136  14.432  25.615  1.00  0.00    -0.198 NA
ENDBRANCH  17  18
ENDBRANCH  11  17
ENDBRANCH   8  10
ENDBRANCH   7   8
ENDBRANCH   6   7
ENDBRANCH   5   6
ENDBRANCH   4   5
ENDBRANCH   3   4
ENDBRANCH   2   3
ENDBRANCH   1   2
BRANCH   1  20
ATOM     20  C   UNL A   1      31.030  26.099  24.034  1.00  0.00     0.188 C 
BRANCH  20  21
ATOM     21  C   UNL A   1      30.087  27.291  23.786  1.00  0.00     0.188 C 
BRANCH  21  22
ATOM     22  O   UNL A   1      30.703  28.551  24.021  1.00  0.00    -0.376 OA
BRANCH  22  23
ATOM     23  C   UNL A   1      31.418  28.735  25.229  1.00  0.00     0.202 C 
BRANCH  23  24
ATOM     24  C   UNL A   1      31.957  30.136  25.555  1.00  0.00     0.261 C 
BRANCH  24  25
ATOM     25  O   UNL A   1      32.391  30.361  26.903  1.00  0.00    -0.460 OA
BRANCH  25  26
ATOM     26  C   UNL A   1      32.981  31.539  27.185  1.00  0.00     0.338 C 
ATOM     27  O   UNL A   1      32.480  32.650  27.142  1.00  0.00    -0.246 OA
BRANCH  26  28
ATOM     28  C   UNL A   1      34.309  31.231  27.750  1.00  0.00     0.060 A 
ATOM     29  C   UNL A   1      34.652  29.895  28.007  1.00  0.00     0.016 A 
ATOM     30  C   UNL A   1      35.230  32.256  27.978  1.00  0.00     0.016 A 
ATOM     31  C   UNL A   1      35.915  29.585  28.509  1.00  0.00     0.010 A 
ATOM     32  C   UNL A   1      36.480  31.949  28.515  1.00  0.00     0.010 A 
ATOM     33  C   UNL A   1      36.813  30.615  28.810  1.00  0.00    -0.014 A 
BRANCH  33  34
ATOM     34  C   UNL A   1      37.996  30.327  29.652  1.00  0.00     0.031 A 
ATOM     35  C   UNL A   1      39.053  29.421  29.085  1.00  0.00     0.074 A 
ATOM     36  C   UNL A   1      38.141  30.862  30.876  1.00  0.00     0.049 A 
ATOM     37  N   UNL A   1      40.149  28.971  29.636  1.00  0.00    -0.248 NA
ATOM     38  C   UNL A   1      38.834  28.955  27.706  1.00  0.00     0.031 C 
ATOM     39  C   UNL A   1      37.208  31.790  31.512  1.00  0.00     0.029 A 
ATOM     40  N   UNL A   1      39.133  30.686  31.807  1.00  0.00    -0.354 N 
ATOM     41  C   UNL A   1      40.746  28.167  28.675  1.00  0.00     0.074 A 
ATOM     42  C   UNL A   1      39.875  28.160  27.521  1.00  0.00     0.031 C 
ATOM     43  C   UNL A   1      37.669  32.094  32.737  1.00  0.00     0.029 A 
ATOM     44  C   UNL A   1      38.907  31.355  32.983  1.00  0.00     0.049 A 
ATOM     45  H   UNL A   1      39.931  30.132  31.646  1.00  0.00     0.167 HD
ATOM     46  C   UNL A   1      41.920  27.498  28.745  1.00  0.00     0.037 A 
ATOM     47  C   UNL A   1      39.612  31.347  34.132  1.00  0.00     0.037 A 
ATOM     48  C   UNL A   1      42.776  27.496  29.901  1.00  0.00     0.049 A 
ATOM     49  C   UNL A   1      40.872  30.524  34.220  1.00  0.00     0.074 A 
ATOM     50  C   UNL A   1      43.991  26.860  30.073  1.00  0.00     0.029 A 
ATOM     51  N   UNL A   1      42.493  28.155  31.089  1.00  0.00    -0.354 N 
ATOM     52  N   UNL A   1      41.444  29.783  33.301  1.00  0.00    -0.248 NA
ATOM     53  C   UNL A   1      41.583  30.535  35.506  1.00  0.00     0.031 C 
ATOM     54  C   UNL A   1      44.416  27.084  31.387  1.00  0.00     0.029 A 
ATOM     55  C   UNL A   1      43.498  27.915  32.012  1.00  0.00     0.049 A 
ATOM     56  H   UNL A   1      41.698  28.711  31.253  1.00  0.00     0.167 HD
ATOM     57  C   UNL A   1      42.597  29.270  33.885  1.00  0.00     0.074 A 
ATOM     58  C   UNL A   1      42.646  29.792  35.235  1.00  0.00     0.031 C 
ATOM     59  C   UNL A   1      43.534  28.447  33.351  1.00  0.00     0.037 A 
BRANCH  46  60
ATOM     60  C   UNL A   1      42.318  26.684  27.548  1.00  0.00     0.057 A 
ATOM     61  C   UNL A   1      43.077  27.221  26.500  1.00  0.00     0.134 A 
ATOM     62  C   UNL A   1      41.929  25.343  27.440  1.00  0.00     0.134 A 
ATOM     63  F   UNL A   1      43.464  28.506  26.529  1.00  0.00    -0.206 F 
ATOM     64  C   UNL A   1      43.407  26.465  25.374  1.00  0.00     0.040 A 
ATOM     65  C   UNL A   1      42.280  24.566  26.335  1.00  0.00     0.040 A 
ATOM     66  F   UNL A   1      41.200  24.764  28.407  1.00  0.00    -0.206 F 
ATOM     67  C   UNL A   1      43.014  25.131  25.293  1.00  0.00     0.006 A 
ENDBRANCH  46  60
BRANCH  47  68
ATOM     68  C   UNL A   1      39.143  32.140  35.298  1.00  0.00     0.057 A 
ATOM     69  C   UNL A   1      38.334  31.568  36.286  1.00  0.00     0.134 A 
ATOM     70  C   UNL A   1      39.479  33.491  35.444  1.00  0.00     0.134 A 
ATOM     71  F   UNL A   1      37.958  30.284  36.190  1.00  0.00    -0.206 F 
ATOM     72  C   UNL A   1      37.864  32.312  37.369  1.00  0.00     0.040 A 
ATOM     73  C   UNL A   1      39.037  34.242  36.536  1.00  0.00     0.040 A 
ATOM     74  F   UNL A   1      40.249  34.101  34.531  1.00  0.00    -0.206 F 
ATOM     75  C   UNL A   1      38.220  33.653  37.499  1.00  0.00     0.006 A 
ENDBRANCH  47  68
BRANCH  59  76
ATOM     76  C   UNL A   1      44.716  28.093  34.209  1.00  0.00     0.057 A 
ATOM     77  C   UNL A   1      44.732  26.951  35.021  1.00  0.00     0.134 A 
ATOM     78  C   UNL A   1      45.873  28.882  34.184  1.00  0.00     0.134 A 
ATOM     79  F   UNL A   1      43.653  26.156  35.099  1.00  0.00    -0.206 F 
ATOM     80  C   UNL A   1      45.847  26.621  35.794  1.00  0.00     0.040 A 
ATOM     81  C   UNL A   1      47.005  28.546  34.928  1.00  0.00     0.040 A 
ATOM     82  F   UNL A   1      45.930  29.984  33.420  1.00  0.00    -0.206 F 
ATOM     83  C   UNL A   1      46.991  27.416  35.742  1.00  0.00     0.006 A 
ENDBRANCH  59  76
ENDBRANCH  33  34
ENDBRANCH  26  28
ENDBRANCH  25  26
ENDBRANCH  24  25
ENDBRANCH  23  24
ENDBRANCH  22  23
ENDBRANCH  21  22
ENDBRANCH  20  21
ENDBRANCH   1  20
TORSDOF 22
ENDMDL
MODEL 3
REMARK VINA RESULT:      -8.7      2.374      7.173
REMARK SMILES N#CC[C@@H]1C[NH2+][C@H](C(=O)OCCOCCOCCOCCOC(=O)c2ccc(-c3c4nc(c(-c5c(F)cccc5F)c5ccc([nH]5)c(-c5c(F)cccc5F)c5nc(c(-c6c(F)cccc6F)c6ccc3[nH]6)C=C5)C=C4)cc2)C1
REMARK SMILES IDX 16 1 15 2 14 3 13 4 12 5 11 6 10 7 8 8 9 9 7 10 4 11 5 12
REMARK SMILES IDX 79 13 6 14 3 17 2 18 1 19 17 20 18 21 19 22 20 23 21 24
REMARK SMILES IDX 22 25 23 26 24 27 25 28 26 29 78 30 27 31 77 32 28 33 29 34
REMARK SMILES IDX 30 35 71 36 31 37 76 38 70 39 72 40 32 41 75 42 69 43 68 44
REMARK SMILES IDX 33 46 59 47 42 48 58 49 43 50 46 51 57 52 73 53 44 54 45 55
REMARK SMILES IDX 56 57 74 58 47 59 34 60 35 61 40 62 36 63 37 64 39 65 41 66
REMARK SMILES IDX 38 67 60 68 61 69 66 70 62 71 63 72 65 73 67 74 64 75 48 76
REMARK SMILES IDX 49 77 54 78 50 79 51 80 53 81 55 82 52 83
REMARK H PARENT 6 15 6 16 72 45 46 56
REMARK Flexibility Score: inf
ROOT
ATOM      1  O   UNL A   1      39.555  22.295  26.069  1.00  0.00    -0.377 OA
ENDROOT
BRANCH   1   2
ATOM      2  C   UNL A   1      38.406  21.519  25.747  1.00  0.00     0.188 C 
BRANCH   2   3
ATOM      3  C   UNL A   1      37.399  21.911  24.631  1.00  0.00     0.188 C 
BRANCH   3   4
ATOM      4  O   UNL A   1      37.081  23.291  24.596  1.00  0.00    -0.376 OA
BRANCH   4   5
ATOM      5  C   UNL A   1      35.902  23.686  25.275  1.00  0.00     0.202 C 
BRANCH   5   6
ATOM      6  C   UNL A   1      34.586  23.436  24.528  1.00  0.00     0.261 C 
BRANCH   6   7
ATOM      7  O   UNL A   1      34.154  24.476  23.627  1.00  0.00    -0.459 OA
BRANCH   7   8
ATOM      8  C   UNL A   1      33.341  25.465  24.102  1.00  0.00     0.364 C 
ATOM      9  O   UNL A   1      33.641  26.207  25.025  1.00  0.00    -0.245 OA
BRANCH   8  10
ATOM     10  C   UNL A   1      32.045  25.521  23.241  1.00  0.00     0.294 C 
ATOM     11  C   UNL A   1      30.366  27.320  23.274  1.00  0.00     0.065 C 
ATOM     12  C   UNL A   1      30.275  26.415  24.501  1.00  0.00     0.266 C 
ATOM     13  C   UNL A   1      31.715  26.914  22.684  1.00  0.00     0.088 C 
ATOM     14  N   UNL A   1      30.845  25.144  24.031  1.00  0.00    -0.334 N 
ATOM     15  H   UNL A   1      30.175  24.646  23.446  1.00  0.00     0.347 HD
ATOM     16  H   UNL A   1      31.081  24.523  24.805  1.00  0.00     0.347 HD
BRANCH  11  17
ATOM     17  C   UNL A   1      30.229  28.844  23.506  1.00  0.00     0.129 C 
BRANCH  17  18
ATOM     18  C   UNL A   1      29.646  29.519  22.275  1.00  0.00     0.063 C 
ATOM     19  N   UNL A   1      29.163  30.079  21.253  1.00  0.00    -0.198 NA
ENDBRANCH  17  18
ENDBRANCH  11  17
ENDBRANCH   8  10
ENDBRANCH   7   8
ENDBRANCH   6   7
ENDBRANCH   5   6
ENDBRANCH   4   5
ENDBRANCH   3   4
ENDBRANCH   2   3
ENDBRANCH   1   2
BRANCH   1  20
ATOM     20  C   UNL A   1      40.300  21.956  27.225  1.00  0.00     0.188 C 
BRANCH  20  21
ATOM     21  C   UNL A   1      41.304  20.803  27.048  1.00  0.00     0.188 C 
BRANCH  21  22
ATOM     22  O   UNL A   1      41.933  20.798  25.773  1.00  0.00    -0.376 OA
BRANCH  22  23
ATOM     23  C   UNL A   1      43.125  21.544  25.608  1.00  0.00     0.202 C 
BRANCH  23  24
ATOM     24  C   UNL A   1      43.031  22.951  24.998  1.00  0.00     0.261 C 
BRANCH  24  25
ATOM     25  O   UNL A   1      44.190  23.784  25.119  1.00  0.00    -0.460 OA
BRANCH  25  26
ATOM     26  C   UNL A   1      44.798  23.848  26.320  1.00  0.00     0.338 C 
ATOM     27  O   UNL A   1      45.860  23.344  26.642  1.00  0.00    -0.246 OA
BRANCH  26  28
ATOM     28  C   UNL A   1      44.034  24.810  27.138  1.00  0.00     0.060 A 
ATOM     29  C   UNL A   1      44.353  26.174  27.070  1.00  0.00     0.016 A 
ATOM     30  C   UNL A   1      42.975  24.368  27.934  1.00  0.00     0.016 A 
ATOM     31  C   UNL A   1      43.620  27.099  27.812  1.00  0.00     0.010 A 
ATOM     32  C   UNL A   1      42.265  25.289  28.704  1.00  0.00     0.010 A 
ATOM     33  C   UNL A   1      42.606  26.653  28.668  1.00  0.00    -0.014 A 
BRANCH  33  34
ATOM     34  C   UNL A   1      42.069  27.568  29.699  1.00  0.00     0.031 A 
ATOM     35  C   UNL A   1      42.742  27.576  31.043  1.00  0.00     0.074 A 
ATOM     36  C   UNL A   1      41.027  28.379  29.453  1.00  0.00     0.049 A 
ATOM     37  N   UNL A   1      42.433  28.240  32.126  1.00  0.00    -0.248 NA
ATOM     38  C   UNL A   1      43.924  26.710  31.181  1.00  0.00     0.031 C 
ATOM     39  C   UNL A   1      40.324  28.494  28.177  1.00  0.00     0.029 A 
ATOM     40  N   UNL A   1      40.373  29.256  30.281  1.00  0.00    -0.354 N 
ATOM     41  C   UNL A   1      43.377  27.866  33.073  1.00  0.00     0.074 A 
ATOM     42  C   UNL A   1      44.246  26.893  32.451  1.00  0.00     0.031 C 
ATOM     43  C   UNL A   1      39.327  29.385  28.311  1.00  0.00     0.029 A 
ATOM     44  C   UNL A   1      39.301  29.874  29.689  1.00  0.00     0.049 A 
ATOM     45  H   UNL A   1      40.648  29.426  31.211  1.00  0.00     0.167 HD
ATOM     46  C   UNL A   1      43.512  28.302  34.347  1.00  0.00     0.037 A 
ATOM     47  C   UNL A   1      38.391  30.719  30.213  1.00  0.00     0.037 A 
ATOM     48  C   UNL A   1      42.636  29.260  34.966  1.00  0.00     0.049 A 
ATOM     49  C   UNL A   1      38.507  31.122  31.662  1.00  0.00     0.074 A 
ATOM     50  C   UNL A   1      42.690  29.775  36.248  1.00  0.00     0.029 A 
ATOM     51  N   UNL A   1      41.536  29.834  34.346  1.00  0.00    -0.354 N 
ATOM     52  N   UNL A   1      39.414  30.784  32.547  1.00  0.00    -0.248 NA
ATOM     53  C   UNL A   1      37.470  32.025  32.183  1.00  0.00     0.031 C 
ATOM     54  C   UNL A   1      41.586  30.617  36.424  1.00  0.00     0.029 A 
ATOM     55  C   UNL A   1      40.883  30.677  35.230  1.00  0.00     0.049 A 
ATOM     56  H   UNL A   1      41.259  29.668  33.416  1.00  0.00     0.167 HD
ATOM     57  C   UNL A   1      39.079  31.458  33.716  1.00  0.00     0.074 A 
ATOM     58  C   UNL A   1      37.889  32.231  33.423  1.00  0.00     0.031 C 
ATOM     59  C   UNL A   1      39.702  31.444  34.920  1.00  0.00     0.037 A 
BRANCH  46  60
ATOM     60  C   UNL A   1      44.627  27.708  35.160  1.00  0.00     0.057 A 
ATOM     61  C   UNL A   1      45.901  28.288  35.212  1.00  0.00     0.134 A 
ATOM     62  C   UNL A   1      44.422  26.535  35.896  1.00  0.00     0.134 A 
ATOM     63  F   UNL A   1      46.172  29.402  34.513  1.00  0.00    -0.206 F 
ATOM     64  C   UNL A   1      46.941  27.706  35.940  1.00  0.00     0.040 A 
ATOM     65  C   UNL A   1      45.443  25.960  36.654  1.00  0.00     0.040 A 
ATOM     66  F   UNL A   1      43.227  25.926  35.890  1.00  0.00    -0.206 F 
ATOM     67  C   UNL A   1      46.710  26.541  36.669  1.00  0.00     0.006 A 
ENDBRANCH  46  60
BRANCH  47  68
ATOM     68  C   UNL A   1      37.284  31.238  29.370  1.00  0.00     0.057 A 
ATOM     69  C   UNL A   1      37.321  32.533  28.839  1.00  0.00     0.134 A 
ATOM     70  C   UNL A   1      36.155  30.460  29.086  1.00  0.00     0.134 A 
ATOM     71  F   UNL A   1      38.364  33.336  29.095  1.00  0.00    -0.206 F 
ATOM     72  C   UNL A   1      36.272  33.040  28.071  1.00  0.00     0.040 A 
ATOM     73  C   UNL A   1      35.110  30.945  28.297  1.00  0.00     0.040 A 
ATOM     74  F   UNL A   1      36.055  29.211  29.565  1.00  0.00    -0.206 F 
ATOM     75  C   UNL A   1      35.164  32.242  27.793  1.00  0.00     0.006 A 
ENDBRANCH  47  68
BRANCH  59  76
ATOM     76  C   UNL A   1      39.139  32.322  36.003  1.00  0.00     0.057 A 
ATOM     77  C   UNL A   1      38.225  31.842  36.951  1.00  0.00     0.134 A 
ATOM     78  C   UNL A   1      39.557  33.653  36.126  1.00  0.00     0.134 A 
ATOM     79  F   UNL A   1      37.776  30.579  36.885  1.00  0.00    -0.206 F 
ATOM     80  C   UNL A   1      37.729  32.663  37.966  1.00  0.00     0.040 A 
ATOM     81  C   UNL A   1      39.092  34.474  37.155  1.00  0.00     0.040 A 
ATOM     82  F   UNL A   1      40.439  34.173  35.259  1.00  0.00    -0.206 F 
ATOM     83  C   UNL A   1      38.170  33.982  38.074  1.00  0.00     0.006 A 
ENDBRANCH  59  76
ENDBRANCH  33  34
ENDBRANCH  26  28
ENDBRANCH  25  26
ENDBRANCH  24  25
ENDBRANCH  23  24
ENDBRANCH  22  23
ENDBRANCH  21  22
ENDBRANCH  20  21
ENDBRANCH   1  20
TORSDOF 22
ENDMDL
