MODEL 1
REMARK VINA RESULT:      -9.5      0.000      0.000
REMARK SMILES O=C(OCCOCCOCCOCCOC(=O)c1cc2cnc(Cl)cc2[nH]1)c1ccc(-c2c3nc(c(-c4c(F)cccc4F)c4ccc([nH]4)c(-c4c(F)cccc4F)c4nc(c(-c5c(F)cccc5F)c5ccc2[nH]5)C=C4)C=C3)cc1
REMARK SMILES IDX 8 1 7 2 6 3 5 4 4 5 3 6 2 7 1 8 28 9 29 10 81 11 30 12 80 13
REMARK SMILES IDX 31 14 32 15 33 16 74 17 34 18 79 19 73 20 75 21 35 22 78 23
REMARK SMILES IDX 72 24 71 25 36 27 62 28 45 29 61 30 46 31 49 32 60 33 76 34
REMARK SMILES IDX 47 35 48 36 59 38 77 39 50 40 37 41 38 42 43 43 39 44 40 45
REMARK SMILES IDX 42 46 44 47 41 48 63 49 64 50 69 51 65 52 66 53 68 54 70 55
REMARK SMILES IDX 67 56 51 57 52 58 57 59 53 60 54 61 56 62 58 63 55 64 9 65
REMARK SMILES IDX 10 66 11 67 12 68 13 69 14 70 15 71 16 72 17 73 18 74 19 75
REMARK SMILES IDX 27 76 20 77 26 78 21 80 25 81 22 82 23 83 24 84
REMARK H PARENT 75 26 49 37 27 79
REMARK Flexibility Score: inf
ROOT
ATOM      1  C   UNL A   1      33.959  28.192  23.803  1.00  0.00     0.188 C 
ENDROOT
BRANCH   1   2
ATOM      2  C   UNL A   1      32.681  28.993  24.056  1.00  0.00     0.188 C 
BRANCH   2   3
ATOM      3  O   UNL A   1      32.594  29.506  25.373  1.00  0.00    -0.376 OA
BRANCH   3   4
ATOM      4  C   UNL A   1      33.342  28.859  26.383  1.00  0.00     0.202 C 
BRANCH   4   5
ATOM      5  C   UNL A   1      34.299  29.744  27.178  1.00  0.00     0.261 C 
BRANCH   5   6
ATOM      6  O   UNL A   1      35.550  29.213  27.700  1.00  0.00    -0.460 OA
BRANCH   6   7
ATOM      7  C   UNL A   1      36.314  29.582  28.757  1.00  0.00     0.338 C 
ATOM      8  O   UNL A   1      35.837  30.212  29.694  1.00  0.00    -0.246 OA
BRANCH   7   9
ATOM      9  C   UNL A   1      37.755  29.265  28.726  1.00  0.00     0.060 A 
ATOM     10  C   UNL A   1      38.514  29.698  27.631  1.00  0.00     0.016 A 
ATOM     11  C   UNL A   1      38.309  28.414  29.678  1.00  0.00     0.016 A 
ATOM     12  C   UNL A   1      39.773  29.139  27.406  1.00  0.00     0.010 A 
ATOM     13  C   UNL A   1      39.523  27.792  29.401  1.00  0.00     0.010 A 
ATOM     14  C   UNL A   1      40.258  28.128  28.252  1.00  0.00    -0.014 A 
BRANCH  14  15
ATOM     15  C   UNL A   1      41.699  27.799  28.249  1.00  0.00     0.031 A 
ATOM     16  C   UNL A   1      41.858  26.501  27.590  1.00  0.00     0.074 A 
ATOM     17  C   UNL A   1      42.791  28.482  28.669  1.00  0.00     0.049 A 
ATOM     18  N   UNL A   1      42.020  25.387  28.222  1.00  0.00    -0.248 NA
ATOM     19  C   UNL A   1      41.555  26.356  26.157  1.00  0.00     0.031 C 
ATOM     20  C   UNL A   1      42.771  29.750  29.346  1.00  0.00     0.029 A 
ATOM     21  N   UNL A   1      44.152  28.239  28.598  1.00  0.00    -0.354 N 
ATOM     22  C   UNL A   1      42.221  24.474  27.209  1.00  0.00     0.074 A 
ATOM     23  C   UNL A   1      41.635  25.031  26.019  1.00  0.00     0.031 C 
ATOM     24  C   UNL A   1      43.985  30.313  29.417  1.00  0.00     0.029 A 
ATOM     25  C   UNL A   1      44.936  29.368  28.896  1.00  0.00     0.049 A 
ATOM     26  H   UNL A   1      44.533  27.362  28.363  1.00  0.00     0.167 HD
ATOM     27  C   UNL A   1      43.292  23.651  27.317  1.00  0.00     0.037 A 
ATOM     28  C   UNL A   1      46.277  29.562  28.979  1.00  0.00     0.037 A 
ATOM     29  C   UNL A   1      43.763  23.547  28.673  1.00  0.00     0.049 A 
ATOM     30  C   UNL A   1      46.861  28.252  29.301  1.00  0.00     0.074 A 
ATOM     31  C   UNL A   1      43.268  23.036  29.854  1.00  0.00     0.029 A 
ATOM     32  N   UNL A   1      44.755  24.432  28.998  1.00  0.00    -0.354 N 
ATOM     33  N   UNL A   1      46.755  27.695  30.476  1.00  0.00    -0.248 NA
ATOM     34  C   UNL A   1      47.227  27.363  28.207  1.00  0.00     0.031 C 
ATOM     35  C   UNL A   1      43.976  23.680  30.906  1.00  0.00     0.029 A 
ATOM     36  C   UNL A   1      44.915  24.546  30.352  1.00  0.00     0.049 A 
ATOM     37  H   UNL A   1      45.291  24.928  28.336  1.00  0.00     0.167 HD
ATOM     38  C   UNL A   1      46.580  26.359  30.186  1.00  0.00     0.074 A 
ATOM     39  C   UNL A   1      47.046  26.190  28.815  1.00  0.00     0.031 C 
ATOM     40  C   UNL A   1      45.732  25.592  30.924  1.00  0.00     0.037 A 
BRANCH  27  41
ATOM     41  C   UNL A   1      44.203  23.421  26.150  1.00  0.00     0.057 A 
ATOM     42  C   UNL A   1      44.394  22.122  25.679  1.00  0.00     0.134 A 
ATOM     43  C   UNL A   1      45.087  24.399  25.639  1.00  0.00     0.134 A 
ATOM     44  F   UNL A   1      43.676  21.105  26.177  1.00  0.00    -0.206 F 
ATOM     45  C   UNL A   1      45.378  21.822  24.732  1.00  0.00     0.040 A 
ATOM     46  C   UNL A   1      46.019  24.129  24.644  1.00  0.00     0.040 A 
ATOM     47  F   UNL A   1      45.164  25.631  26.159  1.00  0.00    -0.206 F 
ATOM     48  C   UNL A   1      46.178  22.829  24.196  1.00  0.00     0.006 A 
ENDBRANCH  27  41
BRANCH  28  49
ATOM     49  C   UNL A   1      47.077  30.810  28.837  1.00  0.00     0.057 A 
ATOM     50  C   UNL A   1      47.528  31.523  29.962  1.00  0.00     0.134 A 
ATOM     51  C   UNL A   1      47.653  31.198  27.609  1.00  0.00     0.134 A 
ATOM     52  F   UNL A   1      47.052  31.244  31.183  1.00  0.00    -0.206 F 
ATOM     53  C   UNL A   1      48.535  32.497  29.883  1.00  0.00     0.040 A 
ATOM     54  C   UNL A   1      48.653  32.176  27.517  1.00  0.00     0.040 A 
ATOM     55  F   UNL A   1      47.321  30.591  26.461  1.00  0.00    -0.206 F 
ATOM     56  C   UNL A   1      49.119  32.810  28.661  1.00  0.00     0.006 A 
ENDBRANCH  28  49
BRANCH  40  57
ATOM     57  C   UNL A   1      45.530  25.926  32.366  1.00  0.00     0.057 A 
ATOM     58  C   UNL A   1      44.408  26.576  32.892  1.00  0.00     0.134 A 
ATOM     59  C   UNL A   1      46.473  25.432  33.279  1.00  0.00     0.134 A 
ATOM     60  F   UNL A   1      43.421  27.008  32.093  1.00  0.00    -0.206 F 
ATOM     61  C   UNL A   1      44.244  26.734  34.273  1.00  0.00     0.040 A 
ATOM     62  C   UNL A   1      46.300  25.545  34.657  1.00  0.00     0.040 A 
ATOM     63  F   UNL A   1      47.556  24.771  32.839  1.00  0.00    -0.206 F 
ATOM     64  C   UNL A   1      45.183  26.204  35.160  1.00  0.00     0.006 A 
ENDBRANCH  40  57
ENDBRANCH  14  15
ENDBRANCH   7   9
ENDBRANCH   6   7
ENDBRANCH   5   6
ENDBRANCH   4   5
ENDBRANCH   3   4
ENDBRANCH   2   3
ENDBRANCH   1   2
BRANCH   1  65
ATOM     65  O   UNL A   1      33.788  26.816  23.497  1.00  0.00    -0.377 OA
BRANCH  65  66
ATOM     66  C   UNL A   1      33.134  26.488  22.284  1.00  0.00     0.188 C 
BRANCH  66  67
ATOM     67  C   UNL A   1      31.824  25.693  22.289  1.00  0.00     0.188 C 
BRANCH  67  68
ATOM     68  O   UNL A   1      30.736  26.198  23.039  1.00  0.00    -0.376 OA
BRANCH  68  69
ATOM     69  C   UNL A   1      30.351  25.461  24.197  1.00  0.00     0.202 C 
BRANCH  69  70
ATOM     70  C   UNL A   1      30.700  26.174  25.510  1.00  0.00     0.261 C 
BRANCH  70  71
ATOM     71  O   UNL A   1      31.952  25.726  26.070  1.00  0.00    -0.459 OA
BRANCH  71  72
ATOM     72  C   UNL A   1      32.044  24.458  26.558  1.00  0.00     0.354 C 
ATOM     73  O   UNL A   1      31.227  23.911  27.261  1.00  0.00    -0.244 OA
BRANCH  72  74
ATOM     74  C   UNL A   1      33.281  23.880  26.061  1.00  0.00     0.126 A 
ATOM     75  C   UNL A   1      34.517  24.472  25.846  1.00  0.00     0.045 A 
ATOM     76  N   UNL A   1      33.446  22.549  25.762  1.00  0.00    -0.349 N 
ATOM     77  C   UNL A   1      35.469  23.476  25.544  1.00  0.00     0.019 A 
ATOM     78  C   UNL A   1      34.773  22.273  25.503  1.00  0.00     0.051 A 
ATOM     79  H   UNL A   1      32.720  21.884  25.737  1.00  0.00     0.167 HD
ATOM     80  C   UNL A   1      36.854  23.486  25.336  1.00  0.00     0.123 A 
ATOM     81  C   UNL A   1      35.428  21.071  25.252  1.00  0.00     0.067 A 
ATOM     82  N   UNL A   1      37.515  22.331  25.106  1.00  0.00    -0.244 NA
ATOM     83  C   UNL A   1      36.801  21.184  25.073  1.00  0.00     0.131 A 
ATOM     84  Cl  UNL A   1      37.751  19.782  24.793  1.00  0.00    -0.062 Cl
ENDBRANCH  72  74
ENDBRANCH  71  72
ENDBRANCH  70  71
ENDBRANCH  69  70
ENDBRANCH  68  69
ENDBRANCH  67  68
ENDBRANCH  66  67
ENDBRANCH  65  66
ENDBRANCH   1  65
TORSDOF 20
ENDMDL
MODEL 2
REMARK VINA RESULT:      -9.2      3.588      7.202
REMARK SMILES O=C(OCCOCCOCCOCCOC(=O)c1cc2cnc(Cl)cc2[nH]1)c1ccc(-c2c3nc(c(-c4c(F)cccc4F)c4ccc([nH]4)c(-c4c(F)cccc4F)c4nc(c(-c5c(F)cccc5F)c5ccc2[nH]5)C=C4)C=C3)cc1
REMARK SMILES IDX 8 1 7 2 6 3 5 4 4 5 3 6 2 7 1 8 28 9 29 10 81 11 30 12 80 13
REMARK SMILES IDX 31 14 32 15 33 16 74 17 34 18 79 19 73 20 75 21 35 22 78 23
REMARK SMILES IDX 72 24 71 25 36 27 62 28 45 29 61 30 46 31 49 32 60 33 76 34
REMARK SMILES IDX 47 35 48 36 59 38 77 39 50 40 37 41 38 42 43 43 39 44 40 45
REMARK SMILES IDX 42 46 44 47 41 48 63 49 64 50 69 51 65 52 66 53 68 54 70 55
REMARK SMILES IDX 67 56 51 57 52 58 57 59 53 60 54 61 56 62 58 63 55 64 9 65
REMARK SMILES IDX 10 66 11 67 12 68 13 69 14 70 15 71 16 72 17 73 18 74 19 75
REMARK SMILES IDX 27 76 20 77 26 78 21 80 25 81 22 82 23 83 24 84
REMARK H PARENT 75 26 49 37 27 79
REMARK Flexibility Score: inf
ROOT
ATOM      1  C   UNL A   1      33.651  21.169  25.804  1.00  0.00     0.188 C 
ENDROOT
BRANCH   1   2
ATOM      2  C   UNL A   1      34.156  20.138  24.794  1.00  0.00     0.188 C 
BRANCH   2   3
ATOM      3  O   UNL A   1      35.559  19.949  24.841  1.00  0.00    -0.376 OA
BRANCH   3   4
ATOM      4  C   UNL A   1      36.365  21.074  25.121  1.00  0.00     0.202 C 
BRANCH   4   5
ATOM      5  C   UNL A   1      37.864  20.810  25.244  1.00  0.00     0.261 C 
BRANCH   5   6
ATOM      6  O   UNL A   1      38.779  21.865  25.656  1.00  0.00    -0.460 OA
BRANCH   6   7
ATOM      7  C   UNL A   1      39.680  21.933  26.665  1.00  0.00     0.338 C 
ATOM      8  O   UNL A   1      40.216  20.922  27.105  1.00  0.00    -0.246 OA
BRANCH   7   9
ATOM      9  C   UNL A   1      39.956  23.249  27.272  1.00  0.00     0.060 A 
ATOM     10  C   UNL A   1      39.151  24.337  26.911  1.00  0.00     0.016 A 
ATOM     11  C   UNL A   1      41.091  23.439  28.056  1.00  0.00     0.016 A 
ATOM     12  C   UNL A   1      39.582  25.634  27.196  1.00  0.00     0.010 A 
ATOM     13  C   UNL A   1      41.564  24.733  28.256  1.00  0.00     0.010 A 
ATOM     14  C   UNL A   1      40.829  25.844  27.808  1.00  0.00    -0.014 A 
BRANCH  14  15
ATOM     15  C   UNL A   1      41.126  27.149  28.435  1.00  0.00     0.031 A 
ATOM     16  C   UNL A   1      42.389  27.636  27.873  1.00  0.00     0.074 A 
ATOM     17  C   UNL A   1      40.440  27.914  29.318  1.00  0.00     0.049 A 
ATOM     18  N   UNL A   1      43.527  27.546  28.476  1.00  0.00    -0.248 NA
ATOM     19  C   UNL A   1      42.473  28.004  26.451  1.00  0.00     0.031 C 
ATOM     20  C   UNL A   1      39.206  27.546  29.956  1.00  0.00     0.029 A 
ATOM     21  N   UNL A   1      40.651  29.175  29.851  1.00  0.00    -0.354 N 
ATOM     22  C   UNL A   1      44.387  28.210  27.629  1.00  0.00     0.074 A 
ATOM     23  C   UNL A   1      43.788  28.190  26.320  1.00  0.00     0.031 C 
ATOM     24  C   UNL A   1      38.621  28.580  30.577  1.00  0.00     0.029 A 
ATOM     25  C   UNL A   1      39.520  29.700  30.502  1.00  0.00     0.049 A 
ATOM     26  H   UNL A   1      41.508  29.655  29.780  1.00  0.00     0.167 HD
ATOM     27  C   UNL A   1      45.191  29.155  28.174  1.00  0.00     0.037 A 
ATOM     28  C   UNL A   1      39.302  30.856  31.178  1.00  0.00     0.037 A 
ATOM     29  C   UNL A   1      45.348  28.981  29.594  1.00  0.00     0.049 A 
ATOM     30  C   UNL A   1      40.612  31.290  31.683  1.00  0.00     0.074 A 
ATOM     31  C   UNL A   1      45.924  28.035  30.415  1.00  0.00     0.029 A 
ATOM     32  N   UNL A   1      44.458  29.690  30.353  1.00  0.00    -0.354 N 
ATOM     33  N   UNL A   1      41.225  30.697  32.670  1.00  0.00    -0.248 NA
ATOM     34  C   UNL A   1      41.440  32.137  30.837  1.00  0.00     0.031 C 
ATOM     35  C   UNL A   1      45.315  28.178  31.692  1.00  0.00     0.029 A 
ATOM     36  C   UNL A   1      44.404  29.229  31.641  1.00  0.00     0.049 A 
ATOM     37  H   UNL A   1      43.921  30.443  30.014  1.00  0.00     0.167 HD
ATOM     38  C   UNL A   1      42.549  30.722  32.289  1.00  0.00     0.074 A 
ATOM     39  C   UNL A   1      42.645  31.753  31.263  1.00  0.00     0.031 C 
ATOM     40  C   UNL A   1      43.368  29.667  32.549  1.00  0.00     0.037 A 
BRANCH  27  41
ATOM     41  C   UNL A   1      45.346  30.496  27.525  1.00  0.00     0.057 A 
ATOM     42  C   UNL A   1      46.622  30.945  27.181  1.00  0.00     0.134 A 
ATOM     43  C   UNL A   1      44.315  31.461  27.460  1.00  0.00     0.134 A 
ATOM     44  F   UNL A   1      47.685  30.137  27.308  1.00  0.00    -0.206 F 
ATOM     45  C   UNL A   1      46.850  32.259  26.762  1.00  0.00     0.040 A 
ATOM     46  C   UNL A   1      44.515  32.749  26.975  1.00  0.00     0.040 A 
ATOM     47  F   UNL A   1      43.096  31.236  27.966  1.00  0.00    -0.206 F 
ATOM     48  C   UNL A   1      45.793  33.158  26.637  1.00  0.00     0.006 A 
ENDBRANCH  27  41
BRANCH  28  49
ATOM     49  C   UNL A   1      38.030  31.587  31.446  1.00  0.00     0.057 A 
ATOM     50  C   UNL A   1      37.287  32.169  30.405  1.00  0.00     0.134 A 
ATOM     51  C   UNL A   1      37.366  31.508  32.688  1.00  0.00     0.134 A 
ATOM     52  F   UNL A   1      37.814  32.299  29.179  1.00  0.00    -0.206 F 
ATOM     53  C   UNL A   1      35.953  32.573  30.566  1.00  0.00     0.040 A 
ATOM     54  C   UNL A   1      36.037  31.917  32.863  1.00  0.00     0.040 A 
ATOM     55  F   UNL A   1      37.957  30.963  33.761  1.00  0.00    -0.206 F 
ATOM     56  C   UNL A   1      35.315  32.425  31.792  1.00  0.00     0.006 A 
ENDBRANCH  28  49
BRANCH  40  57
ATOM     57  C   UNL A   1      43.106  28.834  33.762  1.00  0.00     0.057 A 
ATOM     58  C   UNL A   1      43.591  29.107  35.046  1.00  0.00     0.134 A 
ATOM     59  C   UNL A   1      42.198  27.773  33.629  1.00  0.00     0.134 A 
ATOM     60  F   UNL A   1      44.400  30.151  35.272  1.00  0.00    -0.206 F 
ATOM     61  C   UNL A   1      43.191  28.341  36.148  1.00  0.00     0.040 A 
ATOM     62  C   UNL A   1      41.759  27.032  34.725  1.00  0.00     0.040 A 
ATOM     63  F   UNL A   1      41.673  27.481  32.428  1.00  0.00    -0.206 F 
ATOM     64  C   UNL A   1      42.261  27.312  35.991  1.00  0.00     0.006 A 
ENDBRANCH  40  57
ENDBRANCH  14  15
ENDBRANCH   7   9
ENDBRANCH   6   7
ENDBRANCH   5   6
ENDBRANCH   4   5
ENDBRANCH   3   4
ENDBRANCH   2   3
ENDBRANCH   1   2
BRANCH   1  65
ATOM     65  O   UNL A   1      32.372  21.728  25.544  1.00  0.00    -0.377 OA
BRANCH  65  66
ATOM     66  C   UNL A   1      31.813  22.579  26.529  1.00  0.00     0.188 C 
BRANCH  66  67
ATOM     67  C   UNL A   1      31.964  24.100  26.431  1.00  0.00     0.188 C 
BRANCH  67  68
ATOM     68  O   UNL A   1      30.910  24.913  26.911  1.00  0.00    -0.376 OA
BRANCH  68  69
ATOM     69  C   UNL A   1      30.019  25.457  25.942  1.00  0.00     0.202 C 
BRANCH  69  70
ATOM     70  C   UNL A   1      30.491  25.240  24.499  1.00  0.00     0.261 C 
BRANCH  70  71
ATOM     71  O   UNL A   1      31.022  26.441  23.900  1.00  0.00    -0.459 OA
BRANCH  71  72
ATOM     72  C   UNL A   1      32.372  26.596  23.809  1.00  0.00     0.354 C 
ATOM     73  O   UNL A   1      33.089  26.071  22.990  1.00  0.00    -0.244 OA
BRANCH  72  74
ATOM     74  C   UNL A   1      32.783  27.519  24.852  1.00  0.00     0.126 A 
ATOM     75  C   UNL A   1      33.869  27.464  25.714  1.00  0.00     0.045 A 
ATOM     76  N   UNL A   1      32.147  28.707  25.128  1.00  0.00    -0.349 N 
ATOM     77  C   UNL A   1      33.971  28.680  26.421  1.00  0.00     0.019 A 
ATOM     78  C   UNL A   1      32.879  29.449  26.031  1.00  0.00     0.051 A 
ATOM     79  H   UNL A   1      31.290  28.989  24.734  1.00  0.00     0.167 HD
ATOM     80  C   UNL A   1      34.902  29.204  27.325  1.00  0.00     0.123 A 
ATOM     81  C   UNL A   1      32.690  30.735  26.528  1.00  0.00     0.067 A 
ATOM     82  N   UNL A   1      34.749  30.455  27.810  1.00  0.00    -0.244 NA
ATOM     83  C   UNL A   1      33.675  31.168  27.407  1.00  0.00     0.131 A 
ATOM     84  Cl  UNL A   1      33.599  32.748  28.074  1.00  0.00    -0.062 Cl
ENDBRANCH  72  74
ENDBRANCH  71  72
ENDBRANCH  70  71
ENDBRANCH  69  70
ENDBRANCH  68  69
ENDBRANCH  67  68
ENDBRANCH  66  67
ENDBRANCH  65  66
ENDBRANCH   1  65
TORSDOF 20
ENDMDL
MODEL 3
REMARK VINA RESULT:      -9.2      2.452      6.524
REMARK SMILES O=C(OCCOCCOCCOCCOC(=O)c1cc2cnc(Cl)cc2[nH]1)c1ccc(-c2c3nc(c(-c4c(F)cccc4F)c4ccc([nH]4)c(-c4c(F)cccc4F)c4nc(c(-c5c(F)cccc5F)c5ccc2[nH]5)C=C4)C=C3)cc1
REMARK SMILES IDX 8 1 7 2 6 3 5 4 4 5 3 6 2 7 1 8 28 9 29 10 81 11 30 12 80 13
REMARK SMILES IDX 31 14 32 15 33 16 74 17 34 18 79 19 73 20 75 21 35 22 78 23
REMARK SMILES IDX 72 24 71 25 36 27 62 28 45 29 61 30 46 31 49 32 60 33 76 34
REMARK SMILES IDX 47 35 48 36 59 38 77 39 50 40 37 41 38 42 43 43 39 44 40 45
REMARK SMILES IDX 42 46 44 47 41 48 63 49 64 50 69 51 65 52 66 53 68 54 70 55
REMARK SMILES IDX 67 56 51 57 52 58 57 59 53 60 54 61 56 62 58 63 55 64 9 65
REMARK SMILES IDX 10 66 11 67 12 68 13 69 14 70 15 71 16 72 17 73 18 74 19 75
REMARK SMILES IDX 27 76 20 77 26 78 21 80 25 81 22 82 23 83 24 84
REMARK H PARENT 75 26 49 37 27 79
REMARK Flexibility Score: inf
ROOT
ATOM      1  C   UNL A   1      33.562  26.913  25.128  1.00  0.00     0.188 C 
ENDROOT
BRANCH   1   2
ATOM      2  C   UNL A   1      32.702  28.171  25.012  1.00  0.00     0.188 C 
BRANCH   2   3
ATOM      3  O   UNL A   1      31.669  28.234  25.979  1.00  0.00    -0.376 OA
BRANCH   3   4
ATOM      4  C   UNL A   1      31.880  29.048  27.115  1.00  0.00     0.202 C 
BRANCH   4   5
ATOM      5  C   UNL A   1      32.095  30.535  26.843  1.00  0.00     0.261 C 
BRANCH   5   6
ATOM      6  O   UNL A   1      33.432  31.109  26.839  1.00  0.00    -0.460 OA
BRANCH   6   7
ATOM      7  C   UNL A   1      34.137  31.758  27.798  1.00  0.00     0.338 C 
ATOM      8  O   UNL A   1      33.766  32.842  28.232  1.00  0.00    -0.246 OA
BRANCH   7   9
ATOM      9  C   UNL A   1      35.403  31.159  28.265  1.00  0.00     0.060 A 
ATOM     10  C   UNL A   1      36.462  32.010  28.606  1.00  0.00     0.016 A 
ATOM     11  C   UNL A   1      35.593  29.781  28.208  1.00  0.00     0.016 A 
ATOM     12  C   UNL A   1      37.751  31.486  28.722  1.00  0.00     0.010 A 
ATOM     13  C   UNL A   1      36.890  29.277  28.233  1.00  0.00     0.010 A 
ATOM     14  C   UNL A   1      37.986  30.126  28.466  1.00  0.00    -0.014 A 
BRANCH  14  15
ATOM     15  C   UNL A   1      39.240  29.498  28.934  1.00  0.00     0.031 A 
ATOM     16  C   UNL A   1      39.347  29.736  30.376  1.00  0.00     0.074 A 
ATOM     17  C   UNL A   1      40.179  28.756  28.300  1.00  0.00     0.049 A 
ATOM     18  N   UNL A   1      40.087  30.654  30.901  1.00  0.00    -0.248 NA
ATOM     19  C   UNL A   1      38.384  29.118  31.302  1.00  0.00     0.031 C 
ATOM     20  C   UNL A   1      40.203  28.468  26.893  1.00  0.00     0.029 A 
ATOM     21  N   UNL A   1      41.311  28.084  28.730  1.00  0.00    -0.354 N 
ATOM     22  C   UNL A   1      39.947  30.438  32.255  1.00  0.00     0.074 A 
ATOM     23  C   UNL A   1      38.707  29.732  32.442  1.00  0.00     0.031 C 
ATOM     24  C   UNL A   1      41.089  27.512  26.579  1.00  0.00     0.029 A 
ATOM     25  C   UNL A   1      41.825  27.191  27.772  1.00  0.00     0.049 A 
ATOM     26  H   UNL A   1      41.716  28.219  29.617  1.00  0.00     0.167 HD
ATOM     27  C   UNL A   1      41.080  30.363  32.993  1.00  0.00     0.037 A 
ATOM     28  C   UNL A   1      42.912  26.378  27.761  1.00  0.00     0.037 A 
ATOM     29  C   UNL A   1      42.201  30.980  32.334  1.00  0.00     0.049 A 
ATOM     30  C   UNL A   1      43.882  26.980  28.688  1.00  0.00     0.074 A 
ATOM     31  C   UNL A   1      42.544  32.262  31.962  1.00  0.00     0.029 A 
ATOM     32  N   UNL A   1      42.958  30.123  31.583  1.00  0.00    -0.354 N 
ATOM     33  N   UNL A   1      44.550  28.066  28.410  1.00  0.00    -0.248 NA
ATOM     34  C   UNL A   1      43.828  26.608  30.094  1.00  0.00     0.031 C 
ATOM     35  C   UNL A   1      43.511  32.142  30.927  1.00  0.00     0.029 A 
ATOM     36  C   UNL A   1      43.770  30.792  30.708  1.00  0.00     0.049 A 
ATOM     37  H   UNL A   1      42.924  29.141  31.664  1.00  0.00     0.167 HD
ATOM     38  C   UNL A   1      44.588  28.737  29.613  1.00  0.00     0.074 A 
ATOM     39  C   UNL A   1      44.291  27.737  30.632  1.00  0.00     0.031 C 
ATOM     40  C   UNL A   1      44.476  30.092  29.658  1.00  0.00     0.037 A 
BRANCH  27  41
ATOM     41  C   UNL A   1      41.267  29.270  34.002  1.00  0.00     0.057 A 
ATOM     42  C   UNL A   1      41.556  29.605  35.325  1.00  0.00     0.134 A 
ATOM     43  C   UNL A   1      41.420  27.907  33.663  1.00  0.00     0.134 A 
ATOM     44  F   UNL A   1      41.540  30.885  35.722  1.00  0.00    -0.206 F 
ATOM     45  C   UNL A   1      41.937  28.638  36.260  1.00  0.00     0.040 A 
ATOM     46  C   UNL A   1      41.726  26.925  34.598  1.00  0.00     0.040 A 
ATOM     47  F   UNL A   1      41.392  27.480  32.393  1.00  0.00    -0.206 F 
ATOM     48  C   UNL A   1      42.001  27.292  35.904  1.00  0.00     0.006 A 
ENDBRANCH  27  41
BRANCH  28  49
ATOM     49  C   UNL A   1      43.179  25.141  26.975  1.00  0.00     0.057 A 
ATOM     50  C   UNL A   1      42.668  23.894  27.376  1.00  0.00     0.134 A 
ATOM     51  C   UNL A   1      43.712  25.180  25.670  1.00  0.00     0.134 A 
ATOM     52  F   UNL A   1      42.136  23.734  28.595  1.00  0.00    -0.206 F 
ATOM     53  C   UNL A   1      42.620  22.788  26.515  1.00  0.00     0.040 A 
ATOM     54  C   UNL A   1      43.678  24.079  24.804  1.00  0.00     0.040 A 
ATOM     55  F   UNL A   1      44.221  26.311  25.159  1.00  0.00    -0.206 F 
ATOM     56  C   UNL A   1      43.103  22.884  25.215  1.00  0.00     0.006 A 
ENDBRANCH  28  49
BRANCH  40  57
ATOM     57  C   UNL A   1      44.984  30.895  28.504  1.00  0.00     0.057 A 
ATOM     58  C   UNL A   1      44.262  31.176  27.339  1.00  0.00     0.134 A 
ATOM     59  C   UNL A   1      46.227  31.527  28.659  1.00  0.00     0.134 A 
ATOM     60  F   UNL A   1      43.033  30.676  27.150  1.00  0.00    -0.206 F 
ATOM     61  C   UNL A   1      44.771  32.043  26.364  1.00  0.00     0.040 A 
ATOM     62  C   UNL A   1      46.723  32.425  27.716  1.00  0.00     0.040 A 
ATOM     63  F   UNL A   1      46.954  31.323  29.770  1.00  0.00    -0.206 F 
ATOM     64  C   UNL A   1      45.996  32.683  26.560  1.00  0.00     0.006 A 
ENDBRANCH  40  57
ENDBRANCH  14  15
ENDBRANCH   7   9
ENDBRANCH   6   7
ENDBRANCH   5   6
ENDBRANCH   4   5
ENDBRANCH   3   4
ENDBRANCH   2   3
ENDBRANCH   1   2
BRANCH   1  65
ATOM     65  O   UNL A   1      33.872  26.249  23.912  1.00  0.00    -0.377 OA
BRANCH  65  66
ATOM     66  C   UNL A   1      33.271  26.735  22.725  1.00  0.00     0.188 C 
BRANCH  66  67
ATOM     67  C   UNL A   1      33.066  25.817  21.515  1.00  0.00     0.188 C 
BRANCH  67  68
ATOM     68  O   UNL A   1      32.115  24.773  21.618  1.00  0.00    -0.376 OA
BRANCH  68  69
ATOM     69  C   UNL A   1      32.606  23.439  21.525  1.00  0.00     0.202 C 
BRANCH  69  70
ATOM     70  C   UNL A   1      33.299  22.959  22.807  1.00  0.00     0.261 C 
BRANCH  70  71
ATOM     71  O   UNL A   1      32.364  22.509  23.810  1.00  0.00    -0.459 OA
BRANCH  71  72
ATOM     72  C   UNL A   1      32.702  21.455  24.604  1.00  0.00     0.354 C 
ATOM     73  O   UNL A   1      31.991  20.515  24.869  1.00  0.00    -0.244 OA
BRANCH  72  74
ATOM     74  C   UNL A   1      34.070  21.657  25.049  1.00  0.00     0.126 A 
ATOM     75  C   UNL A   1      35.164  20.807  24.980  1.00  0.00     0.045 A 
ATOM     76  N   UNL A   1      34.540  22.828  25.595  1.00  0.00    -0.349 N 
ATOM     77  C   UNL A   1      36.328  21.506  25.358  1.00  0.00     0.019 A 
ATOM     78  C   UNL A   1      35.912  22.779  25.735  1.00  0.00     0.051 A 
ATOM     79  H   UNL A   1      33.978  23.595  25.848  1.00  0.00     0.167 HD
ATOM     80  C   UNL A   1      37.691  21.185  25.383  1.00  0.00     0.123 A 
ATOM     81  C   UNL A   1      36.827  23.744  26.144  1.00  0.00     0.067 A 
ATOM     82  N   UNL A   1      38.601  22.110  25.761  1.00  0.00    -0.244 NA
ATOM     83  C   UNL A   1      38.154  23.333  26.121  1.00  0.00     0.131 A 
ATOM     84  Cl  UNL A   1      39.402  24.426  26.562  1.00  0.00    -0.062 Cl
ENDBRANCH  72  74
ENDBRANCH  71  72
ENDBRANCH  70  71
ENDBRANCH  69  70
ENDBRANCH  68  69
ENDBRANCH  67  68
ENDBRANCH  66  67
ENDBRANCH  65  66
ENDBRANCH   1  65
TORSDOF 20
ENDMDL
