MODEL 1
REMARK VINA RESULT:      -9.4      0.000      0.000
REMARK SMILES CC1(C)[C@H]2CC[C@]1(C)[C@](O)(CC(=O)OCCOCCOCCOCCOC(=O)c1ccc(-c3c4nc(c(-c5c(F)cccc5F)c5ccc([nH]5)c(-c5c(F)cccc5F)c5nc(c(-c6c(F)cccc6F)c6ccc3[nH]6)C=C5)C=C4)cc1)C2
REMARK SMILES IDX 20 1 19 2 18 3 17 4 16 5 15 6 14 7 12 8 13 9 11 10 9 11 1 12
REMARK SMILES IDX 2 13 3 14 4 15 7 16 5 17 83 18 6 19 8 20 10 21 21 23 22 24
REMARK SMILES IDX 23 25 24 26 25 27 26 28 27 29 28 30 29 31 30 32 82 33 31 34
REMARK SMILES IDX 81 35 32 36 33 37 34 38 75 39 35 40 80 41 74 42 76 43 36 44
REMARK SMILES IDX 79 45 73 46 72 47 37 49 63 50 46 51 62 52 47 53 50 54 61 55
REMARK SMILES IDX 77 56 48 57 49 58 60 60 78 61 51 62 38 63 39 64 44 65 40 66
REMARK SMILES IDX 41 67 43 68 45 69 42 70 64 71 65 72 70 73 66 74 67 75 69 76
REMARK SMILES IDX 71 77 68 78 52 79 53 80 58 81 54 82 55 83 57 84 59 85 56 86
REMARK H PARENT 10 22 76 48 50 59
REMARK Flexibility Score: inf
ROOT
ATOM      1  O   UNL A   1      33.905  32.010  28.571  1.00  0.00    -0.377 OA
ENDROOT
BRANCH   1   2
ATOM      2  C   UNL A   1      33.486  31.228  27.469  1.00  0.00     0.188 C 
BRANCH   2   3
ATOM      3  C   UNL A   1      34.334  29.976  27.232  1.00  0.00     0.188 C 
BRANCH   3   4
ATOM      4  O   UNL A   1      33.778  28.968  26.401  1.00  0.00    -0.376 OA
BRANCH   4   5
ATOM      5  C   UNL A   1      32.931  29.404  25.333  1.00  0.00     0.202 C 
BRANCH   5   6
ATOM      6  C   UNL A   1      31.759  28.491  24.918  1.00  0.00     0.261 C 
BRANCH   6   7
ATOM      7  O   UNL A   1      32.104  27.077  24.844  1.00  0.00    -0.463 OA
BRANCH   7   8
ATOM      8  C   UNL A   1      32.730  26.652  23.731  1.00  0.00     0.308 C 
ATOM      9  O   UNL A   1      32.580  27.222  22.647  1.00  0.00    -0.252 OA
BRANCH   8  10
ATOM     10  C   UNL A   1      33.740  25.498  23.828  1.00  0.00     0.158 C 
BRANCH  10  11
ATOM     11  C   UNL A   1      34.000  24.233  24.734  1.00  0.00     0.081 C 
ATOM     12  C   UNL A   1      35.801  20.701  25.001  1.00  0.00     0.012 C 
ATOM     13  C   UNL A   1      35.125  22.046  25.427  1.00  0.00    -0.024 C 
ATOM     14  C   UNL A   1      34.386  21.718  26.737  1.00  0.00     0.012 C 
ATOM     15  C   UNL A   1      36.100  23.228  25.552  1.00  0.00    -0.002 C 
ATOM     16  C   UNL A   1      34.354  22.776  24.241  1.00  0.00     0.002 C 
ATOM     17  C   UNL A   1      36.707  23.319  24.141  1.00  0.00     0.005 C 
ATOM     18  C   UNL A   1      35.173  24.462  25.739  1.00  0.00     0.040 C 
ATOM     19  C   UNL A   1      35.527  22.918  23.236  1.00  0.00     0.010 C 
ATOM     20  C   UNL A   1      33.149  21.940  23.877  1.00  0.00     0.015 C 
BRANCH  11  21
ATOM     21  O   UNL A   1      32.774  24.193  25.510  1.00  0.00    -0.389 OA
ATOM     22  H   UNL A   1      32.750  23.378  26.034  1.00  0.00     0.211 HD
ENDBRANCH  11  21
ENDBRANCH  10  11
ENDBRANCH   8  10
ENDBRANCH   7   8
ENDBRANCH   6   7
ENDBRANCH   5   6
ENDBRANCH   4   5
ENDBRANCH   3   4
ENDBRANCH   2   3
ENDBRANCH   1   2
BRANCH   1  23
ATOM     23  C   UNL A   1      35.079  32.803  28.516  1.00  0.00     0.188 C 
BRANCH  23  24
ATOM     24  C   UNL A   1      35.177  34.096  29.326  1.00  0.00     0.188 C 
BRANCH  24  25
ATOM     25  O   UNL A   1      35.549  34.030  30.703  1.00  0.00    -0.376 OA
BRANCH  25  26
ATOM     26  C   UNL A   1      34.545  34.012  31.712  1.00  0.00     0.202 C 
BRANCH  26  27
ATOM     27  C   UNL A   1      34.765  33.078  32.901  1.00  0.00     0.261 C 
BRANCH  27  28
ATOM     28  O   UNL A   1      35.525  31.913  32.541  1.00  0.00    -0.460 OA
BRANCH  28  29
ATOM     29  C   UNL A   1      36.688  31.752  33.200  1.00  0.00     0.338 C 
ATOM     30  O   UNL A   1      36.914  31.961  34.389  1.00  0.00    -0.246 OA
BRANCH  29  31
ATOM     31  C   UNL A   1      37.669  31.134  32.303  1.00  0.00     0.060 A 
ATOM     32  C   UNL A   1      38.834  30.595  32.860  1.00  0.00     0.016 A 
ATOM     33  C   UNL A   1      37.482  31.159  30.919  1.00  0.00     0.016 A 
ATOM     34  C   UNL A   1      39.835  30.098  32.031  1.00  0.00     0.010 A 
ATOM     35  C   UNL A   1      38.494  30.676  30.089  1.00  0.00     0.010 A 
ATOM     36  C   UNL A   1      39.683  30.168  30.641  1.00  0.00    -0.014 A 
BRANCH  36  37
ATOM     37  C   UNL A   1      40.817  29.836  29.751  1.00  0.00     0.031 A 
ATOM     38  C   UNL A   1      40.912  28.447  29.187  1.00  0.00     0.074 A 
ATOM     39  C   UNL A   1      41.754  30.755  29.468  1.00  0.00     0.049 A 
ATOM     40  N   UNL A   1      41.885  27.891  28.514  1.00  0.00    -0.248 NA
ATOM     41  C   UNL A   1      39.755  27.567  29.417  1.00  0.00     0.031 C 
ATOM     42  C   UNL A   1      41.734  32.147  29.913  1.00  0.00     0.029 A 
ATOM     43  N   UNL A   1      42.922  30.644  28.756  1.00  0.00    -0.354 N 
ATOM     44  C   UNL A   1      41.460  26.598  28.239  1.00  0.00     0.074 A 
ATOM     45  C   UNL A   1      40.155  26.441  28.843  1.00  0.00     0.031 C 
ATOM     46  C   UNL A   1      42.860  32.752  29.498  1.00  0.00     0.029 A 
ATOM     47  C   UNL A   1      43.694  31.778  28.796  1.00  0.00     0.049 A 
ATOM     48  H   UNL A   1      43.179  29.830  28.265  1.00  0.00     0.167 HD
ATOM     49  C   UNL A   1      42.101  25.633  27.540  1.00  0.00     0.037 A 
ATOM     50  C   UNL A   1      44.952  31.985  28.360  1.00  0.00     0.037 A 
ATOM     51  C   UNL A   1      43.407  25.793  26.957  1.00  0.00     0.049 A 
ATOM     52  C   UNL A   1      45.693  30.858  27.687  1.00  0.00     0.074 A 
ATOM     53  C   UNL A   1      44.146  24.874  26.232  1.00  0.00     0.029 A 
ATOM     54  N   UNL A   1      44.171  26.946  27.041  1.00  0.00    -0.354 N 
ATOM     55  N   UNL A   1      45.282  29.641  27.417  1.00  0.00    -0.248 NA
ATOM     56  C   UNL A   1      47.076  31.128  27.264  1.00  0.00     0.031 C 
ATOM     57  C   UNL A   1      45.379  25.456  25.922  1.00  0.00     0.029 A 
ATOM     58  C   UNL A   1      45.387  26.753  26.410  1.00  0.00     0.049 A 
ATOM     59  H   UNL A   1      43.891  27.779  27.485  1.00  0.00     0.167 HD
ATOM     60  C   UNL A   1      46.344  29.011  26.778  1.00  0.00     0.074 A 
ATOM     61  C   UNL A   1      47.410  29.985  26.681  1.00  0.00     0.031 C 
ATOM     62  C   UNL A   1      46.433  27.739  26.317  1.00  0.00     0.037 A 
BRANCH  49  63
ATOM     63  C   UNL A   1      41.410  24.311  27.383  1.00  0.00     0.057 A 
ATOM     64  C   UNL A   1      41.782  23.192  28.139  1.00  0.00     0.134 A 
ATOM     65  C   UNL A   1      40.330  24.167  26.503  1.00  0.00     0.134 A 
ATOM     66  F   UNL A   1      42.817  23.259  28.990  1.00  0.00    -0.206 F 
ATOM     67  C   UNL A   1      41.112  21.973  28.016  1.00  0.00     0.040 A 
ATOM     68  C   UNL A   1      39.636  22.962  26.389  1.00  0.00     0.040 A 
ATOM     69  F   UNL A   1      39.922  25.200  25.751  1.00  0.00    -0.206 F 
ATOM     70  C   UNL A   1      40.030  21.859  27.146  1.00  0.00     0.006 A 
ENDBRANCH  49  63
BRANCH  50  71
ATOM     71  C   UNL A   1      45.622  33.289  28.598  1.00  0.00     0.057 A 
ATOM     72  C   UNL A   1      45.558  34.324  27.658  1.00  0.00     0.134 A 
ATOM     73  C   UNL A   1      46.383  33.516  29.753  1.00  0.00     0.134 A 
ATOM     74  F   UNL A   1      44.867  34.159  26.520  1.00  0.00    -0.206 F 
ATOM     75  C   UNL A   1      46.247  35.524  27.842  1.00  0.00     0.040 A 
ATOM     76  C   UNL A   1      47.052  34.722  29.965  1.00  0.00     0.040 A 
ATOM     77  F   UNL A   1      46.485  32.567  30.695  1.00  0.00    -0.206 F 
ATOM     78  C   UNL A   1      46.994  35.726  29.002  1.00  0.00     0.006 A 
ENDBRANCH  50  71
BRANCH  62  79
ATOM     79  C   UNL A   1      47.715  27.332  25.650  1.00  0.00     0.057 A 
ATOM     80  C   UNL A   1      48.785  26.795  26.376  1.00  0.00     0.134 A 
ATOM     81  C   UNL A   1      47.855  27.417  24.259  1.00  0.00     0.134 A 
ATOM     82  F   UNL A   1      48.718  26.698  27.713  1.00  0.00    -0.206 F 
ATOM     83  C   UNL A   1      49.954  26.369  25.744  1.00  0.00     0.040 A 
ATOM     84  C   UNL A   1      49.007  26.969  23.612  1.00  0.00     0.040 A 
ATOM     85  F   UNL A   1      46.863  27.913  23.504  1.00  0.00    -0.206 F 
ATOM     86  C   UNL A   1      50.063  26.447  24.356  1.00  0.00     0.006 A 
ENDBRANCH  62  79
ENDBRANCH  36  37
ENDBRANCH  29  31
ENDBRANCH  28  29
ENDBRANCH  27  28
ENDBRANCH  26  27
ENDBRANCH  25  26
ENDBRANCH  24  25
ENDBRANCH  23  24
ENDBRANCH   1  23
TORSDOF 22
ENDMDL
MODEL 2
REMARK VINA RESULT:      -9.3      4.797     10.413
REMARK SMILES CC1(C)[C@H]2CC[C@]1(C)[C@](O)(CC(=O)OCCOCCOCCOCCOC(=O)c1ccc(-c3c4nc(c(-c5c(F)cccc5F)c5ccc([nH]5)c(-c5c(F)cccc5F)c5nc(c(-c6c(F)cccc6F)c6ccc3[nH]6)C=C5)C=C4)cc1)C2
REMARK SMILES IDX 20 1 19 2 18 3 17 4 16 5 15 6 14 7 12 8 13 9 11 10 9 11 1 12
REMARK SMILES IDX 2 13 3 14 4 15 7 16 5 17 83 18 6 19 8 20 10 21 21 23 22 24
REMARK SMILES IDX 23 25 24 26 25 27 26 28 27 29 28 30 29 31 30 32 82 33 31 34
REMARK SMILES IDX 81 35 32 36 33 37 34 38 75 39 35 40 80 41 74 42 76 43 36 44
REMARK SMILES IDX 79 45 73 46 72 47 37 49 63 50 46 51 62 52 47 53 50 54 61 55
REMARK SMILES IDX 77 56 48 57 49 58 60 60 78 61 51 62 38 63 39 64 44 65 40 66
REMARK SMILES IDX 41 67 43 68 45 69 42 70 64 71 65 72 70 73 66 74 67 75 69 76
REMARK SMILES IDX 71 77 68 78 52 79 53 80 58 81 54 82 55 83 57 84 59 85 56 86
REMARK H PARENT 10 22 76 48 50 59
REMARK Flexibility Score: inf
ROOT
ATOM      1  O   UNL A   1      41.917  20.155  25.751  1.00  0.00    -0.377 OA
ENDROOT
BRANCH   1   2
ATOM      2  C   UNL A   1      41.239  20.564  26.923  1.00  0.00     0.188 C 
BRANCH   2   3
ATOM      3  C   UNL A   1      40.034  21.472  26.665  1.00  0.00     0.188 C 
BRANCH   3   4
ATOM      4  O   UNL A   1      39.050  20.998  25.760  1.00  0.00    -0.376 OA
BRANCH   4   5
ATOM      5  C   UNL A   1      38.007  21.910  25.399  1.00  0.00     0.202 C 
BRANCH   5   6
ATOM      6  C   UNL A   1      36.587  21.344  25.194  1.00  0.00     0.261 C 
BRANCH   6   7
ATOM      7  O   UNL A   1      35.765  22.120  24.274  1.00  0.00    -0.463 OA
BRANCH   7   8
ATOM      8  C   UNL A   1      34.642  22.674  24.766  1.00  0.00     0.308 C 
ATOM      9  O   UNL A   1      34.180  22.339  25.860  1.00  0.00    -0.252 OA
BRANCH   8  10
ATOM     10  C   UNL A   1      33.973  23.829  24.002  1.00  0.00     0.158 C 
BRANCH  10  11
ATOM     11  C   UNL A   1      32.662  24.700  24.096  1.00  0.00     0.081 C 
ATOM     12  C   UNL A   1      31.173  28.375  24.346  1.00  0.00     0.012 C 
ATOM     13  C   UNL A   1      31.271  26.842  24.049  1.00  0.00    -0.024 C 
ATOM     14  C   UNL A   1      29.855  26.300  24.310  1.00  0.00     0.012 C 
ATOM     15  C   UNL A   1      31.808  26.506  22.648  1.00  0.00    -0.002 C 
ATOM     16  C   UNL A   1      32.529  26.140  24.726  1.00  0.00     0.002 C 
ATOM     17  C   UNL A   1      33.194  27.175  22.646  1.00  0.00     0.005 C 
ATOM     18  C   UNL A   1      32.035  24.969  22.691  1.00  0.00     0.040 C 
ATOM     19  C   UNL A   1      33.657  27.005  24.105  1.00  0.00     0.010 C 
ATOM     20  C   UNL A   1      32.320  26.140  26.223  1.00  0.00     0.015 C 
BRANCH  11  21
ATOM     21  O   UNL A   1      31.774  23.787  24.792  1.00  0.00    -0.389 OA
ATOM     22  H   UNL A   1      32.231  22.944  24.942  1.00  0.00     0.211 HD
ENDBRANCH  11  21
ENDBRANCH  10  11
ENDBRANCH   8  10
ENDBRANCH   7   8
ENDBRANCH   6   7
ENDBRANCH   5   6
ENDBRANCH   4   5
ENDBRANCH   3   4
ENDBRANCH   2   3
ENDBRANCH   1   2
BRANCH   1  23
ATOM     23  C   UNL A   1      42.875  19.109  25.772  1.00  0.00     0.188 C 
BRANCH  23  24
ATOM     24  C   UNL A   1      44.174  19.237  24.977  1.00  0.00     0.188 C 
BRANCH  24  25
ATOM     25  O   UNL A   1      44.448  20.451  24.278  1.00  0.00    -0.376 OA
BRANCH  25  26
ATOM     26  C   UNL A   1      45.521  21.288  24.696  1.00  0.00     0.202 C 
BRANCH  26  27
ATOM     27  C   UNL A   1      45.248  22.247  25.854  1.00  0.00     0.261 C 
BRANCH  27  28
ATOM     28  O   UNL A   1      44.797  23.532  25.397  1.00  0.00    -0.460 OA
BRANCH  28  29
ATOM     29  C   UNL A   1      43.485  23.780  25.562  1.00  0.00     0.338 C 
ATOM     30  O   UNL A   1      42.542  23.281  24.952  1.00  0.00    -0.246 OA
BRANCH  29  31
ATOM     31  C   UNL A   1      43.302  24.666  26.716  1.00  0.00     0.060 A 
ATOM     32  C   UNL A   1      42.361  24.309  27.688  1.00  0.00     0.016 A 
ATOM     33  C   UNL A   1      43.991  25.879  26.796  1.00  0.00     0.016 A 
ATOM     34  C   UNL A   1      42.085  25.177  28.740  1.00  0.00     0.010 A 
ATOM     35  C   UNL A   1      43.699  26.756  27.841  1.00  0.00     0.010 A 
ATOM     36  C   UNL A   1      42.729  26.420  28.801  1.00  0.00    -0.014 A 
BRANCH  36  37
ATOM     37  C   UNL A   1      42.298  27.433  29.789  1.00  0.00     0.031 A 
ATOM     38  C   UNL A   1      42.979  27.475  31.126  1.00  0.00     0.074 A 
ATOM     39  C   UNL A   1      41.302  28.287  29.500  1.00  0.00     0.049 A 
ATOM     40  N   UNL A   1      42.673  28.169  32.191  1.00  0.00    -0.248 NA
ATOM     41  C   UNL A   1      44.164  26.616  31.284  1.00  0.00     0.031 C 
ATOM     42  C   UNL A   1      40.607  28.373  28.217  1.00  0.00     0.029 A 
ATOM     43  N   UNL A   1      40.684  29.229  30.284  1.00  0.00    -0.354 N 
ATOM     44  C   UNL A   1      43.624  27.833  33.145  1.00  0.00     0.074 A 
ATOM     45  C   UNL A   1      44.501  26.852  32.545  1.00  0.00     0.031 C 
ATOM     46  C   UNL A   1      39.630  29.290  28.314  1.00  0.00     0.029 A 
ATOM     47  C   UNL A   1      39.606  29.822  29.675  1.00  0.00     0.049 A 
ATOM     48  H   UNL A   1      40.986  29.456  31.193  1.00  0.00     0.167 HD
ATOM     49  C   UNL A   1      43.755  28.308  34.406  1.00  0.00     0.037 A 
ATOM     50  C   UNL A   1      38.678  30.658  30.180  1.00  0.00     0.037 A 
ATOM     51  C   UNL A   1      42.867  29.272  35.000  1.00  0.00     0.049 A 
ATOM     52  C   UNL A   1      38.777  31.082  31.623  1.00  0.00     0.074 A 
ATOM     53  C   UNL A   1      42.911  29.815  36.272  1.00  0.00     0.029 A 
ATOM     54  N   UNL A   1      41.770  29.830  34.362  1.00  0.00    -0.354 N 
ATOM     55  N   UNL A   1      39.686  30.773  32.518  1.00  0.00    -0.248 NA
ATOM     56  C   UNL A   1      37.716  31.965  32.131  1.00  0.00     0.031 C 
ATOM     57  C   UNL A   1      41.809  30.663  36.421  1.00  0.00     0.029 A 
ATOM     58  C   UNL A   1      41.109  30.687  35.225  1.00  0.00     0.049 A 
ATOM     59  H   UNL A   1      41.500  29.644  33.434  1.00  0.00     0.167 HD
ATOM     60  C   UNL A   1      39.319  31.437  33.682  1.00  0.00     0.074 A 
ATOM     61  C   UNL A   1      38.117  32.183  33.376  1.00  0.00     0.031 C 
ATOM     62  C   UNL A   1      39.918  31.427  34.898  1.00  0.00     0.037 A 
BRANCH  49  63
ATOM     63  C   UNL A   1      44.886  27.777  35.236  1.00  0.00     0.057 A 
ATOM     64  C   UNL A   1      44.739  26.638  36.038  1.00  0.00     0.134 A 
ATOM     65  C   UNL A   1      46.149  28.381  35.196  1.00  0.00     0.134 A 
ATOM     66  F   UNL A   1      43.551  26.021  36.132  1.00  0.00    -0.206 F 
ATOM     67  C   UNL A   1      45.805  26.127  36.780  1.00  0.00     0.040 A 
ATOM     68  C   UNL A   1      47.228  27.865  35.913  1.00  0.00     0.040 A 
ATOM     69  F   UNL A   1      46.357  29.474  34.445  1.00  0.00    -0.206 F 
ATOM     70  C   UNL A   1      47.056  26.736  36.711  1.00  0.00     0.006 A 
ENDBRANCH  49  63
BRANCH  50  71
ATOM     71  C   UNL A   1      37.537  31.104  29.341  1.00  0.00     0.057 A 
ATOM     72  C   UNL A   1      37.491  32.392  28.797  1.00  0.00     0.134 A 
ATOM     73  C   UNL A   1      36.440  30.265  29.100  1.00  0.00     0.134 A 
ATOM     74  F   UNL A   1      38.499  33.251  29.013  1.00  0.00    -0.206 F 
ATOM     75  C   UNL A   1      36.387  32.842  28.071  1.00  0.00     0.040 A 
ATOM     76  C   UNL A   1      35.343  30.690  28.349  1.00  0.00     0.040 A 
ATOM     77  F   UNL A   1      36.419  29.017  29.590  1.00  0.00    -0.206 F 
ATOM     78  C   UNL A   1      35.309  31.987  27.842  1.00  0.00     0.006 A 
ENDBRANCH  50  71
BRANCH  62  79
ATOM     79  C   UNL A   1      39.298  32.260  35.983  1.00  0.00     0.057 A 
ATOM     80  C   UNL A   1      39.661  33.598  36.182  1.00  0.00     0.134 A 
ATOM     81  C   UNL A   1      38.283  31.738  36.793  1.00  0.00     0.134 A 
ATOM     82  F   UNL A   1      40.636  34.154  35.446  1.00  0.00    -0.206 F 
ATOM     83  C   UNL A   1      39.045  34.383  37.157  1.00  0.00     0.040 A 
ATOM     84  C   UNL A   1      37.639  32.520  37.753  1.00  0.00     0.040 A 
ATOM     85  F   UNL A   1      37.881  30.466  36.648  1.00  0.00    -0.206 F 
ATOM     86  C   UNL A   1      38.023  33.847  37.940  1.00  0.00     0.006 A 
ENDBRANCH  62  79
ENDBRANCH  36  37
ENDBRANCH  29  31
ENDBRANCH  28  29
ENDBRANCH  27  28
ENDBRANCH  26  27
ENDBRANCH  25  26
ENDBRANCH  24  25
ENDBRANCH  23  24
ENDBRANCH   1  23
TORSDOF 22
ENDMDL
MODEL 3
REMARK VINA RESULT:      -9.0      1.067      6.297
REMARK SMILES CC1(C)[C@H]2CC[C@]1(C)[C@](O)(CC(=O)OCCOCCOCCOCCOC(=O)c1ccc(-c3c4nc(c(-c5c(F)cccc5F)c5ccc([nH]5)c(-c5c(F)cccc5F)c5nc(c(-c6c(F)cccc6F)c6ccc3[nH]6)C=C5)C=C4)cc1)C2
REMARK SMILES IDX 20 1 19 2 18 3 17 4 16 5 15 6 14 7 12 8 13 9 11 10 9 11 1 12
REMARK SMILES IDX 2 13 3 14 4 15 7 16 5 17 83 18 6 19 8 20 10 21 21 23 22 24
REMARK SMILES IDX 23 25 24 26 25 27 26 28 27 29 28 30 29 31 30 32 82 33 31 34
REMARK SMILES IDX 81 35 32 36 33 37 34 38 75 39 35 40 80 41 74 42 76 43 36 44
REMARK SMILES IDX 79 45 73 46 72 47 37 49 63 50 46 51 62 52 47 53 50 54 61 55
REMARK SMILES IDX 77 56 48 57 49 58 60 60 78 61 51 62 38 63 39 64 44 65 40 66
REMARK SMILES IDX 41 67 43 68 45 69 42 70 64 71 65 72 70 73 66 74 67 75 69 76
REMARK SMILES IDX 71 77 68 78 52 79 53 80 58 81 54 82 55 83 57 84 59 85 56 86
REMARK H PARENT 10 22 76 48 50 59
REMARK Flexibility Score: inf
ROOT
ATOM      1  O   UNL A   1      34.028  31.819  28.267  1.00  0.00    -0.377 OA
ENDROOT
BRANCH   1   2
ATOM      2  C   UNL A   1      33.286  31.073  27.321  1.00  0.00     0.188 C 
BRANCH   2   3
ATOM      3  C   UNL A   1      33.809  29.651  27.096  1.00  0.00     0.188 C 
BRANCH   3   4
ATOM      4  O   UNL A   1      33.058  28.818  26.227  1.00  0.00    -0.376 OA
BRANCH   4   5
ATOM      5  C   UNL A   1      33.265  28.994  24.822  1.00  0.00     0.202 C 
BRANCH   5   6
ATOM      6  C   UNL A   1      32.053  28.826  23.883  1.00  0.00     0.261 C 
BRANCH   6   7
ATOM      7  O   UNL A   1      30.839  28.379  24.554  1.00  0.00    -0.463 OA
BRANCH   7   8
ATOM      8  C   UNL A   1      30.348  27.176  24.206  1.00  0.00     0.308 C 
ATOM      9  O   UNL A   1      29.438  27.063  23.380  1.00  0.00    -0.252 OA
BRANCH   8  10
ATOM     10  C   UNL A   1      31.005  25.903  24.764  1.00  0.00     0.158 C 
BRANCH  10  11
ATOM     11  C   UNL A   1      31.503  24.504  24.232  1.00  0.00     0.081 C 
ATOM     12  C   UNL A   1      34.395  21.783  24.363  1.00  0.00     0.012 C 
ATOM     13  C   UNL A   1      32.981  22.421  24.163  1.00  0.00    -0.024 C 
ATOM     14  C   UNL A   1      32.354  21.633  23.000  1.00  0.00     0.012 C 
ATOM     15  C   UNL A   1      32.113  22.437  25.432  1.00  0.00    -0.002 C 
ATOM     16  C   UNL A   1      32.999  24.013  24.127  1.00  0.00     0.002 C 
ATOM     17  C   UNL A   1      32.968  23.249  26.421  1.00  0.00     0.005 C 
ATOM     18  C   UNL A   1      30.892  23.317  25.043  1.00  0.00     0.040 C 
ATOM     19  C   UNL A   1      33.654  24.282  25.508  1.00  0.00     0.010 C 
ATOM     20  C   UNL A   1      33.703  24.449  22.863  1.00  0.00     0.015 C 
BRANCH  11  21
ATOM     21  O   UNL A   1      30.895  24.479  22.914  1.00  0.00    -0.389 OA
ATOM     22  H   UNL A   1      31.166  25.268  22.419  1.00  0.00     0.211 HD
ENDBRANCH  11  21
ENDBRANCH  10  11
ENDBRANCH   8  10
ENDBRANCH   7   8
ENDBRANCH   6   7
ENDBRANCH   5   6
ENDBRANCH   4   5
ENDBRANCH   3   4
ENDBRANCH   2   3
ENDBRANCH   1   2
BRANCH   1  23
ATOM     23  C   UNL A   1      35.055  32.712  27.868  1.00  0.00     0.188 C 
BRANCH  23  24
ATOM     24  C   UNL A   1      35.030  34.170  28.326  1.00  0.00     0.188 C 
BRANCH  24  25
ATOM     25  O   UNL A   1      35.282  34.476  29.698  1.00  0.00    -0.376 OA
BRANCH  25  26
ATOM     26  C   UNL A   1      34.227  34.399  30.650  1.00  0.00     0.202 C 
BRANCH  26  27
ATOM     27  C   UNL A   1      34.330  33.317  31.723  1.00  0.00     0.261 C 
BRANCH  27  28
ATOM     28  O   UNL A   1      35.341  32.344  31.415  1.00  0.00    -0.460 OA
BRANCH  28  29
ATOM     29  C   UNL A   1      36.215  32.081  32.404  1.00  0.00     0.338 C 
ATOM     30  O   UNL A   1      35.984  31.985  33.607  1.00  0.00    -0.246 OA
BRANCH  29  31
ATOM     31  C   UNL A   1      37.525  31.773  31.822  1.00  0.00     0.060 A 
ATOM     32  C   UNL A   1      37.659  31.809  30.429  1.00  0.00     0.016 A 
ATOM     33  C   UNL A   1      38.588  31.373  32.635  1.00  0.00     0.016 A 
ATOM     34  C   UNL A   1      38.857  31.420  29.837  1.00  0.00     0.010 A 
ATOM     35  C   UNL A   1      39.782  30.966  32.038  1.00  0.00     0.010 A 
ATOM     36  C   UNL A   1      39.911  30.964  30.638  1.00  0.00    -0.014 A 
BRANCH  36  37
ATOM     37  C   UNL A   1      41.108  30.355  30.017  1.00  0.00     0.031 A 
ATOM     38  C   UNL A   1      42.307  31.221  29.756  1.00  0.00     0.074 A 
ATOM     39  C   UNL A   1      41.114  29.056  29.677  1.00  0.00     0.049 A 
ATOM     40  N   UNL A   1      43.400  30.945  29.093  1.00  0.00    -0.248 NA
ATOM     41  C   UNL A   1      42.266  32.582  30.315  1.00  0.00     0.031 C 
ATOM     42  C   UNL A   1      40.029  28.110  29.932  1.00  0.00     0.029 A 
ATOM     43  N   UNL A   1      42.061  28.315  29.015  1.00  0.00    -0.354 N 
ATOM     44  C   UNL A   1      44.176  32.094  29.154  1.00  0.00     0.074 A 
ATOM     45  C   UNL A   1      43.419  33.081  29.893  1.00  0.00     0.031 C 
ATOM     46  C   UNL A   1      40.356  26.921  29.397  1.00  0.00     0.029 A 
ATOM     47  C   UNL A   1      41.649  27.037  28.727  1.00  0.00     0.049 A 
ATOM     48  H   UNL A   1      42.948  28.667  28.772  1.00  0.00     0.167 HD
ATOM     49  C   UNL A   1      45.413  32.302  28.645  1.00  0.00     0.037 A 
ATOM     50  C   UNL A   1      42.231  26.091  27.965  1.00  0.00     0.037 A 
ATOM     51  C   UNL A   1      46.152  31.319  27.896  1.00  0.00     0.049 A 
ATOM     52  C   UNL A   1      43.556  26.386  27.309  1.00  0.00     0.074 A 
ATOM     53  C   UNL A   1      47.411  31.431  27.333  1.00  0.00     0.029 A 
ATOM     54  N   UNL A   1      45.692  30.045  27.601  1.00  0.00    -0.354 N 
ATOM     55  N   UNL A   1      44.293  27.469  27.381  1.00  0.00    -0.248 NA
ATOM     56  C   UNL A   1      44.127  25.331  26.458  1.00  0.00     0.031 C 
ATOM     57  C   UNL A   1      47.690  30.242  26.653  1.00  0.00     0.029 A 
ATOM     58  C   UNL A   1      46.628  29.372  26.836  1.00  0.00     0.049 A 
ATOM     59  H   UNL A   1      44.827  29.674  27.892  1.00  0.00     0.167 HD
ATOM     60  C   UNL A   1      45.419  27.219  26.605  1.00  0.00     0.074 A 
ATOM     61  C   UNL A   1      45.280  25.873  26.088  1.00  0.00     0.031 C 
ATOM     62  C   UNL A   1      46.472  28.029  26.338  1.00  0.00     0.037 A 
BRANCH  49  63
ATOM     63  C   UNL A   1      46.038  33.648  28.859  1.00  0.00     0.057 A 
ATOM     64  C   UNL A   1      46.866  33.909  29.959  1.00  0.00     0.134 A 
ATOM     65  C   UNL A   1      45.851  34.681  27.931  1.00  0.00     0.134 A 
ATOM     66  F   UNL A   1      47.074  32.967  30.892  1.00  0.00    -0.206 F 
ATOM     67  C   UNL A   1      47.475  35.152  30.135  1.00  0.00     0.040 A 
ATOM     68  C   UNL A   1      46.474  35.919  28.082  1.00  0.00     0.040 A 
ATOM     69  F   UNL A   1      45.072  34.496  26.855  1.00  0.00    -0.206 F 
ATOM     70  C   UNL A   1      47.287  36.159  29.189  1.00  0.00     0.006 A 
ENDBRANCH  49  63
BRANCH  50  71
ATOM     71  C   UNL A   1      41.544  24.797  27.724  1.00  0.00     0.057 A 
ATOM     72  C   UNL A   1      40.509  24.684  26.789  1.00  0.00     0.134 A 
ATOM     73  C   UNL A   1      41.875  23.650  28.458  1.00  0.00     0.134 A 
ATOM     74  F   UNL A   1      40.127  25.752  26.073  1.00  0.00    -0.206 F 
ATOM     75  C   UNL A   1      39.809  23.488  26.613  1.00  0.00     0.040 A 
ATOM     76  C   UNL A   1      41.205  22.440  28.270  1.00  0.00     0.040 A 
ATOM     77  F   UNL A   1      42.858  23.688  29.369  1.00  0.00    -0.206 F 
ATOM     78  C   UNL A   1      40.160  22.361  27.353  1.00  0.00     0.006 A 
ENDBRANCH  50  71
BRANCH  62  79
ATOM     79  C   UNL A   1      47.566  27.481  25.467  1.00  0.00     0.057 A 
ATOM     80  C   UNL A   1      47.544  27.633  24.075  1.00  0.00     0.134 A 
ATOM     81  C   UNL A   1      48.682  26.853  26.032  1.00  0.00     0.134 A 
ATOM     82  F   UNL A   1      46.496  28.215  23.471  1.00  0.00    -0.206 F 
ATOM     83  C   UNL A   1      48.588  27.167  23.275  1.00  0.00     0.040 A 
ATOM     84  C   UNL A   1      49.746  26.408  25.245  1.00  0.00     0.040 A 
ATOM     85  F   UNL A   1      48.770  26.684  27.360  1.00  0.00    -0.206 F 
ATOM     86  C   UNL A   1      49.698  26.561  23.861  1.00  0.00     0.006 A 
ENDBRANCH  62  79
ENDBRANCH  36  37
ENDBRANCH  29  31
ENDBRANCH  28  29
ENDBRANCH  27  28
ENDBRANCH  26  27
ENDBRANCH  25  26
ENDBRANCH  24  25
ENDBRANCH  23  24
ENDBRANCH   1  23
TORSDOF 22
ENDMDL
