MODEL 1
REMARK VINA RESULT:     -10.0      0.000      0.000
REMARK SMILES O=C(CN(C(=O)[C@H]1CC[C@H]2CCCC[C@H]2[NH2+]1)C1CC1)OCCOCCOCCOCCOC(=O)c1ccc(-c2c3nc(c(-c4c(F)cccc4F)c4ccc([nH]4)c(-c4c(F)cccc4F)c4nc(c(-c5c(F)cccc5F)c5ccc2[nH]5)C=C4)C=C3)cc1
REMARK SMILES IDX 25 1 24 2 23 3 22 4 21 5 20 6 2 7 1 8 3 9 4 10 5 11 6 12
REMARK SMILES IDX 7 13 8 14 16 15 9 16 15 17 10 20 14 21 11 22 13 23 12 24
REMARK SMILES IDX 17 25 18 26 19 27 26 28 27 29 28 30 29 31 30 32 31 33 32 34
REMARK SMILES IDX 33 35 34 36 35 37 36 38 88 39 37 40 87 41 38 42 39 43 40 44
REMARK SMILES IDX 81 45 41 46 86 47 80 48 82 49 42 50 85 51 79 52 78 53 43 55
REMARK SMILES IDX 69 56 52 57 68 58 53 59 56 60 67 61 83 62 54 63 55 64 66 66
REMARK SMILES IDX 84 67 57 68 44 69 45 70 50 71 46 72 47 73 49 74 51 75 48 76
REMARK SMILES IDX 70 77 71 78 76 79 72 80 73 81 75 82 77 83 74 84 58 85 59 86
REMARK SMILES IDX 64 87 60 88 61 89 63 90 65 91 62 92
REMARK H PARENT 16 18 16 19 82 54 56 65
REMARK Flexibility Score: inf
ROOT
ATOM      1  C   UNL A   1      34.396  33.329  29.202  1.00  0.00     0.188 C 
ENDROOT
BRANCH   1   2
ATOM      2  C   UNL A   1      34.321  32.401  27.998  1.00  0.00     0.188 C 
BRANCH   2   3
ATOM      3  O   UNL A   1      32.969  32.125  27.613  1.00  0.00    -0.376 OA
BRANCH   3   4
ATOM      4  C   UNL A   1      32.780  30.863  26.971  1.00  0.00     0.202 C 
BRANCH   4   5
ATOM      5  C   UNL A   1      33.958  29.940  27.272  1.00  0.00     0.261 C 
BRANCH   5   6
ATOM      6  O   UNL A   1      33.516  28.604  27.566  1.00  0.00    -0.462 OA
BRANCH   6   7
ATOM      7  C   UNL A   1      33.153  27.761  26.560  1.00  0.00     0.325 C 
ATOM      8  O   UNL A   1      34.004  27.367  25.760  1.00  0.00    -0.250 OA
BRANCH   7   9
ATOM      9  C   UNL A   1      31.678  27.336  26.445  1.00  0.00     0.242 C 
BRANCH   9  10
ATOM     10  N   UNL A   1      31.438  26.163  25.601  1.00  0.00    -0.323 N 
BRANCH  10  11
ATOM     11  C   UNL A   1      31.795  24.849  25.893  1.00  0.00     0.281 C 
ATOM     12  O   UNL A   1      31.344  24.319  26.922  1.00  0.00    -0.268 OA
BRANCH  11  13
ATOM     13  C   UNL A   1      32.663  23.938  24.972  1.00  0.00     0.273 C 
ATOM     14  C   UNL A   1      34.100  23.858  25.507  1.00  0.00     0.076 C 
ATOM     15  N   UNL A   1      32.101  22.608  24.650  1.00  0.00    -0.333 N 
ATOM     16  C   UNL A   1      35.014  23.102  24.545  1.00  0.00     0.016 C 
ATOM     17  C   UNL A   1      32.975  21.875  23.696  1.00  0.00     0.186 C 
ATOM     18  H   UNL A   1      31.179  22.729  24.230  1.00  0.00     0.347 HD
ATOM     19  H   UNL A   1      32.035  22.067  25.511  1.00  0.00     0.347 HD
ATOM     20  C   UNL A   1      34.436  21.731  24.186  1.00  0.00     0.048 C 
ATOM     21  C   UNL A   1      32.437  20.465  23.404  1.00  0.00     0.065 C 
ATOM     22  C   UNL A   1      34.598  20.707  25.330  1.00  0.00     0.010 C 
ATOM     23  C   UNL A   1      32.440  19.543  24.620  1.00  0.00     0.006 C 
ATOM     24  C   UNL A   1      33.283  20.076  25.765  1.00  0.00     0.001 C 
ENDBRANCH  11  13
ENDBRANCH  10  11
BRANCH  10  25
ATOM     25  C   UNL A   1      30.826  26.433  24.307  1.00  0.00     0.086 C 
ATOM     26  C   UNL A   1      29.814  25.496  23.706  1.00  0.00     0.027 C 
ATOM     27  C   UNL A   1      29.383  26.858  24.140  1.00  0.00     0.027 C 
ENDBRANCH  10  25
ENDBRANCH   9  10
ENDBRANCH   7   9
ENDBRANCH   6   7
ENDBRANCH   5   6
ENDBRANCH   4   5
ENDBRANCH   3   4
ENDBRANCH   2   3
ENDBRANCH   1   2
BRANCH   1  28
ATOM     28  O   UNL A   1      34.784  34.651  28.838  1.00  0.00    -0.377 OA
BRANCH  28  29
ATOM     29  C   UNL A   1      33.727  35.597  28.986  1.00  0.00     0.188 C 
BRANCH  29  30
ATOM     30  C   UNL A   1      32.964  35.407  30.281  1.00  0.00     0.188 C 
BRANCH  30  31
ATOM     31  O   UNL A   1      33.535  36.004  31.443  1.00  0.00    -0.376 OA
BRANCH  31  32
ATOM     32  C   UNL A   1      33.825  35.094  32.503  1.00  0.00     0.202 C 
BRANCH  32  33
ATOM     33  C   UNL A   1      35.305  34.690  32.579  1.00  0.00     0.261 C 
BRANCH  33  34
ATOM     34  O   UNL A   1      35.449  33.267  32.428  1.00  0.00    -0.460 OA
BRANCH  34  35
ATOM     35  C   UNL A   1      36.427  32.701  33.181  1.00  0.00     0.338 C 
ATOM     36  O   UNL A   1      36.512  32.716  34.398  1.00  0.00    -0.246 OA
BRANCH  35  37
ATOM     37  C   UNL A   1      37.272  31.828  32.316  1.00  0.00     0.060 A 
ATOM     38  C   UNL A   1      38.085  30.878  32.956  1.00  0.00     0.016 A 
ATOM     39  C   UNL A   1      37.168  31.825  30.918  1.00  0.00     0.016 A 
ATOM     40  C   UNL A   1      38.844  29.978  32.208  1.00  0.00     0.010 A 
ATOM     41  C   UNL A   1      37.935  30.932  30.165  1.00  0.00     0.010 A 
ATOM     42  C   UNL A   1      38.824  30.055  30.810  1.00  0.00    -0.014 A 
BRANCH  42  43
ATOM     43  C   UNL A   1      40.000  29.543  30.068  1.00  0.00     0.031 A 
ATOM     44  C   UNL A   1      41.132  30.519  29.864  1.00  0.00     0.074 A 
ATOM     45  C   UNL A   1      40.100  28.274  29.637  1.00  0.00     0.049 A 
ATOM     46  N   UNL A   1      42.272  30.363  29.245  1.00  0.00    -0.248 NA
ATOM     47  C   UNL A   1      40.943  31.863  30.441  1.00  0.00     0.031 C 
ATOM     48  C   UNL A   1      39.091  27.232  29.808  1.00  0.00     0.029 A 
ATOM     49  N   UNL A   1      41.117  27.654  28.956  1.00  0.00    -0.354 N 
ATOM     50  C   UNL A   1      42.931  31.581  29.370  1.00  0.00     0.074 A 
ATOM     51  C   UNL A   1      42.050  32.481  30.072  1.00  0.00     0.031 C 
ATOM     52  C   UNL A   1      39.535  26.100  29.229  1.00  0.00     0.029 A 
ATOM     53  C   UNL A   1      40.848  26.346  28.632  1.00  0.00     0.049 A 
ATOM     54  H   UNL A   1      41.961  28.103  28.723  1.00  0.00     0.167 HD
ATOM     55  C   UNL A   1      44.172  31.919  28.956  1.00  0.00     0.037 A 
ATOM     56  C   UNL A   1      41.578  25.466  27.919  1.00  0.00     0.037 A 
ATOM     57  C   UNL A   1      45.040  31.032  28.237  1.00  0.00     0.049 A 
ATOM     58  C   UNL A   1      42.931  25.889  27.397  1.00  0.00     0.074 A 
ATOM     59  C   UNL A   1      46.305  31.276  27.741  1.00  0.00     0.029 A 
ATOM     60  N   UNL A   1      44.720  29.723  27.908  1.00  0.00    -0.354 N 
ATOM     61  N   UNL A   1      43.550  27.040  27.529  1.00  0.00    -0.248 NA
ATOM     62  C   UNL A   1      43.691  24.886  26.636  1.00  0.00     0.031 C 
ATOM     63  C   UNL A   1      46.737  30.126  27.073  1.00  0.00     0.029 A 
ATOM     64  C   UNL A   1      45.760  29.150  27.202  1.00  0.00     0.049 A 
ATOM     65  H   UNL A   1      43.877  29.271  28.142  1.00  0.00     0.167 HD
ATOM     66  C   UNL A   1      44.777  26.890  26.890  1.00  0.00     0.074 A 
ATOM     67  C   UNL A   1      44.823  25.530  26.395  1.00  0.00     0.031 C 
ATOM     68  C   UNL A   1      45.777  27.791  26.722  1.00  0.00     0.037 A 
BRANCH  55  69
ATOM     69  C   UNL A   1      44.634  33.314  29.257  1.00  0.00     0.057 A 
ATOM     70  C   UNL A   1      45.400  33.608  30.394  1.00  0.00     0.134 A 
ATOM     71  C   UNL A   1      44.300  34.377  28.409  1.00  0.00     0.134 A 
ATOM     72  F   UNL A   1      45.723  32.640  31.265  1.00  0.00    -0.206 F 
ATOM     73  C   UNL A   1      45.799  34.912  30.688  1.00  0.00     0.040 A 
ATOM     74  C   UNL A   1      44.719  35.681  28.678  1.00  0.00     0.040 A 
ATOM     75  F   UNL A   1      43.561  34.166  27.312  1.00  0.00    -0.206 F 
ATOM     76  C   UNL A   1      45.465  35.953  29.823  1.00  0.00     0.006 A 
ENDBRANCH  55  69
BRANCH  56  77
ATOM     77  C   UNL A   1      41.051  24.105  27.631  1.00  0.00     0.057 A 
ATOM     78  C   UNL A   1      41.557  22.970  28.276  1.00  0.00     0.134 A 
ATOM     79  C   UNL A   1      40.058  23.903  26.665  1.00  0.00     0.134 A 
ATOM     80  F   UNL A   1      42.529  23.091  29.192  1.00  0.00    -0.206 F 
ATOM     81  C   UNL A   1      41.117  21.684  27.953  1.00  0.00     0.040 A 
ATOM     82  C   UNL A   1      39.587  22.626  26.351  1.00  0.00     0.040 A 
ATOM     83  F   UNL A   1      39.530  24.946  26.007  1.00  0.00    -0.206 F 
ATOM     84  C   UNL A   1      40.125  21.511  26.990  1.00  0.00     0.006 A 
ENDBRANCH  56  77
BRANCH  68  85
ATOM     85  C   UNL A   1      47.008  27.322  26.003  1.00  0.00     0.057 A 
ATOM     86  C   UNL A   1      47.156  27.463  24.617  1.00  0.00     0.134 A 
ATOM     87  C   UNL A   1      48.069  26.743  26.711  1.00  0.00     0.134 A 
ATOM     88  F   UNL A   1      46.174  28.004  23.880  1.00  0.00    -0.206 F 
ATOM     89  C   UNL A   1      48.299  27.010  23.957  1.00  0.00     0.040 A 
ATOM     90  C   UNL A   1      49.230  26.315  26.065  1.00  0.00     0.040 A 
ATOM     91  F   UNL A   1      48.000  26.594  28.043  1.00  0.00    -0.206 F 
ATOM     92  C   UNL A   1      49.342  26.438  24.682  1.00  0.00     0.006 A 
ENDBRANCH  68  85
ENDBRANCH  42  43
ENDBRANCH  35  37
ENDBRANCH  34  35
ENDBRANCH  33  34
ENDBRANCH  32  33
ENDBRANCH  31  32
ENDBRANCH  30  31
ENDBRANCH  29  30
ENDBRANCH  28  29
ENDBRANCH   1  28
TORSDOF 24
ENDMDL
MODEL 2
REMARK VINA RESULT:      -9.7      4.369      6.842
REMARK SMILES O=C(CN(C(=O)[C@H]1CC[C@H]2CCCC[C@H]2[NH2+]1)C1CC1)OCCOCCOCCOCCOC(=O)c1ccc(-c2c3nc(c(-c4c(F)cccc4F)c4ccc([nH]4)c(-c4c(F)cccc4F)c4nc(c(-c5c(F)cccc5F)c5ccc2[nH]5)C=C4)C=C3)cc1
REMARK SMILES IDX 25 1 24 2 23 3 22 4 21 5 20 6 2 7 1 8 3 9 4 10 5 11 6 12
REMARK SMILES IDX 7 13 8 14 16 15 9 16 15 17 10 20 14 21 11 22 13 23 12 24
REMARK SMILES IDX 17 25 18 26 19 27 26 28 27 29 28 30 29 31 30 32 31 33 32 34
REMARK SMILES IDX 33 35 34 36 35 37 36 38 88 39 37 40 87 41 38 42 39 43 40 44
REMARK SMILES IDX 81 45 41 46 86 47 80 48 82 49 42 50 85 51 79 52 78 53 43 55
REMARK SMILES IDX 69 56 52 57 68 58 53 59 56 60 67 61 83 62 54 63 55 64 66 66
REMARK SMILES IDX 84 67 57 68 44 69 45 70 50 71 46 72 47 73 49 74 51 75 48 76
REMARK SMILES IDX 70 77 71 78 76 79 72 80 73 81 75 82 77 83 74 84 58 85 59 86
REMARK SMILES IDX 64 87 60 88 61 89 63 90 65 91 62 92
REMARK H PARENT 16 18 16 19 82 54 56 65
REMARK Flexibility Score: inf
ROOT
ATOM      1  C   UNL A   1      35.643  30.874  27.854  1.00  0.00     0.188 C 
ENDROOT
BRANCH   1   2
ATOM      2  C   UNL A   1      35.603  29.353  27.812  1.00  0.00     0.188 C 
BRANCH   2   3
ATOM      3  O   UNL A   1      34.285  28.855  27.552  1.00  0.00    -0.376 OA
BRANCH   3   4
ATOM      4  C   UNL A   1      33.690  29.351  26.352  1.00  0.00     0.202 C 
BRANCH   4   5
ATOM      5  C   UNL A   1      33.719  28.274  25.269  1.00  0.00     0.261 C 
BRANCH   5   6
ATOM      6  O   UNL A   1      33.254  27.011  25.773  1.00  0.00    -0.462 OA
BRANCH   6   7
ATOM      7  C   UNL A   1      31.919  26.755  25.868  1.00  0.00     0.325 C 
ATOM      8  O   UNL A   1      31.443  26.406  26.950  1.00  0.00    -0.250 OA
BRANCH   7   9
ATOM      9  C   UNL A   1      31.046  26.898  24.609  1.00  0.00     0.242 C 
BRANCH   9  10
ATOM     10  N   UNL A   1      31.307  25.908  23.562  1.00  0.00    -0.323 N 
BRANCH  10  11
ATOM     11  C   UNL A   1      31.001  24.551  23.615  1.00  0.00     0.281 C 
ATOM     12  O   UNL A   1      29.984  24.142  23.029  1.00  0.00    -0.268 OA
BRANCH  11  13
ATOM     13  C   UNL A   1      31.893  23.464  24.288  1.00  0.00     0.273 C 
ATOM     14  C   UNL A   1      32.329  22.418  23.251  1.00  0.00     0.076 C 
ATOM     15  N   UNL A   1      33.023  23.959  25.105  1.00  0.00    -0.333 N 
ATOM     16  C   UNL A   1      33.073  21.257  23.906  1.00  0.00     0.016 C 
ATOM     17  C   UNL A   1      33.740  22.834  25.763  1.00  0.00     0.186 C 
ATOM     18  H   UNL A   1      32.665  24.589  25.821  1.00  0.00     0.347 HD
ATOM     19  H   UNL A   1      33.677  24.445  24.492  1.00  0.00     0.347 HD
ATOM     20  C   UNL A   1      34.233  21.754  24.771  1.00  0.00     0.048 C 
ATOM     21  C   UNL A   1      34.957  23.328  26.562  1.00  0.00     0.065 C 
ATOM     22  C   UNL A   1      35.444  22.207  23.927  1.00  0.00     0.010 C 
ATOM     23  C   UNL A   1      36.050  23.945  25.695  1.00  0.00     0.006 C 
ATOM     24  C   UNL A   1      35.881  23.636  24.219  1.00  0.00     0.001 C 
ENDBRANCH  11  13
ENDBRANCH  10  11
BRANCH  10  25
ATOM     25  C   UNL A   1      32.018  26.403  22.390  1.00  0.00     0.086 C 
ATOM     26  C   UNL A   1      33.513  26.288  22.271  1.00  0.00     0.027 C 
ATOM     27  C   UNL A   1      32.642  25.498  21.350  1.00  0.00     0.027 C 
ENDBRANCH  10  25
ENDBRANCH   9  10
ENDBRANCH   7   9
ENDBRANCH   6   7
ENDBRANCH   5   6
ENDBRANCH   4   5
ENDBRANCH   3   4
ENDBRANCH   2   3
ENDBRANCH   1   2
BRANCH   1  28
ATOM     28  O   UNL A   1      34.727  31.410  28.805  1.00  0.00    -0.377 OA
BRANCH  28  29
ATOM     29  C   UNL A   1      34.365  32.760  28.522  1.00  0.00     0.188 C 
BRANCH  29  30
ATOM     30  C   UNL A   1      35.488  33.730  28.827  1.00  0.00     0.188 C 
BRANCH  30  31
ATOM     31  O   UNL A   1      35.152  35.115  28.790  1.00  0.00    -0.376 OA
BRANCH  31  32
ATOM     32  C   UNL A   1      33.833  35.400  28.327  1.00  0.00     0.202 C 
BRANCH  32  33
ATOM     33  C   UNL A   1      32.945  36.083  29.378  1.00  0.00     0.261 C 
BRANCH  33  34
ATOM     34  O   UNL A   1      32.566  35.149  30.403  1.00  0.00    -0.460 OA
BRANCH  34  35
ATOM     35  C   UNL A   1      32.706  35.598  31.677  1.00  0.00     0.338 C 
ATOM     36  O   UNL A   1      31.916  36.292  32.297  1.00  0.00    -0.246 OA
BRANCH  35  37
ATOM     37  C   UNL A   1      33.865  34.911  32.317  1.00  0.00     0.060 A 
ATOM     38  C   UNL A   1      35.101  35.578  32.297  1.00  0.00     0.016 A 
ATOM     39  C   UNL A   1      33.727  33.725  33.050  1.00  0.00     0.016 A 
ATOM     40  C   UNL A   1      36.210  35.030  32.942  1.00  0.00     0.010 A 
ATOM     41  C   UNL A   1      34.838  33.167  33.688  1.00  0.00     0.010 A 
ATOM     42  C   UNL A   1      36.095  33.787  33.575  1.00  0.00    -0.014 A 
BRANCH  42  43
ATOM     43  C   UNL A   1      37.320  32.969  33.733  1.00  0.00     0.031 A 
ATOM     44  C   UNL A   1      38.129  33.220  34.981  1.00  0.00     0.074 A 
ATOM     45  C   UNL A   1      37.683  32.016  32.858  1.00  0.00     0.049 A 
ATOM     46  N   UNL A   1      39.246  32.673  35.380  1.00  0.00    -0.248 NA
ATOM     47  C   UNL A   1      37.597  34.239  35.905  1.00  0.00     0.031 C 
ATOM     48  C   UNL A   1      36.965  31.655  31.639  1.00  0.00     0.029 A 
ATOM     49  N   UNL A   1      38.769  31.176  32.872  1.00  0.00    -0.354 N 
ATOM     50  C   UNL A   1      39.538  33.275  36.599  1.00  0.00     0.074 A 
ATOM     51  C   UNL A   1      38.517  34.262  36.851  1.00  0.00     0.031 C 
ATOM     52  C   UNL A   1      37.641  30.675  31.010  1.00  0.00     0.029 A 
ATOM     53  C   UNL A   1      38.847  30.355  31.773  1.00  0.00     0.049 A 
ATOM     54  H   UNL A   1      39.430  31.163  33.601  1.00  0.00     0.167 HD
ATOM     55  C   UNL A   1      40.555  33.015  37.450  1.00  0.00     0.037 A 
ATOM     56  C   UNL A   1      39.798  29.466  31.427  1.00  0.00     0.037 A 
ATOM     57  C   UNL A   1      41.583  32.049  37.189  1.00  0.00     0.049 A 
ATOM     58  C   UNL A   1      40.970  29.246  32.356  1.00  0.00     0.074 A 
ATOM     59  C   UNL A   1      42.679  31.724  37.965  1.00  0.00     0.029 A 
ATOM     60  N   UNL A   1      41.638  31.255  36.054  1.00  0.00    -0.354 N 
ATOM     61  N   UNL A   1      41.232  29.812  33.511  1.00  0.00    -0.248 NA
ATOM     62  C   UNL A   1      41.971  28.256  31.935  1.00  0.00     0.031 C 
ATOM     63  C   UNL A   1      43.424  30.760  37.277  1.00  0.00     0.029 A 
ATOM     64  C   UNL A   1      42.759  30.448  36.100  1.00  0.00     0.049 A 
ATOM     65  H   UNL A   1      40.978  31.266  35.323  1.00  0.00     0.167 HD
ATOM     66  C   UNL A   1      42.412  29.230  33.964  1.00  0.00     0.074 A 
ATOM     67  C   UNL A   1      42.798  28.250  32.970  1.00  0.00     0.031 C 
ATOM     68  C   UNL A   1      43.118  29.481  35.094  1.00  0.00     0.037 A 
BRANCH  55  69
ATOM     69  C   UNL A   1      40.602  33.812  38.720  1.00  0.00     0.057 A 
ATOM     70  C   UNL A   1      39.830  33.465  39.837  1.00  0.00     0.134 A 
ATOM     71  C   UNL A   1      41.417  34.945  38.823  1.00  0.00     0.134 A 
ATOM     72  F   UNL A   1      39.002  32.410  39.790  1.00  0.00    -0.206 F 
ATOM     73  C   UNL A   1      39.851  34.229  41.005  1.00  0.00     0.040 A 
ATOM     74  C   UNL A   1      41.468  35.700  39.996  1.00  0.00     0.040 A 
ATOM     75  F   UNL A   1      42.171  35.339  37.788  1.00  0.00    -0.206 F 
ATOM     76  C   UNL A   1      40.679  35.346  41.089  1.00  0.00     0.006 A 
ENDBRANCH  55  69
BRANCH  56  77
ATOM     77  C   UNL A   1      39.708  28.726  30.139  1.00  0.00     0.057 A 
ATOM     78  C   UNL A   1      39.124  27.456  30.062  1.00  0.00     0.134 A 
ATOM     79  C   UNL A   1      40.250  29.254  28.962  1.00  0.00     0.134 A 
ATOM     80  F   UNL A   1      38.610  26.881  31.159  1.00  0.00    -0.206 F 
ATOM     81  C   UNL A   1      39.105  26.728  28.870  1.00  0.00     0.040 A 
ATOM     82  C   UNL A   1      40.214  28.550  27.756  1.00  0.00     0.040 A 
ATOM     83  F   UNL A   1      40.828  30.465  28.965  1.00  0.00    -0.206 F 
ATOM     84  C   UNL A   1      39.648  27.278  27.710  1.00  0.00     0.006 A 
ENDBRANCH  56  77
BRANCH  68  85
ATOM     85  C   UNL A   1      44.355  28.662  35.325  1.00  0.00     0.057 A 
ATOM     86  C   UNL A   1      45.614  29.079  34.876  1.00  0.00     0.134 A 
ATOM     87  C   UNL A   1      44.286  27.452  36.028  1.00  0.00     0.134 A 
ATOM     88  F   UNL A   1      45.747  30.225  34.192  1.00  0.00    -0.206 F 
ATOM     89  C   UNL A   1      46.755  28.302  35.084  1.00  0.00     0.040 A 
ATOM     90  C   UNL A   1      45.425  26.682  36.269  1.00  0.00     0.040 A 
ATOM     91  F   UNL A   1      43.113  27.002  36.501  1.00  0.00    -0.206 F 
ATOM     92  C   UNL A   1      46.663  27.102  35.786  1.00  0.00     0.006 A 
ENDBRANCH  68  85
ENDBRANCH  42  43
ENDBRANCH  35  37
ENDBRANCH  34  35
ENDBRANCH  33  34
ENDBRANCH  32  33
ENDBRANCH  31  32
ENDBRANCH  30  31
ENDBRANCH  29  30
ENDBRANCH  28  29
ENDBRANCH   1  28
TORSDOF 24
ENDMDL
MODEL 3
REMARK VINA RESULT:      -9.7      4.407      6.810
REMARK SMILES O=C(CN(C(=O)[C@H]1CC[C@H]2CCCC[C@H]2[NH2+]1)C1CC1)OCCOCCOCCOCCOC(=O)c1ccc(-c2c3nc(c(-c4c(F)cccc4F)c4ccc([nH]4)c(-c4c(F)cccc4F)c4nc(c(-c5c(F)cccc5F)c5ccc2[nH]5)C=C4)C=C3)cc1
REMARK SMILES IDX 25 1 24 2 23 3 22 4 21 5 20 6 2 7 1 8 3 9 4 10 5 11 6 12
REMARK SMILES IDX 7 13 8 14 16 15 9 16 15 17 10 20 14 21 11 22 13 23 12 24
REMARK SMILES IDX 17 25 18 26 19 27 26 28 27 29 28 30 29 31 30 32 31 33 32 34
REMARK SMILES IDX 33 35 34 36 35 37 36 38 88 39 37 40 87 41 38 42 39 43 40 44
REMARK SMILES IDX 81 45 41 46 86 47 80 48 82 49 42 50 85 51 79 52 78 53 43 55
REMARK SMILES IDX 69 56 52 57 68 58 53 59 56 60 67 61 83 62 54 63 55 64 66 66
REMARK SMILES IDX 84 67 57 68 44 69 45 70 50 71 46 72 47 73 49 74 51 75 48 76
REMARK SMILES IDX 70 77 71 78 76 79 72 80 73 81 75 82 77 83 74 84 58 85 59 86
REMARK SMILES IDX 64 87 60 88 61 89 63 90 65 91 62 92
REMARK H PARENT 16 18 16 19 82 54 56 65
REMARK Flexibility Score: inf
ROOT
ATOM      1  C   UNL A   1      34.964  30.638  28.057  1.00  0.00     0.188 C 
ENDROOT
BRANCH   1   2
ATOM      2  C   UNL A   1      34.469  29.822  26.871  1.00  0.00     0.188 C 
BRANCH   2   3
ATOM      3  O   UNL A   1      33.639  28.727  27.278  1.00  0.00    -0.376 OA
BRANCH   3   4
ATOM      4  C   UNL A   1      32.236  28.978  27.179  1.00  0.00     0.202 C 
BRANCH   4   5
ATOM      5  C   UNL A   1      31.463  27.663  27.245  1.00  0.00     0.261 C 
BRANCH   5   6
ATOM      6  O   UNL A   1      32.201  26.589  26.638  1.00  0.00    -0.462 OA
BRANCH   6   7
ATOM      7  C   UNL A   1      31.605  25.770  25.728  1.00  0.00     0.325 C 
ATOM      8  O   UNL A   1      31.057  24.735  26.110  1.00  0.00    -0.250 OA
BRANCH   7   9
ATOM      9  C   UNL A   1      31.648  26.159  24.240  1.00  0.00     0.242 C 
BRANCH   9  10
ATOM     10  N   UNL A   1      32.993  26.319  23.683  1.00  0.00    -0.323 N 
BRANCH  10  11
ATOM     11  C   UNL A   1      33.743  25.337  23.041  1.00  0.00     0.281 C 
ATOM     12  O   UNL A   1      33.823  25.359  21.801  1.00  0.00    -0.268 OA
BRANCH  11  13
ATOM     13  C   UNL A   1      34.579  24.240  23.767  1.00  0.00     0.273 C 
ATOM     14  C   UNL A   1      35.085  24.766  25.118  1.00  0.00     0.076 C 
ATOM     15  N   UNL A   1      33.953  22.904  23.876  1.00  0.00    -0.333 N 
ATOM     16  C   UNL A   1      36.036  23.775  25.785  1.00  0.00     0.016 C 
ATOM     17  C   UNL A   1      34.881  21.928  24.505  1.00  0.00     0.186 C 
ATOM     18  H   UNL A   1      33.706  22.575  22.943  1.00  0.00     0.347 HD
ATOM     19  H   UNL A   1      33.121  22.984  24.461  1.00  0.00     0.347 HD
ATOM     20  C   UNL A   1      35.409  22.382  25.887  1.00  0.00     0.048 C 
ATOM     21  C   UNL A   1      34.220  20.552  24.685  1.00  0.00     0.065 C 
ATOM     22  C   UNL A   1      34.349  22.296  27.005  1.00  0.00     0.010 C 
ATOM     23  C   UNL A   1      33.047  20.559  25.662  1.00  0.00     0.006 C 
ATOM     24  C   UNL A   1      32.991  21.815  26.511  1.00  0.00     0.001 C 
ENDBRANCH  11  13
ENDBRANCH  10  11
BRANCH  10  25
ATOM     25  C   UNL A   1      33.612  27.622  23.895  1.00  0.00     0.086 C 
ATOM     26  C   UNL A   1      34.196  28.408  22.752  1.00  0.00     0.027 C 
ATOM     27  C   UNL A   1      32.983  28.925  23.453  1.00  0.00     0.027 C 
ENDBRANCH  10  25
ENDBRANCH   9  10
ENDBRANCH   7   9
ENDBRANCH   6   7
ENDBRANCH   5   6
ENDBRANCH   4   5
ENDBRANCH   3   4
ENDBRANCH   2   3
ENDBRANCH   1   2
BRANCH   1  28
ATOM     28  O   UNL A   1      34.261  31.869  28.193  1.00  0.00    -0.377 OA
BRANCH  28  29
ATOM     29  C   UNL A   1      34.640  32.595  29.360  1.00  0.00     0.188 C 
BRANCH  29  30
ATOM     30  C   UNL A   1      35.273  33.930  29.025  1.00  0.00     0.188 C 
BRANCH  30  31
ATOM     31  O   UNL A   1      34.619  34.705  28.024  1.00  0.00    -0.376 OA
BRANCH  31  32
ATOM     32  C   UNL A   1      34.066  35.937  28.486  1.00  0.00     0.202 C 
BRANCH  32  33
ATOM     33  C   UNL A   1      32.938  35.758  29.514  1.00  0.00     0.261 C 
BRANCH  33  34
ATOM     34  O   UNL A   1      33.331  36.291  30.791  1.00  0.00    -0.460 OA
BRANCH  34  35
ATOM     35  C   UNL A   1      32.911  35.579  31.869  1.00  0.00     0.338 C 
ATOM     36  O   UNL A   1      31.756  35.351  32.188  1.00  0.00    -0.246 OA
BRANCH  35  37
ATOM     37  C   UNL A   1      34.079  34.889  32.489  1.00  0.00     0.060 A 
ATOM     38  C   UNL A   1      35.319  35.546  32.437  1.00  0.00     0.016 A 
ATOM     39  C   UNL A   1      33.948  33.709  33.234  1.00  0.00     0.016 A 
ATOM     40  C   UNL A   1      36.438  34.994  33.062  1.00  0.00     0.010 A 
ATOM     41  C   UNL A   1      35.069  33.148  33.853  1.00  0.00     0.010 A 
ATOM     42  C   UNL A   1      36.327  33.757  33.707  1.00  0.00    -0.014 A 
BRANCH  42  43
ATOM     43  C   UNL A   1      37.550  32.931  33.845  1.00  0.00     0.031 A 
ATOM     44  C   UNL A   1      38.380  33.176  35.080  1.00  0.00     0.074 A 
ATOM     45  C   UNL A   1      37.893  31.977  32.964  1.00  0.00     0.049 A 
ATOM     46  N   UNL A   1      39.499  32.622  35.461  1.00  0.00    -0.248 NA
ATOM     47  C   UNL A   1      37.869  34.198  36.014  1.00  0.00     0.031 C 
ATOM     48  C   UNL A   1      37.153  31.623  31.755  1.00  0.00     0.029 A 
ATOM     49  N   UNL A   1      38.974  31.131  32.960  1.00  0.00    -0.354 N 
ATOM     50  C   UNL A   1      39.814  33.220  36.677  1.00  0.00     0.074 A 
ATOM     51  C   UNL A   1      38.804  34.214  36.946  1.00  0.00     0.031 C 
ATOM     52  C   UNL A   1      37.813  30.638  31.116  1.00  0.00     0.029 A 
ATOM     53  C   UNL A   1      39.029  30.310  31.859  1.00  0.00     0.049 A 
ATOM     54  H   UNL A   1      39.645  31.112  33.679  1.00  0.00     0.167 HD
ATOM     55  C   UNL A   1      40.843  32.954  37.511  1.00  0.00     0.037 A 
ATOM     56  C   UNL A   1      39.969  29.415  31.497  1.00  0.00     0.037 A 
ATOM     57  C   UNL A   1      41.861  31.981  37.233  1.00  0.00     0.049 A 
ATOM     58  C   UNL A   1      41.153  29.187  32.407  1.00  0.00     0.074 A 
ATOM     59  C   UNL A   1      42.967  31.648  37.991  1.00  0.00     0.029 A 
ATOM     60  N   UNL A   1      41.893  31.188  36.096  1.00  0.00    -0.354 N 
ATOM     61  N   UNL A   1      41.437  29.750  33.558  1.00  0.00    -0.248 NA
ATOM     62  C   UNL A   1      42.142  28.191  31.969  1.00  0.00     0.031 C 
ATOM     63  C   UNL A   1      43.694  30.680  37.290  1.00  0.00     0.029 A 
ATOM     64  C   UNL A   1      43.010  30.374  36.124  1.00  0.00     0.049 A 
ATOM     65  H   UNL A   1      41.222  31.203  35.376  1.00  0.00     0.167 HD
ATOM     66  C   UNL A   1      42.620  29.160  33.992  1.00  0.00     0.074 A 
ATOM     67  C   UNL A   1      42.984  28.179  32.992  1.00  0.00     0.031 C 
ATOM     68  C   UNL A   1      43.346  29.405  35.112  1.00  0.00     0.037 A 
BRANCH  55  69
ATOM     69  C   UNL A   1      40.915  33.749  38.781  1.00  0.00     0.057 A 
ATOM     70  C   UNL A   1      41.762  34.858  38.910  1.00  0.00     0.134 A 
ATOM     71  C   UNL A   1      40.138  33.395  39.890  1.00  0.00     0.134 A 
ATOM     72  F   UNL A   1      42.558  35.228  37.895  1.00  0.00    -0.206 F 
ATOM     73  C   UNL A   1      41.850  35.574  40.104  1.00  0.00     0.040 A 
ATOM     74  C   UNL A   1      40.196  34.121  41.080  1.00  0.00     0.040 A 
ATOM     75  F   UNL A   1      39.316  32.338  39.836  1.00  0.00    -0.206 F 
ATOM     76  C   UNL A   1      41.058  35.211  41.192  1.00  0.00     0.006 A 
ENDBRANCH  55  69
BRANCH  56  77
ATOM     77  C   UNL A   1      39.853  28.678  30.210  1.00  0.00     0.057 A 
ATOM     78  C   UNL A   1      39.169  27.459  30.121  1.00  0.00     0.134 A 
ATOM     79  C   UNL A   1      40.470  29.152  29.046  1.00  0.00     0.134 A 
ATOM     80  F   UNL A   1      38.580  26.935  31.206  1.00  0.00    -0.206 F 
ATOM     81  C   UNL A   1      39.123  26.728  28.932  1.00  0.00     0.040 A 
ATOM     82  C   UNL A   1      40.409  28.446  27.843  1.00  0.00     0.040 A 
ATOM     83  F   UNL A   1      41.145  30.311  29.061  1.00  0.00    -0.206 F 
ATOM     84  C   UNL A   1      39.742  27.225  27.786  1.00  0.00     0.006 A 
ENDBRANCH  56  77
BRANCH  68  85
ATOM     85  C   UNL A   1      44.581  28.578  35.322  1.00  0.00     0.057 A 
ATOM     86  C   UNL A   1      44.544  27.349  35.993  1.00  0.00     0.134 A 
ATOM     87  C   UNL A   1      45.818  29.007  34.824  1.00  0.00     0.134 A 
ATOM     88  F   UNL A   1      43.392  26.885  36.499  1.00  0.00    -0.206 F 
ATOM     89  C   UNL A   1      45.701  26.596  36.196  1.00  0.00     0.040 A 
ATOM     90  C   UNL A   1      46.976  28.246  34.994  1.00  0.00     0.040 A 
ATOM     91  F   UNL A   1      45.921  30.166  34.156  1.00  0.00    -0.206 F 
ATOM     92  C   UNL A   1      46.921  27.041  35.691  1.00  0.00     0.006 A 
ENDBRANCH  68  85
ENDBRANCH  42  43
ENDBRANCH  35  37
ENDBRANCH  34  35
ENDBRANCH  33  34
ENDBRANCH  32  33
ENDBRANCH  31  32
ENDBRANCH  30  31
ENDBRANCH  29  30
ENDBRANCH  28  29
ENDBRANCH   1  28
TORSDOF 24
ENDMDL
