MODEL 1
REMARK VINA RESULT:      -9.6      0.000      0.000
REMARK SMILES Cc1cnc(N2CCO[C@H](CC(=O)OCCOCCOCCOCCOC(=O)c3ccc(-c4c5nc(c(-c6c(F)cccc6F)c6ccc([nH]6)c(-c6c(F)cccc6F)c6nc(c(-c7c(F)cccc7F)c7ccc4[nH]7)C=C6)C=C5)cc3)C2)c([N+](=O)[O-])c1
REMARK SMILES IDX 19 1 18 2 17 3 16 4 15 5 14 6 12 7 13 8 11 9 10 10 6 11 7 12
REMARK SMILES IDX 83 13 8 14 9 15 5 16 1 17 2 18 3 19 88 20 4 21 84 22 85 23
REMARK SMILES IDX 86 24 87 25 20 26 21 27 22 28 23 29 24 30 25 31 26 32 27 33
REMARK SMILES IDX 28 34 29 35 30 36 82 37 31 38 81 39 32 40 33 41 34 42 75 43
REMARK SMILES IDX 35 44 80 45 74 46 76 47 36 48 79 49 73 50 72 51 37 53 63 54
REMARK SMILES IDX 46 55 62 56 47 57 50 58 61 59 77 60 48 61 49 62 60 64 78 65
REMARK SMILES IDX 51 66 38 67 39 68 44 69 40 70 41 71 43 72 45 73 42 74 64 75
REMARK SMILES IDX 65 76 70 77 66 78 67 79 69 80 71 81 68 82 52 83 53 84 58 85
REMARK SMILES IDX 54 86 55 87 57 88 59 89 56 90
REMARK H PARENT 76 52 50 63
REMARK Flexibility Score: inf
ROOT
ATOM      1  C   UNL A   1      34.022  31.071  27.601  1.00  0.00     0.188 C 
ENDROOT
BRANCH   1   2
ATOM      2  C   UNL A   1      32.676  30.492  27.166  1.00  0.00     0.188 C 
BRANCH   2   3
ATOM      3  O   UNL A   1      32.554  29.837  25.920  1.00  0.00    -0.376 OA
BRANCH   3   4
ATOM      4  C   UNL A   1      32.849  28.481  25.657  1.00  0.00     0.202 C 
BRANCH   4   5
ATOM      5  C   UNL A   1      32.508  27.252  26.524  1.00  0.00     0.261 C 
BRANCH   5   6
ATOM      6  O   UNL A   1      31.134  26.959  26.804  1.00  0.00    -0.463 OA
BRANCH   6   7
ATOM      7  C   UNL A   1      30.660  25.863  26.173  1.00  0.00     0.308 C 
ATOM      8  O   UNL A   1      29.536  25.407  26.366  1.00  0.00    -0.252 OA
BRANCH   7   9
ATOM      9  C   UNL A   1      31.604  25.186  25.212  1.00  0.00     0.156 C 
BRANCH   9  10
ATOM     10  C   UNL A   1      31.527  25.298  23.674  1.00  0.00     0.148 C 
ATOM     11  N   UNL A   1      32.827  23.297  23.397  1.00  0.00    -0.346 N 
ATOM     12  C   UNL A   1      33.957  24.000  22.796  1.00  0.00     0.147 C 
ATOM     13  C   UNL A   1      31.532  23.872  23.053  1.00  0.00     0.151 C 
ATOM     14  C   UNL A   1      33.898  25.494  23.184  1.00  0.00     0.182 C 
ATOM     15  O   UNL A   1      32.590  26.088  23.093  1.00  0.00    -0.374 OA
BRANCH  11  16
ATOM     16  C   UNL A   1      32.909  22.080  24.012  1.00  0.00     0.208 A 
ATOM     17  C   UNL A   1      32.767  18.177  25.802  1.00  0.00     0.046 C 
ATOM     18  C   UNL A   1      32.826  19.549  25.212  1.00  0.00    -0.026 A 
ATOM     19  C   UNL A   1      32.312  19.820  23.951  1.00  0.00     0.117 A 
ATOM     20  C   UNL A   1      33.398  20.612  25.899  1.00  0.00     0.094 A 
ATOM     21  N   UNL A   1      32.327  21.044  23.362  1.00  0.00    -0.233 NA
ATOM     22  C   UNL A   1      33.443  21.869  25.286  1.00  0.00     0.311 A 
BRANCH  22  23
ATOM     23  N   UNL A   1      33.930  22.963  26.091  1.00  0.00     0.066 N 
ATOM     24  O   UNL A   1      35.060  23.407  25.853  1.00  0.00    -0.258 OA
ATOM     25  O   UNL A   1      33.197  23.347  27.015  1.00  0.00    -0.258 OA
ENDBRANCH  22  23
ENDBRANCH  11  16
ENDBRANCH   9  10
ENDBRANCH   7   9
ENDBRANCH   6   7
ENDBRANCH   5   6
ENDBRANCH   4   5
ENDBRANCH   3   4
ENDBRANCH   2   3
ENDBRANCH   1   2
BRANCH   1  26
ATOM     26  O   UNL A   1      34.240  32.457  27.679  1.00  0.00    -0.377 OA
BRANCH  26  27
ATOM     27  C   UNL A   1      34.132  32.983  28.988  1.00  0.00     0.188 C 
BRANCH  27  28
ATOM     28  C   UNL A   1      35.425  33.698  29.363  1.00  0.00     0.188 C 
BRANCH  28  29
ATOM     29  O   UNL A   1      35.371  34.438  30.567  1.00  0.00    -0.376 OA
BRANCH  29  30
ATOM     30  C   UNL A   1      34.474  34.107  31.619  1.00  0.00     0.202 C 
BRANCH  30  31
ATOM     31  C   UNL A   1      34.639  33.014  32.708  1.00  0.00     0.261 C 
BRANCH  31  32
ATOM     32  O   UNL A   1      35.545  31.926  32.510  1.00  0.00    -0.460 OA
BRANCH  32  33
ATOM     33  C   UNL A   1      36.673  31.885  33.241  1.00  0.00     0.338 C 
ATOM     34  O   UNL A   1      36.789  32.091  34.435  1.00  0.00    -0.246 OA
BRANCH  33  35
ATOM     35  C   UNL A   1      37.733  31.343  32.357  1.00  0.00     0.060 A 
ATOM     36  C   UNL A   1      38.857  30.747  32.940  1.00  0.00     0.016 A 
ATOM     37  C   UNL A   1      37.593  31.369  30.965  1.00  0.00     0.016 A 
ATOM     38  C   UNL A   1      39.852  30.188  32.137  1.00  0.00     0.010 A 
ATOM     39  C   UNL A   1      38.608  30.840  30.160  1.00  0.00     0.010 A 
ATOM     40  C   UNL A   1      39.752  30.267  30.743  1.00  0.00    -0.014 A 
BRANCH  40  41
ATOM     41  C   UNL A   1      40.927  29.922  29.907  1.00  0.00     0.031 A 
ATOM     42  C   UNL A   1      41.006  28.537  29.327  1.00  0.00     0.074 A 
ATOM     43  C   UNL A   1      41.891  30.821  29.641  1.00  0.00     0.049 A 
ATOM     44  N   UNL A   1      41.947  27.990  28.601  1.00  0.00    -0.248 NA
ATOM     45  C   UNL A   1      39.863  27.650  29.603  1.00  0.00     0.031 C 
ATOM     46  C   UNL A   1      41.905  32.208  30.101  1.00  0.00     0.029 A 
ATOM     47  N   UNL A   1      43.052  30.693  28.920  1.00  0.00    -0.354 N 
ATOM     48  C   UNL A   1      41.513  26.697  28.338  1.00  0.00     0.074 A 
ATOM     49  C   UNL A   1      40.240  26.531  29.004  1.00  0.00     0.031 C 
ATOM     50  C   UNL A   1      43.031  32.799  29.664  1.00  0.00     0.029 A 
ATOM     51  C   UNL A   1      43.830  31.824  28.924  1.00  0.00     0.049 A 
ATOM     52  H   UNL A   1      43.303  29.867  28.445  1.00  0.00     0.167 HD
ATOM     53  C   UNL A   1      42.119  25.737  27.601  1.00  0.00     0.037 A 
ATOM     54  C   UNL A   1      45.059  32.035  28.410  1.00  0.00     0.037 A 
ATOM     55  C   UNL A   1      43.391  25.901  26.950  1.00  0.00     0.049 A 
ATOM     56  C   UNL A   1      45.758  30.918  27.680  1.00  0.00     0.074 A 
ATOM     57  C   UNL A   1      44.080  24.992  26.165  1.00  0.00     0.029 A 
ATOM     58  N   UNL A   1      44.173  27.043  27.019  1.00  0.00    -0.354 N 
ATOM     59  N   UNL A   1      45.329  29.709  27.407  1.00  0.00    -0.248 NA
ATOM     60  C   UNL A   1      47.116  31.194  27.187  1.00  0.00     0.031 C 
ATOM     61  C   UNL A   1      45.306  25.564  25.811  1.00  0.00     0.029 A 
ATOM     62  C   UNL A   1      45.355  26.850  26.324  1.00  0.00     0.049 A 
ATOM     63  H   UNL A   1      43.924  27.870  27.493  1.00  0.00     0.167 HD
ATOM     64  C   UNL A   1      46.351  29.090  26.695  1.00  0.00     0.074 A 
ATOM     65  C   UNL A   1      47.414  30.063  26.561  1.00  0.00     0.031 C 
ATOM     66  C   UNL A   1      46.407  27.829  26.200  1.00  0.00     0.037 A 
BRANCH  53  67
ATOM     67  C   UNL A   1      41.426  24.410  27.492  1.00  0.00     0.057 A 
ATOM     68  C   UNL A   1      41.831  23.298  28.243  1.00  0.00     0.134 A 
ATOM     69  C   UNL A   1      40.323  24.252  26.645  1.00  0.00     0.134 A 
ATOM     70  F   UNL A   1      42.890  23.378  29.061  1.00  0.00    -0.206 F 
ATOM     71  C   UNL A   1      41.176  22.070  28.136  1.00  0.00     0.040 A 
ATOM     72  C   UNL A   1      39.643  23.037  26.551  1.00  0.00     0.040 A 
ATOM     73  F   UNL A   1      39.882  25.277  25.900  1.00  0.00    -0.206 F 
ATOM     74  C   UNL A   1      40.074  21.939  27.293  1.00  0.00     0.006 A 
ENDBRANCH  53  67
BRANCH  54  75
ATOM     75  C   UNL A   1      45.731  33.349  28.594  1.00  0.00     0.057 A 
ATOM     76  C   UNL A   1      46.537  33.604  29.708  1.00  0.00     0.134 A 
ATOM     77  C   UNL A   1      45.553  34.392  27.676  1.00  0.00     0.134 A 
ATOM     78  F   UNL A   1      46.724  32.655  30.638  1.00  0.00    -0.206 F 
ATOM     79  C   UNL A   1      47.129  34.853  29.914  1.00  0.00     0.040 A 
ATOM     80  C   UNL A   1      46.161  35.636  27.853  1.00  0.00     0.040 A 
ATOM     81  F   UNL A   1      44.788  34.216  26.589  1.00  0.00    -0.206 F 
ATOM     82  C   UNL A   1      46.945  35.871  28.981  1.00  0.00     0.006 A 
ENDBRANCH  54  75
BRANCH  66  83
ATOM     83  C   UNL A   1      47.646  27.434  25.449  1.00  0.00     0.057 A 
ATOM     84  C   UNL A   1      48.732  26.818  26.086  1.00  0.00     0.134 A 
ATOM     85  C   UNL A   1      47.736  27.627  24.065  1.00  0.00     0.134 A 
ATOM     86  F   UNL A   1      48.715  26.613  27.412  1.00  0.00    -0.206 F 
ATOM     87  C   UNL A   1      49.870  26.430  25.377  1.00  0.00     0.040 A 
ATOM     88  C   UNL A   1      48.856  27.217  23.340  1.00  0.00     0.040 A 
ATOM     89  F   UNL A   1      46.728  28.200  23.390  1.00  0.00    -0.206 F 
ATOM     90  C   UNL A   1      49.930  26.623  23.998  1.00  0.00     0.006 A 
ENDBRANCH  66  83
ENDBRANCH  40  41
ENDBRANCH  33  35
ENDBRANCH  32  33
ENDBRANCH  31  32
ENDBRANCH  30  31
ENDBRANCH  29  30
ENDBRANCH  28  29
ENDBRANCH  27  28
ENDBRANCH  26  27
ENDBRANCH   1  26
TORSDOF 23
ENDMDL
MODEL 2
REMARK VINA RESULT:      -9.5      1.160      6.075
REMARK SMILES Cc1cnc(N2CCO[C@H](CC(=O)OCCOCCOCCOCCOC(=O)c3ccc(-c4c5nc(c(-c6c(F)cccc6F)c6ccc([nH]6)c(-c6c(F)cccc6F)c6nc(c(-c7c(F)cccc7F)c7ccc4[nH]7)C=C6)C=C5)cc3)C2)c([N+](=O)[O-])c1
REMARK SMILES IDX 19 1 18 2 17 3 16 4 15 5 14 6 12 7 13 8 11 9 10 10 6 11 7 12
REMARK SMILES IDX 83 13 8 14 9 15 5 16 1 17 2 18 3 19 88 20 4 21 84 22 85 23
REMARK SMILES IDX 86 24 87 25 20 26 21 27 22 28 23 29 24 30 25 31 26 32 27 33
REMARK SMILES IDX 28 34 29 35 30 36 82 37 31 38 81 39 32 40 33 41 34 42 75 43
REMARK SMILES IDX 35 44 80 45 74 46 76 47 36 48 79 49 73 50 72 51 37 53 63 54
REMARK SMILES IDX 46 55 62 56 47 57 50 58 61 59 77 60 48 61 49 62 60 64 78 65
REMARK SMILES IDX 51 66 38 67 39 68 44 69 40 70 41 71 43 72 45 73 42 74 64 75
REMARK SMILES IDX 65 76 70 77 66 78 67 79 69 80 71 81 68 82 52 83 53 84 58 85
REMARK SMILES IDX 54 86 55 87 57 88 59 89 56 90
REMARK H PARENT 76 52 50 63
REMARK Flexibility Score: inf
ROOT
ATOM      1  C   UNL A   1      34.407  31.488  28.023  1.00  0.00     0.188 C 
ENDROOT
BRANCH   1   2
ATOM      2  C   UNL A   1      33.374  30.650  27.269  1.00  0.00     0.188 C 
BRANCH   2   3
ATOM      3  O   UNL A   1      33.728  30.003  26.064  1.00  0.00    -0.376 OA
BRANCH   3   4
ATOM      4  C   UNL A   1      33.266  28.742  25.625  1.00  0.00     0.202 C 
BRANCH   4   5
ATOM      5  C   UNL A   1      33.035  27.472  26.470  1.00  0.00     0.261 C 
BRANCH   5   6
ATOM      6  O   UNL A   1      31.692  27.044  26.728  1.00  0.00    -0.463 OA
BRANCH   6   7
ATOM      7  C   UNL A   1      31.408  25.805  26.275  1.00  0.00     0.308 C 
ATOM      8  O   UNL A   1      30.840  24.952  26.953  1.00  0.00    -0.252 OA
BRANCH   7   9
ATOM      9  C   UNL A   1      31.850  25.491  24.868  1.00  0.00     0.156 C 
BRANCH   9  10
ATOM     10  C   UNL A   1      30.966  24.821  23.793  1.00  0.00     0.148 C 
ATOM     11  N   UNL A   1      32.779  23.414  23.084  1.00  0.00    -0.346 N 
ATOM     12  C   UNL A   1      32.872  24.036  21.767  1.00  0.00     0.147 C 
ATOM     13  C   UNL A   1      31.418  23.345  23.602  1.00  0.00     0.151 C 
ATOM     14  C   UNL A   1      32.232  25.440  21.815  1.00  0.00     0.182 C 
ATOM     15  O   UNL A   1      30.978  25.506  22.519  1.00  0.00    -0.374 OA
BRANCH  11  16
ATOM     16  C   UNL A   1      33.792  22.728  23.691  1.00  0.00     0.208 A 
ATOM     17  C   UNL A   1      37.237  20.724  25.294  1.00  0.00     0.046 C 
ATOM     18  C   UNL A   1      36.021  21.388  24.736  1.00  0.00    -0.026 A 
ATOM     19  C   UNL A   1      36.066  22.683  24.235  1.00  0.00     0.117 A 
ATOM     20  C   UNL A   1      34.793  20.741  24.696  1.00  0.00     0.094 A 
ATOM     21  N   UNL A   1      35.000  23.340  23.708  1.00  0.00    -0.233 NA
ATOM     22  C   UNL A   1      33.684  21.423  24.181  1.00  0.00     0.311 A 
BRANCH  22  23
ATOM     23  N   UNL A   1      32.466  20.663  24.044  1.00  0.00     0.066 N 
ATOM     24  O   UNL A   1      32.135  20.287  22.912  1.00  0.00    -0.258 OA
ATOM     25  O   UNL A   1      31.795  20.491  25.072  1.00  0.00    -0.258 OA
ENDBRANCH  22  23
ENDBRANCH  11  16
ENDBRANCH   9  10
ENDBRANCH   7   9
ENDBRANCH   6   7
ENDBRANCH   5   6
ENDBRANCH   4   5
ENDBRANCH   3   4
ENDBRANCH   2   3
ENDBRANCH   1   2
BRANCH   1  26
ATOM     26  O   UNL A   1      34.478  32.883  27.873  1.00  0.00    -0.377 OA
BRANCH  26  27
ATOM     27  C   UNL A   1      33.974  33.606  28.979  1.00  0.00     0.188 C 
BRANCH  27  28
ATOM     28  C   UNL A   1      35.114  34.340  29.677  1.00  0.00     0.188 C 
BRANCH  28  29
ATOM     29  O   UNL A   1      34.755  34.999  30.876  1.00  0.00    -0.376 OA
BRANCH  29  30
ATOM     30  C   UNL A   1      33.845  34.430  31.809  1.00  0.00     0.202 C 
BRANCH  30  31
ATOM     31  C   UNL A   1      34.003  33.116  32.618  1.00  0.00     0.261 C 
BRANCH  31  32
ATOM     32  O   UNL A   1      35.070  32.211  32.327  1.00  0.00    -0.460 OA
BRANCH  32  33
ATOM     33  C   UNL A   1      36.200  32.291  33.053  1.00  0.00     0.338 C 
ATOM     34  O   UNL A   1      36.318  32.694  34.195  1.00  0.00    -0.246 OA
BRANCH  33  35
ATOM     35  C   UNL A   1      37.257  31.608  32.270  1.00  0.00     0.060 A 
ATOM     36  C   UNL A   1      38.228  30.865  32.953  1.00  0.00     0.016 A 
ATOM     37  C   UNL A   1      37.259  31.650  30.871  1.00  0.00     0.016 A 
ATOM     38  C   UNL A   1      39.211  30.175  32.243  1.00  0.00     0.010 A 
ATOM     39  C   UNL A   1      38.267  30.986  30.163  1.00  0.00     0.010 A 
ATOM     40  C   UNL A   1      39.259  30.264  30.847  1.00  0.00    -0.014 A 
BRANCH  40  41
ATOM     41  C   UNL A   1      40.453  29.760  30.125  1.00  0.00     0.031 A 
ATOM     42  C   UNL A   1      41.602  30.704  29.903  1.00  0.00     0.074 A 
ATOM     43  C   UNL A   1      40.532  28.487  29.699  1.00  0.00     0.049 A 
ATOM     44  N   UNL A   1      42.729  30.509  29.269  1.00  0.00    -0.248 NA
ATOM     45  C   UNL A   1      41.457  32.052  30.478  1.00  0.00     0.031 C 
ATOM     46  C   UNL A   1      39.510  27.462  29.897  1.00  0.00     0.029 A 
ATOM     47  N   UNL A   1      41.525  27.843  29.004  1.00  0.00    -0.354 N 
ATOM     48  C   UNL A   1      43.425  31.707  29.366  1.00  0.00     0.074 A 
ATOM     49  C   UNL A   1      42.583  32.631  30.093  1.00  0.00     0.031 C 
ATOM     50  C   UNL A   1      39.922  26.320  29.319  1.00  0.00     0.029 A 
ATOM     51  C   UNL A   1      41.220  26.543  28.683  1.00  0.00     0.049 A 
ATOM     52  H   UNL A   1      42.376  28.273  28.756  1.00  0.00     0.167 HD
ATOM     53  C   UNL A   1      44.659  32.007  28.896  1.00  0.00     0.037 A 
ATOM     54  C   UNL A   1      41.900  25.648  27.939  1.00  0.00     0.037 A 
ATOM     55  C   UNL A   1      45.489  31.090  28.163  1.00  0.00     0.049 A 
ATOM     56  C   UNL A   1      43.227  26.039  27.341  1.00  0.00     0.074 A 
ATOM     57  C   UNL A   1      46.763  31.294  27.660  1.00  0.00     0.029 A 
ATOM     58  N   UNL A   1      45.124  29.799  27.814  1.00  0.00    -0.354 N 
ATOM     59  N   UNL A   1      43.894  27.162  27.463  1.00  0.00    -0.248 NA
ATOM     60  C   UNL A   1      43.896  25.037  26.497  1.00  0.00     0.031 C 
ATOM     61  C   UNL A   1      47.142  30.148  26.954  1.00  0.00     0.029 A 
ATOM     62  C   UNL A   1      46.131  29.208  27.069  1.00  0.00     0.049 A 
ATOM     63  H   UNL A   1      44.274  29.367  28.060  1.00  0.00     0.167 HD
ATOM     64  C   UNL A   1      45.065  26.995  26.733  1.00  0.00     0.074 A 
ATOM     65  C   UNL A   1      45.028  25.654  26.187  1.00  0.00     0.031 C 
ATOM     66  C   UNL A   1      46.079  27.871  26.530  1.00  0.00     0.037 A 
BRANCH  53  67
ATOM     67  C   UNL A   1      45.167  33.400  29.133  1.00  0.00     0.057 A 
ATOM     68  C   UNL A   1      45.935  33.728  30.258  1.00  0.00     0.134 A 
ATOM     69  C   UNL A   1      44.906  34.418  28.208  1.00  0.00     0.134 A 
ATOM     70  F   UNL A   1      46.206  32.803  31.190  1.00  0.00    -0.206 F 
ATOM     71  C   UNL A   1      46.405  35.026  30.466  1.00  0.00     0.040 A 
ATOM     72  C   UNL A   1      45.395  35.712  28.390  1.00  0.00     0.040 A 
ATOM     73  F   UNL A   1      44.179  34.171  27.108  1.00  0.00    -0.206 F 
ATOM     74  C   UNL A   1      46.142  36.021  29.526  1.00  0.00     0.006 A 
ENDBRANCH  53  67
BRANCH  54  75
ATOM     75  C   UNL A   1      41.329  24.299  27.684  1.00  0.00     0.057 A 
ATOM     76  C   UNL A   1      41.805  23.168  28.356  1.00  0.00     0.134 A 
ATOM     77  C   UNL A   1      40.317  24.105  26.735  1.00  0.00     0.134 A 
ATOM     78  F   UNL A   1      42.793  23.284  29.256  1.00  0.00    -0.206 F 
ATOM     79  C   UNL A   1      41.309  21.891  28.083  1.00  0.00     0.040 A 
ATOM     80  C   UNL A   1      39.792  22.839  26.472  1.00  0.00     0.040 A 
ATOM     81  F   UNL A   1      39.819  25.146  26.052  1.00  0.00    -0.206 F 
ATOM     82  C   UNL A   1      40.295  21.725  27.142  1.00  0.00     0.006 A 
ENDBRANCH  54  75
BRANCH  66  83
ATOM     83  C   UNL A   1      47.242  27.405  25.701  1.00  0.00     0.057 A 
ATOM     84  C   UNL A   1      47.289  27.605  24.315  1.00  0.00     0.134 A 
ATOM     85  C   UNL A   1      48.350  26.794  26.303  1.00  0.00     0.134 A 
ATOM     86  F   UNL A   1      46.256  28.174  23.675  1.00  0.00    -0.206 F 
ATOM     87  C   UNL A   1      48.385  27.191  23.555  1.00  0.00     0.040 A 
ATOM     88  C   UNL A   1      49.463  26.404  25.558  1.00  0.00     0.040 A 
ATOM     89  F   UNL A   1      48.376  26.584  27.628  1.00  0.00    -0.206 F 
ATOM     90  C   UNL A   1      49.480  26.596  24.179  1.00  0.00     0.006 A 
ENDBRANCH  66  83
ENDBRANCH  40  41
ENDBRANCH  33  35
ENDBRANCH  32  33
ENDBRANCH  31  32
ENDBRANCH  30  31
ENDBRANCH  29  30
ENDBRANCH  28  29
ENDBRANCH  27  28
ENDBRANCH  26  27
ENDBRANCH   1  26
TORSDOF 23
ENDMDL
MODEL 3
REMARK VINA RESULT:      -8.5      4.883      8.742
REMARK SMILES Cc1cnc(N2CCO[C@H](CC(=O)OCCOCCOCCOCCOC(=O)c3ccc(-c4c5nc(c(-c6c(F)cccc6F)c6ccc([nH]6)c(-c6c(F)cccc6F)c6nc(c(-c7c(F)cccc7F)c7ccc4[nH]7)C=C6)C=C5)cc3)C2)c([N+](=O)[O-])c1
REMARK SMILES IDX 19 1 18 2 17 3 16 4 15 5 14 6 12 7 13 8 11 9 10 10 6 11 7 12
REMARK SMILES IDX 83 13 8 14 9 15 5 16 1 17 2 18 3 19 88 20 4 21 84 22 85 23
REMARK SMILES IDX 86 24 87 25 20 26 21 27 22 28 23 29 24 30 25 31 26 32 27 33
REMARK SMILES IDX 28 34 29 35 30 36 82 37 31 38 81 39 32 40 33 41 34 42 75 43
REMARK SMILES IDX 35 44 80 45 74 46 76 47 36 48 79 49 73 50 72 51 37 53 63 54
REMARK SMILES IDX 46 55 62 56 47 57 50 58 61 59 77 60 48 61 49 62 60 64 78 65
REMARK SMILES IDX 51 66 38 67 39 68 44 69 40 70 41 71 43 72 45 73 42 74 64 75
REMARK SMILES IDX 65 76 70 77 66 78 67 79 69 80 71 81 68 82 52 83 53 84 58 85
REMARK SMILES IDX 54 86 55 87 57 88 59 89 56 90
REMARK H PARENT 76 52 50 63
REMARK Flexibility Score: inf
ROOT
ATOM      1  C   UNL A   1      35.190  34.510  34.365  1.00  0.00     0.188 C 
ENDROOT
BRANCH   1   2
ATOM      2  C   UNL A   1      34.254  34.460  33.158  1.00  0.00     0.188 C 
BRANCH   2   3
ATOM      3  O   UNL A   1      34.683  34.955  31.906  1.00  0.00    -0.376 OA
BRANCH   3   4
ATOM      4  C   UNL A   1      33.961  34.896  30.692  1.00  0.00     0.202 C 
BRANCH   4   5
ATOM      5  C   UNL A   1      34.410  34.273  29.354  1.00  0.00     0.261 C 
BRANCH   5   6
ATOM      6  O   UNL A   1      35.804  34.266  29.023  1.00  0.00    -0.463 OA
BRANCH   6   7
ATOM      7  C   UNL A   1      36.257  33.085  28.550  1.00  0.00     0.308 C 
ATOM      8  O   UNL A   1      35.703  32.464  27.647  1.00  0.00    -0.252 OA
BRANCH   7   9
ATOM      9  C   UNL A   1      37.493  32.531  29.212  1.00  0.00     0.156 C 
BRANCH   9  10
ATOM     10  C   UNL A   1      37.826  32.666  30.714  1.00  0.00     0.148 C 
ATOM     11  N   UNL A   1      38.014  30.284  30.955  1.00  0.00    -0.346 N 
ATOM     12  C   UNL A   1      36.851  30.185  31.832  1.00  0.00     0.147 C 
ATOM     13  C   UNL A   1      38.779  31.512  31.136  1.00  0.00     0.151 C 
ATOM     14  C   UNL A   1      35.952  31.425  31.636  1.00  0.00     0.182 C 
ATOM     15  O   UNL A   1      36.661  32.677  31.571  1.00  0.00    -0.374 OA
BRANCH  11  16
ATOM     16  C   UNL A   1      38.515  29.253  30.212  1.00  0.00     0.208 A 
ATOM     17  C   UNL A   1      39.708  25.995  27.678  1.00  0.00     0.046 C 
ATOM     18  C   UNL A   1      39.303  27.109  28.589  1.00  0.00    -0.026 A 
ATOM     19  C   UNL A   1      38.538  28.175  28.136  1.00  0.00     0.117 A 
ATOM     20  C   UNL A   1      39.677  27.126  29.926  1.00  0.00     0.094 A 
ATOM     21  N   UNL A   1      38.131  29.213  28.913  1.00  0.00    -0.233 NA
ATOM     22  C   UNL A   1      39.286  28.207  30.725  1.00  0.00     0.311 A 
BRANCH  22  23
ATOM     23  N   UNL A   1      39.589  28.112  32.132  1.00  0.00     0.066 N 
ATOM     24  O   UNL A   1      38.785  27.526  32.866  1.00  0.00    -0.258 OA
ATOM     25  O   UNL A   1      40.618  28.685  32.523  1.00  0.00    -0.258 OA
ENDBRANCH  22  23
ENDBRANCH  11  16
ENDBRANCH   9  10
ENDBRANCH   7   9
ENDBRANCH   6   7
ENDBRANCH   5   6
ENDBRANCH   4   5
ENDBRANCH   3   4
ENDBRANCH   2   3
ENDBRANCH   1   2
BRANCH   1  26
ATOM     26  O   UNL A   1      36.002  33.418  34.715  1.00  0.00    -0.377 OA
BRANCH  26  27
ATOM     27  C   UNL A   1      37.078  33.753  35.570  1.00  0.00     0.188 C 
BRANCH  27  28
ATOM     28  C   UNL A   1      38.273  34.206  34.739  1.00  0.00     0.188 C 
BRANCH  28  29
ATOM     29  O   UNL A   1      38.755  35.501  35.042  1.00  0.00    -0.376 OA
BRANCH  29  30
ATOM     30  C   UNL A   1      39.698  35.734  36.080  1.00  0.00     0.202 C 
BRANCH  30  31
ATOM     31  C   UNL A   1      39.454  35.735  37.611  1.00  0.00     0.261 C 
BRANCH  31  32
ATOM     32  O   UNL A   1      40.539  35.525  38.518  1.00  0.00    -0.460 OA
BRANCH  32  33
ATOM     33  C   UNL A   1      40.701  34.304  39.058  1.00  0.00     0.338 C 
ATOM     34  O   UNL A   1      40.361  33.935  40.167  1.00  0.00    -0.246 OA
BRANCH  33  35
ATOM     35  C   UNL A   1      41.198  33.423  37.975  1.00  0.00     0.060 A 
ATOM     36  C   UNL A   1      42.556  33.467  37.639  1.00  0.00     0.016 A 
ATOM     37  C   UNL A   1      40.345  32.516  37.336  1.00  0.00     0.016 A 
ATOM     38  C   UNL A   1      43.065  32.619  36.655  1.00  0.00     0.010 A 
ATOM     39  C   UNL A   1      40.849  31.691  36.324  1.00  0.00     0.010 A 
ATOM     40  C   UNL A   1      42.206  31.755  35.965  1.00  0.00    -0.014 A 
BRANCH  40  41
ATOM     41  C   UNL A   1      42.694  31.062  34.747  1.00  0.00     0.031 A 
ATOM     42  C   UNL A   1      42.755  31.840  33.462  1.00  0.00     0.074 A 
ATOM     43  C   UNL A   1      43.102  29.781  34.782  1.00  0.00     0.049 A 
ATOM     44  N   UNL A   1      43.107  31.445  32.266  1.00  0.00    -0.248 NA
ATOM     45  C   UNL A   1      42.368  33.259  33.542  1.00  0.00     0.031 C 
ATOM     46  C   UNL A   1      43.139  28.936  35.973  1.00  0.00     0.029 A 
ATOM     47  N   UNL A   1      43.558  28.966  33.776  1.00  0.00    -0.354 N 
ATOM     48  C   UNL A   1      42.980  32.563  31.451  1.00  0.00     0.074 A 
ATOM     49  C   UNL A   1      42.493  33.643  32.281  1.00  0.00     0.031 C 
ATOM     50  C   UNL A   1      43.578  27.714  35.625  1.00  0.00     0.029 A 
ATOM     51  C   UNL A   1      43.821  27.682  34.183  1.00  0.00     0.049 A 
ATOM     52  H   UNL A   1      43.684  29.274  32.848  1.00  0.00     0.167 HD
ATOM     53  C   UNL A   1      43.253  32.680  30.130  1.00  0.00     0.037 A 
ATOM     54  C   UNL A   1      44.188  26.601  33.467  1.00  0.00     0.037 A 
ATOM     55  C   UNL A   1      43.726  31.602  29.304  1.00  0.00     0.049 A 
ATOM     56  C   UNL A   1      44.387  26.731  31.978  1.00  0.00     0.074 A 
ATOM     57  C   UNL A   1      44.048  31.625  27.958  1.00  0.00     0.029 A 
ATOM     58  N   UNL A   1      43.930  30.302  29.742  1.00  0.00    -0.354 N 
ATOM     59  N   UNL A   1      44.297  27.797  31.220  1.00  0.00    -0.248 NA
ATOM     60  C   UNL A   1      44.738  25.506  31.245  1.00  0.00     0.031 C 
ATOM     61  C   UNL A   1      44.389  30.325  27.569  1.00  0.00     0.029 A 
ATOM     62  C   UNL A   1      44.338  29.506  28.685  1.00  0.00     0.049 A 
ATOM     63  H   UNL A   1      43.806  29.992  30.668  1.00  0.00     0.167 HD
ATOM     64  C   UNL A   1      44.600  27.378  29.930  1.00  0.00     0.074 A 
ATOM     65  C   UNL A   1      44.895  25.963  30.010  1.00  0.00     0.031 C 
ATOM     66  C   UNL A   1      44.627  28.096  28.780  1.00  0.00     0.037 A 
BRANCH  53  67
ATOM     67  C   UNL A   1      43.009  34.016  29.491  1.00  0.00     0.057 A 
ATOM     68  C   UNL A   1      41.716  34.481  29.214  1.00  0.00     0.134 A 
ATOM     69  C   UNL A   1      44.082  34.857  29.172  1.00  0.00     0.134 A 
ATOM     70  F   UNL A   1      40.646  33.717  29.480  1.00  0.00    -0.206 F 
ATOM     71  C   UNL A   1      41.501  35.727  28.623  1.00  0.00     0.040 A 
ATOM     72  C   UNL A   1      43.878  36.117  28.606  1.00  0.00     0.040 A 
ATOM     73  F   UNL A   1      45.344  34.473  29.412  1.00  0.00    -0.206 F 
ATOM     74  C   UNL A   1      42.584  36.552  28.324  1.00  0.00     0.006 A 
ENDBRANCH  53  67
BRANCH  54  75
ATOM     75  C   UNL A   1      44.361  25.284  34.135  1.00  0.00     0.057 A 
ATOM     76  C   UNL A   1      43.261  24.552  34.595  1.00  0.00     0.134 A 
ATOM     77  C   UNL A   1      45.633  24.743  34.360  1.00  0.00     0.134 A 
ATOM     78  F   UNL A   1      42.017  25.029  34.436  1.00  0.00    -0.206 F 
ATOM     79  C   UNL A   1      43.419  23.339  35.271  1.00  0.00     0.040 A 
ATOM     80  C   UNL A   1      45.805  23.518  35.008  1.00  0.00     0.040 A 
ATOM     81  F   UNL A   1      46.729  25.395  33.949  1.00  0.00    -0.206 F 
ATOM     82  C   UNL A   1      44.695  22.817  35.473  1.00  0.00     0.006 A 
ENDBRANCH  54  75
BRANCH  66  83
ATOM     83  C   UNL A   1      45.009  27.373  27.520  1.00  0.00     0.057 A 
ATOM     84  C   UNL A   1      44.048  26.809  26.671  1.00  0.00     0.134 A 
ATOM     85  C   UNL A   1      46.351  27.283  27.126  1.00  0.00     0.134 A 
ATOM     86  F   UNL A   1      42.747  26.850  26.995  1.00  0.00    -0.206 F 
ATOM     87  C   UNL A   1      44.410  26.160  25.488  1.00  0.00     0.040 A 
ATOM     88  C   UNL A   1      46.722  26.663  25.932  1.00  0.00     0.040 A 
ATOM     89  F   UNL A   1      47.322  27.812  27.886  1.00  0.00    -0.206 F 
ATOM     90  C   UNL A   1      45.751  26.094  25.113  1.00  0.00     0.006 A 
ENDBRANCH  66  83
ENDBRANCH  40  41
ENDBRANCH  33  35
ENDBRANCH  32  33
ENDBRANCH  31  32
ENDBRANCH  30  31
ENDBRANCH  29  30
ENDBRANCH  28  29
ENDBRANCH  27  28
ENDBRANCH  26  27
ENDBRANCH   1  26
TORSDOF 23
ENDMDL
