MODEL 1
REMARK VINA RESULT:      -9.4      0.000      0.000
REMARK SMILES CCn1ccc([C@@H](C)NC(=O)[C@H](C)n2ccc(C(=O)OCCOCCOCCOCCOC(=O)c3ccc(-c4c5nc(c(-c6c(F)cccc6F)c6ccc([nH]6)c(-c6c(F)cccc6F)c6nc(c(-c7c(F)cccc7F)c7ccc4[nH]7)C=C6)C=C5)cc3)n2)n1
REMARK SMILES IDX 24 1 23 2 22 3 21 4 20 5 18 6 19 7 17 8 14 9 15 10 89 11
REMARK SMILES IDX 16 12 12 13 13 14 10 15 9 16 11 18 7 19 8 20 6 21 3 22 4 23
REMARK SMILES IDX 90 24 5 25 2 26 1 27 25 28 26 29 27 30 28 31 29 32 30 33
REMARK SMILES IDX 31 34 32 35 33 36 34 37 35 38 36 39 88 40 37 41 87 42 38 43
REMARK SMILES IDX 39 44 40 45 81 46 41 47 86 48 80 49 82 50 42 51 85 52 79 53
REMARK SMILES IDX 78 54 43 56 69 57 52 58 68 59 53 60 56 61 67 62 83 63 54 64
REMARK SMILES IDX 55 65 66 67 84 68 57 69 44 70 45 71 50 72 46 73 47 74 49 75
REMARK SMILES IDX 51 76 48 77 70 78 71 79 76 80 72 81 73 82 75 83 77 84 74 85
REMARK SMILES IDX 58 86 59 87 64 88 60 89 61 90 63 91 65 92 62 93
REMARK H PARENT 9 17 82 55 56 66
REMARK Flexibility Score: inf
ROOT
ATOM      1  C   UNL A   1      32.715  29.137  25.003  1.00  0.00     0.188 C 
ENDROOT
BRANCH   1   2
ATOM      2  O   UNL A   1      32.067  29.528  23.804  1.00  0.00    -0.376 OA
BRANCH   2   3
ATOM      3  C   UNL A   1      30.977  28.775  23.319  1.00  0.00     0.202 C 
BRANCH   3   4
ATOM      4  C   UNL A   1      31.317  27.363  22.828  1.00  0.00     0.261 C 
BRANCH   4   5
ATOM      5  O   UNL A   1      32.672  27.173  22.404  1.00  0.00    -0.458 OA
BRANCH   5   6
ATOM      6  C   UNL A   1      33.181  25.914  22.513  1.00  0.00     0.358 C 
ATOM      7  O   UNL A   1      33.764  25.328  21.604  1.00  0.00    -0.244 OA
BRANCH   6   8
ATOM      8  C   UNL A   1      33.148  25.427  23.898  1.00  0.00     0.170 A 
ATOM      9  N   UNL A   1      32.520  24.430  25.678  1.00  0.00    -0.260 N 
ATOM     10  C   UNL A   1      33.595  25.186  26.062  1.00  0.00     0.110 A 
ATOM     11  N   UNL A   1      32.149  24.677  24.402  1.00  0.00    -0.165 NA
ATOM     12  C   UNL A   1      34.073  25.773  24.918  1.00  0.00     0.057 A 
BRANCH   9  13
ATOM     13  C   UNL A   1      31.758  23.499  26.514  1.00  0.00     0.193 C 
ATOM     14  C   UNL A   1      30.736  22.675  25.720  1.00  0.00     0.044 C 
BRANCH  13  15
ATOM     15  C   UNL A   1      32.714  22.529  27.206  1.00  0.00     0.245 C 
ATOM     16  N   UNL A   1      33.487  21.660  26.499  1.00  0.00    -0.346 N 
ATOM     17  H   UNL A   1      33.978  21.009  27.051  1.00  0.00     0.164 HD
ATOM     18  O   UNL A   1      32.790  22.461  28.437  1.00  0.00    -0.273 OA
BRANCH  16  19
ATOM     19  C   UNL A   1      33.715  21.524  25.063  1.00  0.00     0.130 C 
ATOM     20  C   UNL A   1      33.594  20.061  24.641  1.00  0.00     0.038 C 
BRANCH  19  21
ATOM     21  C   UNL A   1      35.077  22.087  24.753  1.00  0.00     0.084 A 
ATOM     22  N   UNL A   1      37.087  22.688  25.086  1.00  0.00    -0.273 N 
ATOM     23  C   UNL A   1      36.842  23.009  23.781  1.00  0.00     0.109 A 
ATOM     24  N   UNL A   1      36.032  22.112  25.695  1.00  0.00    -0.176 NA
ATOM     25  C   UNL A   1      35.545  22.633  23.532  1.00  0.00     0.047 A 
BRANCH  22  26
ATOM     26  C   UNL A   1      38.336  22.924  25.787  1.00  0.00     0.141 C 
ATOM     27  C   UNL A   1      38.368  24.160  26.674  1.00  0.00     0.029 C 
ENDBRANCH  22  26
ENDBRANCH  19  21
ENDBRANCH  16  19
ENDBRANCH  13  15
ENDBRANCH   9  13
ENDBRANCH   6   8
ENDBRANCH   5   6
ENDBRANCH   4   5
ENDBRANCH   3   4
ENDBRANCH   2   3
ENDBRANCH   1   2
BRANCH   1  28
ATOM     28  C   UNL A   1      32.760  30.244  26.084  1.00  0.00     0.188 C 
BRANCH  28  29
ATOM     29  O   UNL A   1      31.658  30.505  26.953  1.00  0.00    -0.377 OA
BRANCH  29  30
ATOM     30  C   UNL A   1      31.124  31.817  26.991  1.00  0.00     0.188 C 
BRANCH  30  31
ATOM     31  C   UNL A   1      32.143  32.928  26.646  1.00  0.00     0.188 C 
BRANCH  31  32
ATOM     32  O   UNL A   1      32.762  33.578  27.743  1.00  0.00    -0.376 OA
BRANCH  32  33
ATOM     33  C   UNL A   1      33.932  33.154  28.421  1.00  0.00     0.202 C 
BRANCH  33  34
ATOM     34  C   UNL A   1      34.300  33.417  29.880  1.00  0.00     0.261 C 
BRANCH  34  35
ATOM     35  O   UNL A   1      35.634  33.168  30.226  1.00  0.00    -0.460 OA
BRANCH  35  36
ATOM     36  C   UNL A   1      35.884  31.925  30.641  1.00  0.00     0.338 C 
ATOM     37  O   UNL A   1      35.531  31.407  31.698  1.00  0.00    -0.246 OA
BRANCH  36  38
ATOM     38  C   UNL A   1      36.750  31.295  29.644  1.00  0.00     0.060 A 
ATOM     39  C   UNL A   1      36.516  29.939  29.451  1.00  0.00     0.016 A 
ATOM     40  C   UNL A   1      37.975  31.914  29.338  1.00  0.00     0.016 A 
ATOM     41  C   UNL A   1      37.619  29.142  29.345  1.00  0.00     0.010 A 
ATOM     42  C   UNL A   1      39.079  31.116  29.242  1.00  0.00     0.010 A 
ATOM     43  C   UNL A   1      38.883  29.749  29.383  1.00  0.00    -0.014 A 
BRANCH  43  44
ATOM     44  C   UNL A   1      40.009  28.873  29.565  1.00  0.00     0.031 A 
ATOM     45  C   UNL A   1      40.409  28.809  30.973  1.00  0.00     0.074 A 
ATOM     46  C   UNL A   1      40.583  28.214  28.545  1.00  0.00     0.049 A 
ATOM     47  N   UNL A   1      41.431  29.374  31.516  1.00  0.00    -0.248 NA
ATOM     48  C   UNL A   1      39.445  28.235  31.923  1.00  0.00     0.031 C 
ATOM     49  C   UNL A   1      40.047  28.018  27.193  1.00  0.00     0.029 A 
ATOM     50  N   UNL A   1      41.737  27.490  28.533  1.00  0.00    -0.354 N 
ATOM     51  C   UNL A   1      41.378  28.982  32.844  1.00  0.00     0.074 A 
ATOM     52  C   UNL A   1      40.042  28.505  33.084  1.00  0.00     0.031 C 
ATOM     53  C   UNL A   1      40.751  27.041  26.576  1.00  0.00     0.029 A 
ATOM     54  C   UNL A   1      41.869  26.667  27.425  1.00  0.00     0.049 A 
ATOM     55  H   UNL A   1      42.415  27.547  29.245  1.00  0.00     0.167 HD
ATOM     56  C   UNL A   1      42.533  28.726  33.508  1.00  0.00     0.037 A 
ATOM     57  C   UNL A   1      42.802  25.701  27.261  1.00  0.00     0.037 A 
ATOM     58  C   UNL A   1      43.670  29.291  32.824  1.00  0.00     0.049 A 
ATOM     59  C   UNL A   1      43.944  26.004  28.156  1.00  0.00     0.074 A 
ATOM     60  C   UNL A   1      44.269  30.525  32.714  1.00  0.00     0.029 A 
ATOM     61  N   UNL A   1      44.137  28.518  31.794  1.00  0.00    -0.354 N 
ATOM     62  N   UNL A   1      44.723  27.039  28.001  1.00  0.00    -0.248 NA
ATOM     63  C   UNL A   1      44.033  25.348  29.458  1.00  0.00     0.031 C 
ATOM     64  C   UNL A   1      45.056  30.491  31.524  1.00  0.00     0.029 A 
ATOM     65  C   UNL A   1      44.931  29.234  30.939  1.00  0.00     0.049 A 
ATOM     66  H   UNL A   1      43.926  27.563  31.682  1.00  0.00     0.167 HD
ATOM     67  C   UNL A   1      45.068  27.404  29.287  1.00  0.00     0.074 A 
ATOM     68  C   UNL A   1      44.774  26.245  30.117  1.00  0.00     0.031 C 
ATOM     69  C   UNL A   1      45.232  28.713  29.626  1.00  0.00     0.037 A 
BRANCH  56  70
ATOM     70  C   UNL A   1      42.702  27.550  34.439  1.00  0.00     0.057 A 
ATOM     71  C   UNL A   1      42.547  27.759  35.819  1.00  0.00     0.134 A 
ATOM     72  C   UNL A   1      43.306  26.326  34.080  1.00  0.00     0.134 A 
ATOM     73  F   UNL A   1      42.011  28.897  36.285  1.00  0.00    -0.206 F 
ATOM     74  C   UNL A   1      43.009  26.840  36.769  1.00  0.00     0.040 A 
ATOM     75  C   UNL A   1      43.720  25.379  35.017  1.00  0.00     0.040 A 
ATOM     76  F   UNL A   1      43.630  26.020  32.818  1.00  0.00    -0.206 F 
ATOM     77  C   UNL A   1      43.600  25.648  36.370  1.00  0.00     0.006 A 
ENDBRANCH  56  70
BRANCH  57  78
ATOM     78  C   UNL A   1      42.634  24.390  26.604  1.00  0.00     0.057 A 
ATOM     79  C   UNL A   1      43.367  24.049  25.462  1.00  0.00     0.134 A 
ATOM     80  C   UNL A   1      41.954  23.340  27.246  1.00  0.00     0.134 A 
ATOM     81  F   UNL A   1      44.078  24.979  24.808  1.00  0.00    -0.206 F 
ATOM     82  C   UNL A   1      43.443  22.731  24.996  1.00  0.00     0.040 A 
ATOM     83  C   UNL A   1      42.017  22.021  26.789  1.00  0.00     0.040 A 
ATOM     84  F   UNL A   1      41.282  23.547  28.388  1.00  0.00    -0.206 F 
ATOM     85  C   UNL A   1      42.776  21.709  25.669  1.00  0.00     0.006 A 
ENDBRANCH  57  78
BRANCH  69  86
ATOM     86  C   UNL A   1      45.566  29.672  28.530  1.00  0.00     0.057 A 
ATOM     87  C   UNL A   1      44.620  30.417  27.814  1.00  0.00     0.134 A 
ATOM     88  C   UNL A   1      46.914  29.895  28.230  1.00  0.00     0.134 A 
ATOM     89  F   UNL A   1      43.312  30.313  28.086  1.00  0.00    -0.206 F 
ATOM     90  C   UNL A   1      45.002  31.318  26.816  1.00  0.00     0.040 A 
ATOM     91  C   UNL A   1      47.311  30.812  27.256  1.00  0.00     0.040 A 
ATOM     92  F   UNL A   1      47.874  29.241  28.904  1.00  0.00    -0.206 F 
ATOM     93  C   UNL A   1      46.351  31.521  26.539  1.00  0.00     0.006 A 
ENDBRANCH  69  86
ENDBRANCH  43  44
ENDBRANCH  36  38
ENDBRANCH  35  36
ENDBRANCH  34  35
ENDBRANCH  33  34
ENDBRANCH  32  33
ENDBRANCH  31  32
ENDBRANCH  30  31
ENDBRANCH  29  30
ENDBRANCH  28  29
ENDBRANCH   1  28
TORSDOF 25
ENDMDL
MODEL 2
REMARK VINA RESULT:      -9.1      1.385      2.809
REMARK SMILES CCn1ccc([C@@H](C)NC(=O)[C@H](C)n2ccc(C(=O)OCCOCCOCCOCCOC(=O)c3ccc(-c4c5nc(c(-c6c(F)cccc6F)c6ccc([nH]6)c(-c6c(F)cccc6F)c6nc(c(-c7c(F)cccc7F)c7ccc4[nH]7)C=C6)C=C5)cc3)n2)n1
REMARK SMILES IDX 24 1 23 2 22 3 21 4 20 5 18 6 19 7 17 8 14 9 15 10 89 11
REMARK SMILES IDX 16 12 12 13 13 14 10 15 9 16 11 18 7 19 8 20 6 21 3 22 4 23
REMARK SMILES IDX 90 24 5 25 2 26 1 27 25 28 26 29 27 30 28 31 29 32 30 33
REMARK SMILES IDX 31 34 32 35 33 36 34 37 35 38 36 39 88 40 37 41 87 42 38 43
REMARK SMILES IDX 39 44 40 45 81 46 41 47 86 48 80 49 82 50 42 51 85 52 79 53
REMARK SMILES IDX 78 54 43 56 69 57 52 58 68 59 53 60 56 61 67 62 83 63 54 64
REMARK SMILES IDX 55 65 66 67 84 68 57 69 44 70 45 71 50 72 46 73 47 74 49 75
REMARK SMILES IDX 51 76 48 77 70 78 71 79 76 80 72 81 73 82 75 83 77 84 74 85
REMARK SMILES IDX 58 86 59 87 64 88 60 89 61 90 63 91 65 92 62 93
REMARK H PARENT 9 17 82 55 56 66
REMARK Flexibility Score: inf
ROOT
ATOM      1  C   UNL A   1      33.773  28.092  24.639  1.00  0.00     0.188 C 
ENDROOT
BRANCH   1   2
ATOM      2  O   UNL A   1      33.389  29.042  23.659  1.00  0.00    -0.376 OA
BRANCH   2   3
ATOM      3  C   UNL A   1      32.162  28.893  22.981  1.00  0.00     0.202 C 
BRANCH   3   4
ATOM      4  C   UNL A   1      31.936  27.528  22.318  1.00  0.00     0.261 C 
BRANCH   4   5
ATOM      5  O   UNL A   1      33.118  26.746  22.111  1.00  0.00    -0.458 OA
BRANCH   5   6
ATOM      6  C   UNL A   1      32.988  25.622  21.353  1.00  0.00     0.358 C 
ATOM      7  O   UNL A   1      32.984  25.619  20.124  1.00  0.00    -0.244 OA
BRANCH   6   8
ATOM      8  C   UNL A   1      33.075  24.400  22.164  1.00  0.00     0.170 A 
ATOM      9  N   UNL A   1      33.874  22.758  23.269  1.00  0.00    -0.260 N 
ATOM     10  C   UNL A   1      32.528  22.512  23.201  1.00  0.00     0.110 A 
ATOM     11  N   UNL A   1      34.239  23.823  22.521  1.00  0.00    -0.165 NA
ATOM     12  C   UNL A   1      31.976  23.598  22.568  1.00  0.00     0.057 A 
BRANCH   9  13
ATOM     13  C   UNL A   1      34.877  21.963  23.982  1.00  0.00     0.193 C 
ATOM     14  C   UNL A   1      35.887  22.821  24.754  1.00  0.00     0.044 C 
BRANCH  13  15
ATOM     15  C   UNL A   1      34.184  21.034  24.977  1.00  0.00     0.245 C 
ATOM     16  N   UNL A   1      33.824  21.458  26.220  1.00  0.00    -0.346 N 
ATOM     17  H   UNL A   1      33.489  20.746  26.812  1.00  0.00     0.164 HD
ATOM     18  O   UNL A   1      33.965  19.847  24.713  1.00  0.00    -0.273 OA
BRANCH  16  19
ATOM     19  C   UNL A   1      33.849  22.785  26.828  1.00  0.00     0.130 C 
ATOM     20  C   UNL A   1      34.133  22.679  28.324  1.00  0.00     0.038 C 
BRANCH  19  21
ATOM     21  C   UNL A   1      32.524  23.446  26.554  1.00  0.00     0.084 A 
ATOM     22  N   UNL A   1      31.157  24.973  25.993  1.00  0.00    -0.273 N 
ATOM     23  C   UNL A   1      30.367  23.912  26.337  1.00  0.00     0.109 A 
ATOM     24  N   UNL A   1      32.474  24.709  26.103  1.00  0.00    -0.176 NA
ATOM     25  C   UNL A   1      31.222  22.904  26.707  1.00  0.00     0.047 A 
BRANCH  22  26
ATOM     26  C   UNL A   1      30.674  26.268  25.552  1.00  0.00     0.141 C 
ATOM     27  C   UNL A   1      29.389  26.247  24.737  1.00  0.00     0.029 C 
ENDBRANCH  22  26
ENDBRANCH  19  21
ENDBRANCH  16  19
ENDBRANCH  13  15
ENDBRANCH   9  13
ENDBRANCH   6   8
ENDBRANCH   5   6
ENDBRANCH   4   5
ENDBRANCH   3   4
ENDBRANCH   2   3
ENDBRANCH   1   2
BRANCH   1  28
ATOM     28  C   UNL A   1      34.132  28.713  26.010  1.00  0.00     0.188 C 
BRANCH  28  29
ATOM     29  O   UNL A   1      33.328  28.511  27.172  1.00  0.00    -0.377 OA
BRANCH  29  30
ATOM     30  C   UNL A   1      32.202  29.349  27.369  1.00  0.00     0.188 C 
BRANCH  30  31
ATOM     31  C   UNL A   1      32.306  30.726  26.672  1.00  0.00     0.188 C 
BRANCH  31  32
ATOM     32  O   UNL A   1      32.858  31.781  27.441  1.00  0.00    -0.376 OA
BRANCH  32  33
ATOM     33  C   UNL A   1      34.083  31.753  28.152  1.00  0.00     0.202 C 
BRANCH  33  34
ATOM     34  C   UNL A   1      34.437  32.539  29.413  1.00  0.00     0.261 C 
BRANCH  34  35
ATOM     35  O   UNL A   1      35.797  32.580  29.743  1.00  0.00    -0.460 OA
BRANCH  35  36
ATOM     36  C   UNL A   1      36.270  31.472  30.314  1.00  0.00     0.338 C 
ATOM     37  O   UNL A   1      35.961  31.008  31.410  1.00  0.00    -0.246 OA
BRANCH  36  38
ATOM     38  C   UNL A   1      37.314  30.938  29.440  1.00  0.00     0.060 A 
ATOM     39  C   UNL A   1      37.076  29.649  28.977  1.00  0.00     0.016 A 
ATOM     40  C   UNL A   1      38.600  31.501  29.515  1.00  0.00     0.016 A 
ATOM     41  C   UNL A   1      38.142  28.796  28.983  1.00  0.00     0.010 A 
ATOM     42  C   UNL A   1      39.665  30.645  29.530  1.00  0.00     0.010 A 
ATOM     43  C   UNL A   1      39.387  29.292  29.395  1.00  0.00    -0.014 A 
BRANCH  43  44
ATOM     44  C   UNL A   1      40.407  28.316  29.670  1.00  0.00     0.031 A 
ATOM     45  C   UNL A   1      40.805  28.345  31.080  1.00  0.00     0.074 A 
ATOM     46  C   UNL A   1      40.897  27.498  28.724  1.00  0.00     0.049 A 
ATOM     47  N   UNL A   1      41.887  28.841  31.571  1.00  0.00    -0.248 NA
ATOM     48  C   UNL A   1      39.786  27.982  32.076  1.00  0.00     0.031 C 
ATOM     49  C   UNL A   1      40.334  27.232  27.394  1.00  0.00     0.029 A 
ATOM     50  N   UNL A   1      41.960  26.650  28.790  1.00  0.00    -0.354 N 
ATOM     51  C   UNL A   1      41.796  28.590  32.931  1.00  0.00     0.074 A 
ATOM     52  C   UNL A   1      40.416  28.295  33.209  1.00  0.00     0.031 C 
ATOM     53  C   UNL A   1      40.919  26.125  26.882  1.00  0.00     0.029 A 
ATOM     54  C   UNL A   1      41.991  25.711  27.769  1.00  0.00     0.049 A 
ATOM     55  H   UNL A   1      42.644  26.698  29.497  1.00  0.00     0.167 HD
ATOM     56  C   UNL A   1      42.918  28.271  33.624  1.00  0.00     0.037 A 
ATOM     57  C   UNL A   1      42.807  24.633  27.708  1.00  0.00     0.037 A 
ATOM     58  C   UNL A   1      44.108  28.632  32.895  1.00  0.00     0.049 A 
ATOM     59  C   UNL A   1      43.981  24.891  28.576  1.00  0.00     0.074 A 
ATOM     60  C   UNL A   1      44.844  29.773  32.667  1.00  0.00     0.029 A 
ATOM     61  N   UNL A   1      44.478  27.713  31.949  1.00  0.00    -0.354 N 
ATOM     62  N   UNL A   1      44.872  25.810  28.324  1.00  0.00    -0.248 NA
ATOM     63  C   UNL A   1      44.001  24.361  29.937  1.00  0.00     0.031 C 
ATOM     64  C   UNL A   1      45.616  29.532  31.491  1.00  0.00     0.029 A 
ATOM     65  C   UNL A   1      45.345  28.246  31.033  1.00  0.00     0.049 A 
ATOM     66  H   UNL A   1      44.160  26.782  31.930  1.00  0.00     0.167 HD
ATOM     67  C   UNL A   1      45.263  26.258  29.570  1.00  0.00     0.074 A 
ATOM     68  C   UNL A   1      44.843  25.227  30.508  1.00  0.00     0.031 C 
ATOM     69  C   UNL A   1      45.578  27.567  29.779  1.00  0.00     0.037 A 
BRANCH  56  70
ATOM     70  C   UNL A   1      42.956  27.182  34.668  1.00  0.00     0.057 A 
ATOM     71  C   UNL A   1      43.034  25.846  34.243  1.00  0.00     0.134 A 
ATOM     72  C   UNL A   1      42.610  27.362  36.025  1.00  0.00     0.134 A 
ATOM     73  F   UNL A   1      43.328  25.548  32.968  1.00  0.00    -0.206 F 
ATOM     74  C   UNL A   1      42.735  24.774  35.091  1.00  0.00     0.040 A 
ATOM     75  C   UNL A   1      42.364  26.298  36.894  1.00  0.00     0.040 A 
ATOM     76  F   UNL A   1      42.382  28.567  36.561  1.00  0.00    -0.206 F 
ATOM     77  C   UNL A   1      42.395  24.998  36.420  1.00  0.00     0.006 A 
ENDBRANCH  56  70
BRANCH  57  78
ATOM     78  C   UNL A   1      42.487  23.292  27.182  1.00  0.00     0.057 A 
ATOM     79  C   UNL A   1      43.329  22.648  26.269  1.00  0.00     0.134 A 
ATOM     80  C   UNL A   1      41.491  22.499  27.779  1.00  0.00     0.134 A 
ATOM     81  F   UNL A   1      44.331  23.317  25.681  1.00  0.00    -0.206 F 
ATOM     82  C   UNL A   1      43.205  21.283  25.981  1.00  0.00     0.040 A 
ATOM     83  C   UNL A   1      41.352  21.137  27.498  1.00  0.00     0.040 A 
ATOM     84  F   UNL A   1      40.678  23.001  28.720  1.00  0.00    -0.206 F 
ATOM     85  C   UNL A   1      42.222  20.521  26.607  1.00  0.00     0.006 A 
ENDBRANCH  57  78
BRANCH  69  86
ATOM     86  C   UNL A   1      46.014  28.369  28.596  1.00  0.00     0.057 A 
ATOM     87  C   UNL A   1      47.306  28.341  28.055  1.00  0.00     0.134 A 
ATOM     88  C   UNL A   1      45.063  29.158  27.941  1.00  0.00     0.134 A 
ATOM     89  F   UNL A   1      48.258  27.560  28.581  1.00  0.00    -0.206 F 
ATOM     90  C   UNL A   1      47.642  29.099  26.929  1.00  0.00     0.040 A 
ATOM     91  C   UNL A   1      45.378  29.896  26.800  1.00  0.00     0.040 A 
ATOM     92  F   UNL A   1      43.796  29.200  28.387  1.00  0.00    -0.206 F 
ATOM     93  C   UNL A   1      46.675  29.875  26.296  1.00  0.00     0.006 A 
ENDBRANCH  69  86
ENDBRANCH  43  44
ENDBRANCH  36  38
ENDBRANCH  35  36
ENDBRANCH  34  35
ENDBRANCH  33  34
ENDBRANCH  32  33
ENDBRANCH  31  32
ENDBRANCH  30  31
ENDBRANCH  29  30
ENDBRANCH  28  29
ENDBRANCH   1  28
TORSDOF 25
ENDMDL
MODEL 3
REMARK VINA RESULT:      -8.4      1.407      2.617
REMARK SMILES CCn1ccc([C@@H](C)NC(=O)[C@H](C)n2ccc(C(=O)OCCOCCOCCOCCOC(=O)c3ccc(-c4c5nc(c(-c6c(F)cccc6F)c6ccc([nH]6)c(-c6c(F)cccc6F)c6nc(c(-c7c(F)cccc7F)c7ccc4[nH]7)C=C6)C=C5)cc3)n2)n1
REMARK SMILES IDX 24 1 23 2 22 3 21 4 20 5 18 6 19 7 17 8 14 9 15 10 89 11
REMARK SMILES IDX 16 12 12 13 13 14 10 15 9 16 11 18 7 19 8 20 6 21 3 22 4 23
REMARK SMILES IDX 90 24 5 25 2 26 1 27 25 28 26 29 27 30 28 31 29 32 30 33
REMARK SMILES IDX 31 34 32 35 33 36 34 37 35 38 36 39 88 40 37 41 87 42 38 43
REMARK SMILES IDX 39 44 40 45 81 46 41 47 86 48 80 49 82 50 42 51 85 52 79 53
REMARK SMILES IDX 78 54 43 56 69 57 52 58 68 59 53 60 56 61 67 62 83 63 54 64
REMARK SMILES IDX 55 65 66 67 84 68 57 69 44 70 45 71 50 72 46 73 47 74 49 75
REMARK SMILES IDX 51 76 48 77 70 78 71 79 76 80 72 81 73 82 75 83 77 84 74 85
REMARK SMILES IDX 58 86 59 87 64 88 60 89 61 90 63 91 65 92 62 93
REMARK H PARENT 9 17 82 55 56 66
REMARK Flexibility Score: inf
ROOT
ATOM      1  C   UNL A   1      33.317  28.471  24.181  1.00  0.00     0.188 C 
ENDROOT
BRANCH   1   2
ATOM      2  O   UNL A   1      32.730  29.267  23.166  1.00  0.00    -0.376 OA
BRANCH   2   3
ATOM      3  C   UNL A   1      31.407  29.011  22.751  1.00  0.00     0.202 C 
BRANCH   3   4
ATOM      4  C   UNL A   1      30.941  27.556  22.891  1.00  0.00     0.261 C 
BRANCH   4   5
ATOM      5  O   UNL A   1      31.873  26.569  22.433  1.00  0.00    -0.458 OA
BRANCH   5   6
ATOM      6  C   UNL A   1      31.808  25.342  23.021  1.00  0.00     0.358 C 
ATOM      7  O   UNL A   1      31.046  24.448  22.661  1.00  0.00    -0.244 OA
BRANCH   6   8
ATOM      8  C   UNL A   1      32.900  25.135  23.982  1.00  0.00     0.170 A 
ATOM      9  N   UNL A   1      34.771  24.543  24.821  1.00  0.00    -0.260 N 
ATOM     10  C   UNL A   1      34.037  24.994  25.885  1.00  0.00     0.110 A 
ATOM     11  N   UNL A   1      34.043  24.488  23.683  1.00  0.00    -0.165 NA
ATOM     12  C   UNL A   1      32.858  25.462  25.362  1.00  0.00     0.057 A 
BRANCH   9  13
ATOM     13  C   UNL A   1      36.162  24.083  24.845  1.00  0.00     0.193 C 
ATOM     14  C   UNL A   1      36.562  23.446  26.182  1.00  0.00     0.044 C 
BRANCH  13  15
ATOM     15  C   UNL A   1      36.380  23.049  23.742  1.00  0.00     0.245 C 
ATOM     16  N   UNL A   1      36.013  21.747  23.900  1.00  0.00    -0.346 N 
ATOM     17  H   UNL A   1      36.304  21.151  23.172  1.00  0.00     0.164 HD
ATOM     18  O   UNL A   1      36.941  23.340  22.681  1.00  0.00    -0.273 OA
BRANCH  16  19
ATOM     19  C   UNL A   1      35.265  21.081  24.961  1.00  0.00     0.130 C 
ATOM     20  C   UNL A   1      35.604  19.592  24.998  1.00  0.00     0.038 C 
BRANCH  19  21
ATOM     21  C   UNL A   1      33.798  21.315  24.713  1.00  0.00     0.084 A 
ATOM     22  N   UNL A   1      31.777  21.809  25.144  1.00  0.00    -0.273 N 
ATOM     23  C   UNL A   1      31.779  21.489  23.815  1.00  0.00     0.109 A 
ATOM     24  N   UNL A   1      32.997  21.725  25.709  1.00  0.00    -0.176 NA
ATOM     25  C   UNL A   1      33.076  21.162  23.503  1.00  0.00     0.047 A 
BRANCH  22  26
ATOM     26  C   UNL A   1      30.608  22.203  25.908  1.00  0.00     0.141 C 
ATOM     27  C   UNL A   1      30.854  23.235  26.999  1.00  0.00     0.029 C 
ENDBRANCH  22  26
ENDBRANCH  19  21
ENDBRANCH  16  19
ENDBRANCH  13  15
ENDBRANCH   9  13
ENDBRANCH   6   8
ENDBRANCH   5   6
ENDBRANCH   4   5
ENDBRANCH   3   4
ENDBRANCH   2   3
ENDBRANCH   1   2
BRANCH   1  28
ATOM     28  C   UNL A   1      33.826  29.279  25.399  1.00  0.00     0.188 C 
BRANCH  28  29
ATOM     29  O   UNL A   1      33.412  28.986  26.734  1.00  0.00    -0.377 OA
BRANCH  29  30
ATOM     30  C   UNL A   1      32.268  29.647  27.247  1.00  0.00     0.188 C 
BRANCH  30  31
ATOM     31  C   UNL A   1      32.145  31.128  26.818  1.00  0.00     0.188 C 
BRANCH  31  32
ATOM     32  O   UNL A   1      32.820  32.076  27.627  1.00  0.00    -0.376 OA
BRANCH  32  33
ATOM     33  C   UNL A   1      34.099  31.921  28.218  1.00  0.00     0.202 C 
BRANCH  33  34
ATOM     34  C   UNL A   1      34.690  32.733  29.368  1.00  0.00     0.261 C 
BRANCH  34  35
ATOM     35  O   UNL A   1      36.061  32.558  29.595  1.00  0.00    -0.460 OA
BRANCH  35  36
ATOM     36  C   UNL A   1      36.389  31.415  30.199  1.00  0.00     0.338 C 
ATOM     37  O   UNL A   1      36.038  31.033  31.313  1.00  0.00    -0.246 OA
BRANCH  36  38
ATOM     38  C   UNL A   1      37.336  30.716  29.330  1.00  0.00     0.060 A 
ATOM     39  C   UNL A   1      37.041  29.375  29.116  1.00  0.00     0.016 A 
ATOM     40  C   UNL A   1      38.629  31.250  29.185  1.00  0.00     0.016 A 
ATOM     41  C   UNL A   1      38.094  28.507  29.162  1.00  0.00     0.010 A 
ATOM     42  C   UNL A   1      39.681  30.381  29.242  1.00  0.00     0.010 A 
ATOM     43  C   UNL A   1      39.379  29.033  29.364  1.00  0.00    -0.014 A 
BRANCH  43  44
ATOM     44  C   UNL A   1      40.411  28.089  29.700  1.00  0.00     0.031 A 
ATOM     45  C   UNL A   1      40.785  28.191  31.113  1.00  0.00     0.074 A 
ATOM     46  C   UNL A   1      40.931  27.237  28.800  1.00  0.00     0.049 A 
ATOM     47  N   UNL A   1      41.850  28.729  31.596  1.00  0.00    -0.248 NA
ATOM     48  C   UNL A   1      39.757  27.856  32.109  1.00  0.00     0.031 C 
ATOM     49  C   UNL A   1      40.395  26.900  27.476  1.00  0.00     0.029 A 
ATOM     50  N   UNL A   1      42.008  26.413  28.922  1.00  0.00    -0.354 N 
ATOM     51  C   UNL A   1      41.741  28.540  32.966  1.00  0.00     0.074 A 
ATOM     52  C   UNL A   1      40.362  28.233  33.235  1.00  0.00     0.031 C 
ATOM     53  C   UNL A   1      41.007  25.781  27.025  1.00  0.00     0.029 A 
ATOM     54  C   UNL A   1      42.073  25.429  27.947  1.00  0.00     0.049 A 
ATOM     55  H   UNL A   1      42.679  26.507  29.637  1.00  0.00     0.167 HD
ATOM     56  C   UNL A   1      42.857  28.275  33.690  1.00  0.00     0.037 A 
ATOM     57  C   UNL A   1      42.908  24.365  27.948  1.00  0.00     0.037 A 
ATOM     58  C   UNL A   1      44.052  28.623  32.963  1.00  0.00     0.049 A 
ATOM     59  C   UNL A   1      44.063  24.684  28.822  1.00  0.00     0.074 A 
ATOM     60  C   UNL A   1      44.771  29.766  32.694  1.00  0.00     0.029 A 
ATOM     61  N   UNL A   1      44.454  27.668  32.067  1.00  0.00    -0.354 N 
ATOM     62  N   UNL A   1      44.941  25.607  28.541  1.00  0.00    -0.248 NA
ATOM     63  C   UNL A   1      44.070  24.218  30.206  1.00  0.00     0.031 C 
ATOM     64  C   UNL A   1      45.566  29.485  31.542  1.00  0.00     0.029 A 
ATOM     65  C   UNL A   1      45.326  28.174  31.140  1.00  0.00     0.049 A 
ATOM     66  H   UNL A   1      44.153  26.732  32.087  1.00  0.00     0.167 HD
ATOM     67  C   UNL A   1      45.304  26.120  29.771  1.00  0.00     0.074 A 
ATOM     68  C   UNL A   1      44.887  25.126  30.749  1.00  0.00     0.031 C 
ATOM     69  C   UNL A   1      45.592  27.442  29.923  1.00  0.00     0.037 A 
BRANCH  56  70
ATOM     70  C   UNL A   1      42.898  27.235  34.784  1.00  0.00     0.057 A 
ATOM     71  C   UNL A   1      42.915  25.880  34.422  1.00  0.00     0.134 A 
ATOM     72  C   UNL A   1      42.609  27.493  36.141  1.00  0.00     0.134 A 
ATOM     73  F   UNL A   1      43.152  25.510  33.154  1.00  0.00    -0.206 F 
ATOM     74  C   UNL A   1      42.613  24.860  35.332  1.00  0.00     0.040 A 
ATOM     75  C   UNL A   1      42.359  26.480  37.070  1.00  0.00     0.040 A 
ATOM     76  F   UNL A   1      42.441  28.729  36.626  1.00  0.00    -0.206 F 
ATOM     77  C   UNL A   1      42.330  25.159  36.660  1.00  0.00     0.006 A 
ENDBRANCH  56  70
BRANCH  57  78
ATOM     78  C   UNL A   1      42.621  22.995  27.482  1.00  0.00     0.057 A 
ATOM     79  C   UNL A   1      41.393  22.378  27.749  1.00  0.00     0.134 A 
ATOM     80  C   UNL A   1      43.439  22.369  26.525  1.00  0.00     0.134 A 
ATOM     81  F   UNL A   1      40.532  22.926  28.618  1.00  0.00    -0.206 F 
ATOM     82  C   UNL A   1      40.988  21.214  27.083  1.00  0.00     0.040 A 
ATOM     83  C   UNL A   1      43.049  21.205  25.857  1.00  0.00     0.040 A 
ATOM     84  F   UNL A   1      44.602  22.917  26.144  1.00  0.00    -0.206 F 
ATOM     85  C   UNL A   1      41.813  20.632  26.124  1.00  0.00     0.006 A 
ENDBRANCH  57  78
BRANCH  69  86
ATOM     86  C   UNL A   1      46.033  28.196  28.711  1.00  0.00     0.057 A 
ATOM     87  C   UNL A   1      45.169  28.892  27.855  1.00  0.00     0.134 A 
ATOM     88  C   UNL A   1      47.402  28.270  28.435  1.00  0.00     0.134 A 
ATOM     89  F   UNL A   1      43.850  28.928  28.086  1.00  0.00    -0.206 F 
ATOM     90  C   UNL A   1      45.650  29.600  26.749  1.00  0.00     0.040 A 
ATOM     91  C   UNL A   1      47.898  28.996  27.353  1.00  0.00     0.040 A 
ATOM     92  F   UNL A   1      48.287  27.655  29.238  1.00  0.00    -0.206 F 
ATOM     93  C   UNL A   1      47.019  29.657  26.500  1.00  0.00     0.006 A 
ENDBRANCH  69  86
ENDBRANCH  43  44
ENDBRANCH  36  38
ENDBRANCH  35  36
ENDBRANCH  34  35
ENDBRANCH  33  34
ENDBRANCH  32  33
ENDBRANCH  31  32
ENDBRANCH  30  31
ENDBRANCH  29  30
ENDBRANCH  28  29
ENDBRANCH   1  28
TORSDOF 25
ENDMDL
