MODEL 1
REMARK VINA RESULT:     -10.3      0.000      0.000
REMARK SMILES C[C@@H](C(=O)OCCOCCOCCOCCOC(=O)c1ccc(-c2c3nc(c(-c4c(F)cccc4F)c4ccc([nH]4)c(-c4c(F)cccc4F)c4nc(c(-c5c(F)cccc5F)c5ccc2[nH]5)C=C4)C=C3)cc1)c1ccc(Cc2ccco2)cc1F
REMARK SMILES IDX 10 1 9 2 8 3 7 4 6 5 5 6 3 7 4 8 2 9 1 10 74 11 75 12 85 13
REMARK SMILES IDX 76 14 84 15 86 16 77 17 78 18 79 19 80 20 83 21 81 22 82 23
REMARK SMILES IDX 11 24 12 25 13 26 14 27 15 28 16 29 17 30 18 31 19 32 20 33
REMARK SMILES IDX 21 34 73 35 22 36 72 37 23 38 24 39 25 40 66 41 26 42 71 43
REMARK SMILES IDX 65 44 67 45 27 46 70 47 64 48 63 49 28 51 54 52 37 53 53 54
REMARK SMILES IDX 38 55 41 56 52 57 68 58 39 59 40 60 51 62 69 63 42 64 29 65
REMARK SMILES IDX 30 66 35 67 31 68 32 69 34 70 36 71 33 72 55 73 56 74 61 75
REMARK SMILES IDX 57 76 58 77 60 78 62 79 59 80 43 81 44 82 49 83 45 84 46 85
REMARK SMILES IDX 48 86 50 87 47 88
REMARK H PARENT 67 50 41 61
REMARK Flexibility Score: inf
ROOT
ATOM      1  C   UNL A   1      37.839  21.777  25.382  1.00  0.00     0.188 C 
ENDROOT
BRANCH   1   2
ATOM      2  C   UNL A   1      36.301  21.716  25.468  1.00  0.00     0.188 C 
BRANCH   2   3
ATOM      3  O   UNL A   1      35.514  22.273  24.423  1.00  0.00    -0.376 OA
BRANCH   3   4
ATOM      4  C   UNL A   1      34.230  21.735  24.148  1.00  0.00     0.202 C 
BRANCH   4   5
ATOM      5  C   UNL A   1      33.392  21.039  25.242  1.00  0.00     0.261 C 
BRANCH   5   6
ATOM      6  O   UNL A   1      32.199  21.705  25.709  1.00  0.00    -0.463 OA
BRANCH   6   7
ATOM      7  C   UNL A   1      32.375  22.725  26.591  1.00  0.00     0.313 C 
ATOM      8  O   UNL A   1      33.417  22.904  27.217  1.00  0.00    -0.252 OA
BRANCH   7   9
ATOM      9  C   UNL A   1      31.136  23.627  26.784  1.00  0.00     0.129 C 
ATOM     10  C   UNL A   1      29.772  22.987  27.073  1.00  0.00     0.025 C 
BRANCH   9  11
ATOM     11  C   UNL A   1      31.065  24.697  25.696  1.00  0.00     0.002 A 
ATOM     12  C   UNL A   1      30.655  24.331  24.408  1.00  0.00     0.008 A 
ATOM     13  C   UNL A   1      31.310  26.057  25.929  1.00  0.00     0.127 A 
ATOM     14  C   UNL A   1      30.464  25.296  23.415  1.00  0.00     0.005 A 
ATOM     15  C   UNL A   1      31.104  27.030  24.952  1.00  0.00     0.043 A 
ATOM     16  F   UNL A   1      31.771  26.480  27.109  1.00  0.00    -0.207 F 
ATOM     17  C   UNL A   1      30.671  26.657  23.679  1.00  0.00    -0.038 A 
BRANCH  17  18
ATOM     18  C   UNL A   1      30.486  27.694  22.597  1.00  0.00     0.111 C 
BRANCH  18  19
ATOM     19  C   UNL A   1      29.244  28.494  22.781  1.00  0.00     0.108 A 
ATOM     20  C   UNL A   1      28.950  29.837  22.652  1.00  0.00     0.046 A 
ATOM     21  O   UNL A   1      28.124  27.810  23.152  1.00  0.00    -0.469 OA
ATOM     22  C   UNL A   1      27.580  29.981  22.970  1.00  0.00     0.042 A 
ATOM     23  C   UNL A   1      27.122  28.719  23.265  1.00  0.00     0.195 A 
ENDBRANCH  18  19
ENDBRANCH  17  18
ENDBRANCH   9  11
ENDBRANCH   7   9
ENDBRANCH   6   7
ENDBRANCH   5   6
ENDBRANCH   4   5
ENDBRANCH   3   4
ENDBRANCH   2   3
ENDBRANCH   1   2
BRANCH   1  24
ATOM     24  O   UNL A   1      38.437  22.794  26.158  1.00  0.00    -0.377 OA
BRANCH  24  25
ATOM     25  C   UNL A   1      39.688  22.476  26.742  1.00  0.00     0.188 C 
BRANCH  25  26
ATOM     26  C   UNL A   1      40.398  21.190  26.279  1.00  0.00     0.188 C 
BRANCH  26  27
ATOM     27  O   UNL A   1      41.629  21.415  25.599  1.00  0.00    -0.376 OA
BRANCH  27  28
ATOM     28  C   UNL A   1      42.833  20.906  26.151  1.00  0.00     0.202 C 
BRANCH  28  29
ATOM     29  C   UNL A   1      44.152  21.563  25.709  1.00  0.00     0.261 C 
BRANCH  29  30
ATOM     30  O   UNL A   1      44.461  22.836  26.294  1.00  0.00    -0.460 OA
BRANCH  30  31
ATOM     31  C   UNL A   1      44.237  23.945  25.561  1.00  0.00     0.338 C 
ATOM     32  O   UNL A   1      44.413  24.086  24.363  1.00  0.00    -0.246 OA
BRANCH  31  33
ATOM     33  C   UNL A   1      43.533  24.916  26.426  1.00  0.00     0.060 A 
ATOM     34  C   UNL A   1      44.092  26.187  26.609  1.00  0.00     0.016 A 
ATOM     35  C   UNL A   1      42.312  24.587  27.020  1.00  0.00     0.016 A 
ATOM     36  C   UNL A   1      43.444  27.127  27.410  1.00  0.00     0.010 A 
ATOM     37  C   UNL A   1      41.680  25.519  27.848  1.00  0.00     0.010 A 
ATOM     38  C   UNL A   1      42.261  26.780  28.072  1.00  0.00    -0.014 A 
BRANCH  38  39
ATOM     39  C   UNL A   1      41.761  27.641  29.170  1.00  0.00     0.031 A 
ATOM     40  C   UNL A   1      42.474  27.581  30.492  1.00  0.00     0.074 A 
ATOM     41  C   UNL A   1      40.720  28.473  28.998  1.00  0.00     0.049 A 
ATOM     42  N   UNL A   1      42.203  28.193  31.615  1.00  0.00    -0.248 NA
ATOM     43  C   UNL A   1      43.656  26.705  30.554  1.00  0.00     0.031 C 
ATOM     44  C   UNL A   1      39.980  28.661  27.751  1.00  0.00     0.029 A 
ATOM     45  N   UNL A   1      40.101  29.316  29.888  1.00  0.00    -0.354 N 
ATOM     46  C   UNL A   1      43.171  27.769  32.516  1.00  0.00     0.074 A 
ATOM     47  C   UNL A   1      44.019  26.826  31.821  1.00  0.00     0.031 C 
ATOM     48  C   UNL A   1      38.997  29.555  27.961  1.00  0.00     0.029 A 
ATOM     49  C   UNL A   1      39.018  29.975  29.361  1.00  0.00     0.049 A 
ATOM     50  H   UNL A   1      40.405  29.435  30.817  1.00  0.00     0.167 HD
ATOM     51  C   UNL A   1      43.343  28.137  33.808  1.00  0.00     0.037 A 
ATOM     52  C   UNL A   1      38.134  30.801  29.954  1.00  0.00     0.037 A 
ATOM     53  C   UNL A   1      42.496  29.073  34.497  1.00  0.00     0.049 A 
ATOM     54  C   UNL A   1      38.294  31.128  31.417  1.00  0.00     0.074 A 
ATOM     55  C   UNL A   1      42.595  29.526  35.800  1.00  0.00     0.029 A 
ATOM     56  N   UNL A   1      41.383  29.688  33.941  1.00  0.00    -0.354 N 
ATOM     57  N   UNL A   1      39.225  30.744  32.257  1.00  0.00    -0.248 NA
ATOM     58  C   UNL A   1      37.277  32.006  32.016  1.00  0.00     0.031 C 
ATOM     59  C   UNL A   1      41.507  30.366  36.052  1.00  0.00     0.029 A 
ATOM     60  C   UNL A   1      40.768  30.492  34.886  1.00  0.00     0.049 A 
ATOM     61  H   UNL A   1      41.078  29.570  33.012  1.00  0.00     0.167 HD
ATOM     62  C   UNL A   1      38.929  31.361  33.467  1.00  0.00     0.074 A 
ATOM     63  C   UNL A   1      37.737  32.152  33.251  1.00  0.00     0.031 C 
ATOM     64  C   UNL A   1      39.586  31.283  34.651  1.00  0.00     0.037 A 
BRANCH  51  65
ATOM     65  C   UNL A   1      44.466  27.493  34.566  1.00  0.00     0.057 A 
ATOM     66  C   UNL A   1      44.309  26.278  35.246  1.00  0.00     0.134 A 
ATOM     67  C   UNL A   1      45.733  28.091  34.599  1.00  0.00     0.134 A 
ATOM     68  F   UNL A   1      43.117  25.662  35.271  1.00  0.00    -0.206 F 
ATOM     69  C   UNL A   1      45.363  25.694  35.951  1.00  0.00     0.040 A 
ATOM     70  C   UNL A   1      46.803  27.501  35.274  1.00  0.00     0.040 A 
ATOM     71  F   UNL A   1      45.953  29.254  33.969  1.00  0.00    -0.206 F 
ATOM     72  C   UNL A   1      46.617  26.302  35.959  1.00  0.00     0.006 A 
ENDBRANCH  51  65
BRANCH  52  73
ATOM     73  C   UNL A   1      37.002  31.372  29.176  1.00  0.00     0.057 A 
ATOM     74  C   UNL A   1      37.018  32.703  28.741  1.00  0.00     0.134 A 
ATOM     75  C   UNL A   1      35.864  30.613  28.879  1.00  0.00     0.134 A 
ATOM     76  F   UNL A   1      38.067  33.491  29.017  1.00  0.00    -0.206 F 
ATOM     77  C   UNL A   1      35.935  33.264  28.060  1.00  0.00     0.040 A 
ATOM     78  C   UNL A   1      34.786  31.152  28.173  1.00  0.00     0.040 A 
ATOM     79  F   UNL A   1      35.783  29.332  29.267  1.00  0.00    -0.206 F 
ATOM     80  C   UNL A   1      34.817  32.485  27.770  1.00  0.00     0.006 A 
ENDBRANCH  52  73
BRANCH  64  81
ATOM     81  C   UNL A   1      39.063  32.110  35.792  1.00  0.00     0.057 A 
ATOM     82  C   UNL A   1      38.207  31.580  36.766  1.00  0.00     0.134 A 
ATOM     83  C   UNL A   1      39.464  33.444  35.943  1.00  0.00     0.134 A 
ATOM     84  F   UNL A   1      37.778  30.312  36.677  1.00  0.00    -0.206 F 
ATOM     85  C   UNL A   1      37.747  32.356  37.832  1.00  0.00     0.040 A 
ATOM     86  C   UNL A   1      39.036  34.220  37.021  1.00  0.00     0.040 A 
ATOM     87  F   UNL A   1      40.293  34.012  35.054  1.00  0.00    -0.206 F 
ATOM     88  C   UNL A   1      38.168  33.677  37.966  1.00  0.00     0.006 A 
ENDBRANCH  64  81
ENDBRANCH  38  39
ENDBRANCH  31  33
ENDBRANCH  30  31
ENDBRANCH  29  30
ENDBRANCH  28  29
ENDBRANCH  27  28
ENDBRANCH  26  27
ENDBRANCH  25  26
ENDBRANCH  24  25
ENDBRANCH   1  24
TORSDOF 23
ENDMDL
MODEL 2
REMARK VINA RESULT:      -9.8      3.946      6.284
REMARK SMILES C[C@@H](C(=O)OCCOCCOCCOCCOC(=O)c1ccc(-c2c3nc(c(-c4c(F)cccc4F)c4ccc([nH]4)c(-c4c(F)cccc4F)c4nc(c(-c5c(F)cccc5F)c5ccc2[nH]5)C=C4)C=C3)cc1)c1ccc(Cc2ccco2)cc1F
REMARK SMILES IDX 10 1 9 2 8 3 7 4 6 5 5 6 3 7 4 8 2 9 1 10 74 11 75 12 85 13
REMARK SMILES IDX 76 14 84 15 86 16 77 17 78 18 79 19 80 20 83 21 81 22 82 23
REMARK SMILES IDX 11 24 12 25 13 26 14 27 15 28 16 29 17 30 18 31 19 32 20 33
REMARK SMILES IDX 21 34 73 35 22 36 72 37 23 38 24 39 25 40 66 41 26 42 71 43
REMARK SMILES IDX 65 44 67 45 27 46 70 47 64 48 63 49 28 51 54 52 37 53 53 54
REMARK SMILES IDX 38 55 41 56 52 57 68 58 39 59 40 60 51 62 69 63 42 64 29 65
REMARK SMILES IDX 30 66 35 67 31 68 32 69 34 70 36 71 33 72 55 73 56 74 61 75
REMARK SMILES IDX 57 76 58 77 60 78 62 79 59 80 43 81 44 82 49 83 45 84 46 85
REMARK SMILES IDX 48 86 50 87 47 88
REMARK H PARENT 67 50 41 61
REMARK Flexibility Score: inf
ROOT
ATOM      1  C   UNL A   1      34.544  24.568  25.857  1.00  0.00     0.188 C 
ENDROOT
BRANCH   1   2
ATOM      2  C   UNL A   1      33.557  25.750  25.923  1.00  0.00     0.188 C 
BRANCH   2   3
ATOM      3  O   UNL A   1      33.959  27.032  25.460  1.00  0.00    -0.376 OA
BRANCH   3   4
ATOM      4  C   UNL A   1      33.284  27.627  24.364  1.00  0.00     0.202 C 
BRANCH   4   5
ATOM      5  C   UNL A   1      33.525  27.158  22.912  1.00  0.00     0.261 C 
BRANCH   5   6
ATOM      6  O   UNL A   1      33.198  25.792  22.578  1.00  0.00    -0.463 OA
BRANCH   6   7
ATOM      7  C   UNL A   1      31.968  25.572  22.040  1.00  0.00     0.313 C 
ATOM      8  O   UNL A   1      31.653  25.928  20.907  1.00  0.00    -0.252 OA
BRANCH   7   9
ATOM      9  C   UNL A   1      30.969  24.875  22.989  1.00  0.00     0.129 C 
ATOM     10  C   UNL A   1      30.201  25.706  24.024  1.00  0.00     0.025 C 
BRANCH   9  11
ATOM     11  C   UNL A   1      31.578  23.607  23.587  1.00  0.00     0.002 A 
ATOM     12  C   UNL A   1      32.605  22.955  22.895  1.00  0.00     0.008 A 
ATOM     13  C   UNL A   1      31.222  23.094  24.842  1.00  0.00     0.127 A 
ATOM     14  C   UNL A   1      33.268  21.861  23.460  1.00  0.00     0.005 A 
ATOM     15  C   UNL A   1      31.889  22.018  25.423  1.00  0.00     0.043 A 
ATOM     16  F   UNL A   1      30.205  23.615  25.534  1.00  0.00    -0.207 F 
ATOM     17  C   UNL A   1      32.929  21.391  24.736  1.00  0.00    -0.038 A 
BRANCH  17  18
ATOM     18  C   UNL A   1      33.633  20.194  25.334  1.00  0.00     0.111 C 
BRANCH  18  19
ATOM     19  C   UNL A   1      33.542  18.989  24.465  1.00  0.00     0.108 A 
ATOM     20  C   UNL A   1      32.572  18.502  23.613  1.00  0.00     0.046 A 
ATOM     21  O   UNL A   1      34.620  18.152  24.464  1.00  0.00    -0.469 OA
ATOM     22  C   UNL A   1      33.080  17.299  23.071  1.00  0.00     0.042 A 
ATOM     23  C   UNL A   1      34.330  17.132  23.617  1.00  0.00     0.195 A 
ENDBRANCH  18  19
ENDBRANCH  17  18
ENDBRANCH   9  11
ENDBRANCH   7   9
ENDBRANCH   6   7
ENDBRANCH   5   6
ENDBRANCH   4   5
ENDBRANCH   3   4
ENDBRANCH   2   3
ENDBRANCH   1   2
BRANCH   1  24
ATOM     24  O   UNL A   1      35.301  24.492  24.668  1.00  0.00    -0.377 OA
BRANCH  24  25
ATOM     25  C   UNL A   1      36.462  23.682  24.721  1.00  0.00     0.188 C 
BRANCH  25  26
ATOM     26  C   UNL A   1      36.498  22.532  25.745  1.00  0.00     0.188 C 
BRANCH  26  27
ATOM     27  O   UNL A   1      37.691  21.757  25.712  1.00  0.00    -0.376 OA
BRANCH  27  28
ATOM     28  C   UNL A   1      37.789  20.663  24.813  1.00  0.00     0.202 C 
BRANCH  28  29
ATOM     29  C   UNL A   1      38.902  19.633  25.063  1.00  0.00     0.261 C 
BRANCH  29  30
ATOM     30  O   UNL A   1      39.667  19.794  26.266  1.00  0.00    -0.460 OA
BRANCH  30  31
ATOM     31  C   UNL A   1      41.010  19.699  26.185  1.00  0.00     0.338 C 
ATOM     32  O   UNL A   1      41.657  18.791  25.691  1.00  0.00    -0.246 OA
BRANCH  31  33
ATOM     33  C   UNL A   1      41.574  20.996  26.616  1.00  0.00     0.060 A 
ATOM     34  C   UNL A   1      41.621  21.291  27.985  1.00  0.00     0.016 A 
ATOM     35  C   UNL A   1      42.091  21.895  25.680  1.00  0.00     0.016 A 
ATOM     36  C   UNL A   1      42.159  22.501  28.421  1.00  0.00     0.010 A 
ATOM     37  C   UNL A   1      42.601  23.121  26.116  1.00  0.00     0.010 A 
ATOM     38  C   UNL A   1      42.606  23.442  27.485  1.00  0.00    -0.014 A 
BRANCH  38  39
ATOM     39  C   UNL A   1      42.858  24.836  27.918  1.00  0.00     0.031 A 
ATOM     40  C   UNL A   1      44.286  25.264  28.117  1.00  0.00     0.074 A 
ATOM     41  C   UNL A   1      41.855  25.711  28.107  1.00  0.00     0.049 A 
ATOM     42  N   UNL A   1      44.765  26.406  28.537  1.00  0.00    -0.248 NA
ATOM     43  C   UNL A   1      45.316  24.260  27.800  1.00  0.00     0.031 C 
ATOM     44  C   UNL A   1      40.436  25.434  27.895  1.00  0.00     0.029 A 
ATOM     45  N   UNL A   1      41.886  27.017  28.528  1.00  0.00    -0.354 N 
ATOM     46  C   UNL A   1      46.145  26.253  28.545  1.00  0.00     0.074 A 
ATOM     47  C   UNL A   1      46.428  24.902  28.117  1.00  0.00     0.031 C 
ATOM     48  C   UNL A   1      39.729  26.537  28.201  1.00  0.00     0.029 A 
ATOM     49  C   UNL A   1      40.641  27.582  28.661  1.00  0.00     0.049 A 
ATOM     50  H   UNL A   1      42.721  27.503  28.718  1.00  0.00     0.167 HD
ATOM     51  C   UNL A   1      47.093  27.162  28.875  1.00  0.00     0.037 A 
ATOM     52  C   UNL A   1      40.285  28.796  29.125  1.00  0.00     0.037 A 
ATOM     53  C   UNL A   1      46.807  28.504  29.304  1.00  0.00     0.049 A 
ATOM     54  C   UNL A   1      41.356  29.761  29.569  1.00  0.00     0.074 A 
ATOM     55  C   UNL A   1      47.697  29.507  29.643  1.00  0.00     0.029 A 
ATOM     56  N   UNL A   1      45.532  29.026  29.465  1.00  0.00    -0.354 N 
ATOM     57  N   UNL A   1      42.660  29.620  29.551  1.00  0.00    -0.248 NA
ATOM     58  C   UNL A   1      40.903  31.055  30.100  1.00  0.00     0.031 C 
ATOM     59  C   UNL A   1      46.960  30.616  30.071  1.00  0.00     0.029 A 
ATOM     60  C   UNL A   1      45.611  30.327  29.932  1.00  0.00     0.049 A 
ATOM     61  H   UNL A   1      44.696  28.542  29.276  1.00  0.00     0.167 HD
ATOM     62  C   UNL A   1      43.182  30.816  30.030  1.00  0.00     0.074 A 
ATOM     63  C   UNL A   1      42.054  31.676  30.321  1.00  0.00     0.031 C 
ATOM     64  C   UNL A   1      44.478  31.174  30.208  1.00  0.00     0.037 A 
BRANCH  51  65
ATOM     65  C   UNL A   1      48.525  26.716  28.822  1.00  0.00     0.057 A 
ATOM     66  C   UNL A   1      49.150  26.077  29.901  1.00  0.00     0.134 A 
ATOM     67  C   UNL A   1      49.285  26.911  27.661  1.00  0.00     0.134 A 
ATOM     68  F   UNL A   1      48.485  25.876  31.049  1.00  0.00    -0.206 F 
ATOM     69  C   UNL A   1      50.484  25.672  29.838  1.00  0.00     0.040 A 
ATOM     70  C   UNL A   1      50.611  26.483  27.574  1.00  0.00     0.040 A 
ATOM     71  F   UNL A   1      48.750  27.516  26.590  1.00  0.00    -0.206 F 
ATOM     72  C   UNL A   1      51.216  25.868  28.668  1.00  0.00     0.006 A 
ENDBRANCH  51  65
BRANCH  52  73
ATOM     73  C   UNL A   1      38.850  29.174  29.213  1.00  0.00     0.057 A 
ATOM     74  C   UNL A   1      38.133  29.032  30.407  1.00  0.00     0.134 A 
ATOM     75  C   UNL A   1      38.151  29.652  28.097  1.00  0.00     0.134 A 
ATOM     76  F   UNL A   1      38.737  28.554  31.504  1.00  0.00    -0.206 F 
ATOM     77  C   UNL A   1      36.770  29.331  30.483  1.00  0.00     0.040 A 
ATOM     78  C   UNL A   1      36.796  29.982  28.166  1.00  0.00     0.040 A 
ATOM     79  F   UNL A   1      38.777  29.810  26.922  1.00  0.00    -0.206 F 
ATOM     80  C   UNL A   1      36.100  29.813  29.361  1.00  0.00     0.006 A 
ENDBRANCH  52  73
BRANCH  64  81
ATOM     81  C   UNL A   1      44.753  32.569  30.697  1.00  0.00     0.057 A 
ATOM     82  C   UNL A   1      44.930  32.862  32.055  1.00  0.00     0.134 A 
ATOM     83  C   UNL A   1      44.889  33.625  29.786  1.00  0.00     0.134 A 
ATOM     84  F   UNL A   1      44.804  31.899  32.981  1.00  0.00    -0.206 F 
ATOM     85  C   UNL A   1      45.206  34.159  32.491  1.00  0.00     0.040 A 
ATOM     86  C   UNL A   1      45.196  34.920  30.207  1.00  0.00     0.040 A 
ATOM     87  F   UNL A   1      44.745  33.413  28.469  1.00  0.00    -0.206 F 
ATOM     88  C   UNL A   1      45.348  35.191  31.565  1.00  0.00     0.006 A 
ENDBRANCH  64  81
ENDBRANCH  38  39
ENDBRANCH  31  33
ENDBRANCH  30  31
ENDBRANCH  29  30
ENDBRANCH  28  29
ENDBRANCH  27  28
ENDBRANCH  26  27
ENDBRANCH  25  26
ENDBRANCH  24  25
ENDBRANCH   1  24
TORSDOF 23
ENDMDL
MODEL 3
REMARK VINA RESULT:      -9.4      5.193     10.851
REMARK SMILES C[C@@H](C(=O)OCCOCCOCCOCCOC(=O)c1ccc(-c2c3nc(c(-c4c(F)cccc4F)c4ccc([nH]4)c(-c4c(F)cccc4F)c4nc(c(-c5c(F)cccc5F)c5ccc2[nH]5)C=C4)C=C3)cc1)c1ccc(Cc2ccco2)cc1F
REMARK SMILES IDX 10 1 9 2 8 3 7 4 6 5 5 6 3 7 4 8 2 9 1 10 74 11 75 12 85 13
REMARK SMILES IDX 76 14 84 15 86 16 77 17 78 18 79 19 80 20 83 21 81 22 82 23
REMARK SMILES IDX 11 24 12 25 13 26 14 27 15 28 16 29 17 30 18 31 19 32 20 33
REMARK SMILES IDX 21 34 73 35 22 36 72 37 23 38 24 39 25 40 66 41 26 42 71 43
REMARK SMILES IDX 65 44 67 45 27 46 70 47 64 48 63 49 28 51 54 52 37 53 53 54
REMARK SMILES IDX 38 55 41 56 52 57 68 58 39 59 40 60 51 62 69 63 42 64 29 65
REMARK SMILES IDX 30 66 35 67 31 68 32 69 34 70 36 71 33 72 55 73 56 74 61 75
REMARK SMILES IDX 57 76 58 77 60 78 62 79 59 80 43 81 44 82 49 83 45 84 46 85
REMARK SMILES IDX 48 86 50 87 47 88
REMARK H PARENT 67 50 41 61
REMARK Flexibility Score: inf
ROOT
ATOM      1  C   UNL A   1      32.790  36.374  31.087  1.00  0.00     0.188 C 
ENDROOT
BRANCH   1   2
ATOM      2  C   UNL A   1      33.062  36.201  29.580  1.00  0.00     0.188 C 
BRANCH   2   3
ATOM      3  O   UNL A   1      32.724  34.979  28.938  1.00  0.00    -0.376 OA
BRANCH   3   4
ATOM      4  C   UNL A   1      33.716  34.267  28.216  1.00  0.00     0.202 C 
BRANCH   4   5
ATOM      5  C   UNL A   1      33.941  32.753  28.427  1.00  0.00     0.261 C 
BRANCH   5   6
ATOM      6  O   UNL A   1      34.856  32.341  29.465  1.00  0.00    -0.463 OA
BRANCH   6   7
ATOM      7  C   UNL A   1      35.991  31.709  29.063  1.00  0.00     0.313 C 
ATOM      8  O   UNL A   1      36.111  31.171  27.965  1.00  0.00    -0.252 OA
BRANCH   7   9
ATOM      9  C   UNL A   1      37.116  31.676  30.120  1.00  0.00     0.129 C 
ATOM     10  C   UNL A   1      37.880  32.963  30.454  1.00  0.00     0.025 C 
BRANCH   9  11
ATOM     11  C   UNL A   1      38.044  30.484  29.892  1.00  0.00     0.002 A 
ATOM     12  C   UNL A   1      39.259  30.687  29.225  1.00  0.00     0.008 A 
ATOM     13  C   UNL A   1      37.791  29.197  30.385  1.00  0.00     0.127 A 
ATOM     14  C   UNL A   1      40.189  29.651  29.098  1.00  0.00     0.005 A 
ATOM     15  C   UNL A   1      38.718  28.163  30.282  1.00  0.00     0.043 A 
ATOM     16  F   UNL A   1      36.626  28.903  30.971  1.00  0.00    -0.207 F 
ATOM     17  C   UNL A   1      39.936  28.382  29.638  1.00  0.00    -0.038 A 
BRANCH  17  18
ATOM     18  C   UNL A   1      40.934  27.259  29.478  1.00  0.00     0.111 C 
BRANCH  18  19
ATOM     19  C   UNL A   1      40.706  26.468  28.238  1.00  0.00     0.108 A 
ATOM     20  C   UNL A   1      39.828  25.456  27.903  1.00  0.00     0.046 A 
ATOM     21  O   UNL A   1      41.499  26.764  27.168  1.00  0.00    -0.469 OA
ATOM     22  C   UNL A   1      40.107  25.110  26.561  1.00  0.00     0.042 A 
ATOM     23  C   UNL A   1      41.129  25.936  26.158  1.00  0.00     0.195 A 
ENDBRANCH  18  19
ENDBRANCH  17  18
ENDBRANCH   9  11
ENDBRANCH   7   9
ENDBRANCH   6   7
ENDBRANCH   5   6
ENDBRANCH   4   5
ENDBRANCH   3   4
ENDBRANCH   2   3
ENDBRANCH   1   2
BRANCH   1  24
ATOM     24  O   UNL A   1      32.583  35.170  31.795  1.00  0.00    -0.377 OA
BRANCH  24  25
ATOM     25  C   UNL A   1      33.728  34.607  32.412  1.00  0.00     0.188 C 
BRANCH  25  26
ATOM     26  C   UNL A   1      35.009  35.459  32.476  1.00  0.00     0.188 C 
BRANCH  26  27
ATOM     27  O   UNL A   1      35.760  35.295  33.674  1.00  0.00    -0.376 OA
BRANCH  27  28
ATOM     28  C   UNL A   1      36.569  34.140  33.838  1.00  0.00     0.202 C 
BRANCH  28  29
ATOM     29  C   UNL A   1      38.041  34.352  34.229  1.00  0.00     0.261 C 
BRANCH  29  30
ATOM     30  O   UNL A   1      38.463  33.776  35.474  1.00  0.00    -0.460 OA
BRANCH  30  31
ATOM     31  C   UNL A   1      38.307  32.447  35.646  1.00  0.00     0.338 C 
ATOM     32  O   UNL A   1      37.395  31.879  36.223  1.00  0.00    -0.246 OA
BRANCH  31  33
ATOM     33  C   UNL A   1      39.333  31.769  34.825  1.00  0.00     0.060 A 
ATOM     34  C   UNL A   1      40.686  32.009  35.102  1.00  0.00     0.016 A 
ATOM     35  C   UNL A   1      38.964  30.874  33.819  1.00  0.00     0.016 A 
ATOM     36  C   UNL A   1      41.675  31.374  34.352  1.00  0.00     0.010 A 
ATOM     37  C   UNL A   1      39.957  30.263  33.046  1.00  0.00     0.010 A 
ATOM     38  C   UNL A   1      41.314  30.537  33.289  1.00  0.00    -0.014 A 
BRANCH  38  39
ATOM     39  C   UNL A   1      42.339  30.138  32.296  1.00  0.00     0.031 A 
ATOM     40  C   UNL A   1      42.997  28.796  32.465  1.00  0.00     0.074 A 
ATOM     41  C   UNL A   1      42.663  30.927  31.258  1.00  0.00     0.049 A 
ATOM     42  N   UNL A   1      43.952  28.241  31.765  1.00  0.00    -0.248 NA
ATOM     43  C   UNL A   1      42.511  27.969  33.582  1.00  0.00     0.031 C 
ATOM     44  C   UNL A   1      42.059  32.223  30.956  1.00  0.00     0.029 A 
ATOM     45  N   UNL A   1      43.594  30.747  30.264  1.00  0.00    -0.354 N 
ATOM     46  C   UNL A   1      44.186  27.010  32.362  1.00  0.00     0.074 A 
ATOM     47  C   UNL A   1      43.297  26.908  33.497  1.00  0.00     0.031 C 
ATOM     48  C   UNL A   1      42.646  32.729  29.855  1.00  0.00     0.029 A 
ATOM     49  C   UNL A   1      43.687  31.809  29.398  1.00  0.00     0.049 A 
ATOM     50  H   UNL A   1      44.143  29.934  30.181  1.00  0.00     0.167 HD
ATOM     51  C   UNL A   1      45.062  26.045  31.993  1.00  0.00     0.037 A 
ATOM     52  C   UNL A   1      44.534  32.019  28.372  1.00  0.00     0.037 A 
ATOM     53  C   UNL A   1      45.947  26.150  30.865  1.00  0.00     0.049 A 
ATOM     54  C   UNL A   1      45.560  30.967  28.033  1.00  0.00     0.074 A 
ATOM     55  C   UNL A   1      46.859  25.222  30.397  1.00  0.00     0.029 A 
ATOM     56  N   UNL A   1      46.041  27.259  30.037  1.00  0.00    -0.354 N 
ATOM     57  N   UNL A   1      45.760  29.794  28.586  1.00  0.00    -0.248 NA
ATOM     58  C   UNL A   1      46.480  31.269  26.927  1.00  0.00     0.031 C 
ATOM     59  C   UNL A   1      47.549  25.793  29.323  1.00  0.00     0.029 A 
ATOM     60  C   UNL A   1      47.019  27.050  29.079  1.00  0.00     0.049 A 
ATOM     61  H   UNL A   1      45.492  28.073  30.118  1.00  0.00     0.167 HD
ATOM     62  C   UNL A   1      46.798  29.206  27.873  1.00  0.00     0.074 A 
ATOM     63  C   UNL A   1      47.181  30.146  26.841  1.00  0.00     0.031 C 
ATOM     64  C   UNL A   1      47.381  27.994  28.051  1.00  0.00     0.037 A 
BRANCH  51  65
ATOM     65  C   UNL A   1      45.129  24.810  32.844  1.00  0.00     0.057 A 
ATOM     66  C   UNL A   1      45.917  24.742  34.001  1.00  0.00     0.134 A 
ATOM     67  C   UNL A   1      44.375  23.678  32.510  1.00  0.00     0.134 A 
ATOM     68  F   UNL A   1      46.678  25.785  34.367  1.00  0.00    -0.206 F 
ATOM     69  C   UNL A   1      45.972  23.585  34.780  1.00  0.00     0.040 A 
ATOM     70  C   UNL A   1      44.397  22.526  33.299  1.00  0.00     0.040 A 
ATOM     71  F   UNL A   1      43.599  23.675  31.417  1.00  0.00    -0.206 F 
ATOM     72  C   UNL A   1      45.204  22.476  34.433  1.00  0.00     0.006 A 
ENDBRANCH  51  65
BRANCH  52  73
ATOM     73  C   UNL A   1      44.468  33.283  27.591  1.00  0.00     0.057 A 
ATOM     74  C   UNL A   1      44.952  34.487  28.115  1.00  0.00     0.134 A 
ATOM     75  C   UNL A   1      43.887  33.324  26.318  1.00  0.00     0.134 A 
ATOM     76  F   UNL A   1      45.496  34.519  29.341  1.00  0.00    -0.206 F 
ATOM     77  C   UNL A   1      44.842  35.689  27.412  1.00  0.00     0.040 A 
ATOM     78  C   UNL A   1      43.796  34.513  25.591  1.00  0.00     0.040 A 
ATOM     79  F   UNL A   1      43.400  32.207  25.758  1.00  0.00    -0.206 F 
ATOM     80  C   UNL A   1      44.267  35.702  26.143  1.00  0.00     0.006 A 
ENDBRANCH  52  73
BRANCH  64  81
ATOM     81  C   UNL A   1      48.460  27.592  27.085  1.00  0.00     0.057 A 
ATOM     82  C   UNL A   1      49.804  27.932  27.284  1.00  0.00     0.134 A 
ATOM     83  C   UNL A   1      48.152  26.812  25.963  1.00  0.00     0.134 A 
ATOM     84  F   UNL A   1      50.167  28.686  28.333  1.00  0.00    -0.206 F 
ATOM     85  C   UNL A   1      50.798  27.533  26.388  1.00  0.00     0.040 A 
ATOM     86  C   UNL A   1      49.140  26.380  25.078  1.00  0.00     0.040 A 
ATOM     87  F   UNL A   1      46.886  26.439  25.718  1.00  0.00    -0.206 F 
ATOM     88  C   UNL A   1      50.468  26.748  25.286  1.00  0.00     0.006 A 
ENDBRANCH  64  81
ENDBRANCH  38  39
ENDBRANCH  31  33
ENDBRANCH  30  31
ENDBRANCH  29  30
ENDBRANCH  28  29
ENDBRANCH  27  28
ENDBRANCH  26  27
ENDBRANCH  25  26
ENDBRANCH  24  25
ENDBRANCH   1  24
TORSDOF 23
ENDMDL
