MODEL 1
REMARK VINA RESULT:      -9.8      0.000      0.000
REMARK SMILES O=C(OCCOCCOCCOCCOC(=O)c1ccc(-n2cc(CSc3nc4ccccc4c(=O)n3-c3ccccc3)nn2)cc1)c1ccc(-c2c3nc(c(-c4c(F)cccc4F)c4ccc([nH]4)c(-c4c(F)cccc4F)c4nc(c(-c5c(F)cccc5F)c5ccc2[nH]5)C=C4)C=C3)cc1
REMARK SMILES IDX 10 1 9 2 8 3 7 4 6 5 5 6 4 7 3 8 2 9 1 10 48 11 49 12 101 13
REMARK SMILES IDX 50 14 100 15 51 16 52 17 53 18 94 19 54 20 99 21 93 22 95 23
REMARK SMILES IDX 55 24 98 25 92 26 91 27 56 29 82 30 65 31 81 32 66 33 69 34
REMARK SMILES IDX 80 35 96 36 67 37 68 38 79 40 97 41 70 42 57 43 58 44 63 45
REMARK SMILES IDX 59 46 60 47 62 48 64 49 61 50 83 51 84 52 89 53 85 54 86 55
REMARK SMILES IDX 88 56 90 57 87 58 71 59 72 60 77 61 73 62 74 63 76 64 78 65
REMARK SMILES IDX 75 66 11 67 12 68 13 69 14 70 15 71 16 72 17 73 18 74 19 75
REMARK SMILES IDX 47 76 20 77 46 78 21 79 22 80 23 81 45 82 24 83 44 84 25 85
REMARK SMILES IDX 26 86 27 87 28 88 37 89 29 90 35 91 30 92 34 93 36 94 31 95
REMARK SMILES IDX 33 96 32 97 38 98 39 99 43 100 40 101 42 102 41 103
REMARK H PARENT 95 28 69 39
REMARK Flexibility Score: inf
ROOT
ATOM      1  C   UNL A   1      36.911  22.907  25.042  1.00  0.00     0.188 C 
ENDROOT
BRANCH   1   2
ATOM      2  O   UNL A   1      38.150  22.744  25.694  1.00  0.00    -0.377 OA
BRANCH   2   3
ATOM      3  C   UNL A   1      38.629  21.409  25.758  1.00  0.00     0.188 C 
BRANCH   3   4
ATOM      4  C   UNL A   1      39.961  21.220  26.503  1.00  0.00     0.188 C 
BRANCH   4   5
ATOM      5  O   UNL A   1      41.203  21.003  25.831  1.00  0.00    -0.376 OA
BRANCH   5   6
ATOM      6  C   UNL A   1      42.303  20.320  26.385  1.00  0.00     0.202 C 
BRANCH   6   7
ATOM      7  C   UNL A   1      43.484  20.082  25.437  1.00  0.00     0.261 C 
BRANCH   7   8
ATOM      8  O   UNL A   1      44.134  21.250  24.920  1.00  0.00    -0.460 OA
BRANCH   8   9
ATOM      9  C   UNL A   1      45.119  22.002  25.462  1.00  0.00     0.338 C 
ATOM     10  O   UNL A   1      46.250  21.524  25.536  1.00  0.00    -0.246 OA
BRANCH   9  11
ATOM     11  C   UNL A   1      44.909  23.345  26.062  1.00  0.00     0.060 A 
ATOM     12  C   UNL A   1      45.847  24.379  26.053  1.00  0.00     0.016 A 
ATOM     13  C   UNL A   1      43.691  23.532  26.746  1.00  0.00     0.016 A 
ATOM     14  C   UNL A   1      45.637  25.525  26.792  1.00  0.00     0.010 A 
ATOM     15  C   UNL A   1      43.477  24.673  27.501  1.00  0.00     0.010 A 
ATOM     16  C   UNL A   1      44.502  25.611  27.587  1.00  0.00    -0.014 A 
BRANCH  16  17
ATOM     17  C   UNL A   1      44.556  26.606  28.643  1.00  0.00     0.031 A 
ATOM     18  C   UNL A   1      44.342  28.023  28.250  1.00  0.00     0.074 A 
ATOM     19  C   UNL A   1      44.817  26.196  29.899  1.00  0.00     0.049 A 
ATOM     20  N   UNL A   1      45.090  29.052  28.494  1.00  0.00    -0.248 NA
ATOM     21  C   UNL A   1      43.168  28.317  27.415  1.00  0.00     0.031 C 
ATOM     22  C   UNL A   1      44.840  24.817  30.409  1.00  0.00     0.029 A 
ATOM     23  N   UNL A   1      45.008  26.938  31.021  1.00  0.00    -0.354 N 
ATOM     24  C   UNL A   1      44.391  30.154  28.003  1.00  0.00     0.074 A 
ATOM     25  C   UNL A   1      43.275  29.636  27.256  1.00  0.00     0.031 C 
ATOM     26  C   UNL A   1      44.768  24.843  31.755  1.00  0.00     0.029 A 
ATOM     27  C   UNL A   1      44.828  26.225  32.192  1.00  0.00     0.049 A 
ATOM     28  H   UNL A   1      45.251  27.892  31.001  1.00  0.00     0.167 HD
ATOM     29  C   UNL A   1      44.652  31.420  28.425  1.00  0.00     0.037 A 
ATOM     30  C   UNL A   1      44.620  26.746  33.423  1.00  0.00     0.037 A 
ATOM     31  C   UNL A   1      45.999  31.561  28.906  1.00  0.00     0.049 A 
ATOM     32  C   UNL A   1      45.082  28.154  33.403  1.00  0.00     0.074 A 
ATOM     33  C   UNL A   1      47.252  31.409  28.344  1.00  0.00     0.029 A 
ATOM     34  N   UNL A   1      46.214  31.637  30.259  1.00  0.00    -0.354 N 
ATOM     35  N   UNL A   1      46.332  28.513  33.295  1.00  0.00    -0.248 NA
ATOM     36  C   UNL A   1      44.108  29.183  33.066  1.00  0.00     0.031 C 
ATOM     37  C   UNL A   1      48.077  30.918  29.396  1.00  0.00     0.029 A 
ATOM     38  C   UNL A   1      47.279  30.822  30.536  1.00  0.00     0.049 A 
ATOM     39  H   UNL A   1      45.702  32.175  30.905  1.00  0.00     0.167 HD
ATOM     40  C   UNL A   1      46.309  29.653  32.502  1.00  0.00     0.074 A 
ATOM     41  C   UNL A   1      44.911  30.072  32.476  1.00  0.00     0.031 C 
ATOM     42  C   UNL A   1      47.372  29.994  31.715  1.00  0.00     0.037 A 
BRANCH  29  43
ATOM     43  C   UNL A   1      43.569  32.429  28.725  1.00  0.00     0.057 A 
ATOM     44  C   UNL A   1      43.667  33.733  28.208  1.00  0.00     0.134 A 
ATOM     45  C   UNL A   1      42.601  32.259  29.738  1.00  0.00     0.134 A 
ATOM     46  F   UNL A   1      44.560  34.028  27.251  1.00  0.00    -0.206 F 
ATOM     47  C   UNL A   1      42.916  34.800  28.715  1.00  0.00     0.040 A 
ATOM     48  C   UNL A   1      41.812  33.308  30.218  1.00  0.00     0.040 A 
ATOM     49  F   UNL A   1      42.435  31.100  30.387  1.00  0.00    -0.206 F 
ATOM     50  C   UNL A   1      41.991  34.591  29.730  1.00  0.00     0.006 A 
ENDBRANCH  29  43
BRANCH  30  51
ATOM     51  C   UNL A   1      43.721  26.191  34.459  1.00  0.00     0.057 A 
ATOM     52  C   UNL A   1      42.350  26.462  34.452  1.00  0.00     0.134 A 
ATOM     53  C   UNL A   1      44.151  25.194  35.357  1.00  0.00     0.134 A 
ATOM     54  F   UNL A   1      41.838  27.355  33.594  1.00  0.00    -0.206 F 
ATOM     55  C   UNL A   1      41.458  25.785  35.295  1.00  0.00     0.040 A 
ATOM     56  C   UNL A   1      43.276  24.523  36.213  1.00  0.00     0.040 A 
ATOM     57  F   UNL A   1      45.426  24.777  35.377  1.00  0.00    -0.206 F 
ATOM     58  C   UNL A   1      41.919  24.811  36.177  1.00  0.00     0.006 A 
ENDBRANCH  30  51
BRANCH  42  59
ATOM     59  C   UNL A   1      48.652  29.227  31.898  1.00  0.00     0.057 A 
ATOM     60  C   UNL A   1      49.624  29.572  32.848  1.00  0.00     0.134 A 
ATOM     61  C   UNL A   1      48.831  28.018  31.219  1.00  0.00     0.134 A 
ATOM     62  F   UNL A   1      49.477  30.651  33.626  1.00  0.00    -0.206 F 
ATOM     63  C   UNL A   1      50.749  28.776  33.077  1.00  0.00     0.040 A 
ATOM     64  C   UNL A   1      49.936  27.196  31.460  1.00  0.00     0.040 A 
ATOM     65  F   UNL A   1      47.907  27.588  30.346  1.00  0.00    -0.206 F 
ATOM     66  C   UNL A   1      50.905  27.579  32.385  1.00  0.00     0.006 A 
ENDBRANCH  42  59
ENDBRANCH  16  17
ENDBRANCH   9  11
ENDBRANCH   8   9
ENDBRANCH   7   8
ENDBRANCH   6   7
ENDBRANCH   5   6
ENDBRANCH   4   5
ENDBRANCH   3   4
ENDBRANCH   2   3
ENDBRANCH   1   2
BRANCH   1  67
ATOM     67  C   UNL A   1      35.996  21.664  25.089  1.00  0.00     0.188 C 
BRANCH  67  68
ATOM     68  O   UNL A   1      34.745  21.648  24.414  1.00  0.00    -0.376 OA
BRANCH  68  69
ATOM     69  C   UNL A   1      33.824  20.588  24.633  1.00  0.00     0.202 C 
BRANCH  69  70
ATOM     70  C   UNL A   1      32.454  20.897  25.252  1.00  0.00     0.261 C 
BRANCH  70  71
ATOM     71  O   UNL A   1      32.424  22.022  26.141  1.00  0.00    -0.460 OA
BRANCH  71  72
ATOM     72  C   UNL A   1      31.273  22.752  26.145  1.00  0.00     0.338 C 
ATOM     73  O   UNL A   1      30.150  22.355  26.337  1.00  0.00    -0.246 OA
BRANCH  72  74
ATOM     74  C   UNL A   1      31.633  24.193  26.079  1.00  0.00     0.060 A 
ATOM     75  C   UNL A   1      32.993  24.541  26.024  1.00  0.00     0.018 A 
ATOM     76  C   UNL A   1      30.651  25.180  26.003  1.00  0.00     0.018 A 
ATOM     77  C   UNL A   1      33.377  25.881  25.910  1.00  0.00     0.029 A 
ATOM     78  C   UNL A   1      31.030  26.518  25.868  1.00  0.00     0.029 A 
ATOM     79  C   UNL A   1      32.392  26.871  25.840  1.00  0.00     0.066 A 
BRANCH  79  80
ATOM     80  N   UNL A   1      32.734  28.244  25.855  1.00  0.00    -0.220 N 
ATOM     81  C   UNL A   1      33.970  28.808  26.139  1.00  0.00     0.141 A 
ATOM     82  N   UNL A   1      31.794  29.209  25.846  1.00  0.00    -0.062 NA
ATOM     83  C   UNL A   1      33.650  30.040  26.668  1.00  0.00     0.093 A 
ATOM     84  N   UNL A   1      32.339  30.308  26.330  1.00  0.00    -0.134 NA
BRANCH  83  85
ATOM     85  C   UNL A   1      34.246  31.002  27.628  1.00  0.00     0.138 C 
BRANCH  85  86
ATOM     86  S   UNL A   1      35.933  31.355  28.030  1.00  0.00    -0.081 SA
BRANCH  86  87
ATOM     87  C   UNL A   1      36.279  31.554  29.712  1.00  0.00     0.176 A 
ATOM     88  N   UNL A   1      35.340  32.247  30.287  1.00  0.00    -0.223 NA
ATOM     89  N   UNL A   1      37.360  31.036  30.416  1.00  0.00    -0.255 N 
ATOM     90  C   UNL A   1      35.450  32.551  31.641  1.00  0.00     0.079 A 
ATOM     91  C   UNL A   1      37.755  31.826  31.511  1.00  0.00     0.266 A 
ATOM     92  C   UNL A   1      34.351  33.029  32.354  1.00  0.00     0.029 A 
ATOM     93  C   UNL A   1      36.679  32.478  32.270  1.00  0.00     0.066 A 
ATOM     94  O   UNL A   1      38.912  32.076  31.845  1.00  0.00    -0.268 OA
ATOM     95  C   UNL A   1      34.509  33.485  33.667  1.00  0.00     0.002 A 
ATOM     96  C   UNL A   1      36.867  32.972  33.564  1.00  0.00     0.016 A 
ATOM     97  C   UNL A   1      35.774  33.484  34.260  1.00  0.00     0.001 A 
BRANCH  89  98
ATOM     98  C   UNL A   1      38.158  29.857  30.092  1.00  0.00     0.051 A 
ATOM     99  C   UNL A   1      39.062  29.887  29.008  1.00  0.00     0.027 A 
ATOM    100  C   UNL A   1      38.139  28.657  30.814  1.00  0.00     0.027 A 
ATOM    101  C   UNL A   1      39.750  28.752  28.565  1.00  0.00     0.002 A 
ATOM    102  C   UNL A   1      38.790  27.501  30.354  1.00  0.00     0.002 A 
ATOM    103  C   UNL A   1      39.574  27.542  29.211  1.00  0.00     0.000 A 
ENDBRANCH  89  98
ENDBRANCH  86  87
ENDBRANCH  85  86
ENDBRANCH  83  85
ENDBRANCH  79  80
ENDBRANCH  72  74
ENDBRANCH  71  72
ENDBRANCH  70  71
ENDBRANCH  69  70
ENDBRANCH  68  69
ENDBRANCH  67  68
ENDBRANCH   1  67
TORSDOF 25
ENDMDL
MODEL 2
REMARK VINA RESULT:      -9.5      2.677      6.994
REMARK SMILES O=C(OCCOCCOCCOCCOC(=O)c1ccc(-n2cc(CSc3nc4ccccc4c(=O)n3-c3ccccc3)nn2)cc1)c1ccc(-c2c3nc(c(-c4c(F)cccc4F)c4ccc([nH]4)c(-c4c(F)cccc4F)c4nc(c(-c5c(F)cccc5F)c5ccc2[nH]5)C=C4)C=C3)cc1
REMARK SMILES IDX 10 1 9 2 8 3 7 4 6 5 5 6 4 7 3 8 2 9 1 10 48 11 49 12 101 13
REMARK SMILES IDX 50 14 100 15 51 16 52 17 53 18 94 19 54 20 99 21 93 22 95 23
REMARK SMILES IDX 55 24 98 25 92 26 91 27 56 29 82 30 65 31 81 32 66 33 69 34
REMARK SMILES IDX 80 35 96 36 67 37 68 38 79 40 97 41 70 42 57 43 58 44 63 45
REMARK SMILES IDX 59 46 60 47 62 48 64 49 61 50 83 51 84 52 89 53 85 54 86 55
REMARK SMILES IDX 88 56 90 57 87 58 71 59 72 60 77 61 73 62 74 63 76 64 78 65
REMARK SMILES IDX 75 66 11 67 12 68 13 69 14 70 15 71 16 72 17 73 18 74 19 75
REMARK SMILES IDX 47 76 20 77 46 78 21 79 22 80 23 81 45 82 24 83 44 84 25 85
REMARK SMILES IDX 26 86 27 87 28 88 37 89 29 90 35 91 30 92 34 93 36 94 31 95
REMARK SMILES IDX 33 96 32 97 38 98 39 99 43 100 40 101 42 102 41 103
REMARK H PARENT 95 28 69 39
REMARK Flexibility Score: inf
ROOT
ATOM      1  C   UNL A   1      35.642  22.656  24.001  1.00  0.00     0.188 C 
ENDROOT
BRANCH   1   2
ATOM      2  O   UNL A   1      36.929  22.823  24.551  1.00  0.00    -0.377 OA
BRANCH   2   3
ATOM      3  C   UNL A   1      37.191  22.062  25.721  1.00  0.00     0.188 C 
BRANCH   3   4
ATOM      4  C   UNL A   1      38.511  21.274  25.716  1.00  0.00     0.188 C 
BRANCH   4   5
ATOM      5  O   UNL A   1      39.695  21.739  26.366  1.00  0.00    -0.376 OA
BRANCH   5   6
ATOM      6  C   UNL A   1      40.620  20.910  27.030  1.00  0.00     0.202 C 
BRANCH   6   7
ATOM      7  C   UNL A   1      41.585  20.134  26.125  1.00  0.00     0.261 C 
BRANCH   7   8
ATOM      8  O   UNL A   1      42.877  20.718  25.919  1.00  0.00    -0.460 OA
BRANCH   8   9
ATOM      9  C   UNL A   1      43.229  22.019  25.806  1.00  0.00     0.338 C 
ATOM     10  O   UNL A   1      43.341  22.503  24.680  1.00  0.00    -0.246 OA
BRANCH   9  11
ATOM     11  C   UNL A   1      43.583  22.891  26.957  1.00  0.00     0.060 A 
ATOM     12  C   UNL A   1      42.875  22.954  28.158  1.00  0.00     0.016 A 
ATOM     13  C   UNL A   1      44.678  23.757  26.761  1.00  0.00     0.016 A 
ATOM     14  C   UNL A   1      43.168  23.922  29.096  1.00  0.00     0.010 A 
ATOM     15  C   UNL A   1      44.971  24.740  27.691  1.00  0.00     0.010 A 
ATOM     16  C   UNL A   1      44.144  24.865  28.804  1.00  0.00    -0.014 A 
BRANCH  16  17
ATOM     17  C   UNL A   1      44.098  26.076  29.603  1.00  0.00     0.031 A 
ATOM     18  C   UNL A   1      44.527  25.968  31.022  1.00  0.00     0.074 A 
ATOM     19  C   UNL A   1      43.653  27.209  29.028  1.00  0.00     0.049 A 
ATOM     20  N   UNL A   1      43.889  26.330  32.089  1.00  0.00    -0.248 NA
ATOM     21  C   UNL A   1      45.813  25.303  31.285  1.00  0.00     0.031 C 
ATOM     22  C   UNL A   1      43.405  27.456  27.600  1.00  0.00     0.029 A 
ATOM     23  N   UNL A   1      43.434  28.427  29.589  1.00  0.00    -0.354 N 
ATOM     24  C   UNL A   1      44.769  26.109  33.149  1.00  0.00     0.074 A 
ATOM     25  C   UNL A   1      45.887  25.378  32.613  1.00  0.00     0.031 C 
ATOM     26  C   UNL A   1      43.332  28.785  27.387  1.00  0.00     0.029 A 
ATOM     27  C   UNL A   1      43.396  29.460  28.670  1.00  0.00     0.049 A 
ATOM     28  H   UNL A   1      43.314  28.560  30.557  1.00  0.00     0.167 HD
ATOM     29  C   UNL A   1      44.621  26.731  34.350  1.00  0.00     0.037 A 
ATOM     30  C   UNL A   1      43.531  30.779  28.941  1.00  0.00     0.037 A 
ATOM     31  C   UNL A   1      43.258  27.112  34.595  1.00  0.00     0.049 A 
ATOM     32  C   UNL A   1      43.251  30.975  30.383  1.00  0.00     0.074 A 
ATOM     33  C   UNL A   1      42.065  26.427  34.719  1.00  0.00     0.029 A 
ATOM     34  N   UNL A   1      42.908  28.433  34.472  1.00  0.00    -0.354 N 
ATOM     35  N   UNL A   1      42.074  30.828  30.927  1.00  0.00    -0.248 NA
ATOM     36  C   UNL A   1      44.375  30.916  31.306  1.00  0.00     0.031 C 
ATOM     37  C   UNL A   1      41.076  27.298  34.178  1.00  0.00     0.029 A 
ATOM     38  C   UNL A   1      41.726  28.465  33.779  1.00  0.00     0.049 A 
ATOM     39  H   UNL A   1      43.408  29.208  34.815  1.00  0.00     0.167 HD
ATOM     40  C   UNL A   1      42.324  30.261  32.171  1.00  0.00     0.074 A 
ATOM     41  C   UNL A   1      43.758  30.432  32.386  1.00  0.00     0.031 C 
ATOM     42  C   UNL A   1      41.404  29.462  32.785  1.00  0.00     0.037 A 
BRANCH  29  43
ATOM     43  C   UNL A   1      45.781  27.301  35.131  1.00  0.00     0.057 A 
ATOM     44  C   UNL A   1      46.640  28.235  34.522  1.00  0.00     0.134 A 
ATOM     45  C   UNL A   1      46.260  26.749  36.338  1.00  0.00     0.134 A 
ATOM     46  F   UNL A   1      46.307  28.821  33.362  1.00  0.00    -0.206 F 
ATOM     47  C   UNL A   1      47.908  28.534  35.034  1.00  0.00     0.040 A 
ATOM     48  C   UNL A   1      47.504  27.077  36.883  1.00  0.00     0.040 A 
ATOM     49  F   UNL A   1      45.601  25.791  37.001  1.00  0.00    -0.206 F 
ATOM     50  C   UNL A   1      48.347  27.947  36.214  1.00  0.00     0.006 A 
ENDBRANCH  29  43
BRANCH  30  51
ATOM     51  C   UNL A   1      44.236  31.769  28.098  1.00  0.00     0.057 A 
ATOM     52  C   UNL A   1      43.798  33.094  28.012  1.00  0.00     0.134 A 
ATOM     53  C   UNL A   1      45.494  31.495  27.527  1.00  0.00     0.134 A 
ATOM     54  F   UNL A   1      42.638  33.463  28.574  1.00  0.00    -0.206 F 
ATOM     55  C   UNL A   1      44.564  34.088  27.388  1.00  0.00     0.040 A 
ATOM     56  C   UNL A   1      46.261  32.472  26.889  1.00  0.00     0.040 A 
ATOM     57  F   UNL A   1      46.062  30.285  27.640  1.00  0.00    -0.206 F 
ATOM     58  C   UNL A   1      45.800  33.779  26.827  1.00  0.00     0.006 A 
ENDBRANCH  30  51
BRANCH  42  59
ATOM     59  C   UNL A   1      40.027  29.391  32.187  1.00  0.00     0.057 A 
ATOM     60  C   UNL A   1      39.708  28.580  31.088  1.00  0.00     0.134 A 
ATOM     61  C   UNL A   1      38.962  30.024  32.837  1.00  0.00     0.134 A 
ATOM     62  F   UNL A   1      40.645  27.847  30.476  1.00  0.00    -0.206 F 
ATOM     63  C   UNL A   1      38.397  28.444  30.626  1.00  0.00     0.040 A 
ATOM     64  C   UNL A   1      37.642  29.871  32.405  1.00  0.00     0.040 A 
ATOM     65  F   UNL A   1      39.182  30.759  33.938  1.00  0.00    -0.206 F 
ATOM     66  C   UNL A   1      37.356  29.087  31.289  1.00  0.00     0.006 A 
ENDBRANCH  42  59
ENDBRANCH  16  17
ENDBRANCH   9  11
ENDBRANCH   8   9
ENDBRANCH   7   8
ENDBRANCH   6   7
ENDBRANCH   5   6
ENDBRANCH   4   5
ENDBRANCH   3   4
ENDBRANCH   2   3
ENDBRANCH   1   2
BRANCH   1  67
ATOM     67  C   UNL A   1      34.511  23.329  24.810  1.00  0.00     0.188 C 
BRANCH  67  68
ATOM     68  O   UNL A   1      34.637  24.667  25.274  1.00  0.00    -0.376 OA
BRANCH  68  69
ATOM     69  C   UNL A   1      33.784  25.685  24.772  1.00  0.00     0.202 C 
BRANCH  69  70
ATOM     70  C   UNL A   1      32.985  26.551  25.756  1.00  0.00     0.261 C 
BRANCH  70  71
ATOM     71  O   UNL A   1      33.742  27.564  26.432  1.00  0.00    -0.460 OA
BRANCH  71  72
ATOM     72  C   UNL A   1      33.077  28.719  26.717  1.00  0.00     0.338 C 
ATOM     73  O   UNL A   1      31.884  28.902  26.712  1.00  0.00    -0.246 OA
BRANCH  72  74
ATOM     74  C   UNL A   1      34.055  29.702  27.253  1.00  0.00     0.060 A 
ATOM     75  C   UNL A   1      35.404  29.320  27.346  1.00  0.00     0.018 A 
ATOM     76  C   UNL A   1      33.666  30.997  27.592  1.00  0.00     0.018 A 
ATOM     77  C   UNL A   1      36.367  30.229  27.796  1.00  0.00     0.029 A 
ATOM     78  C   UNL A   1      34.628  31.913  28.023  1.00  0.00     0.029 A 
ATOM     79  C   UNL A   1      35.975  31.526  28.142  1.00  0.00     0.066 A 
BRANCH  79  80
ATOM     80  N   UNL A   1      36.891  32.435  28.724  1.00  0.00    -0.220 N 
ATOM     81  C   UNL A   1      38.173  32.171  29.181  1.00  0.00     0.141 A 
ATOM     82  N   UNL A   1      36.505  33.653  29.149  1.00  0.00    -0.062 NA
ATOM     83  C   UNL A   1      38.354  33.094  30.190  1.00  0.00     0.093 A 
ATOM     84  N   UNL A   1      37.390  34.069  30.035  1.00  0.00    -0.134 NA
BRANCH  83  85
ATOM     85  C   UNL A   1      39.135  33.196  31.447  1.00  0.00     0.138 C 
BRANCH  85  86
ATOM     86  S   UNL A   1      39.476  34.578  32.498  1.00  0.00    -0.081 SA
BRANCH  86  87
ATOM     87  C   UNL A   1      38.859  34.468  34.110  1.00  0.00     0.176 A 
ATOM     88  N   UNL A   1      39.719  34.954  34.956  1.00  0.00    -0.223 NA
ATOM     89  N   UNL A   1      37.617  33.984  34.505  1.00  0.00    -0.255 N 
ATOM     90  C   UNL A   1      39.427  34.925  36.317  1.00  0.00     0.079 A 
ATOM     91  C   UNL A   1      37.615  33.412  35.790  1.00  0.00     0.266 A 
ATOM     92  C   UNL A   1      40.171  35.684  37.220  1.00  0.00     0.029 A 
ATOM     93  C   UNL A   1      38.460  34.063  36.800  1.00  0.00     0.066 A 
ATOM     94  O   UNL A   1      37.029  32.382  36.124  1.00  0.00    -0.268 OA
ATOM     95  C   UNL A   1      39.978  35.526  38.597  1.00  0.00     0.002 A 
ATOM     96  C   UNL A   1      38.286  33.857  38.171  1.00  0.00     0.016 A 
ATOM     97  C   UNL A   1      39.057  34.589  39.071  1.00  0.00     0.001 A 
BRANCH  89  98
ATOM     98  C   UNL A   1      36.389  33.921  33.718  1.00  0.00     0.051 A 
ATOM     99  C   UNL A   1      35.989  32.705  33.122  1.00  0.00     0.027 A 
ATOM    100  C   UNL A   1      35.510  34.993  33.524  1.00  0.00     0.027 A 
ATOM    101  C   UNL A   1      34.900  32.615  32.247  1.00  0.00     0.002 A 
ATOM    102  C   UNL A   1      34.441  34.925  32.615  1.00  0.00     0.002 A 
ATOM    103  C   UNL A   1      34.154  33.742  31.954  1.00  0.00     0.000 A 
ENDBRANCH  89  98
ENDBRANCH  86  87
ENDBRANCH  85  86
ENDBRANCH  83  85
ENDBRANCH  79  80
ENDBRANCH  72  74
ENDBRANCH  71  72
ENDBRANCH  70  71
ENDBRANCH  69  70
ENDBRANCH  68  69
ENDBRANCH  67  68
ENDBRANCH   1  67
TORSDOF 25
ENDMDL
MODEL 3
REMARK VINA RESULT:      -8.9      3.581      9.110
REMARK SMILES O=C(OCCOCCOCCOCCOC(=O)c1ccc(-n2cc(CSc3nc4ccccc4c(=O)n3-c3ccccc3)nn2)cc1)c1ccc(-c2c3nc(c(-c4c(F)cccc4F)c4ccc([nH]4)c(-c4c(F)cccc4F)c4nc(c(-c5c(F)cccc5F)c5ccc2[nH]5)C=C4)C=C3)cc1
REMARK SMILES IDX 10 1 9 2 8 3 7 4 6 5 5 6 4 7 3 8 2 9 1 10 48 11 49 12 101 13
REMARK SMILES IDX 50 14 100 15 51 16 52 17 53 18 94 19 54 20 99 21 93 22 95 23
REMARK SMILES IDX 55 24 98 25 92 26 91 27 56 29 82 30 65 31 81 32 66 33 69 34
REMARK SMILES IDX 80 35 96 36 67 37 68 38 79 40 97 41 70 42 57 43 58 44 63 45
REMARK SMILES IDX 59 46 60 47 62 48 64 49 61 50 83 51 84 52 89 53 85 54 86 55
REMARK SMILES IDX 88 56 90 57 87 58 71 59 72 60 77 61 73 62 74 63 76 64 78 65
REMARK SMILES IDX 75 66 11 67 12 68 13 69 14 70 15 71 16 72 17 73 18 74 19 75
REMARK SMILES IDX 47 76 20 77 46 78 21 79 22 80 23 81 45 82 24 83 44 84 25 85
REMARK SMILES IDX 26 86 27 87 28 88 37 89 29 90 35 91 30 92 34 93 36 94 31 95
REMARK SMILES IDX 33 96 32 97 38 98 39 99 43 100 40 101 42 102 41 103
REMARK H PARENT 95 28 69 39
REMARK Flexibility Score: inf
ROOT
ATOM      1  C   UNL A   1      35.104  29.448  27.579  1.00  0.00     0.188 C 
ENDROOT
BRANCH   1   2
ATOM      2  O   UNL A   1      35.636  29.865  28.816  1.00  0.00    -0.377 OA
BRANCH   2   3
ATOM      3  C   UNL A   1      36.564  30.938  28.745  1.00  0.00     0.188 C 
BRANCH   3   4
ATOM      4  C   UNL A   1      37.207  31.345  30.081  1.00  0.00     0.188 C 
BRANCH   4   5
ATOM      5  O   UNL A   1      38.207  32.360  30.185  1.00  0.00    -0.376 OA
BRANCH   5   6
ATOM      6  C   UNL A   1      39.303  32.315  31.066  1.00  0.00     0.202 C 
BRANCH   6   7
ATOM      7  C   UNL A   1      39.151  33.123  32.360  1.00  0.00     0.261 C 
BRANCH   7   8
ATOM      8  O   UNL A   1      39.221  32.386  33.587  1.00  0.00    -0.460 OA
BRANCH   8   9
ATOM      9  C   UNL A   1      38.913  31.093  33.837  1.00  0.00     0.338 C 
ATOM     10  O   UNL A   1      37.728  30.781  33.948  1.00  0.00    -0.246 OA
BRANCH   9  11
ATOM     11  C   UNL A   1      39.921  30.028  34.080  1.00  0.00     0.060 A 
ATOM     12  C   UNL A   1      40.859  30.037  35.114  1.00  0.00     0.016 A 
ATOM     13  C   UNL A   1      39.950  28.980  33.138  1.00  0.00     0.016 A 
ATOM     14  C   UNL A   1      41.871  29.100  35.152  1.00  0.00     0.010 A 
ATOM     15  C   UNL A   1      40.969  28.042  33.162  1.00  0.00     0.010 A 
ATOM     16  C   UNL A   1      41.971  28.179  34.119  1.00  0.00    -0.014 A 
BRANCH  16  17
ATOM     17  C   UNL A   1      43.264  27.532  33.986  1.00  0.00     0.031 A 
ATOM     18  C   UNL A   1      43.500  26.315  34.805  1.00  0.00     0.074 A 
ATOM     19  C   UNL A   1      44.173  28.077  33.155  1.00  0.00     0.049 A 
ATOM     20  N   UNL A   1      44.479  26.062  35.614  1.00  0.00    -0.248 NA
ATOM     21  C   UNL A   1      42.467  25.268  34.765  1.00  0.00     0.031 C 
ATOM     22  C   UNL A   1      43.961  29.144  32.166  1.00  0.00     0.029 A 
ATOM     23  N   UNL A   1      45.463  27.712  32.937  1.00  0.00    -0.354 N 
ATOM     24  C   UNL A   1      44.285  24.751  36.046  1.00  0.00     0.074 A 
ATOM     25  C   UNL A   1      42.981  24.352  35.583  1.00  0.00     0.031 C 
ATOM     26  C   UNL A   1      44.990  29.149  31.294  1.00  0.00     0.029 A 
ATOM     27  C   UNL A   1      45.977  28.185  31.743  1.00  0.00     0.049 A 
ATOM     28  H   UNL A   1      45.982  27.165  33.570  1.00  0.00     0.167 HD
ATOM     29  C   UNL A   1      45.297  24.006  36.569  1.00  0.00     0.037 A 
ATOM     30  C   UNL A   1      47.079  27.724  31.107  1.00  0.00     0.037 A 
ATOM     31  C   UNL A   1      46.323  24.826  37.150  1.00  0.00     0.049 A 
ATOM     32  C   UNL A   1      47.897  26.985  32.098  1.00  0.00     0.074 A 
ATOM     33  C   UNL A   1      46.366  25.744  38.182  1.00  0.00     0.029 A 
ATOM     34  N   UNL A   1      47.506  24.984  36.473  1.00  0.00    -0.354 N 
ATOM     35  N   UNL A   1      48.521  27.546  33.097  1.00  0.00    -0.248 NA
ATOM     36  C   UNL A   1      47.670  25.553  32.231  1.00  0.00     0.031 C 
ATOM     37  C   UNL A   1      47.327  26.715  37.777  1.00  0.00     0.029 A 
ATOM     38  C   UNL A   1      47.823  26.315  36.537  1.00  0.00     0.049 A 
ATOM     39  H   UNL A   1      48.027  24.277  36.028  1.00  0.00     0.167 HD
ATOM     40  C   UNL A   1      48.405  26.641  34.144  1.00  0.00     0.074 A 
ATOM     41  C   UNL A   1      47.961  25.396  33.525  1.00  0.00     0.031 C 
ATOM     42  C   UNL A   1      48.410  27.055  35.445  1.00  0.00     0.037 A 
BRANCH  29  43
ATOM     43  C   UNL A   1      45.508  22.550  36.229  1.00  0.00     0.057 A 
ATOM     44  C   UNL A   1      45.797  21.630  37.252  1.00  0.00     0.134 A 
ATOM     45  C   UNL A   1      45.737  22.078  34.919  1.00  0.00     0.134 A 
ATOM     46  F   UNL A   1      45.636  21.962  38.542  1.00  0.00    -0.206 F 
ATOM     47  C   UNL A   1      46.343  20.366  36.994  1.00  0.00     0.040 A 
ATOM     48  C   UNL A   1      46.237  20.801  34.648  1.00  0.00     0.040 A 
ATOM     49  F   UNL A   1      45.586  22.853  33.838  1.00  0.00    -0.206 F 
ATOM     50  C   UNL A   1      46.574  19.952  35.689  1.00  0.00     0.006 A 
ENDBRANCH  29  43
BRANCH  30  51
ATOM     51  C   UNL A   1      47.243  27.593  29.643  1.00  0.00     0.057 A 
ATOM     52  C   UNL A   1      48.237  28.297  28.957  1.00  0.00     0.134 A 
ATOM     53  C   UNL A   1      46.570  26.597  28.908  1.00  0.00     0.134 A 
ATOM     54  F   UNL A   1      48.969  29.225  29.587  1.00  0.00    -0.206 F 
ATOM     55  C   UNL A   1      48.539  28.031  27.614  1.00  0.00     0.040 A 
ATOM     56  C   UNL A   1      46.850  26.333  27.566  1.00  0.00     0.040 A 
ATOM     57  F   UNL A   1      45.671  25.789  29.490  1.00  0.00    -0.206 F 
ATOM     58  C   UNL A   1      47.847  27.045  26.916  1.00  0.00     0.006 A 
ENDBRANCH  30  51
BRANCH  42  59
ATOM     59  C   UNL A   1      48.769  28.488  35.722  1.00  0.00     0.057 A 
ATOM     60  C   UNL A   1      47.828  29.528  35.728  1.00  0.00     0.134 A 
ATOM     61  C   UNL A   1      50.060  28.801  36.161  1.00  0.00     0.134 A 
ATOM     62  F   UNL A   1      46.542  29.297  35.435  1.00  0.00    -0.206 F 
ATOM     63  C   UNL A   1      48.167  30.830  36.103  1.00  0.00     0.040 A 
ATOM     64  C   UNL A   1      50.405  30.092  36.569  1.00  0.00     0.040 A 
ATOM     65  F   UNL A   1      50.995  27.842  36.250  1.00  0.00    -0.206 F 
ATOM     66  C   UNL A   1      49.460  31.115  36.531  1.00  0.00     0.006 A 
ENDBRANCH  42  59
ENDBRANCH  16  17
ENDBRANCH   9  11
ENDBRANCH   8   9
ENDBRANCH   7   8
ENDBRANCH   6   7
ENDBRANCH   5   6
ENDBRANCH   4   5
ENDBRANCH   3   4
ENDBRANCH   2   3
ENDBRANCH   1   2
BRANCH   1  67
ATOM     67  C   UNL A   1      33.713  30.037  27.253  1.00  0.00     0.188 C 
BRANCH  67  68
ATOM     68  O   UNL A   1      32.698  29.235  26.661  1.00  0.00    -0.376 OA
BRANCH  68  69
ATOM     69  C   UNL A   1      31.690  29.832  25.859  1.00  0.00     0.202 C 
BRANCH  69  70
ATOM     70  C   UNL A   1      31.518  29.375  24.403  1.00  0.00     0.261 C 
BRANCH  70  71
ATOM     71  O   UNL A   1      30.580  28.308  24.203  1.00  0.00    -0.460 OA
BRANCH  71  72
ATOM     72  C   UNL A   1      30.718  27.598  23.049  1.00  0.00     0.338 C 
ATOM     73  O   UNL A   1      30.203  27.822  21.980  1.00  0.00    -0.246 OA
BRANCH  72  74
ATOM     74  C   UNL A   1      31.792  26.588  23.246  1.00  0.00     0.060 A 
ATOM     75  C   UNL A   1      31.648  25.653  24.284  1.00  0.00     0.018 A 
ATOM     76  C   UNL A   1      32.886  26.520  22.384  1.00  0.00     0.018 A 
ATOM     77  C   UNL A   1      32.608  24.654  24.475  1.00  0.00     0.029 A 
ATOM     78  C   UNL A   1      33.836  25.511  22.559  1.00  0.00     0.029 A 
ATOM     79  C   UNL A   1      33.708  24.589  23.614  1.00  0.00     0.066 A 
BRANCH  79  80
ATOM     80  N   UNL A   1      34.766  23.679  23.848  1.00  0.00    -0.220 N 
ATOM     81  C   UNL A   1      35.243  23.229  25.070  1.00  0.00     0.141 A 
ATOM     82  N   UNL A   1      35.631  23.333  22.875  1.00  0.00    -0.062 NA
ATOM     83  C   UNL A   1      36.573  22.964  24.822  1.00  0.00     0.093 A 
ATOM     84  N   UNL A   1      36.731  22.890  23.453  1.00  0.00    -0.134 NA
BRANCH  83  85
ATOM     85  C   UNL A   1      37.843  22.948  25.588  1.00  0.00     0.138 C 
BRANCH  85  86
ATOM     86  S   UNL A   1      38.440  24.002  26.878  1.00  0.00    -0.081 SA
BRANCH  86  87
ATOM     87  C   UNL A   1      40.158  24.175  26.974  1.00  0.00     0.176 A 
ATOM     88  N   UNL A   1      40.744  23.201  26.342  1.00  0.00    -0.223 NA
ATOM     89  N   UNL A   1      40.868  25.204  27.580  1.00  0.00    -0.255 N 
ATOM     90  C   UNL A   1      42.135  23.135  26.332  1.00  0.00     0.079 A 
ATOM     91  C   UNL A   1      42.123  24.810  28.077  1.00  0.00     0.266 A 
ATOM     92  C   UNL A   1      42.801  22.293  25.442  1.00  0.00     0.029 A 
ATOM     93  C   UNL A   1      42.868  23.830  27.275  1.00  0.00     0.066 A 
ATOM     94  O   UNL A   1      42.619  25.155  29.149  1.00  0.00    -0.268 OA
ATOM     95  C   UNL A   1      44.184  22.112  25.546  1.00  0.00     0.002 A 
ATOM     96  C   UNL A   1      44.243  23.626  27.426  1.00  0.00     0.016 A 
ATOM     97  C   UNL A   1      44.899  22.756  26.559  1.00  0.00     0.001 A 
BRANCH  89  98
ATOM     98  C   UNL A   1      40.423  26.572  27.832  1.00  0.00     0.051 A 
ATOM     99  C   UNL A   1      40.541  27.554  26.825  1.00  0.00     0.027 A 
ATOM    100  C   UNL A   1      39.826  27.011  29.020  1.00  0.00     0.027 A 
ATOM    101  C   UNL A   1      40.262  28.907  27.051  1.00  0.00     0.002 A 
ATOM    102  C   UNL A   1      39.582  28.370  29.273  1.00  0.00     0.002 A 
ATOM    103  C   UNL A   1      39.827  29.323  28.297  1.00  0.00     0.000 A 
ENDBRANCH  89  98
ENDBRANCH  86  87
ENDBRANCH  85  86
ENDBRANCH  83  85
ENDBRANCH  79  80
ENDBRANCH  72  74
ENDBRANCH  71  72
ENDBRANCH  70  71
ENDBRANCH  69  70
ENDBRANCH  68  69
ENDBRANCH  67  68
ENDBRANCH   1  67
TORSDOF 25
ENDMDL
