MODEL 1
REMARK VINA RESULT:     -10.7      0.000      0.000
REMARK SMILES C[C@@H]1Cc2ccccc2N1c1ccc(F)cc1C(=O)OCCOCCOCCOCCOC(=O)c1ccc(-c2c3nc(c(-c4c(F)cccc4F)c4ccc([nH]4)c(-c4c(F)cccc4F)c4nc(c(-c5c(F)cccc5F)c5ccc2[nH]5)C=C4)C=C3)cc1
REMARK SMILES IDX 27 1 26 2 25 3 24 4 23 5 22 6 21 7 20 8 18 9 19 10 17 11
REMARK SMILES IDX 11 12 12 13 13 14 16 15 14 16 15 17 10 18 1 19 2 20 3 21
REMARK SMILES IDX 4 22 9 23 5 24 8 25 6 26 7 27 28 28 29 29 30 30 31 31 32 32
REMARK SMILES IDX 33 33 34 34 35 35 36 36 88 37 37 38 87 39 38 40 39 41 40 42
REMARK SMILES IDX 81 43 41 44 86 45 80 46 82 47 42 48 85 49 79 50 78 51 43 53
REMARK SMILES IDX 69 54 52 55 68 56 53 57 56 58 67 59 83 60 54 61 55 62 66 64
REMARK SMILES IDX 84 65 57 66 44 67 45 68 50 69 46 70 47 71 49 72 51 73 48 74
REMARK SMILES IDX 70 75 71 76 76 77 72 78 73 79 75 80 77 81 74 82 58 83 59 84
REMARK SMILES IDX 64 85 60 86 61 87 63 88 65 89 62 90
REMARK H PARENT 82 52 56 63
REMARK Flexibility Score: inf
ROOT
ATOM      1  C   UNL A   1      30.856  29.235  24.024  1.00  0.00     0.188 C 
ENDROOT
BRANCH   1   2
ATOM      2  O   UNL A   1      30.383  27.906  23.870  1.00  0.00    -0.377 OA
BRANCH   2   3
ATOM      3  C   UNL A   1      31.093  26.930  24.618  1.00  0.00     0.188 C 
BRANCH   3   4
ATOM      4  C   UNL A   1      30.249  26.037  25.542  1.00  0.00     0.188 C 
BRANCH   4   5
ATOM      5  O   UNL A   1      30.554  24.647  25.417  1.00  0.00    -0.376 OA
BRANCH   5   6
ATOM      6  C   UNL A   1      30.406  23.846  26.582  1.00  0.00     0.202 C 
BRANCH   6   7
ATOM      7  C   UNL A   1      31.537  22.837  26.770  1.00  0.00     0.261 C 
BRANCH   7   8
ATOM      8  O   UNL A   1      32.832  23.448  26.794  1.00  0.00    -0.460 OA
BRANCH   8   9
ATOM      9  C   UNL A   1      33.901  22.640  26.933  1.00  0.00     0.340 C 
ATOM     10  O   UNL A   1      34.008  21.739  27.749  1.00  0.00    -0.246 OA
BRANCH   9  11
ATOM     11  C   UNL A   1      34.884  22.883  25.844  1.00  0.00     0.086 A 
ATOM     12  C   UNL A   1      34.701  22.552  24.477  1.00  0.00     0.056 A 
ATOM     13  C   UNL A   1      35.757  22.880  23.593  1.00  0.00     0.030 A 
ATOM     14  C   UNL A   1      36.977  23.386  24.046  1.00  0.00     0.041 A 
ATOM     15  C   UNL A   1      36.115  23.401  26.293  1.00  0.00     0.057 A 
ATOM     16  C   UNL A   1      37.153  23.616  25.399  1.00  0.00     0.124 A 
ATOM     17  F   UNL A   1      38.341  24.030  25.852  1.00  0.00    -0.207 F 
BRANCH  12  18
ATOM     18  N   UNL A   1      33.617  21.808  23.982  1.00  0.00    -0.337 N 
ATOM     19  C   UNL A   1      32.152  23.553  22.828  1.00  0.00     0.032 C 
ATOM     20  C   UNL A   1      32.859  22.210  22.759  1.00  0.00     0.089 C 
ATOM     21  C   UNL A   1      31.810  21.091  22.508  1.00  0.00     0.063 C 
ATOM     22  C   UNL A   1      32.496  19.923  23.119  1.00  0.00    -0.022 A 
ATOM     23  C   UNL A   1      33.499  20.379  23.978  1.00  0.00     0.045 A 
ATOM     24  C   UNL A   1      32.220  18.575  22.953  1.00  0.00     0.006 A 
ATOM     25  C   UNL A   1      34.245  19.458  24.703  1.00  0.00     0.026 A 
ATOM     26  C   UNL A   1      33.002  17.652  23.647  1.00  0.00     0.000 A 
ATOM     27  C   UNL A   1      34.010  18.090  24.516  1.00  0.00     0.002 A 
ENDBRANCH  12  18
ENDBRANCH   9  11
ENDBRANCH   8   9
ENDBRANCH   7   8
ENDBRANCH   6   7
ENDBRANCH   5   6
ENDBRANCH   4   5
ENDBRANCH   3   4
ENDBRANCH   2   3
ENDBRANCH   1   2
BRANCH   1  28
ATOM     28  C   UNL A   1      32.062  29.380  24.981  1.00  0.00     0.188 C 
BRANCH  28  29
ATOM     29  O   UNL A   1      32.254  30.510  25.828  1.00  0.00    -0.376 OA
BRANCH  29  30
ATOM     30  C   UNL A   1      31.165  31.326  26.218  1.00  0.00     0.202 C 
BRANCH  30  31
ATOM     31  C   UNL A   1      31.474  32.700  26.832  1.00  0.00     0.261 C 
BRANCH  31  32
ATOM     32  O   UNL A   1      32.847  33.107  26.781  1.00  0.00    -0.460 OA
BRANCH  32  33
ATOM     33  C   UNL A   1      33.314  33.716  27.900  1.00  0.00     0.338 C 
ATOM     34  O   UNL A   1      32.783  34.592  28.546  1.00  0.00    -0.246 OA
BRANCH  33  35
ATOM     35  C   UNL A   1      34.560  33.030  28.317  1.00  0.00     0.060 A 
ATOM     36  C   UNL A   1      35.790  33.690  28.294  1.00  0.00     0.016 A 
ATOM     37  C   UNL A   1      34.476  31.697  28.741  1.00  0.00     0.016 A 
ATOM     38  C   UNL A   1      36.933  33.026  28.745  1.00  0.00     0.010 A 
ATOM     39  C   UNL A   1      35.622  31.026  29.167  1.00  0.00     0.010 A 
ATOM     40  C   UNL A   1      36.850  31.701  29.207  1.00  0.00    -0.014 A 
BRANCH  40  41
ATOM     41  C   UNL A   1      37.986  31.114  29.952  1.00  0.00     0.031 A 
ATOM     42  C   UNL A   1      38.285  31.468  31.372  1.00  0.00     0.074 A 
ATOM     43  C   UNL A   1      38.776  30.254  29.283  1.00  0.00     0.049 A 
ATOM     44  N   UNL A   1      39.182  30.948  32.173  1.00  0.00    -0.248 NA
ATOM     45  C   UNL A   1      37.492  32.551  31.969  1.00  0.00     0.031 C 
ATOM     46  C   UNL A   1      38.611  29.890  27.873  1.00  0.00     0.029 A 
ATOM     47  N   UNL A   1      39.867  29.533  29.689  1.00  0.00    -0.354 N 
ATOM     48  C   UNL A   1      39.053  31.623  33.377  1.00  0.00     0.074 A 
ATOM     49  C   UNL A   1      38.021  32.625  33.185  1.00  0.00     0.031 C 
ATOM     50  C   UNL A   1      39.557  29.000  27.538  1.00  0.00     0.029 A 
ATOM     51  C   UNL A   1      40.395  28.741  28.702  1.00  0.00     0.049 A 
ATOM     52  H   UNL A   1      40.236  29.579  30.602  1.00  0.00     0.167 HD
ATOM     53  C   UNL A   1      39.727  31.412  34.535  1.00  0.00     0.037 A 
ATOM     54  C   UNL A   1      41.435  27.889  28.734  1.00  0.00     0.037 A 
ATOM     55  C   UNL A   1      40.776  30.433  34.699  1.00  0.00     0.049 A 
ATOM     56  C   UNL A   1      42.171  27.686  30.024  1.00  0.00     0.074 A 
ATOM     57  C   UNL A   1      41.471  30.092  35.848  1.00  0.00     0.029 A 
ATOM     58  N   UNL A   1      41.304  29.656  33.675  1.00  0.00    -0.354 N 
ATOM     59  N   UNL A   1      41.957  28.237  31.194  1.00  0.00    -0.248 NA
ATOM     60  C   UNL A   1      43.284  26.729  30.000  1.00  0.00     0.031 C 
ATOM     61  C   UNL A   1      42.452  29.151  35.508  1.00  0.00     0.029 A 
ATOM     62  C   UNL A   1      42.337  28.865  34.159  1.00  0.00     0.049 A 
ATOM     63  H   UNL A   1      40.989  29.664  32.743  1.00  0.00     0.167 HD
ATOM     64  C   UNL A   1      42.899  27.684  32.050  1.00  0.00     0.074 A 
ATOM     65  C   UNL A   1      43.664  26.733  31.270  1.00  0.00     0.031 C 
ATOM     66  C   UNL A   1      43.110  27.942  33.365  1.00  0.00     0.037 A 
BRANCH  53  67
ATOM     67  C   UNL A   1      39.353  32.259  35.718  1.00  0.00     0.057 A 
ATOM     68  C   UNL A   1      39.950  33.510  35.925  1.00  0.00     0.134 A 
ATOM     69  C   UNL A   1      38.433  31.818  36.679  1.00  0.00     0.134 A 
ATOM     70  F   UNL A   1      40.846  33.991  35.052  1.00  0.00    -0.206 F 
ATOM     71  C   UNL A   1      39.645  34.289  37.044  1.00  0.00     0.040 A 
ATOM     72  C   UNL A   1      38.103  32.598  37.790  1.00  0.00     0.040 A 
ATOM     73  F   UNL A   1      37.817  30.634  36.538  1.00  0.00    -0.206 F 
ATOM     74  C   UNL A   1      38.715  33.835  37.977  1.00  0.00     0.006 A 
ENDBRANCH  53  67
BRANCH  54  75
ATOM     75  C   UNL A   1      41.812  27.143  27.510  1.00  0.00     0.057 A 
ATOM     76  C   UNL A   1      41.322  25.855  27.264  1.00  0.00     0.134 A 
ATOM     77  C   UNL A   1      42.679  27.698  26.565  1.00  0.00     0.134 A 
ATOM     78  F   UNL A   1      40.496  25.265  28.141  1.00  0.00    -0.206 F 
ATOM     79  C   UNL A   1      41.682  25.146  26.119  1.00  0.00     0.040 A 
ATOM     80  C   UNL A   1      43.029  27.010  25.402  1.00  0.00     0.040 A 
ATOM     81  F   UNL A   1      43.171  28.933  26.743  1.00  0.00    -0.206 F 
ATOM     82  C   UNL A   1      42.533  25.727  25.180  1.00  0.00     0.006 A 
ENDBRANCH  54  75
BRANCH  66  83
ATOM     83  C   UNL A   1      44.220  27.176  34.026  1.00  0.00     0.057 A 
ATOM     84  C   UNL A   1      43.985  25.919  34.595  1.00  0.00     0.134 A 
ATOM     85  C   UNL A   1      45.530  27.675  34.081  1.00  0.00     0.134 A 
ATOM     86  F   UNL A   1      42.754  25.384  34.583  1.00  0.00    -0.206 F 
ATOM     87  C   UNL A   1      45.011  25.182  35.188  1.00  0.00     0.040 A 
ATOM     88  C   UNL A   1      46.570  26.934  34.644  1.00  0.00     0.040 A 
ATOM     89  F   UNL A   1      45.827  28.864  33.536  1.00  0.00    -0.206 F 
ATOM     90  C   UNL A   1      46.311  25.684  35.203  1.00  0.00     0.006 A 
ENDBRANCH  66  83
ENDBRANCH  40  41
ENDBRANCH  33  35
ENDBRANCH  32  33
ENDBRANCH  31  32
ENDBRANCH  30  31
ENDBRANCH  29  30
ENDBRANCH  28  29
ENDBRANCH   1  28
TORSDOF 21
ENDMDL
MODEL 2
REMARK VINA RESULT:     -10.7      3.268      8.594
REMARK SMILES C[C@@H]1Cc2ccccc2N1c1ccc(F)cc1C(=O)OCCOCCOCCOCCOC(=O)c1ccc(-c2c3nc(c(-c4c(F)cccc4F)c4ccc([nH]4)c(-c4c(F)cccc4F)c4nc(c(-c5c(F)cccc5F)c5ccc2[nH]5)C=C4)C=C3)cc1
REMARK SMILES IDX 27 1 26 2 25 3 24 4 23 5 22 6 21 7 20 8 18 9 19 10 17 11
REMARK SMILES IDX 11 12 12 13 13 14 16 15 14 16 15 17 10 18 1 19 2 20 3 21
REMARK SMILES IDX 4 22 9 23 5 24 8 25 6 26 7 27 28 28 29 29 30 30 31 31 32 32
REMARK SMILES IDX 33 33 34 34 35 35 36 36 88 37 37 38 87 39 38 40 39 41 40 42
REMARK SMILES IDX 81 43 41 44 86 45 80 46 82 47 42 48 85 49 79 50 78 51 43 53
REMARK SMILES IDX 69 54 52 55 68 56 53 57 56 58 67 59 83 60 54 61 55 62 66 64
REMARK SMILES IDX 84 65 57 66 44 67 45 68 50 69 46 70 47 71 49 72 51 73 48 74
REMARK SMILES IDX 70 75 71 76 76 77 72 78 73 79 75 80 77 81 74 82 58 83 59 84
REMARK SMILES IDX 64 85 60 86 61 87 63 88 65 89 62 90
REMARK H PARENT 82 52 56 63
REMARK Flexibility Score: inf
ROOT
ATOM      1  C   UNL A   1      42.524  19.296  25.714  1.00  0.00     0.188 C 
ENDROOT
BRANCH   1   2
ATOM      2  O   UNL A   1      42.270  19.762  27.030  1.00  0.00    -0.377 OA
BRANCH   2   3
ATOM      3  C   UNL A   1      40.964  20.282  27.236  1.00  0.00     0.188 C 
BRANCH   3   4
ATOM      4  C   UNL A   1      40.712  21.706  26.714  1.00  0.00     0.188 C 
BRANCH   4   5
ATOM      5  O   UNL A   1      39.373  21.913  26.264  1.00  0.00    -0.376 OA
BRANCH   5   6
ATOM      6  C   UNL A   1      38.756  23.144  26.614  1.00  0.00     0.202 C 
BRANCH   6   7
ATOM      7  C   UNL A   1      37.696  23.598  25.612  1.00  0.00     0.261 C 
BRANCH   7   8
ATOM      8  O   UNL A   1      36.806  22.545  25.226  1.00  0.00    -0.460 OA
BRANCH   8   9
ATOM      9  C   UNL A   1      36.186  22.657  24.036  1.00  0.00     0.340 C 
ATOM     10  O   UNL A   1      36.718  22.985  22.987  1.00  0.00    -0.246 OA
BRANCH   9  11
ATOM     11  C   UNL A   1      34.785  22.168  24.128  1.00  0.00     0.086 A 
ATOM     12  C   UNL A   1      33.639  22.845  23.638  1.00  0.00     0.056 A 
ATOM     13  C   UNL A   1      32.391  22.200  23.815  1.00  0.00     0.030 A 
ATOM     14  C   UNL A   1      32.262  21.017  24.546  1.00  0.00     0.041 A 
ATOM     15  C   UNL A   1      34.647  20.970  24.857  1.00  0.00     0.057 A 
ATOM     16  C   UNL A   1      33.391  20.428  25.084  1.00  0.00     0.124 A 
ATOM     17  F   UNL A   1      33.270  19.336  25.848  1.00  0.00    -0.207 F 
BRANCH  12  18
ATOM     18  N   UNL A   1      33.653  24.153  23.126  1.00  0.00    -0.337 N 
ATOM     19  C   UNL A   1      33.184  23.840  20.635  1.00  0.00     0.032 C 
ATOM     20  C   UNL A   1      32.850  24.556  21.933  1.00  0.00     0.089 C 
ATOM     21  C   UNL A   1      33.077  26.082  21.749  1.00  0.00     0.063 C 
ATOM     22  C   UNL A   1      33.367  26.492  23.148  1.00  0.00    -0.022 A 
ATOM     23  C   UNL A   1      33.723  25.364  23.891  1.00  0.00     0.045 A 
ATOM     24  C   UNL A   1      33.355  27.766  23.696  1.00  0.00     0.006 A 
ATOM     25  C   UNL A   1      34.088  25.513  25.223  1.00  0.00     0.026 A 
ATOM     26  C   UNL A   1      33.676  27.905  25.045  1.00  0.00     0.000 A 
ATOM     27  C   UNL A   1      34.039  26.786  25.806  1.00  0.00     0.002 A 
ENDBRANCH  12  18
ENDBRANCH   9  11
ENDBRANCH   8   9
ENDBRANCH   7   8
ENDBRANCH   6   7
ENDBRANCH   5   6
ENDBRANCH   4   5
ENDBRANCH   3   4
ENDBRANCH   2   3
ENDBRANCH   1   2
BRANCH   1  28
ATOM     28  C   UNL A   1      44.020  19.271  25.321  1.00  0.00     0.188 C 
BRANCH  28  29
ATOM     29  O   UNL A   1      44.543  19.981  24.202  1.00  0.00    -0.376 OA
BRANCH  29  30
ATOM     30  C   UNL A   1      45.173  21.239  24.362  1.00  0.00     0.202 C 
BRANCH  30  31
ATOM     31  C   UNL A   1      44.767  22.103  25.566  1.00  0.00     0.261 C 
BRANCH  31  32
ATOM     32  O   UNL A   1      43.892  23.199  25.276  1.00  0.00    -0.460 OA
BRANCH  32  33
ATOM     33  C   UNL A   1      44.475  24.425  25.281  1.00  0.00     0.338 C 
ATOM     34  O   UNL A   1      45.355  24.831  24.555  1.00  0.00    -0.246 OA
BRANCH  33  35
ATOM     35  C   UNL A   1      43.754  25.278  26.254  1.00  0.00     0.060 A 
ATOM     36  C   UNL A   1      42.555  24.858  26.833  1.00  0.00     0.016 A 
ATOM     37  C   UNL A   1      44.306  26.523  26.585  1.00  0.00     0.016 A 
ATOM     38  C   UNL A   1      41.932  25.668  27.786  1.00  0.00     0.010 A 
ATOM     39  C   UNL A   1      43.671  27.343  27.518  1.00  0.00     0.010 A 
ATOM     40  C   UNL A   1      42.501  26.901  28.152  1.00  0.00    -0.014 A 
BRANCH  40  41
ATOM     41  C   UNL A   1      42.010  27.605  29.357  1.00  0.00     0.031 A 
ATOM     42  C   UNL A   1      42.666  27.466  30.692  1.00  0.00     0.074 A 
ATOM     43  C   UNL A   1      40.909  28.366  29.215  1.00  0.00     0.049 A 
ATOM     44  N   UNL A   1      42.403  28.108  31.803  1.00  0.00    -0.248 NA
ATOM     45  C   UNL A   1      43.743  26.473  30.804  1.00  0.00     0.031 C 
ATOM     46  C   UNL A   1      40.152  28.517  27.969  1.00  0.00     0.029 A 
ATOM     47  N   UNL A   1      40.237  29.151  30.112  1.00  0.00    -0.354 N 
ATOM     48  C   UNL A   1      43.293  27.616  32.746  1.00  0.00     0.074 A 
ATOM     49  C   UNL A   1      44.072  26.584  32.086  1.00  0.00     0.031 C 
ATOM     50  C   UNL A   1      39.129  29.359  28.178  1.00  0.00     0.029 A 
ATOM     51  C   UNL A   1      39.154  29.796  29.570  1.00  0.00     0.049 A 
ATOM     52  H   UNL A   1      40.504  29.244  31.056  1.00  0.00     0.167 HD
ATOM     53  C   UNL A   1      43.447  28.002  34.037  1.00  0.00     0.037 A 
ATOM     54  C   UNL A   1      38.284  30.654  30.127  1.00  0.00     0.037 A 
ATOM     55  C   UNL A   1      42.639  29.007  34.688  1.00  0.00     0.049 A 
ATOM     56  C   UNL A   1      38.471  31.053  31.560  1.00  0.00     0.074 A 
ATOM     57  C   UNL A   1      42.762  29.521  35.969  1.00  0.00     0.029 A 
ATOM     58  N   UNL A   1      41.537  29.631  34.118  1.00  0.00    -0.354 N 
ATOM     59  N   UNL A   1      39.397  30.678  32.409  1.00  0.00    -0.248 NA
ATOM     60  C   UNL A   1      37.500  32.009  32.108  1.00  0.00     0.031 C 
ATOM     61  C   UNL A   1      41.705  30.412  36.190  1.00  0.00     0.029 A 
ATOM     62  C   UNL A   1      40.951  30.496  35.032  1.00  0.00     0.049 A 
ATOM     63  H   UNL A   1      41.219  29.482  33.198  1.00  0.00     0.167 HD
ATOM     64  C   UNL A   1      39.129  31.361  33.587  1.00  0.00     0.074 A 
ATOM     65  C   UNL A   1      37.972  32.196  33.331  1.00  0.00     0.031 C 
ATOM     66  C   UNL A   1      39.783  31.301  34.774  1.00  0.00     0.037 A 
BRANCH  53  67
ATOM     67  C   UNL A   1      44.531  27.334  34.834  1.00  0.00     0.057 A 
ATOM     68  C   UNL A   1      44.305  26.104  35.466  1.00  0.00     0.134 A 
ATOM     69  C   UNL A   1      45.787  27.929  35.015  1.00  0.00     0.134 A 
ATOM     70  F   UNL A   1      43.124  25.481  35.344  1.00  0.00    -0.206 F 
ATOM     71  C   UNL A   1      45.289  25.492  36.247  1.00  0.00     0.040 A 
ATOM     72  C   UNL A   1      46.786  27.316  35.775  1.00  0.00     0.040 A 
ATOM     73  F   UNL A   1      46.074  29.103  34.431  1.00  0.00    -0.206 F 
ATOM     74  C   UNL A   1      46.535  26.096  36.398  1.00  0.00     0.006 A 
ENDBRANCH  53  67
BRANCH  54  75
ATOM     75  C   UNL A   1      37.181  31.218  29.313  1.00  0.00     0.057 A 
ATOM     76  C   UNL A   1      36.027  30.475  29.037  1.00  0.00     0.134 A 
ATOM     77  C   UNL A   1      37.262  32.510  28.785  1.00  0.00     0.134 A 
ATOM     78  F   UNL A   1      35.898  29.225  29.506  1.00  0.00    -0.206 F 
ATOM     79  C   UNL A   1      34.993  30.999  28.263  1.00  0.00     0.040 A 
ATOM     80  C   UNL A   1      36.224  33.055  28.029  1.00  0.00     0.040 A 
ATOM     81  F   UNL A   1      38.340  33.272  29.026  1.00  0.00    -0.206 F 
ATOM     82  C   UNL A   1      35.087  32.296  27.762  1.00  0.00     0.006 A 
ENDBRANCH  54  75
BRANCH  66  83
ATOM     83  C   UNL A   1      39.247  32.168  35.877  1.00  0.00     0.057 A 
ATOM     84  C   UNL A   1      39.662  33.499  36.010  1.00  0.00     0.134 A 
ATOM     85  C   UNL A   1      38.301  31.692  36.796  1.00  0.00     0.134 A 
ATOM     86  F   UNL A   1      40.568  34.018  35.167  1.00  0.00    -0.206 F 
ATOM     87  C   UNL A   1      39.152  34.327  37.011  1.00  0.00     0.040 A 
ATOM     88  C   UNL A   1      37.762  32.519  37.783  1.00  0.00     0.040 A 
ATOM     89  F   UNL A   1      37.846  30.433  36.712  1.00  0.00    -0.206 F 
ATOM     90  C   UNL A   1      38.190  33.840  37.894  1.00  0.00     0.006 A 
ENDBRANCH  66  83
ENDBRANCH  40  41
ENDBRANCH  33  35
ENDBRANCH  32  33
ENDBRANCH  31  32
ENDBRANCH  30  31
ENDBRANCH  29  30
ENDBRANCH  28  29
ENDBRANCH   1  28
TORSDOF 21
ENDMDL
MODEL 3
REMARK VINA RESULT:     -10.6      3.880      6.961
REMARK SMILES C[C@@H]1Cc2ccccc2N1c1ccc(F)cc1C(=O)OCCOCCOCCOCCOC(=O)c1ccc(-c2c3nc(c(-c4c(F)cccc4F)c4ccc([nH]4)c(-c4c(F)cccc4F)c4nc(c(-c5c(F)cccc5F)c5ccc2[nH]5)C=C4)C=C3)cc1
REMARK SMILES IDX 27 1 26 2 25 3 24 4 23 5 22 6 21 7 20 8 18 9 19 10 17 11
REMARK SMILES IDX 11 12 12 13 13 14 16 15 14 16 15 17 10 18 1 19 2 20 3 21
REMARK SMILES IDX 4 22 9 23 5 24 8 25 6 26 7 27 28 28 29 29 30 30 31 31 32 32
REMARK SMILES IDX 33 33 34 34 35 35 36 36 88 37 37 38 87 39 38 40 39 41 40 42
REMARK SMILES IDX 81 43 41 44 86 45 80 46 82 47 42 48 85 49 79 50 78 51 43 53
REMARK SMILES IDX 69 54 52 55 68 56 53 57 56 58 67 59 83 60 54 61 55 62 66 64
REMARK SMILES IDX 84 65 57 66 44 67 45 68 50 69 46 70 47 71 49 72 51 73 48 74
REMARK SMILES IDX 70 75 71 76 76 77 72 78 73 79 75 80 77 81 74 82 58 83 59 84
REMARK SMILES IDX 64 85 60 86 61 87 63 88 65 89 62 90
REMARK H PARENT 82 52 56 63
REMARK Flexibility Score: inf
ROOT
ATOM      1  C   UNL A   1      34.601  34.276  29.567  1.00  0.00     0.188 C 
ENDROOT
BRANCH   1   2
ATOM      2  O   UNL A   1      34.313  32.888  29.517  1.00  0.00    -0.377 OA
BRANCH   2   3
ATOM      3  C   UNL A   1      34.326  32.324  28.214  1.00  0.00     0.188 C 
BRANCH   3   4
ATOM      4  C   UNL A   1      35.449  31.315  27.922  1.00  0.00     0.188 C 
BRANCH   4   5
ATOM      5  O   UNL A   1      34.969  30.057  27.448  1.00  0.00    -0.376 OA
BRANCH   5   6
ATOM      6  C   UNL A   1      33.584  29.967  27.143  1.00  0.00     0.202 C 
BRANCH   6   7
ATOM      7  C   UNL A   1      33.288  29.095  25.924  1.00  0.00     0.261 C 
BRANCH   7   8
ATOM      8  O   UNL A   1      34.078  27.902  25.886  1.00  0.00    -0.460 OA
BRANCH   8   9
ATOM      9  C   UNL A   1      33.447  26.728  26.084  1.00  0.00     0.340 C 
ATOM     10  O   UNL A   1      32.513  26.546  26.849  1.00  0.00    -0.246 OA
BRANCH   9  11
ATOM     11  C   UNL A   1      33.932  25.705  25.120  1.00  0.00     0.086 A 
ATOM     12  C   UNL A   1      33.243  25.272  23.959  1.00  0.00     0.056 A 
ATOM     13  C   UNL A   1      33.886  24.294  23.162  1.00  0.00     0.030 A 
ATOM     14  C   UNL A   1      35.077  23.680  23.554  1.00  0.00     0.041 A 
ATOM     15  C   UNL A   1      35.139  25.088  25.505  1.00  0.00     0.057 A 
ATOM     16  C   UNL A   1      35.678  24.066  24.738  1.00  0.00     0.124 A 
ATOM     17  F   UNL A   1      36.780  23.434  25.159  1.00  0.00    -0.207 F 
BRANCH  12  18
ATOM     18  N   UNL A   1      31.929  25.646  23.634  1.00  0.00    -0.337 N 
ATOM     19  C   UNL A   1      30.519  23.661  24.403  1.00  0.00     0.032 C 
ATOM     20  C   UNL A   1      30.743  25.164  24.403  1.00  0.00     0.089 C 
ATOM     21  C   UNL A   1      29.504  25.867  23.784  1.00  0.00     0.063 C 
ATOM     22  C   UNL A   1      30.122  27.113  23.262  1.00  0.00    -0.022 A 
ATOM     23  C   UNL A   1      31.504  26.932  23.161  1.00  0.00     0.045 A 
ATOM     24  C   UNL A   1      29.499  28.289  22.872  1.00  0.00     0.006 A 
ATOM     25  C   UNL A   1      32.289  27.956  22.646  1.00  0.00     0.026 A 
ATOM     26  C   UNL A   1      30.297  29.331  22.398  1.00  0.00     0.000 A 
ATOM     27  C   UNL A   1      31.683  29.167  22.288  1.00  0.00     0.002 A 
ENDBRANCH  12  18
ENDBRANCH   9  11
ENDBRANCH   8   9
ENDBRANCH   7   8
ENDBRANCH   6   7
ENDBRANCH   5   6
ENDBRANCH   4   5
ENDBRANCH   3   4
ENDBRANCH   2   3
ENDBRANCH   1   2
BRANCH   1  28
ATOM     28  C   UNL A   1      33.567  35.118  30.352  1.00  0.00     0.188 C 
BRANCH  28  29
ATOM     29  O   UNL A   1      33.263  34.895  31.726  1.00  0.00    -0.376 OA
BRANCH  29  30
ATOM     30  C   UNL A   1      34.286  34.645  32.672  1.00  0.00     0.202 C 
BRANCH  30  31
ATOM     31  C   UNL A   1      34.369  33.243  33.295  1.00  0.00     0.261 C 
BRANCH  31  32
ATOM     32  O   UNL A   1      35.322  32.356  32.700  1.00  0.00    -0.460 OA
BRANCH  32  33
ATOM     33  C   UNL A   1      36.472  32.183  33.401  1.00  0.00     0.338 C 
ATOM     34  O   UNL A   1      36.669  32.413  34.573  1.00  0.00    -0.246 OA
BRANCH  33  35
ATOM     35  C   UNL A   1      37.457  31.515  32.519  1.00  0.00     0.060 A 
ATOM     36  C   UNL A   1      37.320  31.544  31.130  1.00  0.00     0.016 A 
ATOM     37  C   UNL A   1      38.540  30.852  33.112  1.00  0.00     0.016 A 
ATOM     38  C   UNL A   1      38.299  30.948  30.331  1.00  0.00     0.010 A 
ATOM     39  C   UNL A   1      39.504  30.234  32.315  1.00  0.00     0.010 A 
ATOM     40  C   UNL A   1      39.407  30.314  30.919  1.00  0.00    -0.014 A 
BRANCH  40  41
ATOM     41  C   UNL A   1      40.573  29.954  30.082  1.00  0.00     0.031 A 
ATOM     42  C   UNL A   1      41.665  30.922  29.765  1.00  0.00     0.074 A 
ATOM     43  C   UNL A   1      40.602  28.706  29.577  1.00  0.00     0.049 A 
ATOM     44  N   UNL A   1      42.793  30.707  29.135  1.00  0.00    -0.248 NA
ATOM     45  C   UNL A   1      41.466  32.313  30.195  1.00  0.00     0.031 C 
ATOM     46  C   UNL A   1      39.552  27.702  29.770  1.00  0.00     0.029 A 
ATOM     47  N   UNL A   1      41.537  28.070  28.807  1.00  0.00    -0.354 N 
ATOM     48  C   UNL A   1      43.452  31.926  29.106  1.00  0.00     0.074 A 
ATOM     49  C   UNL A   1      42.574  32.890  29.742  1.00  0.00     0.031 C 
ATOM     50  C   UNL A   1      39.911  26.569  29.149  1.00  0.00     0.029 A 
ATOM     51  C   UNL A   1      41.206  26.772  28.509  1.00  0.00     0.049 A 
ATOM     52  H   UNL A   1      42.367  28.501  28.496  1.00  0.00     0.167 HD
ATOM     53  C   UNL A   1      44.682  32.204  28.605  1.00  0.00     0.037 A 
ATOM     54  C   UNL A   1      41.877  25.842  27.808  1.00  0.00     0.037 A 
ATOM     55  C   UNL A   1      45.529  31.239  27.944  1.00  0.00     0.049 A 
ATOM     56  C   UNL A   1      43.228  26.182  27.254  1.00  0.00     0.074 A 
ATOM     57  C   UNL A   1      46.819  31.403  27.466  1.00  0.00     0.029 A 
ATOM     58  N   UNL A   1      45.160  29.935  27.640  1.00  0.00    -0.354 N 
ATOM     59  N   UNL A   1      43.900  27.304  27.344  1.00  0.00    -0.248 NA
ATOM     60  C   UNL A   1      43.921  25.120  26.514  1.00  0.00     0.031 C 
ATOM     61  C   UNL A   1      47.207  30.219  26.828  1.00  0.00     0.029 A 
ATOM     62  C   UNL A   1      46.181  29.297  26.952  1.00  0.00     0.049 A 
ATOM     63  H   UNL A   1      44.299  29.523  27.881  1.00  0.00     0.167 HD
ATOM     64  C   UNL A   1      45.101  27.080  26.685  1.00  0.00     0.074 A 
ATOM     65  C   UNL A   1      45.075  25.704  26.227  1.00  0.00     0.031 C 
ATOM     66  C   UNL A   1      46.132  27.936  26.477  1.00  0.00     0.037 A 
BRANCH  53  67
ATOM     67  C   UNL A   1      45.185  33.612  28.750  1.00  0.00     0.057 A 
ATOM     68  C   UNL A   1      44.959  34.565  27.748  1.00  0.00     0.134 A 
ATOM     69  C   UNL A   1      45.934  34.017  29.864  1.00  0.00     0.134 A 
ATOM     70  F   UNL A   1      44.258  34.246  26.650  1.00  0.00    -0.206 F 
ATOM     71  C   UNL A   1      45.459  35.866  27.848  1.00  0.00     0.040 A 
ATOM     72  C   UNL A   1      46.420  35.320  29.987  1.00  0.00     0.040 A 
ATOM     73  F   UNL A   1      46.181  33.158  30.866  1.00  0.00    -0.206 F 
ATOM     74  C   UNL A   1      46.187  36.247  28.974  1.00  0.00     0.006 A 
ENDBRANCH  53  67
BRANCH  54  75
ATOM     75  C   UNL A   1      41.292  24.493  27.625  1.00  0.00     0.057 A 
ATOM     76  C   UNL A   1      40.251  24.268  26.716  1.00  0.00     0.134 A 
ATOM     77  C   UNL A   1      41.755  23.400  28.363  1.00  0.00     0.134 A 
ATOM     78  F   UNL A   1      39.757  25.281  25.988  1.00  0.00    -0.206 F 
ATOM     79  C   UNL A   1      39.692  23.003  26.548  1.00  0.00     0.040 A 
ATOM     80  C   UNL A   1      41.221  22.122  28.188  1.00  0.00     0.040 A 
ATOM     81  F   UNL A   1      42.758  23.553  29.241  1.00  0.00    -0.206 F 
ATOM     82  C   UNL A   1      40.182  21.923  27.281  1.00  0.00     0.006 A 
ENDBRANCH  54  75
BRANCH  66  83
ATOM     83  C   UNL A   1      47.308  27.394  25.717  1.00  0.00     0.057 A 
ATOM     84  C   UNL A   1      47.415  27.577  24.333  1.00  0.00     0.134 A 
ATOM     85  C   UNL A   1      48.349  26.707  26.360  1.00  0.00     0.134 A 
ATOM     86  F   UNL A   1      46.454  28.220  23.654  1.00  0.00    -0.206 F 
ATOM     87  C   UNL A   1      48.516  27.104  23.617  1.00  0.00     0.040 A 
ATOM     88  C   UNL A   1      49.468  26.256  25.659  1.00  0.00     0.040 A 
ATOM     89  F   UNL A   1      48.318  26.515  27.687  1.00  0.00    -0.206 F 
ATOM     90  C   UNL A   1      49.553  26.452  24.282  1.00  0.00     0.006 A 
ENDBRANCH  66  83
ENDBRANCH  40  41
ENDBRANCH  33  35
ENDBRANCH  32  33
ENDBRANCH  31  32
ENDBRANCH  30  31
ENDBRANCH  29  30
ENDBRANCH  28  29
ENDBRANCH   1  28
TORSDOF 21
ENDMDL
