MODEL 1
REMARK VINA RESULT:      -9.7      0.000      0.000
REMARK SMILES O=C(OCCOCCOCCOCCOC(=O)[C@H]1CC1(c1ccccc1)c1ccccc1)c1ccc(-c2c3nc(c(-c4c(F)cccc4F)c4ccc([nH]4)c(-c4c(F)cccc4F)c4nc(c(-c5c(F)cccc5F)c5ccc2[nH]5)C=C4)C=C3)cc1
REMARK SMILES IDX 8 1 7 2 6 3 5 4 4 5 3 6 2 7 1 8 33 9 34 10 86 11 35 12 85 13
REMARK SMILES IDX 36 14 37 15 38 16 79 17 39 18 84 19 78 20 80 21 40 22 83 23
REMARK SMILES IDX 77 24 76 25 41 27 67 28 50 29 66 30 51 31 54 32 65 33 81 34
REMARK SMILES IDX 52 35 53 36 64 38 82 39 55 40 42 41 43 42 48 43 44 44 45 45
REMARK SMILES IDX 47 46 49 47 46 48 68 49 69 50 74 51 70 52 71 53 73 54 75 55
REMARK SMILES IDX 72 56 56 57 57 58 62 59 58 60 59 61 61 62 63 63 60 64 9 65
REMARK SMILES IDX 10 66 11 67 12 68 13 69 14 70 15 71 16 72 17 73 18 74 19 75
REMARK SMILES IDX 20 76 21 77 22 78 26 79 23 80 25 81 24 82 27 83 28 84 32 85
REMARK SMILES IDX 29 86 31 87 30 88
REMARK H PARENT 80 26 54 37
REMARK Flexibility Score: inf
ROOT
ATOM      1  C   UNL A   1      29.874  29.163  23.172  1.00  0.00     0.188 C 
ENDROOT
BRANCH   1   2
ATOM      2  C   UNL A   1      30.648  29.952  24.230  1.00  0.00     0.188 C 
BRANCH   2   3
ATOM      3  O   UNL A   1      31.947  29.385  24.432  1.00  0.00    -0.376 OA
BRANCH   3   4
ATOM      4  C   UNL A   1      32.564  29.714  25.679  1.00  0.00     0.202 C 
BRANCH   4   5
ATOM      5  C   UNL A   1      33.770  28.840  26.011  1.00  0.00     0.261 C 
BRANCH   5   6
ATOM      6  O   UNL A   1      34.140  28.950  27.391  1.00  0.00    -0.460 OA
BRANCH   6   7
ATOM      7  C   UNL A   1      34.967  29.868  27.949  1.00  0.00     0.338 C 
ATOM      8  O   UNL A   1      34.469  30.901  28.396  1.00  0.00    -0.246 OA
BRANCH   7   9
ATOM      9  C   UNL A   1      36.446  29.687  28.111  1.00  0.00     0.060 A 
ATOM     10  C   UNL A   1      37.422  29.906  27.133  1.00  0.00     0.016 A 
ATOM     11  C   UNL A   1      36.882  29.317  29.395  1.00  0.00     0.016 A 
ATOM     12  C   UNL A   1      38.773  29.700  27.384  1.00  0.00     0.010 A 
ATOM     13  C   UNL A   1      38.235  29.111  29.664  1.00  0.00     0.010 A 
ATOM     14  C   UNL A   1      39.176  29.266  28.640  1.00  0.00    -0.014 A 
BRANCH  14  15
ATOM     15  C   UNL A   1      40.540  28.741  28.798  1.00  0.00     0.031 A 
ATOM     16  C   UNL A   1      41.568  29.680  29.343  1.00  0.00     0.074 A 
ATOM     17  C   UNL A   1      40.820  27.456  28.534  1.00  0.00     0.049 A 
ATOM     18  N   UNL A   1      42.863  29.548  29.413  1.00  0.00    -0.248 NA
ATOM     19  C   UNL A   1      41.057  30.952  29.888  1.00  0.00     0.031 C 
ATOM     20  C   UNL A   1      39.842  26.441  28.144  1.00  0.00     0.029 A 
ATOM     21  N   UNL A   1      42.015  26.789  28.555  1.00  0.00    -0.354 N 
ATOM     22  C   UNL A   1      43.325  30.740  29.958  1.00  0.00     0.074 A 
ATOM     23  C   UNL A   1      42.175  31.575  30.218  1.00  0.00     0.031 C 
ATOM     24  C   UNL A   1      40.484  25.278  27.941  1.00  0.00     0.029 A 
ATOM     25  C   UNL A   1      41.917  25.492  28.118  1.00  0.00     0.049 A 
ATOM     26  H   UNL A   1      42.859  27.199  28.853  1.00  0.00     0.167 HD
ATOM     27  C   UNL A   1      44.606  31.103  30.191  1.00  0.00     0.037 A 
ATOM     28  C   UNL A   1      42.894  24.609  27.840  1.00  0.00     0.037 A 
ATOM     29  C   UNL A   1      45.719  30.242  29.910  1.00  0.00     0.049 A 
ATOM     30  C   UNL A   1      44.320  25.053  28.028  1.00  0.00     0.074 A 
ATOM     31  C   UNL A   1      47.070  30.496  30.030  1.00  0.00     0.029 A 
ATOM     32  N   UNL A   1      45.589  28.938  29.442  1.00  0.00    -0.354 N 
ATOM     33  N   UNL A   1      44.773  26.209  28.459  1.00  0.00    -0.248 NA
ATOM     34  C   UNL A   1      45.370  24.089  27.678  1.00  0.00     0.031 C 
ATOM     35  C   UNL A   1      47.760  29.357  29.598  1.00  0.00     0.029 A 
ATOM     36  C   UNL A   1      46.837  28.377  29.255  1.00  0.00     0.049 A 
ATOM     37  H   UNL A   1      44.734  28.482  29.270  1.00  0.00     0.167 HD
ATOM     38  C   UNL A   1      46.156  26.110  28.447  1.00  0.00     0.074 A 
ATOM     39  C   UNL A   1      46.469  24.774  27.973  1.00  0.00     0.031 C 
ATOM     40  C   UNL A   1      47.088  27.032  28.795  1.00  0.00     0.037 A 
BRANCH  27  41
ATOM     41  C   UNL A   1      44.829  32.507  30.670  1.00  0.00     0.057 A 
ATOM     42  C   UNL A   1      45.005  33.582  29.789  1.00  0.00     0.134 A 
ATOM     43  C   UNL A   1      44.962  32.767  32.040  1.00  0.00     0.134 A 
ATOM     44  F   UNL A   1      44.928  33.394  28.462  1.00  0.00    -0.206 F 
ATOM     45  C   UNL A   1      45.349  34.855  30.251  1.00  0.00     0.040 A 
ATOM     46  C   UNL A   1      45.281  34.041  32.515  1.00  0.00     0.040 A 
ATOM     47  F   UNL A   1      44.816  31.782  32.938  1.00  0.00    -0.206 F 
ATOM     48  C   UNL A   1      45.489  35.086  31.617  1.00  0.00     0.006 A 
ENDBRANCH  27  41
BRANCH  28  49
ATOM     49  C   UNL A   1      42.545  23.270  27.302  1.00  0.00     0.057 A 
ATOM     50  C   UNL A   1      42.162  22.220  28.144  1.00  0.00     0.134 A 
ATOM     51  C   UNL A   1      42.537  23.021  25.923  1.00  0.00     0.134 A 
ATOM     52  F   UNL A   1      42.165  22.386  29.475  1.00  0.00    -0.206 F 
ATOM     53  C   UNL A   1      41.779  20.977  27.635  1.00  0.00     0.040 A 
ATOM     54  C   UNL A   1      42.134  21.791  25.399  1.00  0.00     0.040 A 
ATOM     55  F   UNL A   1      42.891  23.984  25.059  1.00  0.00    -0.206 F 
ATOM     56  C   UNL A   1      41.754  20.763  26.258  1.00  0.00     0.006 A 
ENDBRANCH  28  49
BRANCH  40  57
ATOM     57  C   UNL A   1      48.523  26.615  28.716  1.00  0.00     0.057 A 
ATOM     58  C   UNL A   1      49.310  26.893  27.593  1.00  0.00     0.134 A 
ATOM     59  C   UNL A   1      49.143  26.018  29.821  1.00  0.00     0.134 A 
ATOM     60  F   UNL A   1      48.766  27.457  26.505  1.00  0.00    -0.206 F 
ATOM     61  C   UNL A   1      50.670  26.591  27.572  1.00  0.00     0.040 A 
ATOM     62  C   UNL A   1      50.506  25.730  29.818  1.00  0.00     0.040 A 
ATOM     63  F   UNL A   1      48.438  25.738  30.928  1.00  0.00    -0.206 F 
ATOM     64  C   UNL A   1      51.274  26.017  28.692  1.00  0.00     0.006 A 
ENDBRANCH  40  57
ENDBRANCH  14  15
ENDBRANCH   7   9
ENDBRANCH   6   7
ENDBRANCH   5   6
ENDBRANCH   4   5
ENDBRANCH   3   4
ENDBRANCH   2   3
ENDBRANCH   1   2
BRANCH   1  65
ATOM     65  O   UNL A   1      30.686  28.366  22.307  1.00  0.00    -0.377 OA
BRANCH  65  66
ATOM     66  C   UNL A   1      30.679  26.964  22.549  1.00  0.00     0.188 C 
BRANCH  66  67
ATOM     67  C   UNL A   1      29.632  26.370  23.513  1.00  0.00     0.188 C 
BRANCH  67  68
ATOM     68  O   UNL A   1      30.157  25.640  24.616  1.00  0.00    -0.376 OA
BRANCH  68  69
ATOM     69  C   UNL A   1      30.554  26.442  25.730  1.00  0.00     0.202 C 
BRANCH  69  70
ATOM     70  C   UNL A   1      31.754  25.894  26.517  1.00  0.00     0.261 C 
BRANCH  70  71
ATOM     71  O   UNL A   1      32.247  24.638  26.028  1.00  0.00    -0.463 OA
BRANCH  71  72
ATOM     72  C   UNL A   1      32.196  23.571  26.859  1.00  0.00     0.310 C 
ATOM     73  O   UNL A   1      31.175  23.027  27.260  1.00  0.00    -0.252 OA
BRANCH  72  74
ATOM     74  C   UNL A   1      33.531  22.942  26.995  1.00  0.00     0.115 C 
ATOM     75  C   UNL A   1      33.634  21.460  27.265  1.00  0.00     0.034 C 
ATOM     76  C   UNL A   1      34.240  22.042  25.995  1.00  0.00     0.034 C 
BRANCH  76  77
ATOM     77  C   UNL A   1      33.553  21.632  24.695  1.00  0.00    -0.037 A 
ATOM     78  C   UNL A   1      33.398  22.549  23.642  1.00  0.00     0.004 A 
ATOM     79  C   UNL A   1      32.994  20.353  24.528  1.00  0.00     0.004 A 
ATOM     80  C   UNL A   1      32.702  22.208  22.481  1.00  0.00     0.000 A 
ATOM     81  C   UNL A   1      32.300  20.006  23.371  1.00  0.00     0.000 A 
ATOM     82  C   UNL A   1      32.149  20.937  22.350  1.00  0.00     0.000 A 
ENDBRANCH  76  77
BRANCH  76  83
ATOM     83  C   UNL A   1      35.776  22.273  25.908  1.00  0.00    -0.037 A 
ATOM     84  C   UNL A   1      36.632  21.231  25.498  1.00  0.00     0.004 A 
ATOM     85  C   UNL A   1      36.396  23.512  26.173  1.00  0.00     0.004 A 
ATOM     86  C   UNL A   1      38.014  21.404  25.373  1.00  0.00     0.000 A 
ATOM     87  C   UNL A   1      37.777  23.698  26.031  1.00  0.00     0.000 A 
ATOM     88  C   UNL A   1      38.586  22.641  25.634  1.00  0.00     0.000 A 
ENDBRANCH  76  83
ENDBRANCH  72  74
ENDBRANCH  71  72
ENDBRANCH  70  71
ENDBRANCH  69  70
ENDBRANCH  68  69
ENDBRANCH  67  68
ENDBRANCH  66  67
ENDBRANCH  65  66
ENDBRANCH   1  65
TORSDOF 22
ENDMDL
MODEL 2
REMARK VINA RESULT:      -9.6      5.067      9.685
REMARK SMILES O=C(OCCOCCOCCOCCOC(=O)[C@H]1CC1(c1ccccc1)c1ccccc1)c1ccc(-c2c3nc(c(-c4c(F)cccc4F)c4ccc([nH]4)c(-c4c(F)cccc4F)c4nc(c(-c5c(F)cccc5F)c5ccc2[nH]5)C=C4)C=C3)cc1
REMARK SMILES IDX 8 1 7 2 6 3 5 4 4 5 3 6 2 7 1 8 33 9 34 10 86 11 35 12 85 13
REMARK SMILES IDX 36 14 37 15 38 16 79 17 39 18 84 19 78 20 80 21 40 22 83 23
REMARK SMILES IDX 77 24 76 25 41 27 67 28 50 29 66 30 51 31 54 32 65 33 81 34
REMARK SMILES IDX 52 35 53 36 64 38 82 39 55 40 42 41 43 42 48 43 44 44 45 45
REMARK SMILES IDX 47 46 49 47 46 48 68 49 69 50 74 51 70 52 71 53 73 54 75 55
REMARK SMILES IDX 72 56 56 57 57 58 62 59 58 60 59 61 61 62 63 63 60 64 9 65
REMARK SMILES IDX 10 66 11 67 12 68 13 69 14 70 15 71 16 72 17 73 18 74 19 75
REMARK SMILES IDX 20 76 21 77 22 78 26 79 23 80 25 81 24 82 27 83 28 84 32 85
REMARK SMILES IDX 29 86 31 87 30 88
REMARK H PARENT 80 26 54 37
REMARK Flexibility Score: inf
ROOT
ATOM      1  C   UNL A   1      42.988  20.359  25.754  1.00  0.00     0.188 C 
ENDROOT
BRANCH   1   2
ATOM      2  C   UNL A   1      43.653  21.734  25.849  1.00  0.00     0.188 C 
BRANCH   2   3
ATOM      3  O   UNL A   1      43.650  22.384  24.573  1.00  0.00    -0.376 OA
BRANCH   3   4
ATOM      4  C   UNL A   1      43.666  23.813  24.622  1.00  0.00     0.202 C 
BRANCH   4   5
ATOM      5  C   UNL A   1      42.655  24.401  25.603  1.00  0.00     0.261 C 
BRANCH   5   6
ATOM      6  O   UNL A   1      41.977  25.534  25.049  1.00  0.00    -0.460 OA
BRANCH   6   7
ATOM      7  C   UNL A   1      42.053  26.822  25.466  1.00  0.00     0.338 C 
ATOM      8  O   UNL A   1      42.283  27.691  24.625  1.00  0.00    -0.246 OA
BRANCH   7   9
ATOM      9  C   UNL A   1      41.821  27.270  26.878  1.00  0.00     0.060 A 
ATOM     10  C   UNL A   1      40.907  26.723  27.784  1.00  0.00     0.016 A 
ATOM     11  C   UNL A   1      42.654  28.305  27.337  1.00  0.00     0.016 A 
ATOM     12  C   UNL A   1      40.763  27.219  29.074  1.00  0.00     0.010 A 
ATOM     13  C   UNL A   1      42.525  28.811  28.632  1.00  0.00     0.010 A 
ATOM     14  C   UNL A   1      41.547  28.289  29.485  1.00  0.00    -0.014 A 
BRANCH  14  15
ATOM     15  C   UNL A   1      41.167  29.009  30.708  1.00  0.00     0.031 A 
ATOM     16  C   UNL A   1      39.984  29.919  30.619  1.00  0.00     0.074 A 
ATOM     17  C   UNL A   1      41.812  28.794  31.865  1.00  0.00     0.049 A 
ATOM     18  N   UNL A   1      39.545  30.801  31.472  1.00  0.00    -0.248 NA
ATOM     19  C   UNL A   1      39.181  29.816  29.386  1.00  0.00     0.031 C 
ATOM     20  C   UNL A   1      42.877  27.812  32.068  1.00  0.00     0.029 A 
ATOM     21  N   UNL A   1      41.662  29.393  33.085  1.00  0.00    -0.354 N 
ATOM     22  C   UNL A   1      38.450  31.395  30.857  1.00  0.00     0.074 A 
ATOM     23  C   UNL A   1      38.278  30.764  29.570  1.00  0.00     0.031 C 
ATOM     24  C   UNL A   1      43.300  27.891  33.341  1.00  0.00     0.029 A 
ATOM     25  C   UNL A   1      42.586  28.975  34.010  1.00  0.00     0.049 A 
ATOM     26  H   UNL A   1      40.963  30.058  33.281  1.00  0.00     0.167 HD
ATOM     27  C   UNL A   1      37.679  32.401  31.328  1.00  0.00     0.037 A 
ATOM     28  C   UNL A   1      42.850  29.464  35.235  1.00  0.00     0.037 A 
ATOM     29  C   UNL A   1      37.893  33.005  32.613  1.00  0.00     0.049 A 
ATOM     30  C   UNL A   1      42.037  30.636  35.717  1.00  0.00     0.074 A 
ATOM     31  C   UNL A   1      37.238  34.071  33.194  1.00  0.00     0.029 A 
ATOM     32  N   UNL A   1      38.856  32.574  33.519  1.00  0.00    -0.354 N 
ATOM     33  N   UNL A   1      41.057  31.264  35.107  1.00  0.00    -0.248 NA
ATOM     34  C   UNL A   1      42.371  31.181  37.037  1.00  0.00     0.031 C 
ATOM     35  C   UNL A   1      37.832  34.311  34.438  1.00  0.00     0.029 A 
ATOM     36  C   UNL A   1      38.823  33.362  34.653  1.00  0.00     0.049 A 
ATOM     37  H   UNL A   1      39.470  31.818  33.374  1.00  0.00     0.167 HD
ATOM     38  C   UNL A   1      40.645  32.268  35.971  1.00  0.00     0.074 A 
ATOM     39  C   UNL A   1      41.480  32.159  37.154  1.00  0.00     0.031 C 
ATOM     40  C   UNL A   1      39.670  33.197  35.810  1.00  0.00     0.037 A 
BRANCH  27  41
ATOM     41  C   UNL A   1      36.636  32.940  30.395  1.00  0.00     0.057 A 
ATOM     42  C   UNL A   1      35.287  32.570  30.481  1.00  0.00     0.134 A 
ATOM     43  C   UNL A   1      37.009  33.774  29.333  1.00  0.00     0.134 A 
ATOM     44  F   UNL A   1      34.870  31.743  31.452  1.00  0.00    -0.206 F 
ATOM     45  C   UNL A   1      34.357  32.973  29.519  1.00  0.00     0.040 A 
ATOM     46  C   UNL A   1      36.084  34.204  28.380  1.00  0.00     0.040 A 
ATOM     47  F   UNL A   1      38.286  34.159  29.185  1.00  0.00    -0.206 F 
ATOM     48  C   UNL A   1      34.755  33.792  28.465  1.00  0.00     0.006 A 
ENDBRANCH  27  41
BRANCH  28  49
ATOM     49  C   UNL A   1      43.960  28.888  36.034  1.00  0.00     0.057 A 
ATOM     50  C   UNL A   1      43.766  27.776  36.862  1.00  0.00     0.134 A 
ATOM     51  C   UNL A   1      45.260  29.406  35.952  1.00  0.00     0.134 A 
ATOM     52  F   UNL A   1      42.544  27.243  37.000  1.00  0.00    -0.206 F 
ATOM     53  C   UNL A   1      44.822  27.199  37.571  1.00  0.00     0.040 A 
ATOM     54  C   UNL A   1      46.329  28.825  36.636  1.00  0.00     0.040 A 
ATOM     55  F   UNL A   1      45.517  30.469  35.175  1.00  0.00    -0.206 F 
ATOM     56  C   UNL A   1      46.111  27.716  37.451  1.00  0.00     0.006 A 
ENDBRANCH  28  49
BRANCH  40  57
ATOM     57  C   UNL A   1      39.426  34.134  36.951  1.00  0.00     0.057 A 
ATOM     58  C   UNL A   1      38.678  33.753  38.070  1.00  0.00     0.134 A 
ATOM     59  C   UNL A   1      40.035  35.395  36.966  1.00  0.00     0.134 A 
ATOM     60  F   UNL A   1      38.067  32.559  38.104  1.00  0.00    -0.206 F 
ATOM     61  C   UNL A   1      38.543  34.598  39.170  1.00  0.00     0.040 A 
ATOM     62  C   UNL A   1      39.923  36.239  38.069  1.00  0.00     0.040 A 
ATOM     63  F   UNL A   1      40.771  35.808  35.924  1.00  0.00    -0.206 F 
ATOM     64  C   UNL A   1      39.176  35.841  39.175  1.00  0.00     0.006 A 
ENDBRANCH  40  57
ENDBRANCH  14  15
ENDBRANCH   7   9
ENDBRANCH   6   7
ENDBRANCH   5   6
ENDBRANCH   4   5
ENDBRANCH   3   4
ENDBRANCH   2   3
ENDBRANCH   1   2
BRANCH   1  65
ATOM     65  O   UNL A   1      42.148  20.023  26.860  1.00  0.00    -0.377 OA
BRANCH  65  66
ATOM     66  C   UNL A   1      40.764  20.314  26.714  1.00  0.00     0.188 C 
BRANCH  66  67
ATOM     67  C   UNL A   1      40.291  21.782  26.766  1.00  0.00     0.188 C 
BRANCH  67  68
ATOM     68  O   UNL A   1      39.049  22.050  26.128  1.00  0.00    -0.376 OA
BRANCH  68  69
ATOM     69  C   UNL A   1      38.663  23.426  26.123  1.00  0.00     0.202 C 
BRANCH  69  70
ATOM     70  C   UNL A   1      37.154  23.667  25.959  1.00  0.00     0.261 C 
BRANCH  70  71
ATOM     71  O   UNL A   1      36.379  22.464  25.870  1.00  0.00    -0.463 OA
BRANCH  71  72
ATOM     72  C   UNL A   1      35.143  22.465  26.423  1.00  0.00     0.310 C 
ATOM     73  O   UNL A   1      34.582  23.435  26.913  1.00  0.00    -0.252 OA
BRANCH  72  74
ATOM     74  C   UNL A   1      34.417  21.215  26.097  1.00  0.00     0.115 C 
ATOM     75  C   UNL A   1      32.969  21.065  26.501  1.00  0.00     0.034 C 
ATOM     76  C   UNL A   1      33.355  21.008  25.028  1.00  0.00     0.034 C 
BRANCH  76  77
ATOM     77  C   UNL A   1      32.868  22.180  24.180  1.00  0.00    -0.037 A 
ATOM     78  C   UNL A   1      31.569  22.692  24.336  1.00  0.00     0.004 A 
ATOM     79  C   UNL A   1      33.670  22.743  23.172  1.00  0.00     0.004 A 
ATOM     80  C   UNL A   1      31.088  23.710  23.511  1.00  0.00     0.000 A 
ATOM     81  C   UNL A   1      33.196  23.761  22.347  1.00  0.00     0.000 A 
ATOM     82  C   UNL A   1      31.901  24.239  22.514  1.00  0.00     0.000 A 
ENDBRANCH  76  77
BRANCH  76  83
ATOM     83  C   UNL A   1      33.438  19.633  24.305  1.00  0.00    -0.037 A 
ATOM     84  C   UNL A   1      34.456  18.715  24.632  1.00  0.00     0.004 A 
ATOM     85  C   UNL A   1      32.503  19.200  23.341  1.00  0.00     0.004 A 
ATOM     86  C   UNL A   1      34.549  17.456  24.032  1.00  0.00     0.000 A 
ATOM     87  C   UNL A   1      32.578  17.932  22.750  1.00  0.00     0.000 A 
ATOM     88  C   UNL A   1      33.605  17.062  23.094  1.00  0.00     0.000 A 
ENDBRANCH  76  83
ENDBRANCH  72  74
ENDBRANCH  71  72
ENDBRANCH  70  71
ENDBRANCH  69  70
ENDBRANCH  68  69
ENDBRANCH  67  68
ENDBRANCH  66  67
ENDBRANCH  65  66
ENDBRANCH   1  65
TORSDOF 22
ENDMDL
MODEL 3
REMARK VINA RESULT:      -9.6      2.221      2.819
REMARK SMILES O=C(OCCOCCOCCOCCOC(=O)[C@H]1CC1(c1ccccc1)c1ccccc1)c1ccc(-c2c3nc(c(-c4c(F)cccc4F)c4ccc([nH]4)c(-c4c(F)cccc4F)c4nc(c(-c5c(F)cccc5F)c5ccc2[nH]5)C=C4)C=C3)cc1
REMARK SMILES IDX 8 1 7 2 6 3 5 4 4 5 3 6 2 7 1 8 33 9 34 10 86 11 35 12 85 13
REMARK SMILES IDX 36 14 37 15 38 16 79 17 39 18 84 19 78 20 80 21 40 22 83 23
REMARK SMILES IDX 77 24 76 25 41 27 67 28 50 29 66 30 51 31 54 32 65 33 81 34
REMARK SMILES IDX 52 35 53 36 64 38 82 39 55 40 42 41 43 42 48 43 44 44 45 45
REMARK SMILES IDX 47 46 49 47 46 48 68 49 69 50 74 51 70 52 71 53 73 54 75 55
REMARK SMILES IDX 72 56 56 57 57 58 62 59 58 60 59 61 61 62 63 63 60 64 9 65
REMARK SMILES IDX 10 66 11 67 12 68 13 69 14 70 15 71 16 72 17 73 18 74 19 75
REMARK SMILES IDX 20 76 21 77 22 78 26 79 23 80 25 81 24 82 27 83 28 84 32 85
REMARK SMILES IDX 29 86 31 87 30 88
REMARK H PARENT 80 26 54 37
REMARK Flexibility Score: inf
ROOT
ATOM      1  C   UNL A   1      29.741  28.393  22.818  1.00  0.00     0.188 C 
ENDROOT
BRANCH   1   2
ATOM      2  C   UNL A   1      30.277  29.510  23.715  1.00  0.00     0.188 C 
BRANCH   2   3
ATOM      3  O   UNL A   1      31.653  29.280  24.039  1.00  0.00    -0.376 OA
BRANCH   3   4
ATOM      4  C   UNL A   1      32.021  29.602  25.382  1.00  0.00     0.202 C 
BRANCH   4   5
ATOM      5  C   UNL A   1      33.424  29.134  25.759  1.00  0.00     0.261 C 
BRANCH   5   6
ATOM      6  O   UNL A   1      33.745  29.462  27.116  1.00  0.00    -0.460 OA
BRANCH   6   7
ATOM      7  C   UNL A   1      34.619  30.403  27.550  1.00  0.00     0.338 C 
ATOM      8  O   UNL A   1      34.270  31.582  27.506  1.00  0.00    -0.246 OA
BRANCH   7   9
ATOM      9  C   UNL A   1      35.967  30.102  28.134  1.00  0.00     0.060 A 
ATOM     10  C   UNL A   1      37.207  30.410  27.565  1.00  0.00     0.016 A 
ATOM     11  C   UNL A   1      35.964  29.502  29.404  1.00  0.00     0.016 A 
ATOM     12  C   UNL A   1      38.405  30.078  28.187  1.00  0.00     0.010 A 
ATOM     13  C   UNL A   1      37.158  29.166  30.044  1.00  0.00     0.010 A 
ATOM     14  C   UNL A   1      38.379  29.421  29.410  1.00  0.00    -0.014 A 
BRANCH  14  15
ATOM     15  C   UNL A   1      39.614  28.790  29.894  1.00  0.00     0.031 A 
ATOM     16  C   UNL A   1      40.240  29.375  31.120  1.00  0.00     0.074 A 
ATOM     17  C   UNL A   1      40.107  27.692  29.301  1.00  0.00     0.049 A 
ATOM     18  N   UNL A   1      41.406  29.143  31.652  1.00  0.00    -0.248 NA
ATOM     19  C   UNL A   1      39.427  30.366  31.849  1.00  0.00     0.031 C 
ATOM     20  C   UNL A   1      39.475  26.973  28.195  1.00  0.00     0.029 A 
ATOM     21  N   UNL A   1      41.257  26.994  29.548  1.00  0.00    -0.354 N 
ATOM     22  C   UNL A   1      41.489  29.998  32.744  1.00  0.00     0.074 A 
ATOM     23  C   UNL A   1      40.252  30.739  32.812  1.00  0.00     0.031 C 
ATOM     24  C   UNL A   1      40.260  25.941  27.845  1.00  0.00     0.029 A 
ATOM     25  C   UNL A   1      41.475  25.977  28.653  1.00  0.00     0.049 A 
ATOM     26  H   UNL A   1      41.867  27.200  30.293  1.00  0.00     0.167 HD
ATOM     27  C   UNL A   1      42.528  30.159  33.594  1.00  0.00     0.037 A 
ATOM     28  C   UNL A   1      42.567  25.209  28.482  1.00  0.00     0.037 A 
ATOM     29  C   UNL A   1      43.744  29.404  33.483  1.00  0.00     0.049 A 
ATOM     30  C   UNL A   1      43.748  25.452  29.384  1.00  0.00     0.074 A 
ATOM     31  C   UNL A   1      44.902  29.504  34.226  1.00  0.00     0.029 A 
ATOM     32  N   UNL A   1      43.946  28.395  32.547  1.00  0.00    -0.354 N 
ATOM     33  N   UNL A   1      43.871  26.319  30.364  1.00  0.00    -0.248 NA
ATOM     34  C   UNL A   1      44.943  24.634  29.152  1.00  0.00     0.031 C 
ATOM     35  C   UNL A   1      45.820  28.580  33.713  1.00  0.00     0.029 A 
ATOM     36  C   UNL A   1      45.216  27.870  32.684  1.00  0.00     0.049 A 
ATOM     37  H   UNL A   1      43.280  28.098  31.885  1.00  0.00     0.167 HD
ATOM     38  C   UNL A   1      45.148  26.143  30.876  1.00  0.00     0.074 A 
ATOM     39  C   UNL A   1      45.759  25.079  30.101  1.00  0.00     0.031 C 
ATOM     40  C   UNL A   1      45.766  26.796  31.892  1.00  0.00     0.037 A 
BRANCH  27  41
ATOM     41  C   UNL A   1      42.397  31.250  34.615  1.00  0.00     0.057 A 
ATOM     42  C   UNL A   1      42.787  32.571  34.357  1.00  0.00     0.134 A 
ATOM     43  C   UNL A   1      41.959  30.948  35.911  1.00  0.00     0.134 A 
ATOM     44  F   UNL A   1      43.252  32.919  33.147  1.00  0.00    -0.206 F 
ATOM     45  C   UNL A   1      42.787  33.541  35.362  1.00  0.00     0.040 A 
ATOM     46  C   UNL A   1      41.932  31.915  36.917  1.00  0.00     0.040 A 
ATOM     47  F   UNL A   1      41.582  29.701  36.229  1.00  0.00    -0.206 F 
ATOM     48  C   UNL A   1      42.360  33.213  36.647  1.00  0.00     0.006 A 
ENDBRANCH  27  41
BRANCH  28  49
ATOM     49  C   UNL A   1      42.600  24.209  27.386  1.00  0.00     0.057 A 
ATOM     50  C   UNL A   1      43.051  24.542  26.104  1.00  0.00     0.134 A 
ATOM     51  C   UNL A   1      42.226  22.876  27.607  1.00  0.00     0.134 A 
ATOM     52  F   UNL A   1      43.407  25.804  25.820  1.00  0.00    -0.206 F 
ATOM     53  C   UNL A   1      43.135  23.589  25.086  1.00  0.00     0.040 A 
ATOM     54  C   UNL A   1      42.326  21.908  26.606  1.00  0.00     0.040 A 
ATOM     55  F   UNL A   1      41.786  22.488  28.813  1.00  0.00    -0.206 F 
ATOM     56  C   UNL A   1      42.782  22.263  25.340  1.00  0.00     0.006 A 
ENDBRANCH  28  49
BRANCH  40  57
ATOM     57  C   UNL A   1      47.149  26.350  32.249  1.00  0.00     0.057 A 
ATOM     58  C   UNL A   1      48.283  26.965  31.707  1.00  0.00     0.134 A 
ATOM     59  C   UNL A   1      47.339  25.362  33.222  1.00  0.00     0.134 A 
ATOM     60  F   UNL A   1      48.158  27.913  30.766  1.00  0.00    -0.206 F 
ATOM     61  C   UNL A   1      49.565  26.610  32.123  1.00  0.00     0.040 A 
ATOM     62  C   UNL A   1      48.615  25.013  33.660  1.00  0.00     0.040 A 
ATOM     63  F   UNL A   1      46.287  24.746  33.782  1.00  0.00    -0.206 F 
ATOM     64  C   UNL A   1      49.733  25.638  33.111  1.00  0.00     0.006 A 
ENDBRANCH  40  57
ENDBRANCH  14  15
ENDBRANCH   7   9
ENDBRANCH   6   7
ENDBRANCH   5   6
ENDBRANCH   4   5
ENDBRANCH   3   4
ENDBRANCH   2   3
ENDBRANCH   1   2
BRANCH   1  65
ATOM     65  O   UNL A   1      30.725  27.758  21.999  1.00  0.00    -0.377 OA
BRANCH  65  66
ATOM     66  C   UNL A   1      31.078  26.427  22.352  1.00  0.00     0.188 C 
BRANCH  66  67
ATOM     67  C   UNL A   1      30.093  25.581  23.185  1.00  0.00     0.188 C 
BRANCH  67  68
ATOM     68  O   UNL A   1      30.591  25.109  24.431  1.00  0.00    -0.376 OA
BRANCH  68  69
ATOM     69  C   UNL A   1      30.643  26.092  25.466  1.00  0.00     0.202 C 
BRANCH  69  70
ATOM     70  C   UNL A   1      31.626  25.774  26.603  1.00  0.00     0.261 C 
BRANCH  70  71
ATOM     71  O   UNL A   1      32.536  24.706  26.304  1.00  0.00    -0.463 OA
BRANCH  71  72
ATOM     72  C   UNL A   1      32.495  23.602  27.086  1.00  0.00     0.310 C 
ATOM     73  O   UNL A   1      31.481  23.077  27.526  1.00  0.00    -0.252 OA
BRANCH  72  74
ATOM     74  C   UNL A   1      33.809  22.918  27.104  1.00  0.00     0.115 C 
ATOM     75  C   UNL A   1      33.867  21.414  27.225  1.00  0.00     0.034 C 
ATOM     76  C   UNL A   1      34.445  22.097  25.993  1.00  0.00     0.034 C 
BRANCH  76  77
ATOM     77  C   UNL A   1      33.694  21.839  24.690  1.00  0.00    -0.037 A 
ATOM     78  C   UNL A   1      33.624  22.826  23.692  1.00  0.00     0.004 A 
ATOM     79  C   UNL A   1      32.994  20.641  24.467  1.00  0.00     0.004 A 
ATOM     80  C   UNL A   1      32.873  22.630  22.532  1.00  0.00     0.000 A 
ATOM     81  C   UNL A   1      32.246  20.439  23.309  1.00  0.00     0.000 A 
ATOM     82  C   UNL A   1      32.181  21.438  22.344  1.00  0.00     0.000 A 
ENDBRANCH  76  77
BRANCH  76  83
ATOM     83  C   UNL A   1      35.985  22.283  25.865  1.00  0.00    -0.037 A 
ATOM     84  C   UNL A   1      36.574  23.540  26.108  1.00  0.00     0.004 A 
ATOM     85  C   UNL A   1      36.876  21.233  25.559  1.00  0.00     0.004 A 
ATOM     86  C   UNL A   1      37.955  23.744  26.039  1.00  0.00     0.000 A 
ATOM     87  C   UNL A   1      38.262  21.426  25.506  1.00  0.00     0.000 A 
ATOM     88  C   UNL A   1      38.801  22.684  25.743  1.00  0.00     0.000 A 
ENDBRANCH  76  83
ENDBRANCH  72  74
ENDBRANCH  71  72
ENDBRANCH  70  71
ENDBRANCH  69  70
ENDBRANCH  68  69
ENDBRANCH  67  68
ENDBRANCH  66  67
ENDBRANCH  65  66
ENDBRANCH   1  65
TORSDOF 22
ENDMDL
