MODEL 1
REMARK VINA RESULT:     -10.1      0.000      0.000
REMARK SMILES CC1(C)C(C(=O)Nc2ccc(CC(=O)OCCOCCOCCOCCOC(=O)c3ccc(-c4c5nc(c(-c6c(F)cccc6F)c6ccc([nH]6)c(-c6c(F)cccc6F)c6nc(c(-c7c(F)cccc7F)c7ccc4[nH]7)C=C6)C=C5)cc3)cc2)C1(C)C
REMARK SMILES IDX 20 1 19 2 18 3 17 4 16 5 15 6 13 7 14 8 12 9 11 10 8 11 9 12
REMARK SMILES IDX 85 13 10 14 84 15 7 16 5 17 6 18 4 20 1 21 2 22 3 23 86 24
REMARK SMILES IDX 87 25 88 26 21 27 22 28 23 29 24 30 25 31 26 32 27 33 28 34
REMARK SMILES IDX 29 35 30 36 31 37 83 38 32 39 82 40 33 41 34 42 35 43 76 44
REMARK SMILES IDX 36 45 81 46 75 47 77 48 37 49 80 50 74 51 73 52 38 54 64 55
REMARK SMILES IDX 47 56 63 57 48 58 51 59 62 60 78 61 49 62 50 63 61 65 79 66
REMARK SMILES IDX 52 67 39 68 40 69 45 70 41 71 42 72 44 73 46 74 43 75 65 76
REMARK SMILES IDX 66 77 71 78 67 79 68 80 70 81 72 82 69 83 53 84 54 85 59 86
REMARK SMILES IDX 55 87 56 88 58 89 60 90 57 91
REMARK H PARENT 7 19 77 53 51 64
REMARK Flexibility Score: inf
ROOT
ATOM      1  C   UNL A   1      33.403  30.020  27.343  1.00  0.00     0.188 C 
ENDROOT
BRANCH   1   2
ATOM      2  C   UNL A   1      34.070  28.893  26.524  1.00  0.00     0.188 C 
BRANCH   2   3
ATOM      3  O   UNL A   1      33.729  28.663  25.156  1.00  0.00    -0.376 OA
BRANCH   3   4
ATOM      4  C   UNL A   1      32.551  29.243  24.622  1.00  0.00     0.202 C 
BRANCH   4   5
ATOM      5  C   UNL A   1      31.225  28.614  25.081  1.00  0.00     0.261 C 
BRANCH   5   6
ATOM      6  O   UNL A   1      30.266  28.369  24.035  1.00  0.00    -0.463 OA
BRANCH   6   7
ATOM      7  C   UNL A   1      30.736  28.392  22.765  1.00  0.00     0.310 C 
ATOM      8  O   UNL A   1      30.914  29.420  22.118  1.00  0.00    -0.252 OA
BRANCH   7   9
ATOM      9  C   UNL A   1      30.996  27.026  22.161  1.00  0.00     0.158 C 
BRANCH   9  10
ATOM     10  C   UNL A   1      31.849  25.997  22.882  1.00  0.00    -0.037 A 
ATOM     11  C   UNL A   1      33.511  24.556  24.615  1.00  0.00     0.041 A 
ATOM     12  C   UNL A   1      32.130  24.427  24.736  1.00  0.00     0.026 A 
ATOM     13  C   UNL A   1      34.049  25.155  23.480  1.00  0.00     0.026 A 
ATOM     14  C   UNL A   1      31.303  25.187  23.898  1.00  0.00     0.006 A 
ATOM     15  C   UNL A   1      33.222  25.892  22.624  1.00  0.00     0.006 A 
BRANCH  11  16
ATOM     16  N   UNL A   1      34.309  24.220  25.727  1.00  0.00    -0.326 N 
ATOM     17  C   UNL A   1      34.262  23.010  26.392  1.00  0.00     0.228 C 
ATOM     18  O   UNL A   1      33.935  22.995  27.579  1.00  0.00    -0.274 OA
ATOM     19  H   UNL A   1      34.946  24.897  26.053  1.00  0.00     0.169 HD
BRANCH  17  20
ATOM     20  C   UNL A   1      34.948  21.776  25.847  1.00  0.00     0.091 C 
ATOM     21  C   UNL A   1      34.336  19.458  24.822  1.00  0.00     0.012 C 
ATOM     22  C   UNL A   1      34.512  20.952  24.631  1.00  0.00    -0.017 C 
ATOM     23  C   UNL A   1      33.522  21.437  23.610  1.00  0.00     0.012 C 
ATOM     24  C   UNL A   1      35.929  21.574  24.697  1.00  0.00    -0.017 C 
ATOM     25  C   UNL A   1      37.120  20.665  24.948  1.00  0.00     0.012 C 
ATOM     26  C   UNL A   1      36.346  22.705  23.798  1.00  0.00     0.012 C 
ENDBRANCH  17  20
ENDBRANCH  11  16
ENDBRANCH   9  10
ENDBRANCH   7   9
ENDBRANCH   6   7
ENDBRANCH   5   6
ENDBRANCH   4   5
ENDBRANCH   3   4
ENDBRANCH   2   3
ENDBRANCH   1   2
BRANCH   1  27
ATOM     27  O   UNL A   1      33.897  31.317  27.062  1.00  0.00    -0.377 OA
BRANCH  27  28
ATOM     28  C   UNL A   1      34.437  31.988  28.179  1.00  0.00     0.188 C 
BRANCH  28  29
ATOM     29  C   UNL A   1      34.065  33.476  28.217  1.00  0.00     0.188 C 
BRANCH  29  30
ATOM     30  O   UNL A   1      34.717  34.147  29.284  1.00  0.00    -0.376 OA
BRANCH  30  31
ATOM     31  C   UNL A   1      34.016  34.498  30.459  1.00  0.00     0.202 C 
BRANCH  31  32
ATOM     32  C   UNL A   1      34.720  34.524  31.828  1.00  0.00     0.261 C 
BRANCH  32  33
ATOM     33  O   UNL A   1      36.036  33.974  31.916  1.00  0.00    -0.460 OA
BRANCH  33  34
ATOM     34  C   UNL A   1      36.183  32.812  32.585  1.00  0.00     0.338 C 
ATOM     35  O   UNL A   1      35.500  32.408  33.512  1.00  0.00    -0.246 OA
BRANCH  34  36
ATOM     36  C   UNL A   1      37.194  32.007  31.866  1.00  0.00     0.060 A 
ATOM     37  C   UNL A   1      38.157  31.316  32.615  1.00  0.00     0.016 A 
ATOM     38  C   UNL A   1      37.170  31.896  30.474  1.00  0.00     0.016 A 
ATOM     39  C   UNL A   1      39.104  30.520  31.974  1.00  0.00     0.010 A 
ATOM     40  C   UNL A   1      38.148  31.134  29.827  1.00  0.00     0.010 A 
ATOM     41  C   UNL A   1      39.135  30.467  30.575  1.00  0.00    -0.014 A 
BRANCH  41  42
ATOM     42  C   UNL A   1      40.334  29.917  29.902  1.00  0.00     0.031 A 
ATOM     43  C   UNL A   1      41.501  30.840  29.687  1.00  0.00     0.074 A 
ATOM     44  C   UNL A   1      40.403  28.630  29.521  1.00  0.00     0.049 A 
ATOM     45  N   UNL A   1      42.644  30.615  29.093  1.00  0.00    -0.248 NA
ATOM     46  C   UNL A   1      41.354  32.205  30.218  1.00  0.00     0.031 C 
ATOM     47  C   UNL A   1      39.358  27.630  29.719  1.00  0.00     0.029 A 
ATOM     48  N   UNL A   1      41.405  27.950  28.874  1.00  0.00    -0.354 N 
ATOM     49  C   UNL A   1      43.349  31.808  29.177  1.00  0.00     0.074 A 
ATOM     50  C   UNL A   1      42.495  32.764  29.846  1.00  0.00     0.031 C 
ATOM     51  C   UNL A   1      39.764  26.465  29.183  1.00  0.00     0.029 A 
ATOM     52  C   UNL A   1      41.083  26.649  28.579  1.00  0.00     0.049 A 
ATOM     53  H   UNL A   1      42.271  28.358  28.643  1.00  0.00     0.167 HD
ATOM     54  C   UNL A   1      44.602  32.081  28.744  1.00  0.00     0.037 A 
ATOM     55  C   UNL A   1      41.768  25.725  27.876  1.00  0.00     0.037 A 
ATOM     56  C   UNL A   1      45.439  31.132  28.061  1.00  0.00     0.049 A 
ATOM     57  C   UNL A   1      43.125  26.078  27.321  1.00  0.00     0.074 A 
ATOM     58  C   UNL A   1      46.724  31.306  27.578  1.00  0.00     0.029 A 
ATOM     59  N   UNL A   1      45.066  29.833  27.750  1.00  0.00    -0.354 N 
ATOM     60  N   UNL A   1      43.797  27.201  27.424  1.00  0.00    -0.248 NA
ATOM     61  C   UNL A   1      43.822  25.034  26.555  1.00  0.00     0.031 C 
ATOM     62  C   UNL A   1      47.106  30.131  26.924  1.00  0.00     0.029 A 
ATOM     63  C   UNL A   1      46.085  29.202  27.056  1.00  0.00     0.049 A 
ATOM     64  H   UNL A   1      44.204  29.421  27.987  1.00  0.00     0.167 HD
ATOM     65  C   UNL A   1      45.003  26.987  26.766  1.00  0.00     0.074 A 
ATOM     66  C   UNL A   1      44.976  25.624  26.279  1.00  0.00     0.031 C 
ATOM     67  C   UNL A   1      46.042  27.840  26.584  1.00  0.00     0.037 A 
BRANCH  54  68
ATOM     68  C   UNL A   1      45.117  33.473  28.967  1.00  0.00     0.057 A 
ATOM     69  C   UNL A   1      45.802  33.834  30.135  1.00  0.00     0.134 A 
ATOM     70  C   UNL A   1      44.931  34.466  27.996  1.00  0.00     0.134 A 
ATOM     71  F   UNL A   1      45.998  32.937  31.114  1.00  0.00    -0.206 F 
ATOM     72  C   UNL A   1      46.256  35.138  30.343  1.00  0.00     0.040 A 
ATOM     73  C   UNL A   1      45.406  35.764  28.179  1.00  0.00     0.040 A 
ATOM     74  F   UNL A   1      44.283  34.189  26.854  1.00  0.00    -0.206 F 
ATOM     75  C   UNL A   1      46.064  36.106  29.360  1.00  0.00     0.006 A 
ENDBRANCH  54  68
BRANCH  55  76
ATOM     76  C   UNL A   1      41.177  24.384  27.633  1.00  0.00     0.057 A 
ATOM     77  C   UNL A   1      41.638  23.249  28.309  1.00  0.00     0.134 A 
ATOM     78  C   UNL A   1      40.150  24.202  26.697  1.00  0.00     0.134 A 
ATOM     79  F   UNL A   1      42.636  23.351  29.198  1.00  0.00    -0.206 F 
ATOM     80  C   UNL A   1      41.114  21.980  28.049  1.00  0.00     0.040 A 
ATOM     81  C   UNL A   1      39.598  22.944  26.449  1.00  0.00     0.040 A 
ATOM     82  F   UNL A   1      39.663  25.248  26.014  1.00  0.00    -0.206 F 
ATOM     83  C   UNL A   1      40.087  21.826  27.121  1.00  0.00     0.006 A 
ENDBRANCH  55  76
BRANCH  67  84
ATOM     84  C   UNL A   1      47.253  27.315  25.865  1.00  0.00     0.057 A 
ATOM     85  C   UNL A   1      48.275  26.626  26.530  1.00  0.00     0.134 A 
ATOM     86  C   UNL A   1      47.369  27.458  24.475  1.00  0.00     0.134 A 
ATOM     87  F   UNL A   1      48.230  26.462  27.860  1.00  0.00    -0.206 F 
ATOM     88  C   UNL A   1      49.382  26.124  25.844  1.00  0.00     0.040 A 
ATOM     89  C   UNL A   1      48.456  26.932  23.774  1.00  0.00     0.040 A 
ATOM     90  F   UNL A   1      46.421  28.094  23.773  1.00  0.00    -0.206 F 
ATOM     91  C   UNL A   1      49.471  26.269  24.461  1.00  0.00     0.006 A 
ENDBRANCH  67  84
ENDBRANCH  41  42
ENDBRANCH  34  36
ENDBRANCH  33  34
ENDBRANCH  32  33
ENDBRANCH  31  32
ENDBRANCH  30  31
ENDBRANCH  29  30
ENDBRANCH  28  29
ENDBRANCH  27  28
ENDBRANCH   1  27
TORSDOF 23
ENDMDL
MODEL 2
REMARK VINA RESULT:      -9.4      5.692     11.793
REMARK SMILES CC1(C)C(C(=O)Nc2ccc(CC(=O)OCCOCCOCCOCCOC(=O)c3ccc(-c4c5nc(c(-c6c(F)cccc6F)c6ccc([nH]6)c(-c6c(F)cccc6F)c6nc(c(-c7c(F)cccc7F)c7ccc4[nH]7)C=C6)C=C5)cc3)cc2)C1(C)C
REMARK SMILES IDX 20 1 19 2 18 3 17 4 16 5 15 6 13 7 14 8 12 9 11 10 8 11 9 12
REMARK SMILES IDX 85 13 10 14 84 15 7 16 5 17 6 18 4 20 1 21 2 22 3 23 86 24
REMARK SMILES IDX 87 25 88 26 21 27 22 28 23 29 24 30 25 31 26 32 27 33 28 34
REMARK SMILES IDX 29 35 30 36 31 37 83 38 32 39 82 40 33 41 34 42 35 43 76 44
REMARK SMILES IDX 36 45 81 46 75 47 77 48 37 49 80 50 74 51 73 52 38 54 64 55
REMARK SMILES IDX 47 56 63 57 48 58 51 59 62 60 78 61 49 62 50 63 61 65 79 66
REMARK SMILES IDX 52 67 39 68 40 69 45 70 41 71 42 72 44 73 46 74 43 75 65 76
REMARK SMILES IDX 66 77 71 78 67 79 68 80 70 81 72 82 69 83 53 84 54 85 59 86
REMARK SMILES IDX 55 87 56 88 58 89 60 90 57 91
REMARK H PARENT 7 19 77 53 51 64
REMARK Flexibility Score: inf
ROOT
ATOM      1  C   UNL A   1      46.043  25.005  25.163  1.00  0.00     0.188 C 
ENDROOT
BRANCH   1   2
ATOM      2  C   UNL A   1      46.188  23.930  26.262  1.00  0.00     0.188 C 
BRANCH   2   3
ATOM      3  O   UNL A   1      46.298  22.543  25.940  1.00  0.00    -0.376 OA
BRANCH   3   4
ATOM      4  C   UNL A   1      46.226  22.133  24.585  1.00  0.00     0.202 C 
BRANCH   4   5
ATOM      5  C   UNL A   1      45.268  20.968  24.286  1.00  0.00     0.261 C 
BRANCH   5   6
ATOM      6  O   UNL A   1      44.783  20.259  25.441  1.00  0.00    -0.463 OA
BRANCH   6   7
ATOM      7  C   UNL A   1      43.747  19.409  25.240  1.00  0.00     0.310 C 
ATOM      8  O   UNL A   1      43.820  18.386  24.565  1.00  0.00    -0.252 OA
BRANCH   7   9
ATOM      9  C   UNL A   1      42.444  19.836  25.886  1.00  0.00     0.158 C 
BRANCH   9  10
ATOM     10  C   UNL A   1      42.278  21.224  26.481  1.00  0.00    -0.037 A 
ATOM     11  C   UNL A   1      42.585  23.750  27.650  1.00  0.00     0.041 A 
ATOM     12  C   UNL A   1      42.526  23.648  26.263  1.00  0.00     0.026 A 
ATOM     13  C   UNL A   1      42.211  22.665  28.437  1.00  0.00     0.026 A 
ATOM     14  C   UNL A   1      42.421  22.376  25.682  1.00  0.00     0.006 A 
ATOM     15  C   UNL A   1      42.077  21.398  27.857  1.00  0.00     0.006 A 
BRANCH  11  16
ATOM     16  N   UNL A   1      43.180  24.900  28.205  1.00  0.00    -0.326 N 
ATOM     17  C   UNL A   1      42.847  26.199  27.870  1.00  0.00     0.228 C 
ATOM     18  O   UNL A   1      43.707  26.922  27.365  1.00  0.00    -0.274 OA
ATOM     19  H   UNL A   1      43.883  24.769  28.882  1.00  0.00     0.169 HD
BRANCH  17  20
ATOM     20  C   UNL A   1      41.616  26.875  28.430  1.00  0.00     0.091 C 
ATOM     21  C   UNL A   1      40.503  29.232  28.493  1.00  0.00     0.012 C 
ATOM     22  C   UNL A   1      40.767  27.945  27.736  1.00  0.00    -0.017 C 
ATOM     23  C   UNL A   1      40.848  28.246  26.267  1.00  0.00     0.012 C 
ATOM     24  C   UNL A   1      40.125  26.622  28.224  1.00  0.00    -0.017 C 
ATOM     25  C   UNL A   1      39.237  26.645  29.456  1.00  0.00     0.012 C 
ATOM     26  C   UNL A   1      39.620  25.580  27.265  1.00  0.00     0.012 C 
ENDBRANCH  17  20
ENDBRANCH  11  16
ENDBRANCH   9  10
ENDBRANCH   7   9
ENDBRANCH   6   7
ENDBRANCH   5   6
ENDBRANCH   4   5
ENDBRANCH   3   4
ENDBRANCH   2   3
ENDBRANCH   1   2
BRANCH   1  27
ATOM     27  O   UNL A   1      46.161  26.337  25.631  1.00  0.00    -0.377 OA
BRANCH  27  28
ATOM     28  C   UNL A   1      46.633  27.252  24.667  1.00  0.00     0.188 C 
BRANCH  28  29
ATOM     29  C   UNL A   1      48.143  27.499  24.768  1.00  0.00     0.188 C 
BRANCH  29  30
ATOM     30  O   UNL A   1      48.860  26.740  23.807  1.00  0.00    -0.376 OA
BRANCH  30  31
ATOM     31  C   UNL A   1      50.214  27.019  23.522  1.00  0.00     0.202 C 
BRANCH  31  32
ATOM     32  C   UNL A   1      51.297  26.901  24.611  1.00  0.00     0.261 C 
BRANCH  32  33
ATOM     33  O   UNL A   1      51.418  25.656  25.303  1.00  0.00    -0.460 OA
BRANCH  33  34
ATOM     34  C   UNL A   1      51.870  25.691  26.573  1.00  0.00     0.338 C 
ATOM     35  O   UNL A   1      53.021  25.533  26.947  1.00  0.00    -0.246 OA
BRANCH  34  36
ATOM     36  C   UNL A   1      50.759  26.159  27.430  1.00  0.00     0.060 A 
ATOM     37  C   UNL A   1      49.548  25.456  27.402  1.00  0.00     0.016 A 
ATOM     38  C   UNL A   1      50.922  27.253  28.285  1.00  0.00     0.016 A 
ATOM     39  C   UNL A   1      48.491  25.848  28.221  1.00  0.00     0.010 A 
ATOM     40  C   UNL A   1      49.846  27.674  29.074  1.00  0.00     0.010 A 
ATOM     41  C   UNL A   1      48.619  26.989  29.022  1.00  0.00    -0.014 A 
BRANCH  41  42
ATOM     42  C   UNL A   1      47.403  27.596  29.610  1.00  0.00     0.031 A 
ATOM     43  C   UNL A   1      46.749  26.880  30.759  1.00  0.00     0.074 A 
ATOM     44  C   UNL A   1      46.909  28.764  29.164  1.00  0.00     0.049 A 
ATOM     45  N   UNL A   1      45.661  27.181  31.420  1.00  0.00    -0.248 NA
ATOM     46  C   UNL A   1      47.419  25.655  31.225  1.00  0.00     0.031 C 
ATOM     47  C   UNL A   1      47.482  29.572  28.092  1.00  0.00     0.029 A 
ATOM     48  N   UNL A   1      45.796  29.464  29.561  1.00  0.00    -0.354 N 
ATOM     49  C   UNL A   1      45.517  26.184  32.375  1.00  0.00     0.074 A 
ATOM     50  C   UNL A   1      46.605  25.250  32.187  1.00  0.00     0.031 C 
ATOM     51  C   UNL A   1      46.703  30.652  27.899  1.00  0.00     0.029 A 
ATOM     52  C   UNL A   1      45.563  30.591  28.814  1.00  0.00     0.049 A 
ATOM     53  H   UNL A   1      45.222  29.184  30.310  1.00  0.00     0.167 HD
ATOM     54  C   UNL A   1      44.567  26.062  33.331  1.00  0.00     0.037 A 
ATOM     55  C   UNL A   1      44.529  31.455  28.850  1.00  0.00     0.037 A 
ATOM     56  C   UNL A   1      43.475  26.982  33.500  1.00  0.00     0.049 A 
ATOM     57  C   UNL A   1      43.431  31.250  29.862  1.00  0.00     0.074 A 
ATOM     58  C   UNL A   1      42.457  26.951  34.435  1.00  0.00     0.029 A 
ATOM     59  N   UNL A   1      43.252  28.094  32.701  1.00  0.00    -0.354 N 
ATOM     60  N   UNL A   1      43.312  30.318  30.779  1.00  0.00    -0.248 NA
ATOM     61  C   UNL A   1      42.325  32.219  29.849  1.00  0.00     0.031 C 
ATOM     62  C   UNL A   1      41.585  28.010  34.167  1.00  0.00     0.029 A 
ATOM     63  C   UNL A   1      42.097  28.742  33.106  1.00  0.00     0.049 A 
ATOM     64  H   UNL A   1      43.831  28.381  31.958  1.00  0.00     0.167 HD
ATOM     65  C   UNL A   1      42.139  30.607  31.468  1.00  0.00     0.074 A 
ATOM     66  C   UNL A   1      41.591  31.807  30.872  1.00  0.00     0.031 C 
ATOM     67  C   UNL A   1      41.569  29.941  32.503  1.00  0.00     0.037 A 
BRANCH  54  68
ATOM     68  C   UNL A   1      44.654  24.868  34.236  1.00  0.00     0.057 A 
ATOM     69  C   UNL A   1      44.197  23.602  33.843  1.00  0.00     0.134 A 
ATOM     70  C   UNL A   1      45.208  24.983  35.518  1.00  0.00     0.134 A 
ATOM     71  F   UNL A   1      43.637  23.426  32.636  1.00  0.00    -0.206 F 
ATOM     72  C   UNL A   1      44.260  22.503  34.701  1.00  0.00     0.040 A 
ATOM     73  C   UNL A   1      45.305  23.885  36.373  1.00  0.00     0.040 A 
ATOM     74  F   UNL A   1      45.664  26.165  35.959  1.00  0.00    -0.206 F 
ATOM     75  C   UNL A   1      44.822  22.641  35.969  1.00  0.00     0.006 A 
ENDBRANCH  54  68
BRANCH  55  76
ATOM     76  C   UNL A   1      44.466  32.582  27.883  1.00  0.00     0.057 A 
ATOM     77  C   UNL A   1      43.978  32.403  26.584  1.00  0.00     0.134 A 
ATOM     78  C   UNL A   1      44.915  33.864  28.230  1.00  0.00     0.134 A 
ATOM     79  F   UNL A   1      43.556  31.196  26.181  1.00  0.00    -0.206 F 
ATOM     80  C   UNL A   1      43.958  33.450  25.659  1.00  0.00     0.040 A 
ATOM     81  C   UNL A   1      44.874  34.925  27.324  1.00  0.00     0.040 A 
ATOM     82  F   UNL A   1      45.395  34.103  29.459  1.00  0.00    -0.206 F 
ATOM     83  C   UNL A   1      44.402  34.717  26.031  1.00  0.00     0.006 A 
ENDBRANCH  55  76
BRANCH  67  84
ATOM     84  C   UNL A   1      40.309  30.517  33.088  1.00  0.00     0.057 A 
ATOM     85  C   UNL A   1      39.037  30.107  32.669  1.00  0.00     0.134 A 
ATOM     86  C   UNL A   1      40.375  31.461  34.122  1.00  0.00     0.134 A 
ATOM     87  F   UNL A   1      38.904  29.214  31.677  1.00  0.00    -0.206 F 
ATOM     88  C   UNL A   1      37.877  30.635  33.237  1.00  0.00     0.040 A 
ATOM     89  C   UNL A   1      39.221  31.971  34.720  1.00  0.00     0.040 A 
ATOM     90  F   UNL A   1      41.560  31.888  34.582  1.00  0.00    -0.206 F 
ATOM     91  C   UNL A   1      37.967  31.564  34.272  1.00  0.00     0.006 A 
ENDBRANCH  67  84
ENDBRANCH  41  42
ENDBRANCH  34  36
ENDBRANCH  33  34
ENDBRANCH  32  33
ENDBRANCH  31  32
ENDBRANCH  30  31
ENDBRANCH  29  30
ENDBRANCH  28  29
ENDBRANCH  27  28
ENDBRANCH   1  27
TORSDOF 23
ENDMDL
MODEL 3
REMARK VINA RESULT:      -9.0      3.758      9.565
REMARK SMILES CC1(C)C(C(=O)Nc2ccc(CC(=O)OCCOCCOCCOCCOC(=O)c3ccc(-c4c5nc(c(-c6c(F)cccc6F)c6ccc([nH]6)c(-c6c(F)cccc6F)c6nc(c(-c7c(F)cccc7F)c7ccc4[nH]7)C=C6)C=C5)cc3)cc2)C1(C)C
REMARK SMILES IDX 20 1 19 2 18 3 17 4 16 5 15 6 13 7 14 8 12 9 11 10 8 11 9 12
REMARK SMILES IDX 85 13 10 14 84 15 7 16 5 17 6 18 4 20 1 21 2 22 3 23 86 24
REMARK SMILES IDX 87 25 88 26 21 27 22 28 23 29 24 30 25 31 26 32 27 33 28 34
REMARK SMILES IDX 29 35 30 36 31 37 83 38 32 39 82 40 33 41 34 42 35 43 76 44
REMARK SMILES IDX 36 45 81 46 75 47 77 48 37 49 80 50 74 51 73 52 38 54 64 55
REMARK SMILES IDX 47 56 63 57 48 58 51 59 62 60 78 61 49 62 50 63 61 65 79 66
REMARK SMILES IDX 52 67 39 68 40 69 45 70 41 71 42 72 44 73 46 74 43 75 65 76
REMARK SMILES IDX 66 77 71 78 67 79 68 80 70 81 72 82 69 83 53 84 54 85 59 86
REMARK SMILES IDX 55 87 56 88 58 89 60 90 57 91
REMARK H PARENT 7 19 77 53 51 64
REMARK Flexibility Score: inf
ROOT
ATOM      1  C   UNL A   1      34.244  22.659  26.155  1.00  0.00     0.188 C 
ENDROOT
BRANCH   1   2
ATOM      2  C   UNL A   1      33.824  22.399  24.691  1.00  0.00     0.188 C 
BRANCH   2   3
ATOM      3  O   UNL A   1      32.586  22.885  24.172  1.00  0.00    -0.376 OA
BRANCH   3   4
ATOM      4  C   UNL A   1      31.442  22.920  25.010  1.00  0.00     0.202 C 
BRANCH   4   5
ATOM      5  C   UNL A   1      30.914  24.319  25.367  1.00  0.00     0.261 C 
BRANCH   5   6
ATOM      6  O   UNL A   1      31.807  25.408  25.071  1.00  0.00    -0.463 OA
BRANCH   6   7
ATOM      7  C   UNL A   1      31.234  26.599  24.778  1.00  0.00     0.310 C 
ATOM      8  O   UNL A   1      30.023  26.773  24.681  1.00  0.00    -0.252 OA
BRANCH   7   9
ATOM      9  C   UNL A   1      32.214  27.730  24.529  1.00  0.00     0.158 C 
BRANCH   9  10
ATOM     10  C   UNL A   1      32.681  28.629  25.661  1.00  0.00    -0.037 A 
ATOM     11  C   UNL A   1      33.820  30.599  27.293  1.00  0.00     0.041 A 
ATOM     12  C   UNL A   1      32.500  30.744  26.876  1.00  0.00     0.026 A 
ATOM     13  C   UNL A   1      34.458  29.372  27.143  1.00  0.00     0.026 A 
ATOM     14  C   UNL A   1      31.950  29.780  26.020  1.00  0.00     0.006 A 
ATOM     15  C   UNL A   1      33.899  28.393  26.311  1.00  0.00     0.006 A 
BRANCH  11  16
ATOM     16  N   UNL A   1      34.517  31.753  27.704  1.00  0.00    -0.326 N 
ATOM     17  C   UNL A   1      34.404  32.339  28.950  1.00  0.00     0.228 C 
ATOM     18  O   UNL A   1      33.975  33.490  29.030  1.00  0.00    -0.274 OA
ATOM     19  H   UNL A   1      35.128  32.172  27.056  1.00  0.00     0.169 HD
BRANCH  17  20
ATOM     20  C   UNL A   1      35.124  31.782  30.158  1.00  0.00     0.091 C 
ATOM     21  C   UNL A   1      36.793  29.873  30.766  1.00  0.00     0.012 C 
ATOM     22  C   UNL A   1      36.565  31.263  30.203  1.00  0.00    -0.017 C 
ATOM     23  C   UNL A   1      37.577  31.529  29.126  1.00  0.00     0.012 C 
ATOM     24  C   UNL A   1      36.109  32.408  31.141  1.00  0.00    -0.017 C 
ATOM     25  C   UNL A   1      35.905  32.111  32.617  1.00  0.00     0.012 C 
ATOM     26  C   UNL A   1      36.608  33.817  30.980  1.00  0.00     0.012 C 
ENDBRANCH  17  20
ENDBRANCH  11  16
ENDBRANCH   9  10
ENDBRANCH   7   9
ENDBRANCH   6   7
ENDBRANCH   5   6
ENDBRANCH   4   5
ENDBRANCH   3   4
ENDBRANCH   2   3
ENDBRANCH   1   2
BRANCH   1  27
ATOM     27  O   UNL A   1      35.642  22.624  26.376  1.00  0.00    -0.377 OA
BRANCH  27  28
ATOM     28  C   UNL A   1      36.345  21.752  25.518  1.00  0.00     0.188 C 
BRANCH  28  29
ATOM     29  C   UNL A   1      37.844  22.070  25.444  1.00  0.00     0.188 C 
BRANCH  29  30
ATOM     30  O   UNL A   1      38.105  23.426  25.771  1.00  0.00    -0.376 OA
BRANCH  30  31
ATOM     31  C   UNL A   1      39.043  23.766  26.769  1.00  0.00     0.202 C 
BRANCH  31  32
ATOM     32  C   UNL A   1      40.185  24.759  26.483  1.00  0.00     0.261 C 
BRANCH  32  33
ATOM     33  O   UNL A   1      40.739  25.479  27.587  1.00  0.00    -0.460 OA
BRANCH  33  34
ATOM     34  C   UNL A   1      39.880  25.994  28.490  1.00  0.00     0.338 C 
ATOM     35  O   UNL A   1      38.952  25.417  29.032  1.00  0.00    -0.246 OA
BRANCH  34  36
ATOM     36  C   UNL A   1      40.383  27.333  28.871  1.00  0.00     0.060 A 
ATOM     37  C   UNL A   1      41.416  27.418  29.815  1.00  0.00     0.016 A 
ATOM     38  C   UNL A   1      39.874  28.489  28.275  1.00  0.00     0.016 A 
ATOM     39  C   UNL A   1      41.936  28.659  30.173  1.00  0.00     0.010 A 
ATOM     40  C   UNL A   1      40.366  29.738  28.667  1.00  0.00     0.010 A 
ATOM     41  C   UNL A   1      41.379  29.827  29.639  1.00  0.00    -0.014 A 
BRANCH  41  42
ATOM     42  C   UNL A   1      41.689  31.129  30.274  1.00  0.00     0.031 A 
ATOM     43  C   UNL A   1      42.773  31.968  29.656  1.00  0.00     0.074 A 
ATOM     44  C   UNL A   1      41.010  31.572  31.345  1.00  0.00     0.049 A 
ATOM     45  N   UNL A   1      43.256  33.121  30.040  1.00  0.00    -0.248 NA
ATOM     46  C   UNL A   1      43.394  31.429  28.436  1.00  0.00     0.031 C 
ATOM     47  C   UNL A   1      39.910  30.872  32.001  1.00  0.00     0.029 A 
ATOM     48  N   UNL A   1      41.163  32.724  32.076  1.00  0.00    -0.354 N 
ATOM     49  C   UNL A   1      44.237  33.441  29.112  1.00  0.00     0.074 A 
ATOM     50  C   UNL A   1      44.307  32.349  28.167  1.00  0.00     0.031 C 
ATOM     51  C   UNL A   1      39.498  31.600  33.055  1.00  0.00     0.029 A 
ATOM     52  C   UNL A   1      40.328  32.800  33.163  1.00  0.00     0.049 A 
ATOM     53  H   UNL A   1      41.811  33.429  31.843  1.00  0.00     0.167 HD
ATOM     54  C   UNL A   1      45.006  34.553  29.046  1.00  0.00     0.037 A 
ATOM     55  C   UNL A   1      40.265  33.721  34.144  1.00  0.00     0.037 A 
ATOM     56  C   UNL A   1      44.948  35.627  30.000  1.00  0.00     0.049 A 
ATOM     57  C   UNL A   1      41.195  34.907  34.104  1.00  0.00     0.074 A 
ATOM     58  C   UNL A   1      45.684  36.798  30.027  1.00  0.00     0.029 A 
ATOM     59  N   UNL A   1      44.112  35.652  31.107  1.00  0.00    -0.354 N 
ATOM     60  N   UNL A   1      42.104  35.217  33.210  1.00  0.00    -0.248 NA
ATOM     61  C   UNL A   1      41.087  35.874  35.206  1.00  0.00     0.031 C 
ATOM     62  C   UNL A   1      45.336  37.504  31.182  1.00  0.00     0.029 A 
ATOM     63  C   UNL A   1      44.335  36.806  31.840  1.00  0.00     0.049 A 
ATOM     64  H   UNL A   1      43.458  34.953  31.337  1.00  0.00     0.167 HD
ATOM     65  C   UNL A   1      42.652  36.426  33.625  1.00  0.00     0.074 A 
ATOM     66  C   UNL A   1      41.964  36.799  34.843  1.00  0.00     0.031 C 
ATOM     67  C   UNL A   1      43.634  37.164  33.048  1.00  0.00     0.037 A 
BRANCH  54  68
ATOM     68  C   UNL A   1      46.000  34.635  27.923  1.00  0.00     0.057 A 
ATOM     69  C   UNL A   1      47.296  34.112  28.038  1.00  0.00     0.134 A 
ATOM     70  C   UNL A   1      45.654  35.239  26.708  1.00  0.00     0.134 A 
ATOM     71  F   UNL A   1      47.699  33.538  29.182  1.00  0.00    -0.206 F 
ATOM     72  C   UNL A   1      48.220  34.215  26.998  1.00  0.00     0.040 A 
ATOM     73  C   UNL A   1      46.559  35.320  25.649  1.00  0.00     0.040 A 
ATOM     74  F   UNL A   1      44.431  35.761  26.530  1.00  0.00    -0.206 F 
ATOM     75  C   UNL A   1      47.850  34.814  25.795  1.00  0.00     0.006 A 
ENDBRANCH  54  68
BRANCH  55  76
ATOM     76  C   UNL A   1      39.304  33.551  35.266  1.00  0.00     0.057 A 
ATOM     77  C   UNL A   1      39.677  32.919  36.457  1.00  0.00     0.134 A 
ATOM     78  C   UNL A   1      37.980  33.997  35.161  1.00  0.00     0.134 A 
ATOM     79  F   UNL A   1      40.922  32.447  36.610  1.00  0.00    -0.206 F 
ATOM     80  C   UNL A   1      38.764  32.719  37.496  1.00  0.00     0.040 A 
ATOM     81  C   UNL A   1      37.065  33.828  36.203  1.00  0.00     0.040 A 
ATOM     82  F   UNL A   1      37.557  34.610  34.046  1.00  0.00    -0.206 F 
ATOM     83  C   UNL A   1      37.455  33.179  37.371  1.00  0.00     0.006 A 
ENDBRANCH  55  76
BRANCH  67  84
ATOM     84  C   UNL A   1      43.994  38.469  33.701  1.00  0.00     0.057 A 
ATOM     85  C   UNL A   1      43.466  39.691  33.267  1.00  0.00     0.134 A 
ATOM     86  C   UNL A   1      44.846  38.493  34.815  1.00  0.00     0.134 A 
ATOM     87  F   UNL A   1      42.653  39.740  32.202  1.00  0.00    -0.206 F 
ATOM     88  C   UNL A   1      43.793  40.893  33.899  1.00  0.00     0.040 A 
ATOM     89  C   UNL A   1      45.154  39.684  35.475  1.00  0.00     0.040 A 
ATOM     90  F   UNL A   1      45.377  37.358  35.293  1.00  0.00    -0.206 F 
ATOM     91  C   UNL A   1      44.633  40.890  35.011  1.00  0.00     0.006 A 
ENDBRANCH  67  84
ENDBRANCH  41  42
ENDBRANCH  34  36
ENDBRANCH  33  34
ENDBRANCH  32  33
ENDBRANCH  31  32
ENDBRANCH  30  31
ENDBRANCH  29  30
ENDBRANCH  28  29
ENDBRANCH  27  28
ENDBRANCH   1  27
TORSDOF 23
ENDMDL
