MODEL 1
REMARK VINA RESULT:     -10.1      0.000      0.000
REMARK SMILES O=C(OCCOCCOCCOCCOC(=O)c1cc(-c2ccn(C(F)F)c(=O)c2)ccc1O)c1ccc(-c2c3nc(c(-c4c(F)cccc4F)c4ccc([nH]4)c(-c4c(F)cccc4F)c4nc(c(-c5c(F)cccc5F)c5ccc2[nH]5)C=C4)C=C3)cc1
REMARK SMILES IDX 9 1 8 2 7 3 6 4 5 5 4 6 3 7 2 8 1 9 35 10 36 11 88 12 37 13
REMARK SMILES IDX 87 14 38 15 39 16 40 17 81 18 41 19 86 20 80 21 82 22 42 23
REMARK SMILES IDX 85 24 79 25 78 26 43 28 69 29 52 30 68 31 53 32 56 33 67 34
REMARK SMILES IDX 83 35 54 36 55 37 66 39 84 40 57 41 44 42 45 43 50 44 46 45
REMARK SMILES IDX 47 46 49 47 51 48 48 49 70 50 71 51 76 52 72 53 73 54 75 55
REMARK SMILES IDX 77 56 74 57 58 58 59 59 64 60 60 61 61 62 63 63 65 64 62 65
REMARK SMILES IDX 10 66 11 67 12 68 13 69 14 70 15 71 16 72 17 73 18 74 19 75
REMARK SMILES IDX 33 76 20 77 32 78 31 79 34 80 21 82 22 83 30 84 23 85 28 86
REMARK SMILES IDX 24 87 29 88 25 89 26 90 27 91
REMARK H PARENT 82 27 56 38 34 81
REMARK Flexibility Score: inf
ROOT
ATOM      1  O   UNL A   1      35.052  24.129  23.946  1.00  0.00    -0.377 OA
ENDROOT
BRANCH   1   2
ATOM      2  C   UNL A   1      35.628  23.792  25.205  1.00  0.00     0.188 C 
BRANCH   2   3
ATOM      3  C   UNL A   1      37.087  23.341  25.146  1.00  0.00     0.188 C 
BRANCH   3   4
ATOM      4  O   UNL A   1      37.209  21.933  25.391  1.00  0.00    -0.376 OA
BRANCH   4   5
ATOM      5  C   UNL A   1      38.533  21.492  25.684  1.00  0.00     0.202 C 
BRANCH   5   6
ATOM      6  C   UNL A   1      38.847  20.055  25.278  1.00  0.00     0.261 C 
BRANCH   6   7
ATOM      7  O   UNL A   1      39.856  19.429  26.078  1.00  0.00    -0.460 OA
BRANCH   7   8
ATOM      8  C   UNL A   1      41.196  19.625  26.077  1.00  0.00     0.338 C 
ATOM      9  O   UNL A   1      41.902  18.676  25.732  1.00  0.00    -0.246 OA
BRANCH   8  10
ATOM     10  C   UNL A   1      41.899  20.878  26.526  1.00  0.00     0.060 A 
ATOM     11  C   UNL A   1      42.288  21.766  25.502  1.00  0.00     0.016 A 
ATOM     12  C   UNL A   1      42.190  21.254  27.842  1.00  0.00     0.016 A 
ATOM     13  C   UNL A   1      42.908  22.986  25.784  1.00  0.00     0.010 A 
ATOM     14  C   UNL A   1      42.827  22.462  28.134  1.00  0.00     0.010 A 
ATOM     15  C   UNL A   1      43.158  23.346  27.110  1.00  0.00    -0.014 A 
BRANCH  15  16
ATOM     16  C   UNL A   1      43.537  24.727  27.457  1.00  0.00     0.031 A 
ATOM     17  C   UNL A   1      42.520  25.760  27.811  1.00  0.00     0.074 A 
ATOM     18  C   UNL A   1      44.844  25.032  27.351  1.00  0.00     0.049 A 
ATOM     19  N   UNL A   1      42.710  26.989  28.215  1.00  0.00    -0.248 NA
ATOM     20  C   UNL A   1      41.107  25.376  27.673  1.00  0.00     0.031 C 
ATOM     21  C   UNL A   1      45.886  24.102  26.901  1.00  0.00     0.029 A 
ATOM     22  N   UNL A   1      45.517  26.197  27.588  1.00  0.00    -0.354 N 
ATOM     23  C   UNL A   1      41.444  27.518  28.424  1.00  0.00     0.074 A 
ATOM     24  C   UNL A   1      40.493  26.497  28.032  1.00  0.00     0.031 C 
ATOM     25  C   UNL A   1      47.069  24.735  26.899  1.00  0.00     0.029 A 
ATOM     26  C   UNL A   1      46.866  26.102  27.353  1.00  0.00     0.049 A 
ATOM     27  H   UNL A   1      45.077  27.023  27.896  1.00  0.00     0.167 HD
ATOM     28  C   UNL A   1      41.121  28.738  28.919  1.00  0.00     0.037 A 
ATOM     29  C   UNL A   1      47.834  27.019  27.513  1.00  0.00     0.037 A 
ATOM     30  C   UNL A   1      42.098  29.751  29.240  1.00  0.00     0.049 A 
ATOM     31  C   UNL A   1      47.454  28.349  28.090  1.00  0.00     0.074 A 
ATOM     32  C   UNL A   1      41.903  31.016  29.767  1.00  0.00     0.029 A 
ATOM     33  N   UNL A   1      43.467  29.613  29.042  1.00  0.00    -0.354 N 
ATOM     34  N   UNL A   1      46.262  28.804  28.398  1.00  0.00    -0.248 NA
ATOM     35  C   UNL A   1      48.552  29.276  28.378  1.00  0.00     0.031 C 
ATOM     36  C   UNL A   1      43.148  31.653  29.854  1.00  0.00     0.029 A 
ATOM     37  C   UNL A   1      44.127  30.770  29.425  1.00  0.00     0.049 A 
ATOM     38  H   UNL A   1      43.906  28.808  28.681  1.00  0.00     0.167 HD
ATOM     39  C   UNL A   1      46.466  30.065  28.937  1.00  0.00     0.074 A 
ATOM     40  C   UNL A   1      47.901  30.284  28.940  1.00  0.00     0.031 C 
ATOM     41  C   UNL A   1      45.556  30.964  29.387  1.00  0.00     0.037 A 
BRANCH  28  42
ATOM     42  C   UNL A   1      39.664  29.026  29.154  1.00  0.00     0.057 A 
ATOM     43  C   UNL A   1      38.814  29.413  28.110  1.00  0.00     0.134 A 
ATOM     44  C   UNL A   1      39.103  28.950  30.438  1.00  0.00     0.134 A 
ATOM     45  F   UNL A   1      39.280  29.518  26.856  1.00  0.00    -0.206 F 
ATOM     46  C   UNL A   1      37.466  29.708  28.333  1.00  0.00     0.040 A 
ATOM     47  C   UNL A   1      37.752  29.217  30.669  1.00  0.00     0.040 A 
ATOM     48  F   UNL A   1      39.855  28.582  31.487  1.00  0.00    -0.206 F 
ATOM     49  C   UNL A   1      36.930  29.604  29.614  1.00  0.00     0.006 A 
ENDBRANCH  28  42
BRANCH  29  50
ATOM     50  C   UNL A   1      49.241  26.668  27.204  1.00  0.00     0.057 A 
ATOM     51  C   UNL A   1      49.789  26.901  25.937  1.00  0.00     0.134 A 
ATOM     52  C   UNL A   1      50.058  26.052  28.158  1.00  0.00     0.134 A 
ATOM     53  F   UNL A   1      49.048  27.465  24.970  1.00  0.00    -0.206 F 
ATOM     54  C   UNL A   1      51.100  26.535  25.630  1.00  0.00     0.040 A 
ATOM     55  C   UNL A   1      51.379  25.704  27.872  1.00  0.00     0.040 A 
ATOM     56  F   UNL A   1      49.589  25.805  29.389  1.00  0.00    -0.206 F 
ATOM     57  C   UNL A   1      51.902  25.942  26.603  1.00  0.00     0.006 A 
ENDBRANCH  29  50
BRANCH  41  58
ATOM     58  C   UNL A   1      46.116  32.251  29.917  1.00  0.00     0.057 A 
ATOM     59  C   UNL A   1      46.264  33.362  29.077  1.00  0.00     0.134 A 
ATOM     60  C   UNL A   1      46.461  32.405  31.266  1.00  0.00     0.134 A 
ATOM     61  F   UNL A   1      45.956  33.279  27.775  1.00  0.00    -0.206 F 
ATOM     62  C   UNL A   1      46.717  34.586  29.567  1.00  0.00     0.040 A 
ATOM     63  C   UNL A   1      46.887  33.632  31.773  1.00  0.00     0.040 A 
ATOM     64  F   UNL A   1      46.323  31.382  32.124  1.00  0.00    -0.206 F 
ATOM     65  C   UNL A   1      47.016  34.727  30.921  1.00  0.00     0.006 A 
ENDBRANCH  41  58
ENDBRANCH  15  16
ENDBRANCH   8  10
ENDBRANCH   7   8
ENDBRANCH   6   7
ENDBRANCH   5   6
ENDBRANCH   4   5
ENDBRANCH   3   4
ENDBRANCH   2   3
ENDBRANCH   1   2
BRANCH   1  66
ATOM     66  C   UNL A   1      34.616  23.052  23.126  1.00  0.00     0.188 C 
BRANCH  66  67
ATOM     67  C   UNL A   1      33.278  23.200  22.372  1.00  0.00     0.188 C 
BRANCH  67  68
ATOM     68  O   UNL A   1      32.239  22.391  22.897  1.00  0.00    -0.376 OA
BRANCH  68  69
ATOM     69  C   UNL A   1      32.567  21.604  24.032  1.00  0.00     0.202 C 
BRANCH  69  70
ATOM     70  C   UNL A   1      31.854  21.928  25.353  1.00  0.00     0.261 C 
BRANCH  70  71
ATOM     71  O   UNL A   1      31.972  23.279  25.828  1.00  0.00    -0.460 OA
BRANCH  71  72
ATOM     72  C   UNL A   1      30.874  23.951  26.262  1.00  0.00     0.342 C 
ATOM     73  O   UNL A   1      30.182  23.684  27.213  1.00  0.00    -0.246 OA
BRANCH  72  74
ATOM     74  C   UNL A   1      30.852  25.232  25.498  1.00  0.00     0.102 A 
ATOM     75  C   UNL A   1      31.401  26.382  26.099  1.00  0.00     0.028 A 
ATOM     76  C   UNL A   1      30.496  25.254  24.144  1.00  0.00     0.130 A 
ATOM     77  C   UNL A   1      31.657  27.521  25.319  1.00  0.00    -0.017 A 
ATOM     78  C   UNL A   1      30.698  26.403  23.382  1.00  0.00     0.048 A 
ATOM     79  C   UNL A   1      31.288  27.525  23.966  1.00  0.00     0.012 A 
BRANCH  76  80
ATOM     80  O   UNL A   1      29.964  24.141  23.555  1.00  0.00    -0.507 OA
ATOM     81  H   UNL A   1      29.104  24.172  23.187  1.00  0.00     0.293 HD
ENDBRANCH  76  80
BRANCH  77  82
ATOM     82  C   UNL A   1      32.362  28.705  25.851  1.00  0.00    -0.011 A 
ATOM     83  C   UNL A   1      33.721  28.652  26.349  1.00  0.00     0.027 A 
ATOM     84  C   UNL A   1      31.659  29.843  25.997  1.00  0.00     0.080 A 
ATOM     85  C   UNL A   1      34.247  29.693  27.006  1.00  0.00     0.095 A 
ATOM     86  C   UNL A   1      32.247  31.028  26.687  1.00  0.00     0.255 A 
ATOM     87  N   UNL A   1      33.525  30.857  27.197  1.00  0.00    -0.258 N 
ATOM     88  O   UNL A   1      31.566  32.045  26.778  1.00  0.00    -0.269 OA
BRANCH  87  89
ATOM     89  C   UNL A   1      34.076  31.942  27.972  1.00  0.00     0.451 C 
ATOM     90  F   UNL A   1      34.232  31.592  29.271  1.00  0.00    -0.185 F 
ATOM     91  F   UNL A   1      35.289  32.310  27.488  1.00  0.00    -0.185 F 
ENDBRANCH  87  89
ENDBRANCH  77  82
ENDBRANCH  72  74
ENDBRANCH  71  72
ENDBRANCH  70  71
ENDBRANCH  69  70
ENDBRANCH  68  69
ENDBRANCH  67  68
ENDBRANCH  66  67
ENDBRANCH   1  66
TORSDOF 23
ENDMDL
MODEL 2
REMARK VINA RESULT:     -10.1      0.590      5.989
REMARK SMILES O=C(OCCOCCOCCOCCOC(=O)c1cc(-c2ccn(C(F)F)c(=O)c2)ccc1O)c1ccc(-c2c3nc(c(-c4c(F)cccc4F)c4ccc([nH]4)c(-c4c(F)cccc4F)c4nc(c(-c5c(F)cccc5F)c5ccc2[nH]5)C=C4)C=C3)cc1
REMARK SMILES IDX 9 1 8 2 7 3 6 4 5 5 4 6 3 7 2 8 1 9 35 10 36 11 88 12 37 13
REMARK SMILES IDX 87 14 38 15 39 16 40 17 81 18 41 19 86 20 80 21 82 22 42 23
REMARK SMILES IDX 85 24 79 25 78 26 43 28 69 29 52 30 68 31 53 32 56 33 67 34
REMARK SMILES IDX 83 35 54 36 55 37 66 39 84 40 57 41 44 42 45 43 50 44 46 45
REMARK SMILES IDX 47 46 49 47 51 48 48 49 70 50 71 51 76 52 72 53 73 54 75 55
REMARK SMILES IDX 77 56 74 57 58 58 59 59 64 60 60 61 61 62 63 63 65 64 62 65
REMARK SMILES IDX 10 66 11 67 12 68 13 69 14 70 15 71 16 72 17 73 18 74 19 75
REMARK SMILES IDX 33 76 20 77 32 78 31 79 34 80 21 82 22 83 30 84 23 85 28 86
REMARK SMILES IDX 24 87 29 88 25 89 26 90 27 91
REMARK H PARENT 82 27 56 38 34 81
REMARK Flexibility Score: inf
ROOT
ATOM      1  O   UNL A   1      35.097  24.081  23.976  1.00  0.00    -0.377 OA
ENDROOT
BRANCH   1   2
ATOM      2  C   UNL A   1      35.725  23.802  25.225  1.00  0.00     0.188 C 
BRANCH   2   3
ATOM      3  C   UNL A   1      37.153  23.269  25.122  1.00  0.00     0.188 C 
BRANCH   3   4
ATOM      4  O   UNL A   1      37.209  21.865  25.411  1.00  0.00    -0.376 OA
BRANCH   4   5
ATOM      5  C   UNL A   1      38.510  21.374  25.730  1.00  0.00     0.202 C 
BRANCH   5   6
ATOM      6  C   UNL A   1      38.788  19.937  25.300  1.00  0.00     0.261 C 
BRANCH   6   7
ATOM      7  O   UNL A   1      39.780  19.272  26.089  1.00  0.00    -0.460 OA
BRANCH   7   8
ATOM      8  C   UNL A   1      41.124  19.432  26.090  1.00  0.00     0.338 C 
ATOM      9  O   UNL A   1      41.805  18.462  25.753  1.00  0.00    -0.246 OA
BRANCH   8  10
ATOM     10  C   UNL A   1      41.859  20.669  26.534  1.00  0.00     0.060 A 
ATOM     11  C   UNL A   1      42.431  21.446  25.505  1.00  0.00     0.016 A 
ATOM     12  C   UNL A   1      42.020  21.128  27.846  1.00  0.00     0.016 A 
ATOM     13  C   UNL A   1      43.103  22.642  25.775  1.00  0.00     0.010 A 
ATOM     14  C   UNL A   1      42.705  22.312  28.129  1.00  0.00     0.010 A 
ATOM     15  C   UNL A   1      43.219  23.088  27.093  1.00  0.00    -0.014 A 
BRANCH  15  16
ATOM     16  C   UNL A   1      43.656  24.465  27.387  1.00  0.00     0.031 A 
ATOM     17  C   UNL A   1      45.093  24.864  27.342  1.00  0.00     0.074 A 
ATOM     18  C   UNL A   1      42.699  25.323  27.786  1.00  0.00     0.049 A 
ATOM     19  N   UNL A   1      45.617  26.052  27.497  1.00  0.00    -0.248 NA
ATOM     20  C   UNL A   1      46.074  23.791  27.117  1.00  0.00     0.031 C 
ATOM     21  C   UNL A   1      41.284  24.975  27.963  1.00  0.00     0.029 A 
ATOM     22  N   UNL A   1      42.763  26.642  28.133  1.00  0.00    -0.354 N 
ATOM     23  C   UNL A   1      46.986  25.883  27.346  1.00  0.00     0.074 A 
ATOM     24  C   UNL A   1      47.217  24.465  27.158  1.00  0.00     0.031 C 
ATOM     25  C   UNL A   1      40.614  26.058  28.383  1.00  0.00     0.029 A 
ATOM     26  C   UNL A   1      41.548  27.169  28.494  1.00  0.00     0.049 A 
ATOM     27  H   UNL A   1      43.599  27.164  28.126  1.00  0.00     0.167 HD
ATOM     28  C   UNL A   1      47.949  26.838  27.344  1.00  0.00     0.037 A 
ATOM     29  C   UNL A   1      41.224  28.423  28.852  1.00  0.00     0.037 A 
ATOM     30  C   UNL A   1      47.685  28.236  27.596  1.00  0.00     0.049 A 
ATOM     31  C   UNL A   1      42.301  29.464  28.812  1.00  0.00     0.074 A 
ATOM     32  C   UNL A   1      48.566  29.303  27.600  1.00  0.00     0.029 A 
ATOM     33  N   UNL A   1      46.434  28.754  27.908  1.00  0.00    -0.354 N 
ATOM     34  N   UNL A   1      43.579  29.320  28.552  1.00  0.00    -0.248 NA
ATOM     35  C   UNL A   1      41.887  30.845  29.076  1.00  0.00     0.031 C 
ATOM     36  C   UNL A   1      47.854  30.459  27.950  1.00  0.00     0.029 A 
ATOM     37  C   UNL A   1      46.520  30.122  28.118  1.00  0.00     0.049 A 
ATOM     38  H   UNL A   1      45.605  28.226  27.972  1.00  0.00     0.167 HD
ATOM     39  C   UNL A   1      44.122  30.594  28.599  1.00  0.00     0.074 A 
ATOM     40  C   UNL A   1      43.022  31.500  28.883  1.00  0.00     0.031 C 
ATOM     41  C   UNL A   1      45.408  30.987  28.427  1.00  0.00     0.037 A 
BRANCH  28  42
ATOM     42  C   UNL A   1      49.356  26.402  27.046  1.00  0.00     0.057 A 
ATOM     43  C   UNL A   1      50.223  25.976  28.060  1.00  0.00     0.134 A 
ATOM     44  C   UNL A   1      49.870  26.435  25.740  1.00  0.00     0.134 A 
ATOM     45  F   UNL A   1      49.808  25.926  29.335  1.00  0.00    -0.206 F 
ATOM     46  C   UNL A   1      51.541  25.596  27.787  1.00  0.00     0.040 A 
ATOM     47  C   UNL A   1      51.176  26.034  25.451  1.00  0.00     0.040 A 
ATOM     48  F   UNL A   1      49.097  26.829  24.716  1.00  0.00    -0.206 F 
ATOM     49  C   UNL A   1      52.018  25.619  26.479  1.00  0.00     0.006 A 
ENDBRANCH  28  42
BRANCH  29  50
ATOM     50  C   UNL A   1      39.819  28.755  29.184  1.00  0.00     0.057 A 
ATOM     51  C   UNL A   1      38.928  29.216  28.207  1.00  0.00     0.134 A 
ATOM     52  C   UNL A   1      39.345  28.659  30.496  1.00  0.00     0.134 A 
ATOM     53  F   UNL A   1      39.330  29.355  26.934  1.00  0.00    -0.206 F 
ATOM     54  C   UNL A   1      37.615  29.568  28.524  1.00  0.00     0.040 A 
ATOM     55  C   UNL A   1      38.027  28.984  30.823  1.00  0.00     0.040 A 
ATOM     56  F   UNL A   1      40.150  28.223  31.475  1.00  0.00    -0.206 F 
ATOM     57  C   UNL A   1      37.159  29.444  29.834  1.00  0.00     0.006 A 
ENDBRANCH  29  50
BRANCH  41  58
ATOM     58  C   UNL A   1      45.662  32.461  28.543  1.00  0.00     0.057 A 
ATOM     59  C   UNL A   1      45.533  33.296  27.427  1.00  0.00     0.134 A 
ATOM     60  C   UNL A   1      45.987  33.059  29.768  1.00  0.00     0.134 A 
ATOM     61  F   UNL A   1      45.229  32.786  26.224  1.00  0.00    -0.206 F 
ATOM     62  C   UNL A   1      45.697  34.677  27.531  1.00  0.00     0.040 A 
ATOM     63  C   UNL A   1      46.124  34.442  29.890  1.00  0.00     0.040 A 
ATOM     64  F   UNL A   1      46.106  32.314  30.878  1.00  0.00    -0.206 F 
ATOM     65  C   UNL A   1      45.979  35.254  28.767  1.00  0.00     0.006 A 
ENDBRANCH  41  58
ENDBRANCH  15  16
ENDBRANCH   8  10
ENDBRANCH   7   8
ENDBRANCH   6   7
ENDBRANCH   5   6
ENDBRANCH   4   5
ENDBRANCH   3   4
ENDBRANCH   2   3
ENDBRANCH   1   2
BRANCH   1  66
ATOM     66  C   UNL A   1      34.658  22.966  23.211  1.00  0.00     0.188 C 
BRANCH  66  67
ATOM     67  C   UNL A   1      33.270  23.038  22.540  1.00  0.00     0.188 C 
BRANCH  67  68
ATOM     68  O   UNL A   1      32.291  22.233  23.176  1.00  0.00    -0.376 OA
BRANCH  68  69
ATOM     69  C   UNL A   1      32.700  21.563  24.359  1.00  0.00     0.202 C 
BRANCH  69  70
ATOM     70  C   UNL A   1      31.934  21.872  25.653  1.00  0.00     0.261 C 
BRANCH  70  71
ATOM     71  O   UNL A   1      31.982  23.230  26.116  1.00  0.00    -0.460 OA
BRANCH  71  72
ATOM     72  C   UNL A   1      30.834  23.910  26.371  1.00  0.00     0.342 C 
ATOM     73  O   UNL A   1      30.022  23.675  27.232  1.00  0.00    -0.246 OA
BRANCH  72  74
ATOM     74  C   UNL A   1      30.910  25.158  25.559  1.00  0.00     0.102 A 
ATOM     75  C   UNL A   1      31.447  26.317  26.155  1.00  0.00     0.028 A 
ATOM     76  C   UNL A   1      30.659  25.135  24.182  1.00  0.00     0.130 A 
ATOM     77  C   UNL A   1      31.796  27.415  25.355  1.00  0.00    -0.017 A 
ATOM     78  C   UNL A   1      30.953  26.246  23.394  1.00  0.00     0.048 A 
ATOM     79  C   UNL A   1      31.531  27.375  23.978  1.00  0.00     0.012 A 
BRANCH  76  80
ATOM     80  O   UNL A   1      30.139  24.015  23.597  1.00  0.00    -0.507 OA
ATOM     81  H   UNL A   1      29.861  24.038  22.703  1.00  0.00     0.293 HD
ENDBRANCH  76  80
BRANCH  77  82
ATOM     82  C   UNL A   1      32.495  28.600  25.893  1.00  0.00    -0.011 A 
ATOM     83  C   UNL A   1      33.867  28.559  26.357  1.00  0.00     0.027 A 
ATOM     84  C   UNL A   1      31.778  29.723  26.080  1.00  0.00     0.080 A 
ATOM     85  C   UNL A   1      34.392  29.595  27.023  1.00  0.00     0.095 A 
ATOM     86  C   UNL A   1      32.364  30.903  26.780  1.00  0.00     0.255 A 
ATOM     87  N   UNL A   1      33.656  30.743  27.254  1.00  0.00    -0.258 N 
ATOM     88  O   UNL A   1      31.669  31.907  26.908  1.00  0.00    -0.269 OA
BRANCH  87  89
ATOM     89  C   UNL A   1      34.209  31.822  28.038  1.00  0.00     0.451 C 
ATOM     90  F   UNL A   1      34.711  31.372  29.212  1.00  0.00    -0.185 F 
ATOM     91  F   UNL A   1      35.210  32.441  27.363  1.00  0.00    -0.185 F 
ENDBRANCH  87  89
ENDBRANCH  77  82
ENDBRANCH  72  74
ENDBRANCH  71  72
ENDBRANCH  70  71
ENDBRANCH  69  70
ENDBRANCH  68  69
ENDBRANCH  67  68
ENDBRANCH  66  67
ENDBRANCH   1  66
TORSDOF 23
ENDMDL
MODEL 3
REMARK VINA RESULT:      -9.9      2.057      6.532
REMARK SMILES O=C(OCCOCCOCCOCCOC(=O)c1cc(-c2ccn(C(F)F)c(=O)c2)ccc1O)c1ccc(-c2c3nc(c(-c4c(F)cccc4F)c4ccc([nH]4)c(-c4c(F)cccc4F)c4nc(c(-c5c(F)cccc5F)c5ccc2[nH]5)C=C4)C=C3)cc1
REMARK SMILES IDX 9 1 8 2 7 3 6 4 5 5 4 6 3 7 2 8 1 9 35 10 36 11 88 12 37 13
REMARK SMILES IDX 87 14 38 15 39 16 40 17 81 18 41 19 86 20 80 21 82 22 42 23
REMARK SMILES IDX 85 24 79 25 78 26 43 28 69 29 52 30 68 31 53 32 56 33 67 34
REMARK SMILES IDX 83 35 54 36 55 37 66 39 84 40 57 41 44 42 45 43 50 44 46 45
REMARK SMILES IDX 47 46 49 47 51 48 48 49 70 50 71 51 76 52 72 53 73 54 75 55
REMARK SMILES IDX 77 56 74 57 58 58 59 59 64 60 60 61 61 62 63 63 65 64 62 65
REMARK SMILES IDX 10 66 11 67 12 68 13 69 14 70 15 71 16 72 17 73 18 74 19 75
REMARK SMILES IDX 33 76 20 77 32 78 31 79 34 80 21 82 22 83 30 84 23 85 28 86
REMARK SMILES IDX 24 87 29 88 25 89 26 90 27 91
REMARK H PARENT 82 27 56 38 34 81
REMARK Flexibility Score: inf
ROOT
ATOM      1  O   UNL A   1      35.735  24.060  24.421  1.00  0.00    -0.377 OA
ENDROOT
BRANCH   1   2
ATOM      2  C   UNL A   1      36.322  23.923  25.712  1.00  0.00     0.188 C 
BRANCH   2   3
ATOM      3  C   UNL A   1      37.756  23.394  25.715  1.00  0.00     0.188 C 
BRANCH   3   4
ATOM      4  O   UNL A   1      37.791  21.978  25.488  1.00  0.00    -0.376 OA
BRANCH   4   5
ATOM      5  C   UNL A   1      39.011  21.345  25.869  1.00  0.00     0.202 C 
BRANCH   5   6
ATOM      6  C   UNL A   1      39.229  19.949  25.291  1.00  0.00     0.261 C 
BRANCH   6   7
ATOM      7  O   UNL A   1      40.240  19.190  25.963  1.00  0.00    -0.460 OA
BRANCH   7   8
ATOM      8  C   UNL A   1      41.578  19.391  26.006  1.00  0.00     0.338 C 
ATOM      9  O   UNL A   1      42.299  18.448  25.678  1.00  0.00    -0.246 OA
BRANCH   8  10
ATOM     10  C   UNL A   1      42.260  20.645  26.487  1.00  0.00     0.060 A 
ATOM     11  C   UNL A   1      42.882  21.427  25.491  1.00  0.00     0.016 A 
ATOM     12  C   UNL A   1      42.329  21.114  27.803  1.00  0.00     0.016 A 
ATOM     13  C   UNL A   1      43.513  22.636  25.795  1.00  0.00     0.010 A 
ATOM     14  C   UNL A   1      42.972  22.313  28.120  1.00  0.00     0.010 A 
ATOM     15  C   UNL A   1      43.537  23.093  27.114  1.00  0.00    -0.014 A 
BRANCH  15  16
ATOM     16  C   UNL A   1      43.928  24.479  27.425  1.00  0.00     0.031 A 
ATOM     17  C   UNL A   1      45.349  24.932  27.359  1.00  0.00     0.074 A 
ATOM     18  C   UNL A   1      42.949  25.293  27.859  1.00  0.00     0.049 A 
ATOM     19  N   UNL A   1      45.831  26.136  27.526  1.00  0.00    -0.248 NA
ATOM     20  C   UNL A   1      46.363  23.900  27.095  1.00  0.00     0.031 C 
ATOM     21  C   UNL A   1      41.552  24.890  28.057  1.00  0.00     0.029 A 
ATOM     22  N   UNL A   1      42.972  26.608  28.230  1.00  0.00    -0.354 N 
ATOM     23  C   UNL A   1      47.203  26.020  27.345  1.00  0.00     0.074 A 
ATOM     24  C   UNL A   1      47.482  24.616  27.126  1.00  0.00     0.031 C 
ATOM     25  C   UNL A   1      40.851  25.940  28.511  1.00  0.00     0.029 A 
ATOM     26  C   UNL A   1      41.745  27.083  28.624  1.00  0.00     0.049 A 
ATOM     27  H   UNL A   1      43.787  27.160  28.216  1.00  0.00     0.167 HD
ATOM     28  C   UNL A   1      48.129  27.011  27.342  1.00  0.00     0.037 A 
ATOM     29  C   UNL A   1      41.383  28.317  29.012  1.00  0.00     0.037 A 
ATOM     30  C   UNL A   1      47.819  28.392  27.626  1.00  0.00     0.049 A 
ATOM     31  C   UNL A   1      42.420  29.398  28.971  1.00  0.00     0.074 A 
ATOM     32  C   UNL A   1      48.661  29.491  27.633  1.00  0.00     0.029 A 
ATOM     33  N   UNL A   1      46.557  28.858  27.972  1.00  0.00    -0.354 N 
ATOM     34  N   UNL A   1      43.697  29.306  28.682  1.00  0.00    -0.248 NA
ATOM     35  C   UNL A   1      41.960  30.758  29.268  1.00  0.00     0.031 C 
ATOM     36  C   UNL A   1      47.914  30.614  28.018  1.00  0.00     0.029 A 
ATOM     37  C   UNL A   1      46.597  30.224  28.206  1.00  0.00     0.049 A 
ATOM     38  H   UNL A   1      45.749  28.299  28.043  1.00  0.00     0.167 HD
ATOM     39  C   UNL A   1      44.193  30.599  28.743  1.00  0.00     0.074 A 
ATOM     40  C   UNL A   1      43.067  31.457  29.065  1.00  0.00     0.031 C 
ATOM     41  C   UNL A   1      45.461  31.042  28.554  1.00  0.00     0.037 A 
BRANCH  28  42
ATOM     42  C   UNL A   1      49.546  26.632  27.008  1.00  0.00     0.057 A 
ATOM     43  C   UNL A   1      49.999  26.582  25.685  1.00  0.00     0.134 A 
ATOM     44  C   UNL A   1      50.464  26.283  28.011  1.00  0.00     0.134 A 
ATOM     45  F   UNL A   1      49.177  26.892  24.670  1.00  0.00    -0.206 F 
ATOM     46  C   UNL A   1      51.308  26.202  25.371  1.00  0.00     0.040 A 
ATOM     47  C   UNL A   1      51.781  25.927  27.713  1.00  0.00     0.040 A 
ATOM     48  F   UNL A   1      50.102  26.311  29.303  1.00  0.00    -0.206 F 
ATOM     49  C   UNL A   1      52.205  25.881  26.387  1.00  0.00     0.006 A 
ENDBRANCH  28  42
BRANCH  29  50
ATOM     50  C   UNL A   1      39.974  28.591  29.378  1.00  0.00     0.057 A 
ATOM     51  C   UNL A   1      39.510  28.403  30.686  1.00  0.00     0.134 A 
ATOM     52  C   UNL A   1      39.046  29.008  28.418  1.00  0.00     0.134 A 
ATOM     53  F   UNL A   1      40.345  27.979  31.647  1.00  0.00    -0.206 F 
ATOM     54  C   UNL A   1      38.174  28.621  31.025  1.00  0.00     0.040 A 
ATOM     55  C   UNL A   1      37.712  29.254  28.749  1.00  0.00     0.040 A 
ATOM     56  F   UNL A   1      39.430  29.205  27.149  1.00  0.00    -0.206 F 
ATOM     57  C   UNL A   1      37.273  29.057  30.057  1.00  0.00     0.006 A 
ENDBRANCH  29  50
BRANCH  41  58
ATOM     58  C   UNL A   1      45.663  32.522  28.692  1.00  0.00     0.057 A 
ATOM     59  C   UNL A   1      46.032  33.079  29.923  1.00  0.00     0.134 A 
ATOM     60  C   UNL A   1      45.539  33.389  27.598  1.00  0.00     0.134 A 
ATOM     61  F   UNL A   1      46.162  32.305  31.010  1.00  0.00    -0.206 F 
ATOM     62  C   UNL A   1      46.291  34.443  30.054  1.00  0.00     0.040 A 
ATOM     63  C   UNL A   1      45.824  34.749  27.710  1.00  0.00     0.040 A 
ATOM     64  F   UNL A   1      45.206  32.912  26.388  1.00  0.00    -0.206 F 
ATOM     65  C   UNL A   1      46.202  35.279  28.943  1.00  0.00     0.006 A 
ENDBRANCH  41  58
ENDBRANCH  15  16
ENDBRANCH   8  10
ENDBRANCH   7   8
ENDBRANCH   6   7
ENDBRANCH   5   6
ENDBRANCH   4   5
ENDBRANCH   3   4
ENDBRANCH   2   3
ENDBRANCH   1   2
BRANCH   1  66
ATOM     66  C   UNL A   1      34.957  22.969  23.945  1.00  0.00     0.188 C 
BRANCH  66  67
ATOM     67  C   UNL A   1      33.872  23.249  22.885  1.00  0.00     0.188 C 
BRANCH  67  68
ATOM     68  O   UNL A   1      32.734  22.413  23.004  1.00  0.00    -0.376 OA
BRANCH  68  69
ATOM     69  C   UNL A   1      32.583  21.727  24.238  1.00  0.00     0.202 C 
BRANCH  69  70
ATOM     70  C   UNL A   1      31.278  21.942  25.016  1.00  0.00     0.261 C 
BRANCH  70  71
ATOM     71  O   UNL A   1      31.372  22.714  26.223  1.00  0.00    -0.460 OA
BRANCH  71  72
ATOM     72  C   UNL A   1      30.622  23.836  26.380  1.00  0.00     0.342 C 
ATOM     73  O   UNL A   1      29.738  24.017  27.180  1.00  0.00    -0.246 OA
BRANCH  72  74
ATOM     74  C   UNL A   1      31.286  24.889  25.558  1.00  0.00     0.102 A 
ATOM     75  C   UNL A   1      30.487  25.682  24.709  1.00  0.00     0.028 A 
ATOM     76  C   UNL A   1      32.626  25.230  25.775  1.00  0.00     0.130 A 
ATOM     77  C   UNL A   1      31.018  26.851  24.145  1.00  0.00    -0.017 A 
ATOM     78  C   UNL A   1      33.170  26.361  25.170  1.00  0.00     0.048 A 
ATOM     79  C   UNL A   1      32.365  27.173  24.369  1.00  0.00     0.012 A 
BRANCH  76  80
ATOM     80  O   UNL A   1      33.406  24.466  26.597  1.00  0.00    -0.507 OA
ATOM     81  H   UNL A   1      34.335  24.455  26.485  1.00  0.00     0.293 HD
ENDBRANCH  76  80
BRANCH  77  82
ATOM     82  C   UNL A   1      30.197  27.801  23.367  1.00  0.00    -0.011 A 
ATOM     83  C   UNL A   1      30.771  28.829  22.523  1.00  0.00     0.027 A 
ATOM     84  C   UNL A   1      28.865  27.788  23.562  1.00  0.00     0.080 A 
ATOM     85  C   UNL A   1      30.000  29.792  22.003  1.00  0.00     0.095 A 
ATOM     86  C   UNL A   1      27.987  28.828  22.951  1.00  0.00     0.255 A 
ATOM     87  N   UNL A   1      28.635  29.813  22.223  1.00  0.00    -0.258 N 
ATOM     88  O   UNL A   1      26.778  28.756  23.149  1.00  0.00    -0.269 OA
BRANCH  87  89
ATOM     89  C   UNL A   1      27.828  30.898  21.718  1.00  0.00     0.451 C 
ATOM     90  F   UNL A   1      27.418  31.714  22.718  1.00  0.00    -0.185 F 
ATOM     91  F   UNL A   1      28.530  31.643  20.828  1.00  0.00    -0.185 F 
ENDBRANCH  87  89
ENDBRANCH  77  82
ENDBRANCH  72  74
ENDBRANCH  71  72
ENDBRANCH  70  71
ENDBRANCH  69  70
ENDBRANCH  68  69
ENDBRANCH  67  68
ENDBRANCH  66  67
ENDBRANCH   1  66
TORSDOF 23
ENDMDL
