MODEL 1
REMARK VINA RESULT:      -9.8      0.000      0.000
REMARK SMILES C[C@H]1CN(C(=O)N2CC[NH+]([C@@H](C)C(=O)OCCOCCOCCOCCOC(=O)c3ccc(-c4c5nc(c(-c6c(F)cccc6F)c6ccc([nH]6)c(-c6c(F)cccc6F)c6nc(c(-c7c(F)cccc7F)c7ccc4[nH]7)C=C6)C=C5)cc3)CC2)C[C@@H]1C
REMARK SMILES IDX 22 1 21 2 20 3 19 4 18 5 17 6 16 7 15 8 13 9 14 10 11 11
REMARK SMILES IDX 12 12 10 13 1 14 2 15 3 16 87 17 4 18 86 19 88 20 5 21 6 22
REMARK SMILES IDX 7 23 8 24 85 25 9 26 84 27 23 29 24 30 25 31 26 32 27 33
REMARK SMILES IDX 28 34 29 35 30 36 31 37 83 38 32 39 82 40 33 41 34 42 35 43
REMARK SMILES IDX 76 44 36 45 81 46 75 47 77 48 37 49 80 50 74 51 73 52 38 54
REMARK SMILES IDX 64 55 47 56 63 57 48 58 51 59 62 60 78 61 49 62 50 63 61 65
REMARK SMILES IDX 79 66 52 67 39 68 40 69 45 70 41 71 42 72 44 73 46 74 43 75
REMARK SMILES IDX 65 76 66 77 71 78 67 79 68 80 70 81 72 82 69 83 53 84 54 85
REMARK SMILES IDX 59 86 55 87 56 88 58 89 60 90 57 91
REMARK H PARENT 10 28 77 53 51 64
REMARK Flexibility Score: inf
ROOT
ATOM      1  C   UNL A   1      34.086  32.631  28.000  1.00  0.00     0.188 C 
ENDROOT
BRANCH   1   2
ATOM      2  O   UNL A   1      32.752  32.635  27.500  1.00  0.00    -0.377 OA
BRANCH   2   3
ATOM      3  C   UNL A   1      32.216  31.452  26.925  1.00  0.00     0.188 C 
BRANCH   3   4
ATOM      4  C   UNL A   1      32.938  30.125  27.217  1.00  0.00     0.188 C 
BRANCH   4   5
ATOM      5  O   UNL A   1      32.100  28.991  27.104  1.00  0.00    -0.376 OA
BRANCH   5   6
ATOM      6  C   UNL A   1      31.728  28.487  25.834  1.00  0.00     0.202 C 
BRANCH   6   7
ATOM      7  C   UNL A   1      32.762  28.133  24.758  1.00  0.00     0.261 C 
BRANCH   7   8
ATOM      8  O   UNL A   1      32.915  26.743  24.484  1.00  0.00    -0.459 OA
BRANCH   8   9
ATOM      9  C   UNL A   1      31.812  26.025  24.187  1.00  0.00     0.364 C 
ATOM     10  O   UNL A   1      31.050  26.315  23.268  1.00  0.00    -0.245 OA
BRANCH   9  11
ATOM     11  C   UNL A   1      31.631  24.762  25.060  1.00  0.00     0.292 C 
ATOM     12  C   UNL A   1      32.640  24.818  26.199  1.00  0.00     0.088 C 
BRANCH  11  13
ATOM     13  N   UNL A   1      31.476  23.464  24.354  1.00  0.00    -0.321 N 
ATOM     14  C   UNL A   1      32.520  16.424  26.128  1.00  0.00     0.010 C 
ATOM     15  C   UNL A   1      32.700  17.000  24.719  1.00  0.00     0.010 C 
ATOM     16  C   UNL A   1      32.579  18.525  24.728  1.00  0.00     0.125 C 
ATOM     17  C   UNL A   1      34.127  16.779  24.188  1.00  0.00     0.010 C 
ATOM     18  N   UNL A   1      33.941  19.013  24.922  1.00  0.00    -0.324 N 
ATOM     19  C   UNL A   1      34.903  17.920  24.851  1.00  0.00     0.125 C 
ATOM     20  C   UNL A   1      34.186  16.895  22.659  1.00  0.00     0.010 C 
ATOM     21  C   UNL A   1      34.376  20.307  24.769  1.00  0.00     0.320 C 
ATOM     22  O   UNL A   1      35.567  20.584  24.627  1.00  0.00    -0.248 OA
ATOM     23  N   UNL A   1      33.403  21.271  24.649  1.00  0.00    -0.313 N 
ATOM     24  C   UNL A   1      33.704  22.395  23.776  1.00  0.00     0.183 C 
ATOM     25  C   UNL A   1      32.473  21.572  25.734  1.00  0.00     0.183 C 
ATOM     26  C   UNL A   1      32.425  23.076  23.294  1.00  0.00     0.284 C 
ATOM     27  C   UNL A   1      31.212  22.304  25.231  1.00  0.00     0.284 C 
ATOM     28  H   UNL A   1      30.635  23.720  23.837  1.00  0.00     0.348 HD
ENDBRANCH  11  13
ENDBRANCH   9  11
ENDBRANCH   8   9
ENDBRANCH   7   8
ENDBRANCH   6   7
ENDBRANCH   5   6
ENDBRANCH   4   5
ENDBRANCH   3   4
ENDBRANCH   2   3
ENDBRANCH   1   2
BRANCH   1  29
ATOM     29  C   UNL A   1      34.412  32.667  29.515  1.00  0.00     0.188 C 
BRANCH  29  30
ATOM     30  O   UNL A   1      34.892  33.902  30.017  1.00  0.00    -0.376 OA
BRANCH  30  31
ATOM     31  C   UNL A   1      34.740  34.154  31.405  1.00  0.00     0.202 C 
BRANCH  31  32
ATOM     32  C   UNL A   1      34.486  32.932  32.302  1.00  0.00     0.261 C 
BRANCH  32  33
ATOM     33  O   UNL A   1      35.502  31.918  32.268  1.00  0.00    -0.460 OA
BRANCH  33  34
ATOM     34  C   UNL A   1      36.551  32.080  33.097  1.00  0.00     0.338 C 
ATOM     35  O   UNL A   1      36.516  32.257  34.308  1.00  0.00    -0.246 OA
BRANCH  34  36
ATOM     36  C   UNL A   1      37.787  31.815  32.338  1.00  0.00     0.060 A 
ATOM     37  C   UNL A   1      37.761  31.958  30.945  1.00  0.00     0.016 A 
ATOM     38  C   UNL A   1      38.957  31.420  32.990  1.00  0.00     0.016 A 
ATOM     39  C   UNL A   1      38.899  31.668  30.196  1.00  0.00     0.010 A 
ATOM     40  C   UNL A   1      40.090  31.107  32.235  1.00  0.00     0.010 A 
ATOM     41  C   UNL A   1      40.053  31.194  30.831  1.00  0.00    -0.014 A 
BRANCH  41  42
ATOM     42  C   UNL A   1      41.142  30.623  30.003  1.00  0.00     0.031 A 
ATOM     43  C   UNL A   1      42.319  31.494  29.659  1.00  0.00     0.074 A 
ATOM     44  C   UNL A   1      41.117  29.338  29.612  1.00  0.00     0.049 A 
ATOM     45  N   UNL A   1      43.401  31.202  28.982  1.00  0.00    -0.248 NA
ATOM     46  C   UNL A   1      42.268  32.882  30.145  1.00  0.00     0.031 C 
ATOM     47  C   UNL A   1      40.047  28.386  29.904  1.00  0.00     0.029 A 
ATOM     48  N   UNL A   1      42.026  28.613  28.883  1.00  0.00    -0.354 N 
ATOM     49  C   UNL A   1      44.155  32.368  28.956  1.00  0.00     0.074 A 
ATOM     50  C   UNL A   1      43.393  33.381  29.655  1.00  0.00     0.031 C 
ATOM     51  C   UNL A   1      40.358  27.201  29.351  1.00  0.00     0.029 A 
ATOM     52  C   UNL A   1      41.634  27.320  28.646  1.00  0.00     0.049 A 
ATOM     53  H   UNL A   1      42.879  28.986  28.560  1.00  0.00     0.167 HD
ATOM     54  C   UNL A   1      45.377  32.576  28.408  1.00  0.00     0.037 A 
ATOM     55  C   UNL A   1      42.230  26.347  27.927  1.00  0.00     0.037 A 
ATOM     56  C   UNL A   1      46.130  31.568  27.709  1.00  0.00     0.049 A 
ATOM     57  C   UNL A   1      43.563  26.617  27.281  1.00  0.00     0.074 A 
ATOM     58  C   UNL A   1      47.391  31.669  27.147  1.00  0.00     0.029 A 
ATOM     59  N   UNL A   1      45.686  30.277  27.459  1.00  0.00    -0.354 N 
ATOM     60  N   UNL A   1      44.291  27.707  27.302  1.00  0.00    -0.248 NA
ATOM     61  C   UNL A   1      44.163  25.512  26.521  1.00  0.00     0.031 C 
ATOM     62  C   UNL A   1      47.680  30.463  26.500  1.00  0.00     0.029 A 
ATOM     63  C   UNL A   1      46.631  29.584  26.719  1.00  0.00     0.049 A 
ATOM     64  H   UNL A   1      44.826  29.908  27.763  1.00  0.00     0.167 HD
ATOM     65  C   UNL A   1      45.441  27.414  26.579  1.00  0.00     0.074 A 
ATOM     66  C   UNL A   1      45.325  26.035  26.156  1.00  0.00     0.031 C 
ATOM     67  C   UNL A   1      46.499  28.214  26.289  1.00  0.00     0.037 A 
BRANCH  54  68
ATOM     68  C   UNL A   1      45.951  33.960  28.508  1.00  0.00     0.057 A 
ATOM     69  C   UNL A   1      46.710  34.378  29.610  1.00  0.00     0.134 A 
ATOM     70  C   UNL A   1      45.754  34.885  27.474  1.00  0.00     0.134 A 
ATOM     71  F   UNL A   1      46.924  33.549  30.643  1.00  0.00    -0.206 F 
ATOM     72  C   UNL A   1      47.225  35.674  29.693  1.00  0.00     0.040 A 
ATOM     73  C   UNL A   1      46.291  36.172  27.532  1.00  0.00     0.040 A 
ATOM     74  F   UNL A   1      45.041  34.551  26.388  1.00  0.00    -0.206 F 
ATOM     75  C   UNL A   1      47.021  36.573  28.649  1.00  0.00     0.006 A 
ENDBRANCH  54  68
BRANCH  55  76
ATOM     76  C   UNL A   1      41.560  25.032  27.766  1.00  0.00     0.057 A 
ATOM     77  C   UNL A   1      40.495  24.855  26.875  1.00  0.00     0.134 A 
ATOM     78  C   UNL A   1      41.962  23.918  28.516  1.00  0.00     0.134 A 
ATOM     79  F   UNL A   1      40.045  25.888  26.147  1.00  0.00    -0.206 F 
ATOM     80  C   UNL A   1      39.844  23.627  26.747  1.00  0.00     0.040 A 
ATOM     81  C   UNL A   1      41.341  22.678  28.377  1.00  0.00     0.040 A 
ATOM     82  F   UNL A   1      42.976  24.021  29.387  1.00  0.00    -0.206 F 
ATOM     83  C   UNL A   1      40.272  22.532  27.495  1.00  0.00     0.006 A 
ENDBRANCH  55  76
BRANCH  67  84
ATOM     84  C   UNL A   1      47.622  27.605  25.495  1.00  0.00     0.057 A 
ATOM     85  C   UNL A   1      48.718  26.985  26.111  1.00  0.00     0.134 A 
ATOM     86  C   UNL A   1      47.606  27.636  24.094  1.00  0.00     0.134 A 
ATOM     87  F   UNL A   1      48.803  26.926  27.449  1.00  0.00    -0.206 F 
ATOM     88  C   UNL A   1      49.775  26.459  25.365  1.00  0.00     0.040 A 
ATOM     89  C   UNL A   1      48.640  27.083  23.338  1.00  0.00     0.040 A 
ATOM     90  F   UNL A   1      46.582  28.201  23.436  1.00  0.00    -0.206 F 
ATOM     91  C   UNL A   1      49.736  26.504  23.973  1.00  0.00     0.006 A 
ENDBRANCH  67  84
ENDBRANCH  41  42
ENDBRANCH  34  36
ENDBRANCH  33  34
ENDBRANCH  32  33
ENDBRANCH  31  32
ENDBRANCH  30  31
ENDBRANCH  29  30
ENDBRANCH   1  29
TORSDOF 21
ENDMDL
MODEL 2
REMARK VINA RESULT:      -9.0      3.909      9.596
REMARK SMILES C[C@H]1CN(C(=O)N2CC[NH+]([C@@H](C)C(=O)OCCOCCOCCOCCOC(=O)c3ccc(-c4c5nc(c(-c6c(F)cccc6F)c6ccc([nH]6)c(-c6c(F)cccc6F)c6nc(c(-c7c(F)cccc7F)c7ccc4[nH]7)C=C6)C=C5)cc3)CC2)C[C@@H]1C
REMARK SMILES IDX 22 1 21 2 20 3 19 4 18 5 17 6 16 7 15 8 13 9 14 10 11 11
REMARK SMILES IDX 12 12 10 13 1 14 2 15 3 16 87 17 4 18 86 19 88 20 5 21 6 22
REMARK SMILES IDX 7 23 8 24 85 25 9 26 84 27 23 29 24 30 25 31 26 32 27 33
REMARK SMILES IDX 28 34 29 35 30 36 31 37 83 38 32 39 82 40 33 41 34 42 35 43
REMARK SMILES IDX 76 44 36 45 81 46 75 47 77 48 37 49 80 50 74 51 73 52 38 54
REMARK SMILES IDX 64 55 47 56 63 57 48 58 51 59 62 60 78 61 49 62 50 63 61 65
REMARK SMILES IDX 79 66 52 67 39 68 40 69 45 70 41 71 42 72 44 73 46 74 43 75
REMARK SMILES IDX 65 76 66 77 71 78 67 79 68 80 70 81 72 82 69 83 53 84 54 85
REMARK SMILES IDX 59 86 55 87 56 88 58 89 60 90 57 91
REMARK H PARENT 10 28 77 53 51 64
REMARK Flexibility Score: inf
ROOT
ATOM      1  C   UNL A   1      45.106  19.181  25.349  1.00  0.00     0.188 C 
ENDROOT
BRANCH   1   2
ATOM      2  O   UNL A   1      43.959  18.337  25.368  1.00  0.00    -0.377 OA
BRANCH   2   3
ATOM      3  C   UNL A   1      42.920  18.586  26.303  1.00  0.00     0.188 C 
BRANCH   3   4
ATOM      4  C   UNL A   1      42.024  19.814  26.066  1.00  0.00     0.188 C 
BRANCH   4   5
ATOM      5  O   UNL A   1      41.190  20.124  27.166  1.00  0.00    -0.376 OA
BRANCH   5   6
ATOM      6  C   UNL A   1      40.435  21.322  27.190  1.00  0.00     0.202 C 
BRANCH   6   7
ATOM      7  C   UNL A   1      39.682  21.840  25.958  1.00  0.00     0.261 C 
BRANCH   7   8
ATOM      8  O   UNL A   1      38.273  21.985  26.112  1.00  0.00    -0.459 OA
BRANCH   8   9
ATOM      9  C   UNL A   1      37.465  21.305  25.273  1.00  0.00     0.364 C 
ATOM     10  O   UNL A   1      37.855  20.370  24.578  1.00  0.00    -0.245 OA
BRANCH   9  11
ATOM     11  C   UNL A   1      35.988  21.760  25.317  1.00  0.00     0.292 C 
ATOM     12  C   UNL A   1      35.103  20.532  25.146  1.00  0.00     0.088 C 
BRANCH  11  13
ATOM     13  N   UNL A   1      35.626  22.972  24.537  1.00  0.00    -0.321 N 
ATOM     14  C   UNL A   1      31.763  29.059  25.886  1.00  0.00     0.010 C 
ATOM     15  C   UNL A   1      31.877  28.389  24.512  1.00  0.00     0.010 C 
ATOM     16  C   UNL A   1      32.605  27.048  24.611  1.00  0.00     0.125 C 
ATOM     17  C   UNL A   1      30.500  27.985  23.956  1.00  0.00     0.010 C 
ATOM     18  N   UNL A   1      31.552  26.059  24.821  1.00  0.00    -0.324 N 
ATOM     19  C   UNL A   1      30.232  26.662  24.677  1.00  0.00     0.125 C 
ATOM     20  C   UNL A   1      30.542  27.779  22.436  1.00  0.00     0.010 C 
ATOM     21  C   UNL A   1      31.684  24.694  24.741  1.00  0.00     0.320 C 
ATOM     22  O   UNL A   1      30.712  23.950  24.604  1.00  0.00    -0.248 OA
ATOM     23  N   UNL A   1      32.968  24.204  24.686  1.00  0.00    -0.313 N 
ATOM     24  C   UNL A   1      33.176  23.012  23.878  1.00  0.00     0.183 C 
ATOM     25  C   UNL A   1      33.904  24.362  25.795  1.00  0.00     0.183 C 
ATOM     26  C   UNL A   1      34.636  22.887  23.448  1.00  0.00     0.284 C 
ATOM     27  C   UNL A   1      35.369  24.181  25.347  1.00  0.00     0.284 C 
ATOM     28  H   UNL A   1      36.514  23.054  24.044  1.00  0.00     0.348 HD
ENDBRANCH  11  13
ENDBRANCH   9  11
ENDBRANCH   8   9
ENDBRANCH   7   8
ENDBRANCH   6   7
ENDBRANCH   5   6
ENDBRANCH   4   5
ENDBRANCH   3   4
ENDBRANCH   2   3
ENDBRANCH   1   2
BRANCH   1  29
ATOM     29  C   UNL A   1      45.323  20.275  24.274  1.00  0.00     0.188 C 
BRANCH  29  30
ATOM     30  O   UNL A   1      44.367  21.322  24.251  1.00  0.00    -0.376 OA
BRANCH  30  31
ATOM     31  C   UNL A   1      44.747  22.549  23.650  1.00  0.00     0.202 C 
BRANCH  31  32
ATOM     32  C   UNL A   1      45.313  23.628  24.586  1.00  0.00     0.261 C 
BRANCH  32  33
ATOM     33  O   UNL A   1      44.604  23.809  25.822  1.00  0.00    -0.460 OA
BRANCH  33  34
ATOM     34  C   UNL A   1      43.446  24.495  25.763  1.00  0.00     0.338 C 
ATOM     35  O   UNL A   1      42.335  24.050  25.502  1.00  0.00    -0.246 OA
BRANCH  34  36
ATOM     36  C   UNL A   1      43.691  25.861  26.259  1.00  0.00     0.060 A 
ATOM     37  C   UNL A   1      44.507  26.028  27.385  1.00  0.00     0.016 A 
ATOM     38  C   UNL A   1      43.116  26.966  25.628  1.00  0.00     0.016 A 
ATOM     39  C   UNL A   1      44.718  27.302  27.907  1.00  0.00     0.010 A 
ATOM     40  C   UNL A   1      43.310  28.241  26.167  1.00  0.00     0.010 A 
ATOM     41  C   UNL A   1      44.082  28.409  27.331  1.00  0.00    -0.014 A 
BRANCH  41  42
ATOM     42  C   UNL A   1      44.087  29.697  28.063  1.00  0.00     0.031 A 
ATOM     43  C   UNL A   1      45.175  30.693  27.765  1.00  0.00     0.074 A 
ATOM     44  C   UNL A   1      43.111  30.006  28.934  1.00  0.00     0.049 A 
ATOM     45  N   UNL A   1      45.360  31.894  28.252  1.00  0.00    -0.248 NA
ATOM     46  C   UNL A   1      46.190  30.276  26.785  1.00  0.00     0.031 C 
ATOM     47  C   UNL A   1      41.989  29.138  29.288  1.00  0.00     0.029 A 
ATOM     48  N   UNL A   1      42.910  31.140  29.679  1.00  0.00    -0.354 N 
ATOM     49  C   UNL A   1      46.513  32.373  27.643  1.00  0.00     0.074 A 
ATOM     50  C   UNL A   1      47.003  31.322  26.778  1.00  0.00     0.031 C 
ATOM     51  C   UNL A   1      41.220  29.771  30.190  1.00  0.00     0.029 A 
ATOM     52  C   UNL A   1      41.810  31.074  30.495  1.00  0.00     0.049 A 
ATOM     53  H   UNL A   1      43.501  31.927  29.633  1.00  0.00     0.167 HD
ATOM     54  C   UNL A   1      47.106  33.583  27.784  1.00  0.00     0.037 A 
ATOM     55  C   UNL A   1      41.341  31.959  31.398  1.00  0.00     0.037 A 
ATOM     56  C   UNL A   1      46.619  34.625  28.650  1.00  0.00     0.049 A 
ATOM     57  C   UNL A   1      42.047  33.277  31.577  1.00  0.00     0.074 A 
ATOM     58  C   UNL A   1      47.129  35.898  28.838  1.00  0.00     0.029 A 
ATOM     59  N   UNL A   1      45.519  34.510  29.488  1.00  0.00    -0.354 N 
ATOM     60  N   UNL A   1      43.109  33.741  30.962  1.00  0.00    -0.248 NA
ATOM     61  C   UNL A   1      41.479  34.200  32.569  1.00  0.00     0.031 C 
ATOM     62  C   UNL A   1      46.379  36.527  29.837  1.00  0.00     0.029 A 
ATOM     63  C   UNL A   1      45.357  35.674  30.222  1.00  0.00     0.049 A 
ATOM     64  H   UNL A   1      44.939  33.717  29.550  1.00  0.00     0.167 HD
ATOM     65  C   UNL A   1      43.323  35.014  31.476  1.00  0.00     0.074 A 
ATOM     66  C   UNL A   1      42.265  35.259  32.433  1.00  0.00     0.031 C 
ATOM     67  C   UNL A   1      44.307  35.902  31.184  1.00  0.00     0.037 A 
BRANCH  54  68
ATOM     68  C   UNL A   1      48.373  33.824  27.014  1.00  0.00     0.057 A 
ATOM     69  C   UNL A   1      49.605  33.289  27.415  1.00  0.00     0.134 A 
ATOM     70  C   UNL A   1      48.356  34.592  25.843  1.00  0.00     0.134 A 
ATOM     71  F   UNL A   1      49.698  32.557  28.536  1.00  0.00    -0.206 F 
ATOM     72  C   UNL A   1      50.777  33.535  26.696  1.00  0.00     0.040 A 
ATOM     73  C   UNL A   1      49.514  34.818  25.098  1.00  0.00     0.040 A 
ATOM     74  F   UNL A   1      47.210  35.132  25.399  1.00  0.00    -0.206 F 
ATOM     75  C   UNL A   1      50.732  34.296  25.530  1.00  0.00     0.006 A 
ENDBRANCH  54  68
BRANCH  55  76
ATOM     76  C   UNL A   1      40.149  31.619  32.215  1.00  0.00     0.057 A 
ATOM     77  C   UNL A   1      38.866  32.046  31.855  1.00  0.00     0.134 A 
ATOM     78  C   UNL A   1      40.270  30.868  33.393  1.00  0.00     0.134 A 
ATOM     79  F   UNL A   1      38.686  32.789  30.753  1.00  0.00    -0.206 F 
ATOM     80  C   UNL A   1      37.749  31.754  32.640  1.00  0.00     0.040 A 
ATOM     81  C   UNL A   1      39.159  30.544  34.172  1.00  0.00     0.040 A 
ATOM     82  F   UNL A   1      41.471  30.430  33.794  1.00  0.00    -0.206 F 
ATOM     83  C   UNL A   1      37.895  30.995  33.800  1.00  0.00     0.006 A 
ENDBRANCH  55  76
BRANCH  67  84
ATOM     84  C   UNL A   1      44.267  37.228  31.894  1.00  0.00     0.057 A 
ATOM     85  C   UNL A   1      43.775  38.387  31.279  1.00  0.00     0.134 A 
ATOM     86  C   UNL A   1      44.726  37.347  33.213  1.00  0.00     0.134 A 
ATOM     87  F   UNL A   1      43.327  38.349  30.015  1.00  0.00    -0.206 F 
ATOM     88  C   UNL A   1      43.780  39.621  31.933  1.00  0.00     0.040 A 
ATOM     89  C   UNL A   1      44.704  38.568  33.889  1.00  0.00     0.040 A 
ATOM     90  F   UNL A   1      45.199  36.277  33.870  1.00  0.00    -0.206 F 
ATOM     91  C   UNL A   1      44.243  39.713  33.244  1.00  0.00     0.006 A 
ENDBRANCH  67  84
ENDBRANCH  41  42
ENDBRANCH  34  36
ENDBRANCH  33  34
ENDBRANCH  32  33
ENDBRANCH  31  32
ENDBRANCH  30  31
ENDBRANCH  29  30
ENDBRANCH   1  29
TORSDOF 21
ENDMDL
MODEL 3
REMARK VINA RESULT:      -9.0      5.031      8.611
REMARK SMILES C[C@H]1CN(C(=O)N2CC[NH+]([C@@H](C)C(=O)OCCOCCOCCOCCOC(=O)c3ccc(-c4c5nc(c(-c6c(F)cccc6F)c6ccc([nH]6)c(-c6c(F)cccc6F)c6nc(c(-c7c(F)cccc7F)c7ccc4[nH]7)C=C6)C=C5)cc3)CC2)C[C@@H]1C
REMARK SMILES IDX 22 1 21 2 20 3 19 4 18 5 17 6 16 7 15 8 13 9 14 10 11 11
REMARK SMILES IDX 12 12 10 13 1 14 2 15 3 16 87 17 4 18 86 19 88 20 5 21 6 22
REMARK SMILES IDX 7 23 8 24 85 25 9 26 84 27 23 29 24 30 25 31 26 32 27 33
REMARK SMILES IDX 28 34 29 35 30 36 31 37 83 38 32 39 82 40 33 41 34 42 35 43
REMARK SMILES IDX 76 44 36 45 81 46 75 47 77 48 37 49 80 50 74 51 73 52 38 54
REMARK SMILES IDX 64 55 47 56 63 57 48 58 51 59 62 60 78 61 49 62 50 63 61 65
REMARK SMILES IDX 79 66 52 67 39 68 40 69 45 70 41 71 42 72 44 73 46 74 43 75
REMARK SMILES IDX 65 76 66 77 71 78 67 79 68 80 70 81 72 82 69 83 53 84 54 85
REMARK SMILES IDX 59 86 55 87 56 88 58 89 60 90 57 91
REMARK H PARENT 10 28 77 53 51 64
REMARK Flexibility Score: inf
ROOT
ATOM      1  C   UNL A   1      33.070  36.726  30.910  1.00  0.00     0.188 C 
ENDROOT
BRANCH   1   2
ATOM      2  O   UNL A   1      33.874  37.603  31.693  1.00  0.00    -0.377 OA
BRANCH   2   3
ATOM      3  C   UNL A   1      34.001  37.379  33.089  1.00  0.00     0.188 C 
BRANCH   3   4
ATOM      4  C   UNL A   1      33.916  35.926  33.591  1.00  0.00     0.188 C 
BRANCH   4   5
ATOM      5  O   UNL A   1      35.143  35.429  34.090  1.00  0.00    -0.376 OA
BRANCH   5   6
ATOM      6  C   UNL A   1      36.203  35.099  33.211  1.00  0.00     0.202 C 
BRANCH   6   7
ATOM      7  C   UNL A   1      37.327  34.134  33.610  1.00  0.00     0.261 C 
BRANCH   7   8
ATOM      8  O   UNL A   1      38.470  34.734  34.212  1.00  0.00    -0.459 OA
BRANCH   8   9
ATOM      9  C   UNL A   1      38.968  34.175  35.335  1.00  0.00     0.364 C 
ATOM     10  O   UNL A   1      38.407  33.262  35.936  1.00  0.00    -0.245 OA
BRANCH   9  11
ATOM     11  C   UNL A   1      40.345  34.737  35.759  1.00  0.00     0.292 C 
ATOM     12  C   UNL A   1      40.481  36.146  35.198  1.00  0.00     0.088 C 
BRANCH  11  13
ATOM     13  N   UNL A   1      41.518  33.835  35.621  1.00  0.00    -0.321 N 
ATOM     14  C   UNL A   1      42.971  27.742  31.806  1.00  0.00     0.010 C 
ATOM     15  C   UNL A   1      43.572  28.072  33.176  1.00  0.00     0.010 C 
ATOM     16  C   UNL A   1      42.929  29.325  33.773  1.00  0.00     0.125 C 
ATOM     17  C   UNL A   1      43.242  26.993  34.221  1.00  0.00     0.010 C 
ATOM     18  N   UNL A   1      41.807  28.833  34.569  1.00  0.00    -0.324 N 
ATOM     19  C   UNL A   1      41.824  27.378  34.652  1.00  0.00     0.125 C 
ATOM     20  C   UNL A   1      44.206  27.046  35.414  1.00  0.00     0.010 C 
ATOM     21  C   UNL A   1      41.070  29.554  35.476  1.00  0.00     0.320 C 
ATOM     22  O   UNL A   1      40.373  29.009  36.333  1.00  0.00    -0.248 OA
ATOM     23  N   UNL A   1      41.252  30.917  35.469  1.00  0.00    -0.313 N 
ATOM     24  C   UNL A   1      41.163  31.593  36.755  1.00  0.00     0.183 C 
ATOM     25  C   UNL A   1      40.887  31.741  34.320  1.00  0.00     0.183 C 
ATOM     26  C   UNL A   1      41.896  32.933  36.725  1.00  0.00     0.284 C 
ATOM     27  C   UNL A   1      41.599  33.109  34.337  1.00  0.00     0.284 C 
ATOM     28  H   UNL A   1      42.226  34.568  35.663  1.00  0.00     0.348 HD
ENDBRANCH  11  13
ENDBRANCH   9  11
ENDBRANCH   8   9
ENDBRANCH   7   8
ENDBRANCH   6   7
ENDBRANCH   5   6
ENDBRANCH   4   5
ENDBRANCH   3   4
ENDBRANCH   2   3
ENDBRANCH   1   2
BRANCH   1  29
ATOM     29  C   UNL A   1      33.557  35.329  30.451  1.00  0.00     0.188 C 
BRANCH  29  30
ATOM     30  O   UNL A   1      33.103  34.900  29.179  1.00  0.00    -0.376 OA
BRANCH  30  31
ATOM     31  C   UNL A   1      33.803  33.837  28.552  1.00  0.00     0.202 C 
BRANCH  31  32
ATOM     32  C   UNL A   1      35.187  33.493  29.124  1.00  0.00     0.261 C 
BRANCH  32  33
ATOM     33  O   UNL A   1      35.538  32.100  29.095  1.00  0.00    -0.460 OA
BRANCH  33  34
ATOM     34  C   UNL A   1      36.051  31.579  30.227  1.00  0.00     0.338 C 
ATOM     35  O   UNL A   1      35.549  31.598  31.343  1.00  0.00    -0.246 OA
BRANCH  34  36
ATOM     36  C   UNL A   1      37.248  30.795  29.874  1.00  0.00     0.060 A 
ATOM     37  C   UNL A   1      38.101  30.374  30.902  1.00  0.00     0.016 A 
ATOM     38  C   UNL A   1      37.534  30.485  28.542  1.00  0.00     0.016 A 
ATOM     39  C   UNL A   1      39.265  29.675  30.596  1.00  0.00     0.010 A 
ATOM     40  C   UNL A   1      38.715  29.803  28.236  1.00  0.00     0.010 A 
ATOM     41  C   UNL A   1      39.603  29.428  29.259  1.00  0.00    -0.014 A 
BRANCH  41  42
ATOM     42  C   UNL A   1      40.969  28.944  28.945  1.00  0.00     0.031 A 
ATOM     43  C   UNL A   1      42.119  29.909  29.049  1.00  0.00     0.074 A 
ATOM     44  C   UNL A   1      41.194  27.657  28.632  1.00  0.00     0.049 A 
ATOM     45  N   UNL A   1      43.398  29.703  28.860  1.00  0.00    -0.248 NA
ATOM     46  C   UNL A   1      41.779  31.292  29.417  1.00  0.00     0.031 C 
ATOM     47  C   UNL A   1      40.170  26.621  28.524  1.00  0.00     0.029 A 
ATOM     48  N   UNL A   1      42.367  27.005  28.346  1.00  0.00    -0.354 N 
ATOM     49  C   UNL A   1      44.013  30.928  29.080  1.00  0.00     0.074 A 
ATOM     50  C   UNL A   1      42.965  31.880  29.383  1.00  0.00     0.031 C 
ATOM     51  C   UNL A   1      40.759  25.461  28.187  1.00  0.00     0.029 A 
ATOM     52  C   UNL A   1      42.196  25.680  28.030  1.00  0.00     0.049 A 
ATOM     53  H   UNL A   1      43.248  27.445  28.364  1.00  0.00     0.167 HD
ATOM     54  C   UNL A   1      45.332  31.233  29.042  1.00  0.00     0.037 A 
ATOM     55  C   UNL A   1      43.096  24.755  27.643  1.00  0.00     0.037 A 
ATOM     56  C   UNL A   1      46.371  30.286  28.736  1.00  0.00     0.049 A 
ATOM     57  C   UNL A   1      44.552  25.130  27.555  1.00  0.00     0.074 A 
ATOM     58  C   UNL A   1      47.741  30.489  28.705  1.00  0.00     0.029 A 
ATOM     59  N   UNL A   1      46.158  28.960  28.388  1.00  0.00    -0.354 N 
ATOM     60  N   UNL A   1      45.130  26.279  27.811  1.00  0.00    -0.248 NA
ATOM     61  C   UNL A   1      45.482  24.072  27.137  1.00  0.00     0.031 C 
ATOM     62  C   UNL A   1      48.349  29.305  28.274  1.00  0.00     0.029 A 
ATOM     63  C   UNL A   1      47.366  28.342  28.105  1.00  0.00     0.049 A 
ATOM     64  H   UNL A   1      45.277  28.522  28.349  1.00  0.00     0.167 HD
ATOM     65  C   UNL A   1      46.490  26.077  27.606  1.00  0.00     0.074 A 
ATOM     66  C   UNL A   1      46.652  24.689  27.231  1.00  0.00     0.031 C 
ATOM     67  C   UNL A   1      47.515  26.961  27.717  1.00  0.00     0.037 A 
BRANCH  54  68
ATOM     68  C   UNL A   1      45.717  32.662  29.298  1.00  0.00     0.057 A 
ATOM     69  C   UNL A   1      45.977  33.148  30.587  1.00  0.00     0.134 A 
ATOM     70  C   UNL A   1      45.845  33.564  28.233  1.00  0.00     0.134 A 
ATOM     71  F   UNL A   1      45.858  32.345  31.655  1.00  0.00    -0.206 F 
ATOM     72  C   UNL A   1      46.321  34.484  30.809  1.00  0.00     0.040 A 
ATOM     73  C   UNL A   1      46.218  34.893  28.439  1.00  0.00     0.040 A 
ATOM     74  F   UNL A   1      45.614  33.166  26.973  1.00  0.00    -0.206 F 
ATOM     75  C   UNL A   1      46.448  35.358  29.732  1.00  0.00     0.006 A 
ENDBRANCH  54  68
BRANCH  55  76
ATOM     76  C   UNL A   1      42.643  23.386  27.290  1.00  0.00     0.057 A 
ATOM     77  C   UNL A   1      42.461  22.993  25.960  1.00  0.00     0.134 A 
ATOM     78  C   UNL A   1      42.364  22.438  28.284  1.00  0.00     0.134 A 
ATOM     79  F   UNL A   1      42.686  23.861  24.963  1.00  0.00    -0.206 F 
ATOM     80  C   UNL A   1      42.004  21.716  25.629  1.00  0.00     0.040 A 
ATOM     81  C   UNL A   1      41.935  21.149  27.968  1.00  0.00     0.040 A 
ATOM     82  F   UNL A   1      42.517  22.751  29.578  1.00  0.00    -0.206 F 
ATOM     83  C   UNL A   1      41.746  20.787  26.636  1.00  0.00     0.006 A 
ENDBRANCH  55  76
BRANCH  67  84
ATOM     84  C   UNL A   1      48.901  26.442  27.450  1.00  0.00     0.057 A 
ATOM     85  C   UNL A   1      49.696  25.889  28.463  1.00  0.00     0.134 A 
ATOM     86  C   UNL A   1      49.447  26.492  26.160  1.00  0.00     0.134 A 
ATOM     87  F   UNL A   1      49.241  25.816  29.723  1.00  0.00    -0.206 F 
ATOM     88  C   UNL A   1      50.998  25.447  28.212  1.00  0.00     0.040 A 
ATOM     89  C   UNL A   1      50.733  26.021  25.891  1.00  0.00     0.040 A 
ATOM     90  F   UNL A   1      48.738  26.994  25.138  1.00  0.00    -0.206 F 
ATOM     91  C   UNL A   1      51.518  25.510  26.921  1.00  0.00     0.006 A 
ENDBRANCH  67  84
ENDBRANCH  41  42
ENDBRANCH  34  36
ENDBRANCH  33  34
ENDBRANCH  32  33
ENDBRANCH  31  32
ENDBRANCH  30  31
ENDBRANCH  29  30
ENDBRANCH   1  29
TORSDOF 21
ENDMDL
