MODEL 1
REMARK VINA RESULT:     -11.1      0.000      0.000
REMARK SMILES O=C1C[C@H](c2cn[nH]c2C(=O)OCCOCCOCCOCCOC(=O)c2ccc(-c3c4nc(c(-c5c(F)cccc5F)c5ccc([nH]5)c(-c5c(F)cccc5F)c5nc(c(-c6c(F)cccc6F)c6ccc3[nH]6)C=C5)C=C4)cc2)c2c(-c3cccs3)n[nH]c2N1
REMARK SMILES IDX 18 1 17 2 16 3 15 4 14 5 13 6 12 7 10 8 11 9 9 10 5 11 6 12
REMARK SMILES IDX 7 13 8 14 4 16 1 17 2 18 3 19 91 20 90 21 81 23 89 24 82 25
REMARK SMILES IDX 88 26 83 28 84 29 87 30 85 31 86 32 19 33 20 34 21 35 22 36
REMARK SMILES IDX 23 37 24 38 25 39 26 40 27 41 28 42 80 43 29 44 79 45 30 46
REMARK SMILES IDX 31 47 32 48 73 49 33 50 78 51 72 52 74 53 34 54 77 55 71 56
REMARK SMILES IDX 70 57 35 59 61 60 44 61 60 62 45 63 48 64 59 65 75 66 46 67
REMARK SMILES IDX 47 68 58 70 76 71 49 72 36 73 37 74 42 75 38 76 39 77 41 78
REMARK SMILES IDX 43 79 40 80 62 81 63 82 68 83 64 84 65 85 67 86 69 87 66 88
REMARK SMILES IDX 50 89 51 90 56 91 52 92 53 93 55 94 57 95 54 96
REMARK H PARENT 8 15 91 22 89 27 74 58 48 69
REMARK Flexibility Score: inf
ROOT
ATOM      1  O   UNL A   1      35.001  33.604  27.635  1.00  0.00    -0.377 OA
ENDROOT
BRANCH   1   2
ATOM      2  C   UNL A   1      35.123  32.192  27.641  1.00  0.00     0.188 C 
BRANCH   2   3
ATOM      3  C   UNL A   1      33.860  31.360  27.969  1.00  0.00     0.188 C 
BRANCH   3   4
ATOM      4  O   UNL A   1      33.767  30.078  27.386  1.00  0.00    -0.376 OA
BRANCH   4   5
ATOM      5  C   UNL A   1      33.449  29.838  26.030  1.00  0.00     0.202 C 
BRANCH   5   6
ATOM      6  C   UNL A   1      32.076  29.396  25.509  1.00  0.00     0.261 C 
BRANCH   6   7
ATOM      7  O   UNL A   1      31.873  27.992  25.367  1.00  0.00    -0.459 OA
BRANCH   7   8
ATOM      8  C   UNL A   1      31.508  27.325  26.488  1.00  0.00     0.356 C 
ATOM      9  O   UNL A   1      31.192  27.875  27.544  1.00  0.00    -0.244 OA
BRANCH   8  10
ATOM     10  C   UNL A   1      31.300  25.920  26.246  1.00  0.00     0.147 A 
ATOM     11  C   UNL A   1      30.871  25.084  25.205  1.00  0.00     0.013 A 
ATOM     12  C   UNL A   1      30.981  23.780  25.784  1.00  0.00     0.140 A 
ATOM     13  N   UNL A   1      31.362  23.789  27.055  1.00  0.00    -0.183 NA
ATOM     14  N   UNL A   1      31.580  25.080  27.298  1.00  0.00    -0.271 N 
ATOM     15  H   UNL A   1      31.914  25.408  28.164  1.00  0.00     0.190 HD
BRANCH  11  16
ATOM     16  C   UNL A   1      30.480  25.268  23.740  1.00  0.00     0.069 C 
ATOM     17  O   UNL A   1      28.982  28.648  23.073  1.00  0.00    -0.275 OA
ATOM     18  C   UNL A   1      29.740  27.682  22.974  1.00  0.00     0.226 C 
ATOM     19  C   UNL A   1      29.351  26.318  23.542  1.00  0.00     0.114 C 
ATOM     20  N   UNL A   1      30.888  27.789  22.233  1.00  0.00    -0.311 N 
ATOM     21  C   UNL A   1      31.730  26.719  22.137  1.00  0.00     0.132 A 
ATOM     22  H   UNL A   1      31.104  28.633  21.774  1.00  0.00     0.171 HD
ATOM     23  C   UNL A   1      31.582  25.520  22.780  1.00  0.00     0.031 A 
ATOM     24  N   UNL A   1      32.892  26.654  21.433  1.00  0.00    -0.262 N 
ATOM     25  C   UNL A   1      32.699  24.752  22.361  1.00  0.00     0.108 A 
ATOM     26  N   UNL A   1      33.536  25.481  21.602  1.00  0.00    -0.173 NA
ATOM     27  H   UNL A   1      33.225  27.382  20.863  1.00  0.00     0.192 HD
BRANCH  25  28
ATOM     28  C   UNL A   1      33.031  23.380  22.855  1.00  0.00     0.055 A 
ATOM     29  C   UNL A   1      34.087  23.107  23.699  1.00  0.00     0.022 A 
ATOM     30  S   UNL A   1      32.084  21.993  22.552  1.00  0.00    -0.142 S 
ATOM     31  C   UNL A   1      34.017  21.781  24.222  1.00  0.00     0.012 A 
ATOM     32  C   UNL A   1      33.007  21.050  23.637  1.00  0.00     0.065 A 
ENDBRANCH  25  28
ENDBRANCH  11  16
ENDBRANCH   8  10
ENDBRANCH   7   8
ENDBRANCH   6   7
ENDBRANCH   5   6
ENDBRANCH   4   5
ENDBRANCH   3   4
ENDBRANCH   2   3
ENDBRANCH   1   2
BRANCH   1  33
ATOM     33  C   UNL A   1      35.150  34.224  28.893  1.00  0.00     0.188 C 
BRANCH  33  34
ATOM     34  C   UNL A   1      33.824  34.643  29.559  1.00  0.00     0.188 C 
BRANCH  34  35
ATOM     35  O   UNL A   1      33.525  34.455  30.942  1.00  0.00    -0.376 OA
BRANCH  35  36
ATOM     36  C   UNL A   1      34.496  34.297  31.967  1.00  0.00     0.202 C 
BRANCH  36  37
ATOM     37  C   UNL A   1      34.766  32.939  32.612  1.00  0.00     0.261 C 
BRANCH  37  38
ATOM     38  O   UNL A   1      34.963  31.912  31.671  1.00  0.00    -0.460 OA
BRANCH  38  39
ATOM     39  C   UNL A   1      36.162  31.313  31.789  1.00  0.00     0.338 C 
ATOM     40  O   UNL A   1      36.776  31.081  32.817  1.00  0.00    -0.246 OA
BRANCH  39  41
ATOM     41  C   UNL A   1      36.684  31.052  30.436  1.00  0.00     0.060 A 
ATOM     42  C   UNL A   1      36.550  29.715  30.077  1.00  0.00     0.016 A 
ATOM     43  C   UNL A   1      37.760  31.848  30.015  1.00  0.00     0.016 A 
ATOM     44  C   UNL A   1      37.713  29.058  29.797  1.00  0.00     0.010 A 
ATOM     45  C   UNL A   1      38.925  31.194  29.735  1.00  0.00     0.010 A 
ATOM     46  C   UNL A   1      38.898  29.805  29.778  1.00  0.00    -0.014 A 
BRANCH  46  47
ATOM     47  C   UNL A   1      40.132  29.068  29.769  1.00  0.00     0.031 A 
ATOM     48  C   UNL A   1      40.697  28.962  31.123  1.00  0.00     0.074 A 
ATOM     49  C   UNL A   1      40.625  28.517  28.648  1.00  0.00     0.049 A 
ATOM     50  N   UNL A   1      41.743  29.553  31.592  1.00  0.00    -0.248 NA
ATOM     51  C   UNL A   1      39.851  28.316  32.141  1.00  0.00     0.031 C 
ATOM     52  C   UNL A   1      39.986  28.354  27.338  1.00  0.00     0.029 A 
ATOM     53  N   UNL A   1      41.812  27.879  28.492  1.00  0.00    -0.354 N 
ATOM     54  C   UNL A   1      41.800  29.171  32.925  1.00  0.00     0.074 A 
ATOM     55  C   UNL A   1      40.513  28.624  33.254  1.00  0.00     0.031 C 
ATOM     56  C   UNL A   1      40.693  27.459  26.608  1.00  0.00     0.029 A 
ATOM     57  C   UNL A   1      41.891  27.099  27.346  1.00  0.00     0.049 A 
ATOM     58  H   UNL A   1      42.552  27.962  29.135  1.00  0.00     0.167 HD
ATOM     59  C   UNL A   1      42.990  29.072  33.572  1.00  0.00     0.037 A 
ATOM     60  C   UNL A   1      42.836  26.150  27.131  1.00  0.00     0.037 A 
ATOM     61  C   UNL A   1      44.020  29.807  32.884  1.00  0.00     0.049 A 
ATOM     62  C   UNL A   1      43.959  26.426  28.074  1.00  0.00     0.074 A 
ATOM     63  C   UNL A   1      44.212  31.139  32.573  1.00  0.00     0.029 A 
ATOM     64  N   UNL A   1      44.863  29.101  32.059  1.00  0.00    -0.354 N 
ATOM     65  N   UNL A   1      44.734  27.475  27.986  1.00  0.00    -0.248 NA
ATOM     66  C   UNL A   1      43.893  25.813  29.394  1.00  0.00     0.031 C 
ATOM     67  C   UNL A   1      44.802  31.137  31.277  1.00  0.00     0.029 A 
ATOM     68  C   UNL A   1      44.991  29.809  30.891  1.00  0.00     0.049 A 
ATOM     69  H   UNL A   1      45.297  28.242  32.268  1.00  0.00     0.167 HD
ATOM     70  C   UNL A   1      44.925  27.893  29.298  1.00  0.00     0.074 A 
ATOM     71  C   UNL A   1      44.430  26.794  30.124  1.00  0.00     0.031 C 
ATOM     72  C   UNL A   1      45.190  29.198  29.596  1.00  0.00     0.037 A 
BRANCH  59  73
ATOM     73  C   UNL A   1      43.289  27.998  34.584  1.00  0.00     0.057 A 
ATOM     74  C   UNL A   1      43.574  28.375  35.905  1.00  0.00     0.134 A 
ATOM     75  C   UNL A   1      43.585  26.653  34.266  1.00  0.00     0.134 A 
ATOM     76  F   UNL A   1      43.346  29.628  36.328  1.00  0.00    -0.206 F 
ATOM     77  C   UNL A   1      44.180  27.503  36.816  1.00  0.00     0.040 A 
ATOM     78  C   UNL A   1      44.137  25.761  35.184  1.00  0.00     0.040 A 
ATOM     79  F   UNL A   1      43.454  26.149  33.034  1.00  0.00    -0.206 F 
ATOM     80  C   UNL A   1      44.470  26.194  36.455  1.00  0.00     0.006 A 
ENDBRANCH  59  73
BRANCH  60  81
ATOM     81  C   UNL A   1      42.656  24.838  26.469  1.00  0.00     0.057 A 
ATOM     82  C   UNL A   1      43.450  24.453  25.383  1.00  0.00     0.134 A 
ATOM     83  C   UNL A   1      41.874  23.825  27.054  1.00  0.00     0.134 A 
ATOM     84  F   UNL A   1      44.270  25.335  24.793  1.00  0.00    -0.206 F 
ATOM     85  C   UNL A   1      43.467  23.134  24.905  1.00  0.00     0.040 A 
ATOM     86  C   UNL A   1      41.878  22.509  26.585  1.00  0.00     0.040 A 
ATOM     87  F   UNL A   1      41.146  24.061  28.155  1.00  0.00    -0.206 F 
ATOM     88  C   UNL A   1      42.684  22.155  25.512  1.00  0.00     0.006 A 
ENDBRANCH  60  81
BRANCH  72  89
ATOM     89  C   UNL A   1      45.472  30.138  28.455  1.00  0.00     0.057 A 
ATOM     90  C   UNL A   1      44.477  30.852  27.769  1.00  0.00     0.134 A 
ATOM     91  C   UNL A   1      46.800  30.476  28.174  1.00  0.00     0.134 A 
ATOM     92  F   UNL A   1      43.179  30.664  28.044  1.00  0.00    -0.206 F 
ATOM     93  C   UNL A   1      44.791  31.835  26.827  1.00  0.00     0.040 A 
ATOM     94  C   UNL A   1      47.127  31.478  27.259  1.00  0.00     0.040 A 
ATOM     95  F   UNL A   1      47.803  29.877  28.836  1.00  0.00    -0.206 F 
ATOM     96  C   UNL A   1      46.121  32.159  26.578  1.00  0.00     0.006 A 
ENDBRANCH  72  89
ENDBRANCH  46  47
ENDBRANCH  39  41
ENDBRANCH  38  39
ENDBRANCH  37  38
ENDBRANCH  36  37
ENDBRANCH  35  36
ENDBRANCH  34  35
ENDBRANCH  33  34
ENDBRANCH   1  33
TORSDOF 22
ENDMDL
MODEL 2
REMARK VINA RESULT:     -10.9      1.459      3.048
REMARK SMILES O=C1C[C@H](c2cn[nH]c2C(=O)OCCOCCOCCOCCOC(=O)c2ccc(-c3c4nc(c(-c5c(F)cccc5F)c5ccc([nH]5)c(-c5c(F)cccc5F)c5nc(c(-c6c(F)cccc6F)c6ccc3[nH]6)C=C5)C=C4)cc2)c2c(-c3cccs3)n[nH]c2N1
REMARK SMILES IDX 18 1 17 2 16 3 15 4 14 5 13 6 12 7 10 8 11 9 9 10 5 11 6 12
REMARK SMILES IDX 7 13 8 14 4 16 1 17 2 18 3 19 91 20 90 21 81 23 89 24 82 25
REMARK SMILES IDX 88 26 83 28 84 29 87 30 85 31 86 32 19 33 20 34 21 35 22 36
REMARK SMILES IDX 23 37 24 38 25 39 26 40 27 41 28 42 80 43 29 44 79 45 30 46
REMARK SMILES IDX 31 47 32 48 73 49 33 50 78 51 72 52 74 53 34 54 77 55 71 56
REMARK SMILES IDX 70 57 35 59 61 60 44 61 60 62 45 63 48 64 59 65 75 66 46 67
REMARK SMILES IDX 47 68 58 70 76 71 49 72 36 73 37 74 42 75 38 76 39 77 41 78
REMARK SMILES IDX 43 79 40 80 62 81 63 82 68 83 64 84 65 85 67 86 69 87 66 88
REMARK SMILES IDX 50 89 51 90 56 91 52 92 53 93 55 94 57 95 54 96
REMARK H PARENT 8 15 91 22 89 27 74 58 48 69
REMARK Flexibility Score: inf
ROOT
ATOM      1  O   UNL A   1      34.689  32.726  27.660  1.00  0.00    -0.377 OA
ENDROOT
BRANCH   1   2
ATOM      2  C   UNL A   1      33.470  32.060  27.941  1.00  0.00     0.188 C 
BRANCH   2   3
ATOM      3  C   UNL A   1      33.058  30.890  27.016  1.00  0.00     0.188 C 
BRANCH   3   4
ATOM      4  O   UNL A   1      33.354  29.584  27.461  1.00  0.00    -0.376 OA
BRANCH   4   5
ATOM      5  C   UNL A   1      34.156  28.662  26.752  1.00  0.00     0.202 C 
BRANCH   5   6
ATOM      6  C   UNL A   1      33.680  27.308  26.211  1.00  0.00     0.261 C 
BRANCH   6   7
ATOM      7  O   UNL A   1      34.448  26.741  25.152  1.00  0.00    -0.459 OA
BRANCH   7   8
ATOM      8  C   UNL A   1      34.172  25.452  24.840  1.00  0.00     0.356 C 
ATOM      9  O   UNL A   1      34.265  24.516  25.635  1.00  0.00    -0.244 OA
BRANCH   8  10
ATOM     10  C   UNL A   1      33.533  25.325  23.554  1.00  0.00     0.147 A 
ATOM     11  C   UNL A   1      32.444  24.653  22.982  1.00  0.00     0.013 A 
ATOM     12  C   UNL A   1      32.478  25.099  21.624  1.00  0.00     0.140 A 
ATOM     13  N   UNL A   1      33.502  25.897  21.347  1.00  0.00    -0.183 NA
ATOM     14  N   UNL A   1      34.099  26.044  22.528  1.00  0.00    -0.271 N 
ATOM     15  H   UNL A   1      34.886  26.623  22.656  1.00  0.00     0.190 HD
BRANCH  11  16
ATOM     16  C   UNL A   1      31.317  23.757  23.493  1.00  0.00     0.069 C 
ATOM     17  O   UNL A   1      32.596  20.539  24.951  1.00  0.00    -0.275 OA
ATOM     18  C   UNL A   1      31.998  21.614  24.873  1.00  0.00     0.226 C 
ATOM     19  C   UNL A   1      31.704  22.252  23.516  1.00  0.00     0.114 C 
ATOM     20  N   UNL A   1      31.472  22.186  26.002  1.00  0.00    -0.311 N 
ATOM     21  C   UNL A   1      30.822  23.383  25.911  1.00  0.00     0.132 A 
ATOM     22  H   UNL A   1      31.565  21.737  26.874  1.00  0.00     0.171 HD
ATOM     23  C   UNL A   1      30.688  24.140  24.780  1.00  0.00     0.031 A 
ATOM     24  N   UNL A   1      30.232  24.072  26.925  1.00  0.00    -0.262 N 
ATOM     25  C   UNL A   1      29.944  25.274  25.197  1.00  0.00     0.108 A 
ATOM     26  N   UNL A   1      29.740  25.263  26.526  1.00  0.00    -0.173 NA
ATOM     27  H   UNL A   1      30.171  23.737  27.848  1.00  0.00     0.192 HD
BRANCH  25  28
ATOM     28  C   UNL A   1      29.603  26.444  24.330  1.00  0.00     0.055 A 
ATOM     29  C   UNL A   1      28.346  26.668  23.809  1.00  0.00     0.022 A 
ATOM     30  S   UNL A   1      30.676  27.722  23.974  1.00  0.00    -0.142 S 
ATOM     31  C   UNL A   1      28.230  27.976  23.251  1.00  0.00     0.012 A 
ATOM     32  C   UNL A   1      29.440  28.633  23.226  1.00  0.00     0.065 A 
ENDBRANCH  25  28
ENDBRANCH  11  16
ENDBRANCH   8  10
ENDBRANCH   7   8
ENDBRANCH   6   7
ENDBRANCH   5   6
ENDBRANCH   4   5
ENDBRANCH   3   4
ENDBRANCH   2   3
ENDBRANCH   1   2
BRANCH   1  33
ATOM     33  C   UNL A   1      34.742  34.076  28.065  1.00  0.00     0.188 C 
BRANCH  33  34
ATOM     34  C   UNL A   1      33.476  34.574  28.789  1.00  0.00     0.188 C 
BRANCH  34  35
ATOM     35  O   UNL A   1      33.301  34.557  30.206  1.00  0.00    -0.376 OA
BRANCH  35  36
ATOM     36  C   UNL A   1      34.360  34.541  31.153  1.00  0.00     0.202 C 
BRANCH  36  37
ATOM     37  C   UNL A   1      34.721  33.276  31.929  1.00  0.00     0.261 C 
BRANCH  37  38
ATOM     38  O   UNL A   1      34.758  32.125  31.121  1.00  0.00    -0.460 OA
BRANCH  38  39
ATOM     39  C   UNL A   1      35.866  31.386  31.308  1.00  0.00     0.338 C 
ATOM     40  O   UNL A   1      36.322  30.989  32.367  1.00  0.00    -0.246 OA
BRANCH  39  41
ATOM     41  C   UNL A   1      36.523  31.198  30.002  1.00  0.00     0.060 A 
ATOM     42  C   UNL A   1      36.423  29.885  29.556  1.00  0.00     0.016 A 
ATOM     43  C   UNL A   1      37.638  32.008  29.739  1.00  0.00     0.016 A 
ATOM     44  C   UNL A   1      37.608  29.235  29.358  1.00  0.00     0.010 A 
ATOM     45  C   UNL A   1      38.824  31.362  29.542  1.00  0.00     0.010 A 
ATOM     46  C   UNL A   1      38.790  29.973  29.503  1.00  0.00    -0.014 A 
BRANCH  46  47
ATOM     47  C   UNL A   1      40.017  29.227  29.577  1.00  0.00     0.031 A 
ATOM     48  C   UNL A   1      40.455  29.064  30.972  1.00  0.00     0.074 A 
ATOM     49  C   UNL A   1      40.609  28.718  28.484  1.00  0.00     0.049 A 
ATOM     50  N   UNL A   1      41.455  29.629  31.558  1.00  0.00    -0.248 NA
ATOM     51  C   UNL A   1      39.517  28.384  31.881  1.00  0.00     0.031 C 
ATOM     52  C   UNL A   1      40.092  28.612  27.115  1.00  0.00     0.029 A 
ATOM     53  N   UNL A   1      41.803  28.078  28.412  1.00  0.00    -0.354 N 
ATOM     54  C   UNL A   1      41.389  29.193  32.874  1.00  0.00     0.074 A 
ATOM     55  C   UNL A   1      40.075  28.642  33.061  1.00  0.00     0.031 C 
ATOM     56  C   UNL A   1      40.860  27.741  26.418  1.00  0.00     0.029 A 
ATOM     57  C   UNL A   1      41.984  27.344  27.247  1.00  0.00     0.049 A 
ATOM     58  H   UNL A   1      42.481  28.130  29.123  1.00  0.00     0.167 HD
ATOM     59  C   UNL A   1      42.513  29.059  33.623  1.00  0.00     0.037 A 
ATOM     60  C   UNL A   1      42.941  26.398  27.082  1.00  0.00     0.037 A 
ATOM     61  C   UNL A   1      43.605  29.814  33.062  1.00  0.00     0.049 A 
ATOM     62  C   UNL A   1      43.974  26.627  28.134  1.00  0.00     0.074 A 
ATOM     63  C   UNL A   1      43.830  31.156  32.823  1.00  0.00     0.029 A 
ATOM     64  N   UNL A   1      44.518  29.135  32.289  1.00  0.00    -0.354 N 
ATOM     65  N   UNL A   1      44.757  27.673  28.160  1.00  0.00    -0.248 NA
ATOM     66  C   UNL A   1      43.785  25.963  29.417  1.00  0.00     0.031 C 
ATOM     67  C   UNL A   1      44.536  31.201  31.588  1.00  0.00     0.029 A 
ATOM     68  C   UNL A   1      44.755  29.888  31.168  1.00  0.00     0.049 A 
ATOM     69  H   UNL A   1      44.928  28.266  32.503  1.00  0.00     0.167 HD
ATOM     70  C   UNL A   1      44.829  28.037  29.499  1.00  0.00     0.074 A 
ATOM     71  C   UNL A   1      44.256  26.910  30.232  1.00  0.00     0.031 C 
ATOM     72  C   UNL A   1      45.070  29.328  29.873  1.00  0.00     0.037 A 
BRANCH  59  73
ATOM     73  C   UNL A   1      42.715  27.944  34.613  1.00  0.00     0.057 A 
ATOM     74  C   UNL A   1      42.995  26.656  34.131  1.00  0.00     0.134 A 
ATOM     75  C   UNL A   1      42.373  28.011  35.982  1.00  0.00     0.134 A 
ATOM     76  F   UNL A   1      43.325  26.458  32.845  1.00  0.00    -0.206 F 
ATOM     77  C   UNL A   1      42.869  25.515  34.931  1.00  0.00     0.040 A 
ATOM     78  C   UNL A   1      42.298  26.886  36.802  1.00  0.00     0.040 A 
ATOM     79  F   UNL A   1      41.996  29.144  36.585  1.00  0.00    -0.206 F 
ATOM     80  C   UNL A   1      42.512  25.627  36.268  1.00  0.00     0.006 A 
ENDBRANCH  59  73
BRANCH  60  81
ATOM     81  C   UNL A   1      42.818  25.114  26.354  1.00  0.00     0.057 A 
ATOM     82  C   UNL A   1      43.664  24.796  25.286  1.00  0.00     0.134 A 
ATOM     83  C   UNL A   1      42.035  24.060  26.859  1.00  0.00     0.134 A 
ATOM     84  F   UNL A   1      44.488  25.721  24.772  1.00  0.00    -0.206 F 
ATOM     85  C   UNL A   1      43.731  23.501  24.749  1.00  0.00     0.040 A 
ATOM     86  C   UNL A   1      42.088  22.766  26.331  1.00  0.00     0.040 A 
ATOM     87  F   UNL A   1      41.258  24.229  27.938  1.00  0.00    -0.206 F 
ATOM     88  C   UNL A   1      42.946  22.479  25.278  1.00  0.00     0.006 A 
ENDBRANCH  60  81
BRANCH  72  89
ATOM     89  C   UNL A   1      45.459  30.310  28.802  1.00  0.00     0.057 A 
ATOM     90  C   UNL A   1      44.533  31.057  28.055  1.00  0.00     0.134 A 
ATOM     91  C   UNL A   1      46.808  30.651  28.658  1.00  0.00     0.134 A 
ATOM     92  F   UNL A   1      43.215  30.866  28.201  1.00  0.00    -0.206 F 
ATOM     93  C   UNL A   1      44.936  32.075  27.186  1.00  0.00     0.040 A 
ATOM     94  C   UNL A   1      47.221  31.687  27.818  1.00  0.00     0.040 A 
ATOM     95  F   UNL A   1      47.744  30.020  29.385  1.00  0.00    -0.206 F 
ATOM     96  C   UNL A   1      46.284  32.400  27.074  1.00  0.00     0.006 A 
ENDBRANCH  72  89
ENDBRANCH  46  47
ENDBRANCH  39  41
ENDBRANCH  38  39
ENDBRANCH  37  38
ENDBRANCH  36  37
ENDBRANCH  35  36
ENDBRANCH  34  35
ENDBRANCH  33  34
ENDBRANCH   1  33
TORSDOF 22
ENDMDL
MODEL 3
REMARK VINA RESULT:     -10.7      2.518      3.644
REMARK SMILES O=C1C[C@H](c2cn[nH]c2C(=O)OCCOCCOCCOCCOC(=O)c2ccc(-c3c4nc(c(-c5c(F)cccc5F)c5ccc([nH]5)c(-c5c(F)cccc5F)c5nc(c(-c6c(F)cccc6F)c6ccc3[nH]6)C=C5)C=C4)cc2)c2c(-c3cccs3)n[nH]c2N1
REMARK SMILES IDX 18 1 17 2 16 3 15 4 14 5 13 6 12 7 10 8 11 9 9 10 5 11 6 12
REMARK SMILES IDX 7 13 8 14 4 16 1 17 2 18 3 19 91 20 90 21 81 23 89 24 82 25
REMARK SMILES IDX 88 26 83 28 84 29 87 30 85 31 86 32 19 33 20 34 21 35 22 36
REMARK SMILES IDX 23 37 24 38 25 39 26 40 27 41 28 42 80 43 29 44 79 45 30 46
REMARK SMILES IDX 31 47 32 48 73 49 33 50 78 51 72 52 74 53 34 54 77 55 71 56
REMARK SMILES IDX 70 57 35 59 61 60 44 61 60 62 45 63 48 64 59 65 75 66 46 67
REMARK SMILES IDX 47 68 58 70 76 71 49 72 36 73 37 74 42 75 38 76 39 77 41 78
REMARK SMILES IDX 43 79 40 80 62 81 63 82 68 83 64 84 65 85 67 86 69 87 66 88
REMARK SMILES IDX 50 89 51 90 56 91 52 92 53 93 55 94 57 95 54 96
REMARK H PARENT 8 15 91 22 89 27 74 58 48 69
REMARK Flexibility Score: inf
ROOT
ATOM      1  O   UNL A   1      34.494  33.911  27.728  1.00  0.00    -0.377 OA
ENDROOT
BRANCH   1   2
ATOM      2  C   UNL A   1      34.108  32.829  28.558  1.00  0.00     0.188 C 
BRANCH   2   3
ATOM      3  C   UNL A   1      34.396  31.394  28.054  1.00  0.00     0.188 C 
BRANCH   3   4
ATOM      4  O   UNL A   1      33.551  30.887  27.043  1.00  0.00    -0.376 OA
BRANCH   4   5
ATOM      5  C   UNL A   1      33.588  29.557  26.566  1.00  0.00     0.202 C 
BRANCH   5   6
ATOM      6  C   UNL A   1      33.201  29.116  25.149  1.00  0.00     0.261 C 
BRANCH   6   7
ATOM      7  O   UNL A   1      32.219  28.085  25.051  1.00  0.00    -0.459 OA
BRANCH   7   8
ATOM      8  C   UNL A   1      31.756  27.589  26.223  1.00  0.00     0.356 C 
ATOM      9  O   UNL A   1      31.438  28.286  27.188  1.00  0.00    -0.244 OA
BRANCH   8  10
ATOM     10  C   UNL A   1      31.448  26.184  26.139  1.00  0.00     0.147 A 
ATOM     11  C   UNL A   1      30.908  25.278  25.215  1.00  0.00     0.013 A 
ATOM     12  C   UNL A   1      30.973  24.035  25.919  1.00  0.00     0.140 A 
ATOM     13  N   UNL A   1      31.428  24.146  27.161  1.00  0.00    -0.183 NA
ATOM     14  N   UNL A   1      31.738  25.437  27.256  1.00  0.00    -0.271 N 
ATOM     15  H   UNL A   1      32.142  25.827  28.066  1.00  0.00     0.190 HD
BRANCH  11  16
ATOM     16  C   UNL A   1      30.443  25.340  23.761  1.00  0.00     0.069 C 
ATOM     17  O   UNL A   1      28.822  28.622  22.916  1.00  0.00    -0.275 OA
ATOM     18  C   UNL A   1      29.601  27.669  22.853  1.00  0.00     0.226 C 
ATOM     19  C   UNL A   1      29.278  26.344  23.541  1.00  0.00     0.114 C 
ATOM     20  N   UNL A   1      30.710  27.747  22.050  1.00  0.00    -0.311 N 
ATOM     21  C   UNL A   1      31.575  26.693  21.993  1.00  0.00     0.132 A 
ATOM     22  H   UNL A   1      30.881  28.558  21.519  1.00  0.00     0.171 HD
ATOM     23  C   UNL A   1      31.491  25.544  22.731  1.00  0.00     0.031 A 
ATOM     24  N   UNL A   1      32.704  26.602  21.240  1.00  0.00    -0.262 N 
ATOM     25  C   UNL A   1      32.608  24.773  22.317  1.00  0.00     0.108 A 
ATOM     26  N   UNL A   1      33.388  25.461  21.465  1.00  0.00    -0.173 NA
ATOM     27  H   UNL A   1      32.990  27.293  20.601  1.00  0.00     0.192 HD
BRANCH  25  28
ATOM     28  C   UNL A   1      33.001  23.451  22.896  1.00  0.00     0.055 A 
ATOM     29  C   UNL A   1      34.083  23.275  23.732  1.00  0.00     0.022 A 
ATOM     30  S   UNL A   1      32.099  22.014  22.711  1.00  0.00    -0.142 S 
ATOM     31  C   UNL A   1      34.073  21.987  24.346  1.00  0.00     0.012 A 
ATOM     32  C   UNL A   1      33.079  21.182  23.836  1.00  0.00     0.065 A 
ENDBRANCH  25  28
ENDBRANCH  11  16
ENDBRANCH   8  10
ENDBRANCH   7   8
ENDBRANCH   6   7
ENDBRANCH   5   6
ENDBRANCH   4   5
ENDBRANCH   3   4
ENDBRANCH   2   3
ENDBRANCH   1   2
BRANCH   1  33
ATOM     33  C   UNL A   1      34.556  35.166  28.369  1.00  0.00     0.188 C 
BRANCH  33  34
ATOM     34  C   UNL A   1      33.216  35.926  28.413  1.00  0.00     0.188 C 
BRANCH  34  35
ATOM     35  O   UNL A   1      32.470  36.172  29.605  1.00  0.00    -0.376 OA
BRANCH  35  36
ATOM     36  C   UNL A   1      33.000  36.757  30.786  1.00  0.00     0.202 C 
BRANCH  36  37
ATOM     37  C   UNL A   1      32.619  36.244  32.173  1.00  0.00     0.261 C 
BRANCH  37  38
ATOM     38  O   UNL A   1      33.186  34.993  32.473  1.00  0.00    -0.460 OA
BRANCH  38  39
ATOM     39  C   UNL A   1      34.359  35.088  33.124  1.00  0.00     0.338 C 
ATOM     40  O   UNL A   1      35.087  36.064  33.199  1.00  0.00    -0.246 OA
BRANCH  39  41
ATOM     41  C   UNL A   1      34.691  33.762  33.677  1.00  0.00     0.060 A 
ATOM     42  C   UNL A   1      35.713  33.834  34.617  1.00  0.00     0.016 A 
ATOM     43  C   UNL A   1      34.523  32.666  32.818  1.00  0.00     0.016 A 
ATOM     44  C   UNL A   1      36.839  33.119  34.323  1.00  0.00     0.010 A 
ATOM     45  C   UNL A   1      35.647  31.950  32.521  1.00  0.00     0.010 A 
ATOM     46  C   UNL A   1      36.816  32.301  33.186  1.00  0.00    -0.014 A 
BRANCH  46  47
ATOM     47  C   UNL A   1      38.078  31.786  32.729  1.00  0.00     0.031 A 
ATOM     48  C   UNL A   1      39.043  31.688  33.835  1.00  0.00     0.074 A 
ATOM     49  C   UNL A   1      38.271  31.402  31.457  1.00  0.00     0.049 A 
ATOM     50  N   UNL A   1      40.088  32.416  34.039  1.00  0.00    -0.248 NA
ATOM     51  C   UNL A   1      38.654  30.842  34.976  1.00  0.00     0.031 C 
ATOM     52  C   UNL A   1      37.288  31.220  30.384  1.00  0.00     0.029 A 
ATOM     53  N   UNL A   1      39.430  30.986  30.885  1.00  0.00    -0.354 N 
ATOM     54  C   UNL A   1      40.608  31.962  35.243  1.00  0.00     0.074 A 
ATOM     55  C   UNL A   1      39.577  31.184  35.871  1.00  0.00     0.031 C 
ATOM     56  C   UNL A   1      37.854  30.508  29.380  1.00  0.00     0.029 A 
ATOM     57  C   UNL A   1      39.259  30.308  29.685  1.00  0.00     0.049 A 
ATOM     58  H   UNL A   1      40.313  31.150  31.286  1.00  0.00     0.167 HD
ATOM     59  C   UNL A   1      41.941  32.023  35.494  1.00  0.00     0.037 A 
ATOM     60  C   UNL A   1      40.216  29.550  29.094  1.00  0.00     0.037 A 
ATOM     61  C   UNL A   1      42.593  32.966  34.621  1.00  0.00     0.049 A 
ATOM     62  C   UNL A   1      41.524  29.949  29.689  1.00  0.00     0.074 A 
ATOM     63  C   UNL A   1      42.489  34.329  34.422  1.00  0.00     0.029 A 
ATOM     64  N   UNL A   1      43.230  32.469  33.509  1.00  0.00    -0.354 N 
ATOM     65  N   UNL A   1      42.077  31.117  29.497  1.00  0.00    -0.248 NA
ATOM     66  C   UNL A   1      41.957  29.247  30.891  1.00  0.00     0.031 C 
ATOM     67  C   UNL A   1      42.643  34.512  33.019  1.00  0.00     0.029 A 
ATOM     68  C   UNL A   1      42.889  33.264  32.445  1.00  0.00     0.049 A 
ATOM     69  H   UNL A   1      43.825  31.685  33.481  1.00  0.00     0.167 HD
ATOM     70  C   UNL A   1      42.604  31.474  30.733  1.00  0.00     0.074 A 
ATOM     71  C   UNL A   1      42.550  30.255  31.537  1.00  0.00     0.031 C 
ATOM     72  C   UNL A   1      42.762  32.783  31.088  1.00  0.00     0.037 A 
BRANCH  59  73
ATOM     73  C   UNL A   1      42.687  30.951  36.242  1.00  0.00     0.057 A 
ATOM     74  C   UNL A   1      43.510  31.324  37.316  1.00  0.00     0.134 A 
ATOM     75  C   UNL A   1      42.858  29.623  35.789  1.00  0.00     0.134 A 
ATOM     76  F   UNL A   1      43.449  32.562  37.832  1.00  0.00    -0.206 F 
ATOM     77  C   UNL A   1      44.481  30.468  37.846  1.00  0.00     0.040 A 
ATOM     78  C   UNL A   1      43.784  28.744  36.347  1.00  0.00     0.040 A 
ATOM     79  F   UNL A   1      42.218  29.128  34.724  1.00  0.00    -0.206 F 
ATOM     80  C   UNL A   1      44.626  29.176  37.357  1.00  0.00     0.006 A 
ENDBRANCH  59  73
BRANCH  60  81
ATOM     81  C   UNL A   1      40.027  28.273  28.369  1.00  0.00     0.057 A 
ATOM     82  C   UNL A   1      40.552  28.076  27.087  1.00  0.00     0.134 A 
ATOM     83  C   UNL A   1      39.547  27.124  29.024  1.00  0.00     0.134 A 
ATOM     84  F   UNL A   1      41.081  29.101  26.404  1.00  0.00    -0.206 F 
ATOM     85  C   UNL A   1      40.601  26.807  26.490  1.00  0.00     0.040 A 
ATOM     86  C   UNL A   1      39.585  25.855  28.440  1.00  0.00     0.040 A 
ATOM     87  F   UNL A   1      39.106  27.181  30.289  1.00  0.00    -0.206 F 
ATOM     88  C   UNL A   1      40.123  25.690  27.170  1.00  0.00     0.006 A 
ENDBRANCH  60  81
BRANCH  72  89
ATOM     89  C   UNL A   1      42.541  33.830  30.030  1.00  0.00     0.057 A 
ATOM     90  C   UNL A   1      41.298  34.431  29.775  1.00  0.00     0.134 A 
ATOM     91  C   UNL A   1      43.653  34.383  29.387  1.00  0.00     0.134 A 
ATOM     92  F   UNL A   1      40.193  34.032  30.420  1.00  0.00    -0.206 F 
ATOM     93  C   UNL A   1      41.167  35.513  28.900  1.00  0.00     0.040 A 
ATOM     94  C   UNL A   1      43.541  35.483  28.535  1.00  0.00     0.040 A 
ATOM     95  F   UNL A   1      44.882  33.897  29.629  1.00  0.00    -0.206 F 
ATOM     96  C   UNL A   1      42.294  36.050  28.285  1.00  0.00     0.006 A 
ENDBRANCH  72  89
ENDBRANCH  46  47
ENDBRANCH  39  41
ENDBRANCH  38  39
ENDBRANCH  37  38
ENDBRANCH  36  37
ENDBRANCH  35  36
ENDBRANCH  34  35
ENDBRANCH  33  34
ENDBRANCH   1  33
TORSDOF 22
ENDMDL
