MODEL 1
REMARK VINA RESULT:     -10.4      0.000      0.000
REMARK SMILES CCc1c(C(=O)OCCOCCOCCOCCOC(=O)c2ccc(-c3c4nc(c(-c5c(F)cccc5F)c5ccc([nH]5)c(-c5c(F)cccc5F)c5nc(c(-c6c(F)cccc6F)c6ccc3[nH]6)C=C5)C=C4)cc2)nnn1-c1ccc(OC)cc1
REMARK SMILES IDX 13 1 12 2 11 3 10 4 9 5 8 6 7 7 5 8 6 9 4 10 3 11 78 12
REMARK SMILES IDX 76 13 77 14 2 15 1 16 79 17 80 18 86 19 81 20 85 21 82 22
REMARK SMILES IDX 83 23 84 24 14 25 15 26 16 27 17 28 18 29 19 30 20 31 21 32
REMARK SMILES IDX 22 33 23 34 75 35 24 36 74 37 25 38 26 39 27 40 68 41 28 42
REMARK SMILES IDX 73 43 67 44 69 45 29 46 72 47 66 48 65 49 30 51 56 52 39 53
REMARK SMILES IDX 55 54 40 55 43 56 54 57 70 58 41 59 42 60 53 62 71 63 44 64
REMARK SMILES IDX 31 65 32 66 37 67 33 68 34 69 36 70 38 71 35 72 57 73 58 74
REMARK SMILES IDX 63 75 59 76 60 77 62 78 64 79 61 80 45 81 46 82 51 83 47 84
REMARK SMILES IDX 48 85 50 86 52 87 49 88
REMARK H PARENT 69 50 43 61
REMARK Flexibility Score: inf
ROOT
ATOM      1  O   UNL A   1      38.203  22.613  25.987  1.00  0.00    -0.377 OA
ENDROOT
BRANCH   1   2
ATOM      2  C   UNL A   1      37.459  21.954  24.962  1.00  0.00     0.188 C 
BRANCH   2   3
ATOM      3  C   UNL A   1      36.296  20.967  25.244  1.00  0.00     0.188 C 
BRANCH   3   4
ATOM      4  O   UNL A   1      35.533  21.310  26.385  1.00  0.00    -0.376 OA
BRANCH   4   5
ATOM      5  C   UNL A   1      34.527  22.291  26.318  1.00  0.00     0.202 C 
BRANCH   5   6
ATOM      6  C   UNL A   1      33.082  21.807  26.455  1.00  0.00     0.261 C 
BRANCH   6   7
ATOM      7  O   UNL A   1      32.122  22.599  25.751  1.00  0.00    -0.458 OA
BRANCH   7   8
ATOM      8  C   UNL A   1      31.329  23.425  26.472  1.00  0.00     0.360 C 
ATOM      9  O   UNL A   1      30.788  23.103  27.531  1.00  0.00    -0.244 OA
BRANCH   8  10
ATOM     10  C   UNL A   1      31.299  24.773  25.928  1.00  0.00     0.194 A 
ATOM     11  C   UNL A   1      31.334  25.236  24.613  1.00  0.00     0.079 A 
ATOM     12  N   UNL A   1      31.170  26.608  24.777  1.00  0.00    -0.217 N 
ATOM     13  N   UNL A   1      31.370  25.858  26.777  1.00  0.00    -0.122 NA
ATOM     14  N   UNL A   1      31.426  26.964  26.049  1.00  0.00    -0.061 NA
BRANCH  11  15
ATOM     15  C   UNL A   1      31.484  24.656  23.237  1.00  0.00     0.055 C 
ATOM     16  C   UNL A   1      32.882  24.343  22.752  1.00  0.00     0.011 C 
ENDBRANCH  11  15
BRANCH  12  17
ATOM     17  C   UNL A   1      30.623  27.526  23.857  1.00  0.00     0.067 A 
ATOM     18  C   UNL A   1      29.250  27.580  23.621  1.00  0.00     0.032 A 
ATOM     19  C   UNL A   1      31.499  28.361  23.154  1.00  0.00     0.032 A 
ATOM     20  C   UNL A   1      28.757  28.550  22.741  1.00  0.00     0.048 A 
ATOM     21  C   UNL A   1      31.001  29.297  22.254  1.00  0.00     0.048 A 
ATOM     22  C   UNL A   1      29.626  29.419  22.065  1.00  0.00     0.119 A 
BRANCH  22  23
ATOM     23  O   UNL A   1      29.024  30.336  21.248  1.00  0.00    -0.497 OA
ATOM     24  C   UNL A   1      27.983  31.113  21.833  1.00  0.00     0.278 C 
ENDBRANCH  22  23
ENDBRANCH  12  17
ENDBRANCH   8  10
ENDBRANCH   7   8
ENDBRANCH   6   7
ENDBRANCH   5   6
ENDBRANCH   4   5
ENDBRANCH   3   4
ENDBRANCH   2   3
ENDBRANCH   1   2
BRANCH   1  25
ATOM     25  C   UNL A   1      39.489  22.129  26.341  1.00  0.00     0.188 C 
BRANCH  25  26
ATOM     26  C   UNL A   1      39.694  20.613  26.130  1.00  0.00     0.188 C 
BRANCH  26  27
ATOM     27  O   UNL A   1      40.733  20.023  26.892  1.00  0.00    -0.376 OA
BRANCH  27  28
ATOM     28  C   UNL A   1      42.110  20.134  26.580  1.00  0.00     0.202 C 
BRANCH  28  29
ATOM     29  C   UNL A   1      42.900  19.128  25.747  1.00  0.00     0.261 C 
BRANCH  29  30
ATOM     30  O   UNL A   1      43.377  19.587  24.506  1.00  0.00    -0.460 OA
BRANCH  30  31
ATOM     31  C   UNL A   1      44.700  19.714  24.402  1.00  0.00     0.338 C 
ATOM     32  O   UNL A   1      45.539  18.824  24.282  1.00  0.00    -0.246 OA
BRANCH  31  33
ATOM     33  C   UNL A   1      45.007  21.129  24.568  1.00  0.00     0.060 A 
ATOM     34  C   UNL A   1      46.075  21.454  25.403  1.00  0.00     0.016 A 
ATOM     35  C   UNL A   1      44.034  22.064  24.177  1.00  0.00     0.016 A 
ATOM     36  C   UNL A   1      46.027  22.662  26.053  1.00  0.00     0.010 A 
ATOM     37  C   UNL A   1      43.972  23.253  24.847  1.00  0.00     0.010 A 
ATOM     38  C   UNL A   1      44.916  23.485  25.842  1.00  0.00    -0.014 A 
BRANCH  38  39
ATOM     39  C   UNL A   1      44.763  24.640  26.688  1.00  0.00     0.031 A 
ATOM     40  C   UNL A   1      45.908  25.563  26.610  1.00  0.00     0.074 A 
ATOM     41  C   UNL A   1      43.625  24.861  27.369  1.00  0.00     0.049 A 
ATOM     42  N   UNL A   1      46.748  25.851  27.545  1.00  0.00    -0.248 NA
ATOM     43  C   UNL A   1      46.268  26.095  25.285  1.00  0.00     0.031 C 
ATOM     44  C   UNL A   1      42.354  24.137  27.266  1.00  0.00     0.029 A 
ATOM     45  N   UNL A   1      43.333  25.870  28.227  1.00  0.00    -0.354 N 
ATOM     46  C   UNL A   1      47.615  26.779  26.983  1.00  0.00     0.074 A 
ATOM     47  C   UNL A   1      47.407  26.730  25.561  1.00  0.00     0.031 C 
ATOM     48  C   UNL A   1      41.379  24.872  27.848  1.00  0.00     0.029 A 
ATOM     49  C   UNL A   1      41.976  26.049  28.456  1.00  0.00     0.049 A 
ATOM     50  H   UNL A   1      44.024  26.427  28.652  1.00  0.00     0.167 HD
ATOM     51  C   UNL A   1      48.218  27.718  27.758  1.00  0.00     0.037 A 
ATOM     52  C   UNL A   1      41.407  27.144  29.018  1.00  0.00     0.037 A 
ATOM     53  C   UNL A   1      48.216  27.327  29.146  1.00  0.00     0.049 A 
ATOM     54  C   UNL A   1      42.479  27.887  29.735  1.00  0.00     0.074 A 
ATOM     55  C   UNL A   1      48.695  26.236  29.846  1.00  0.00     0.029 A 
ATOM     56  N   UNL A   1      47.317  27.942  29.985  1.00  0.00    -0.354 N 
ATOM     57  N   UNL A   1      43.057  27.462  30.824  1.00  0.00    -0.248 NA
ATOM     58  C   UNL A   1      43.230  28.886  28.986  1.00  0.00     0.031 C 
ATOM     59  C   UNL A   1      47.725  25.986  30.861  1.00  0.00     0.029 A 
ATOM     60  C   UNL A   1      46.740  26.969  30.761  1.00  0.00     0.049 A 
ATOM     61  H   UNL A   1      47.122  28.905  30.022  1.00  0.00     0.167 HD
ATOM     62  C   UNL A   1      44.396  27.787  30.664  1.00  0.00     0.074 A 
ATOM     63  C   UNL A   1      44.426  28.749  29.565  1.00  0.00     0.031 C 
ATOM     64  C   UNL A   1      45.377  27.026  31.233  1.00  0.00     0.037 A 
BRANCH  51  65
ATOM     65  C   UNL A   1      48.421  29.143  27.313  1.00  0.00     0.057 A 
ATOM     66  C   UNL A   1      49.685  29.729  27.479  1.00  0.00     0.134 A 
ATOM     67  C   UNL A   1      47.377  30.046  27.012  1.00  0.00     0.134 A 
ATOM     68  F   UNL A   1      50.756  28.978  27.778  1.00  0.00    -0.206 F 
ATOM     69  C   UNL A   1      49.881  31.113  27.435  1.00  0.00     0.040 A 
ATOM     70  C   UNL A   1      47.572  31.425  26.911  1.00  0.00     0.040 A 
ATOM     71  F   UNL A   1      46.097  29.669  26.903  1.00  0.00    -0.206 F 
ATOM     72  C   UNL A   1      48.821  31.967  27.159  1.00  0.00     0.006 A 
ENDBRANCH  51  65
BRANCH  52  73
ATOM     73  C   UNL A   1      40.093  27.762  28.717  1.00  0.00     0.057 A 
ATOM     74  C   UNL A   1      39.099  27.852  29.703  1.00  0.00     0.134 A 
ATOM     75  C   UNL A   1      39.874  28.522  27.554  1.00  0.00     0.134 A 
ATOM     76  F   UNL A   1      39.231  27.194  30.864  1.00  0.00    -0.206 F 
ATOM     77  C   UNL A   1      37.974  28.675  29.556  1.00  0.00     0.040 A 
ATOM     78  C   UNL A   1      38.750  29.338  27.391  1.00  0.00     0.040 A 
ATOM     79  F   UNL A   1      40.785  28.576  26.572  1.00  0.00    -0.206 F 
ATOM     80  C   UNL A   1      37.803  29.431  28.401  1.00  0.00     0.006 A 
ENDBRANCH  52  73
BRANCH  64  81
ATOM     81  C   UNL A   1      44.961  26.002  32.253  1.00  0.00     0.057 A 
ATOM     82  C   UNL A   1      44.752  26.281  33.612  1.00  0.00     0.134 A 
ATOM     83  C   UNL A   1      44.643  24.711  31.818  1.00  0.00     0.134 A 
ATOM     84  F   UNL A   1      44.920  27.516  34.101  1.00  0.00    -0.206 F 
ATOM     85  C   UNL A   1      44.310  25.303  34.508  1.00  0.00     0.040 A 
ATOM     86  C   UNL A   1      44.164  23.735  32.695  1.00  0.00     0.040 A 
ATOM     87  F   UNL A   1      44.757  24.386  30.521  1.00  0.00    -0.206 F 
ATOM     88  C   UNL A   1      44.011  24.024  34.048  1.00  0.00     0.006 A 
ENDBRANCH  64  81
ENDBRANCH  38  39
ENDBRANCH  31  33
ENDBRANCH  30  31
ENDBRANCH  29  30
ENDBRANCH  28  29
ENDBRANCH  27  28
ENDBRANCH  26  27
ENDBRANCH  25  26
ENDBRANCH   1  25
TORSDOF 23
ENDMDL
MODEL 2
REMARK VINA RESULT:     -10.4      2.130      4.468
REMARK SMILES CCc1c(C(=O)OCCOCCOCCOCCOC(=O)c2ccc(-c3c4nc(c(-c5c(F)cccc5F)c5ccc([nH]5)c(-c5c(F)cccc5F)c5nc(c(-c6c(F)cccc6F)c6ccc3[nH]6)C=C5)C=C4)cc2)nnn1-c1ccc(OC)cc1
REMARK SMILES IDX 13 1 12 2 11 3 10 4 9 5 8 6 7 7 5 8 6 9 4 10 3 11 78 12
REMARK SMILES IDX 76 13 77 14 2 15 1 16 79 17 80 18 86 19 81 20 85 21 82 22
REMARK SMILES IDX 83 23 84 24 14 25 15 26 16 27 17 28 18 29 19 30 20 31 21 32
REMARK SMILES IDX 22 33 23 34 75 35 24 36 74 37 25 38 26 39 27 40 68 41 28 42
REMARK SMILES IDX 73 43 67 44 69 45 29 46 72 47 66 48 65 49 30 51 56 52 39 53
REMARK SMILES IDX 55 54 40 55 43 56 54 57 70 58 41 59 42 60 53 62 71 63 44 64
REMARK SMILES IDX 31 65 32 66 37 67 33 68 34 69 36 70 38 71 35 72 57 73 58 74
REMARK SMILES IDX 63 75 59 76 60 77 62 78 64 79 61 80 45 81 46 82 51 83 47 84
REMARK SMILES IDX 48 85 50 86 52 87 49 88
REMARK H PARENT 69 50 43 61
REMARK Flexibility Score: inf
ROOT
ATOM      1  O   UNL A   1      38.017  22.037  25.896  1.00  0.00    -0.377 OA
ENDROOT
BRANCH   1   2
ATOM      2  C   UNL A   1      37.495  23.258  25.371  1.00  0.00     0.188 C 
BRANCH   2   3
ATOM      3  C   UNL A   1      36.288  23.329  24.399  1.00  0.00     0.188 C 
BRANCH   3   4
ATOM      4  O   UNL A   1      35.560  24.538  24.496  1.00  0.00    -0.376 OA
BRANCH   4   5
ATOM      5  C   UNL A   1      34.318  24.691  23.852  1.00  0.00     0.202 C 
BRANCH   5   6
ATOM      6  C   UNL A   1      33.215  25.399  24.641  1.00  0.00     0.261 C 
BRANCH   6   7
ATOM      7  O   UNL A   1      32.630  24.612  25.681  1.00  0.00    -0.458 OA
BRANCH   7   8
ATOM      8  C   UNL A   1      31.632  23.761  25.348  1.00  0.00     0.360 C 
ATOM      9  O   UNL A   1      30.440  24.074  25.337  1.00  0.00    -0.244 OA
BRANCH   8  10
ATOM     10  C   UNL A   1      32.134  22.481  24.875  1.00  0.00     0.194 A 
ATOM     11  C   UNL A   1      33.047  21.588  25.433  1.00  0.00     0.079 A 
ATOM     12  N   UNL A   1      33.007  20.524  24.536  1.00  0.00    -0.217 N 
ATOM     13  N   UNL A   1      31.805  22.040  23.610  1.00  0.00    -0.122 NA
ATOM     14  N   UNL A   1      32.456  20.911  23.372  1.00  0.00    -0.061 NA
BRANCH  11  15
ATOM     15  C   UNL A   1      33.945  21.524  26.634  1.00  0.00     0.055 C 
ATOM     16  C   UNL A   1      33.395  22.023  27.952  1.00  0.00     0.011 C 
ENDBRANCH  11  15
BRANCH  12  17
ATOM     17  C   UNL A   1      33.289  19.167  24.798  1.00  0.00     0.067 A 
ATOM     18  C   UNL A   1      32.450  18.398  25.603  1.00  0.00     0.032 A 
ATOM     19  C   UNL A   1      34.457  18.617  24.256  1.00  0.00     0.032 A 
ATOM     20  C   UNL A   1      32.748  17.041  25.780  1.00  0.00     0.048 A 
ATOM     21  C   UNL A   1      34.763  17.278  24.470  1.00  0.00     0.048 A 
ATOM     22  C   UNL A   1      33.894  16.473  25.205  1.00  0.00     0.119 A 
BRANCH  22  23
ATOM     23  O   UNL A   1      34.066  15.136  25.433  1.00  0.00    -0.497 OA
ATOM     24  C   UNL A   1      32.880  14.347  25.472  1.00  0.00     0.278 C 
ENDBRANCH  22  23
ENDBRANCH  12  17
ENDBRANCH   8  10
ENDBRANCH   7   8
ENDBRANCH   6   7
ENDBRANCH   5   6
ENDBRANCH   4   5
ENDBRANCH   3   4
ENDBRANCH   2   3
ENDBRANCH   1   2
BRANCH   1  25
ATOM     25  C   UNL A   1      39.292  22.030  26.517  1.00  0.00     0.188 C 
BRANCH  25  26
ATOM     26  C   UNL A   1      40.303  21.028  25.916  1.00  0.00     0.188 C 
BRANCH  26  27
ATOM     27  O   UNL A   1      40.922  20.152  26.842  1.00  0.00    -0.376 OA
BRANCH  27  28
ATOM     28  C   UNL A   1      42.314  19.892  26.885  1.00  0.00     0.202 C 
BRANCH  28  29
ATOM     29  C   UNL A   1      43.075  19.043  25.871  1.00  0.00     0.261 C 
BRANCH  29  30
ATOM     30  O   UNL A   1      43.296  19.627  24.611  1.00  0.00    -0.460 OA
BRANCH  30  31
ATOM     31  C   UNL A   1      44.571  19.741  24.238  1.00  0.00     0.338 C 
ATOM     32  O   UNL A   1      45.330  18.851  23.858  1.00  0.00    -0.246 OA
BRANCH  31  33
ATOM     33  C   UNL A   1      44.961  21.126  24.466  1.00  0.00     0.060 A 
ATOM     34  C   UNL A   1      45.955  21.359  25.414  1.00  0.00     0.016 A 
ATOM     35  C   UNL A   1      44.106  22.137  23.994  1.00  0.00     0.016 A 
ATOM     36  C   UNL A   1      45.927  22.558  26.081  1.00  0.00     0.010 A 
ATOM     37  C   UNL A   1      44.060  23.318  24.679  1.00  0.00     0.010 A 
ATOM     38  C   UNL A   1      44.908  23.465  25.773  1.00  0.00    -0.014 A 
BRANCH  38  39
ATOM     39  C   UNL A   1      44.751  24.616  26.622  1.00  0.00     0.031 A 
ATOM     40  C   UNL A   1      45.896  25.540  26.552  1.00  0.00     0.074 A 
ATOM     41  C   UNL A   1      43.610  24.834  27.300  1.00  0.00     0.049 A 
ATOM     42  N   UNL A   1      46.732  25.826  27.491  1.00  0.00    -0.248 NA
ATOM     43  C   UNL A   1      46.261  26.077  25.231  1.00  0.00     0.031 C 
ATOM     44  C   UNL A   1      42.340  24.110  27.189  1.00  0.00     0.029 A 
ATOM     45  N   UNL A   1      43.314  25.840  28.160  1.00  0.00    -0.354 N 
ATOM     46  C   UNL A   1      47.600  26.756  26.936  1.00  0.00     0.074 A 
ATOM     47  C   UNL A   1      47.398  26.712  25.513  1.00  0.00     0.031 C 
ATOM     48  C   UNL A   1      41.363  24.842  27.770  1.00  0.00     0.029 A 
ATOM     49  C   UNL A   1      41.956  26.017  28.385  1.00  0.00     0.049 A 
ATOM     50  H   UNL A   1      44.004  26.396  28.590  1.00  0.00     0.167 HD
ATOM     51  C   UNL A   1      48.200  27.692  27.717  1.00  0.00     0.037 A 
ATOM     52  C   UNL A   1      41.384  27.110  28.949  1.00  0.00     0.037 A 
ATOM     53  C   UNL A   1      48.193  27.296  29.104  1.00  0.00     0.049 A 
ATOM     54  C   UNL A   1      42.454  27.850  29.673  1.00  0.00     0.074 A 
ATOM     55  C   UNL A   1      48.670  26.202  29.802  1.00  0.00     0.029 A 
ATOM     56  N   UNL A   1      47.291  27.907  29.942  1.00  0.00    -0.354 N 
ATOM     57  N   UNL A   1      43.027  27.421  30.762  1.00  0.00    -0.248 NA
ATOM     58  C   UNL A   1      43.206  28.853  28.931  1.00  0.00     0.031 C 
ATOM     59  C   UNL A   1      47.696  25.948  30.812  1.00  0.00     0.029 A 
ATOM     60  C   UNL A   1      46.711  26.931  30.711  1.00  0.00     0.049 A 
ATOM     61  H   UNL A   1      47.095  28.871  29.981  1.00  0.00     0.167 HD
ATOM     62  C   UNL A   1      44.367  27.748  30.609  1.00  0.00     0.074 A 
ATOM     63  C   UNL A   1      44.401  28.715  29.513  1.00  0.00     0.031 C 
ATOM     64  C   UNL A   1      45.346  26.985  31.179  1.00  0.00     0.037 A 
BRANCH  51  65
ATOM     65  C   UNL A   1      48.403  29.119  27.279  1.00  0.00     0.057 A 
ATOM     66  C   UNL A   1      49.672  29.699  27.434  1.00  0.00     0.134 A 
ATOM     67  C   UNL A   1      47.360  30.028  26.995  1.00  0.00     0.134 A 
ATOM     68  F   UNL A   1      50.744  28.942  27.717  1.00  0.00    -0.206 F 
ATOM     69  C   UNL A   1      49.873  31.083  27.396  1.00  0.00     0.040 A 
ATOM     70  C   UNL A   1      47.560  31.407  26.900  1.00  0.00     0.040 A 
ATOM     71  F   UNL A   1      46.078  29.657  26.898  1.00  0.00    -0.206 F 
ATOM     72  C   UNL A   1      48.813  31.942  27.137  1.00  0.00     0.006 A 
ENDBRANCH  51  65
BRANCH  52  73
ATOM     73  C   UNL A   1      40.072  27.728  28.645  1.00  0.00     0.057 A 
ATOM     74  C   UNL A   1      39.059  27.777  29.615  1.00  0.00     0.134 A 
ATOM     75  C   UNL A   1      39.867  28.526  27.504  1.00  0.00     0.134 A 
ATOM     76  F   UNL A   1      39.175  27.081  30.755  1.00  0.00    -0.206 F 
ATOM     77  C   UNL A   1      37.930  28.596  29.476  1.00  0.00     0.040 A 
ATOM     78  C   UNL A   1      38.740  29.338  27.349  1.00  0.00     0.040 A 
ATOM     79  F   UNL A   1      40.795  28.619  26.541  1.00  0.00    -0.206 F 
ATOM     80  C   UNL A   1      37.775  29.390  28.344  1.00  0.00     0.006 A 
ENDBRANCH  52  73
BRANCH  64  81
ATOM     81  C   UNL A   1      44.926  25.957  32.193  1.00  0.00     0.057 A 
ATOM     82  C   UNL A   1      44.564  24.638  31.877  1.00  0.00     0.134 A 
ATOM     83  C   UNL A   1      45.009  26.280  33.551  1.00  0.00     0.134 A 
ATOM     84  F   UNL A   1      44.566  24.202  30.612  1.00  0.00    -0.206 F 
ATOM     85  C   UNL A   1      44.236  23.706  32.866  1.00  0.00     0.040 A 
ATOM     86  C   UNL A   1      44.720  25.347  34.550  1.00  0.00     0.040 A 
ATOM     87  F   UNL A   1      45.409  27.503  33.933  1.00  0.00    -0.206 F 
ATOM     88  C   UNL A   1      44.317  24.059  34.209  1.00  0.00     0.006 A 
ENDBRANCH  64  81
ENDBRANCH  38  39
ENDBRANCH  31  33
ENDBRANCH  30  31
ENDBRANCH  29  30
ENDBRANCH  28  29
ENDBRANCH  27  28
ENDBRANCH  26  27
ENDBRANCH  25  26
ENDBRANCH   1  25
TORSDOF 23
ENDMDL
MODEL 3
REMARK VINA RESULT:     -10.3      1.707      2.342
REMARK SMILES CCc1c(C(=O)OCCOCCOCCOCCOC(=O)c2ccc(-c3c4nc(c(-c5c(F)cccc5F)c5ccc([nH]5)c(-c5c(F)cccc5F)c5nc(c(-c6c(F)cccc6F)c6ccc3[nH]6)C=C5)C=C4)cc2)nnn1-c1ccc(OC)cc1
REMARK SMILES IDX 13 1 12 2 11 3 10 4 9 5 8 6 7 7 5 8 6 9 4 10 3 11 78 12
REMARK SMILES IDX 76 13 77 14 2 15 1 16 79 17 80 18 86 19 81 20 85 21 82 22
REMARK SMILES IDX 83 23 84 24 14 25 15 26 16 27 17 28 18 29 19 30 20 31 21 32
REMARK SMILES IDX 22 33 23 34 75 35 24 36 74 37 25 38 26 39 27 40 68 41 28 42
REMARK SMILES IDX 73 43 67 44 69 45 29 46 72 47 66 48 65 49 30 51 56 52 39 53
REMARK SMILES IDX 55 54 40 55 43 56 54 57 70 58 41 59 42 60 53 62 71 63 44 64
REMARK SMILES IDX 31 65 32 66 37 67 33 68 34 69 36 70 38 71 35 72 57 73 58 74
REMARK SMILES IDX 63 75 59 76 60 77 62 78 64 79 61 80 45 81 46 82 51 83 47 84
REMARK SMILES IDX 48 85 50 86 52 87 49 88
REMARK H PARENT 69 50 43 61
REMARK Flexibility Score: inf
ROOT
ATOM      1  O   UNL A   1      37.819  22.794  25.872  1.00  0.00    -0.377 OA
ENDROOT
BRANCH   1   2
ATOM      2  C   UNL A   1      37.410  21.700  25.051  1.00  0.00     0.188 C 
BRANCH   2   3
ATOM      3  C   UNL A   1      36.002  21.053  25.121  1.00  0.00     0.188 C 
BRANCH   3   4
ATOM      4  O   UNL A   1      34.965  21.916  24.694  1.00  0.00    -0.376 OA
BRANCH   4   5
ATOM      5  C   UNL A   1      33.647  21.449  24.544  1.00  0.00     0.202 C 
BRANCH   5   6
ATOM      6  C   UNL A   1      32.741  22.234  23.593  1.00  0.00     0.261 C 
BRANCH   6   7
ATOM      7  O   UNL A   1      31.486  22.624  24.156  1.00  0.00    -0.458 OA
BRANCH   7   8
ATOM      8  C   UNL A   1      31.041  23.877  23.906  1.00  0.00     0.360 C 
ATOM      9  O   UNL A   1      30.231  24.152  23.020  1.00  0.00    -0.244 OA
BRANCH   8  10
ATOM     10  C   UNL A   1      31.522  24.838  24.887  1.00  0.00     0.194 A 
ATOM     11  C   UNL A   1      32.409  25.906  24.769  1.00  0.00     0.079 A 
ATOM     12  N   UNL A   1      32.358  26.476  26.039  1.00  0.00    -0.217 N 
ATOM     13  N   UNL A   1      31.200  24.679  26.219  1.00  0.00    -0.122 NA
ATOM     14  N   UNL A   1      31.830  25.609  26.921  1.00  0.00    -0.061 NA
BRANCH  11  15
ATOM     15  C   UNL A   1      33.290  26.506  23.712  1.00  0.00     0.055 C 
ATOM     16  C   UNL A   1      32.624  27.263  22.586  1.00  0.00     0.011 C 
ENDBRANCH  11  15
BRANCH  12  17
ATOM     17  C   UNL A   1      32.608  27.818  26.391  1.00  0.00     0.067 A 
ATOM     18  C   UNL A   1      31.659  28.813  26.161  1.00  0.00     0.032 A 
ATOM     19  C   UNL A   1      33.853  28.135  26.946  1.00  0.00     0.032 A 
ATOM     20  C   UNL A   1      31.938  30.118  26.585  1.00  0.00     0.048 A 
ATOM     21  C   UNL A   1      34.134  29.442  27.330  1.00  0.00     0.048 A 
ATOM     22  C   UNL A   1      33.167  30.435  27.181  1.00  0.00     0.119 A 
BRANCH  22  23
ATOM     23  O   UNL A   1      33.314  31.738  27.571  1.00  0.00    -0.497 OA
ATOM     24  C   UNL A   1      34.646  32.168  27.838  1.00  0.00     0.278 C 
ENDBRANCH  22  23
ENDBRANCH  12  17
ENDBRANCH   8  10
ENDBRANCH   7   8
ENDBRANCH   6   7
ENDBRANCH   5   6
ENDBRANCH   4   5
ENDBRANCH   3   4
ENDBRANCH   2   3
ENDBRANCH   1   2
BRANCH   1  25
ATOM     25  C   UNL A   1      39.101  22.775  26.478  1.00  0.00     0.188 C 
BRANCH  25  26
ATOM     26  C   UNL A   1      39.927  21.496  26.214  1.00  0.00     0.188 C 
BRANCH  26  27
ATOM     27  O   UNL A   1      40.577  20.942  27.344  1.00  0.00    -0.376 OA
BRANCH  27  28
ATOM     28  C   UNL A   1      41.915  20.477  27.344  1.00  0.00     0.202 C 
BRANCH  28  29
ATOM     29  C   UNL A   1      42.488  19.467  26.354  1.00  0.00     0.261 C 
BRANCH  29  30
ATOM     30  O   UNL A   1      42.912  19.980  25.115  1.00  0.00    -0.460 OA
BRANCH  30  31
ATOM     31  C   UNL A   1      44.231  20.066  24.941  1.00  0.00     0.338 C 
ATOM     32  O   UNL A   1      45.035  19.149  24.794  1.00  0.00    -0.246 OA
BRANCH  31  33
ATOM     33  C   UNL A   1      44.588  21.473  25.067  1.00  0.00     0.060 A 
ATOM     34  C   UNL A   1      45.611  21.792  25.958  1.00  0.00     0.016 A 
ATOM     35  C   UNL A   1      43.685  22.428  24.570  1.00  0.00     0.016 A 
ATOM     36  C   UNL A   1      45.573  23.029  26.551  1.00  0.00     0.010 A 
ATOM     37  C   UNL A   1      43.631  23.648  25.182  1.00  0.00     0.010 A 
ATOM     38  C   UNL A   1      44.516  23.887  26.230  1.00  0.00    -0.014 A 
BRANCH  38  39
ATOM     39  C   UNL A   1      44.358  25.085  27.012  1.00  0.00     0.031 A 
ATOM     40  C   UNL A   1      45.455  26.048  26.814  1.00  0.00     0.074 A 
ATOM     41  C   UNL A   1      43.250  25.300  27.743  1.00  0.00     0.049 A 
ATOM     42  N   UNL A   1      46.330  26.428  27.680  1.00  0.00    -0.248 NA
ATOM     43  C   UNL A   1      45.717  26.511  25.441  1.00  0.00     0.031 C 
ATOM     44  C   UNL A   1      42.009  24.519  27.756  1.00  0.00     0.029 A 
ATOM     45  N   UNL A   1      42.960  26.348  28.554  1.00  0.00    -0.354 N 
ATOM     46  C   UNL A   1      47.122  27.354  27.015  1.00  0.00     0.074 A 
ATOM     47  C   UNL A   1      46.840  27.209  25.613  1.00  0.00     0.031 C 
ATOM     48  C   UNL A   1      41.035  25.248  28.348  1.00  0.00     0.029 A 
ATOM     49  C   UNL A   1      41.611  26.484  28.850  1.00  0.00     0.049 A 
ATOM     50  H   UNL A   1      43.648  26.958  28.905  1.00  0.00     0.167 HD
ATOM     51  C   UNL A   1      47.724  28.363  27.697  1.00  0.00     0.037 A 
ATOM     52  C   UNL A   1      41.025  27.588  29.378  1.00  0.00     0.037 A 
ATOM     53  C   UNL A   1      47.816  28.060  29.104  1.00  0.00     0.049 A 
ATOM     54  C   UNL A   1      42.101  28.417  29.986  1.00  0.00     0.074 A 
ATOM     55  C   UNL A   1      48.381  27.034  29.839  1.00  0.00     0.029 A 
ATOM     56  N   UNL A   1      46.938  28.687  29.954  1.00  0.00    -0.354 N 
ATOM     57  N   UNL A   1      42.755  28.084  31.063  1.00  0.00    -0.248 NA
ATOM     58  C   UNL A   1      42.764  29.398  29.138  1.00  0.00     0.031 C 
ATOM     59  C   UNL A   1      47.480  26.808  30.920  1.00  0.00     0.029 A 
ATOM     60  C   UNL A   1      46.449  27.742  30.819  1.00  0.00     0.049 A 
ATOM     61  H   UNL A   1      46.702  29.643  29.945  1.00  0.00     0.167 HD
ATOM     62  C   UNL A   1      44.068  28.454  30.808  1.00  0.00     0.074 A 
ATOM     63  C   UNL A   1      43.995  29.347  29.653  1.00  0.00     0.031 C 
ATOM     64  C   UNL A   1      45.112  27.771  31.364  1.00  0.00     0.037 A 
BRANCH  51  65
ATOM     65  C   UNL A   1      47.838  29.765  27.157  1.00  0.00     0.057 A 
ATOM     66  C   UNL A   1      49.072  30.428  27.252  1.00  0.00     0.134 A 
ATOM     67  C   UNL A   1      46.740  30.590  26.826  1.00  0.00     0.134 A 
ATOM     68  F   UNL A   1      50.190  29.756  27.571  1.00  0.00    -0.206 F 
ATOM     69  C   UNL A   1      49.190  31.815  27.116  1.00  0.00     0.040 A 
ATOM     70  C   UNL A   1      46.857  31.967  26.633  1.00  0.00     0.040 A 
ATOM     71  F   UNL A   1      45.481  30.138  26.775  1.00  0.00    -0.206 F 
ATOM     72  C   UNL A   1      48.079  32.590  26.813  1.00  0.00     0.006 A 
ENDBRANCH  51  65
BRANCH  52  73
ATOM     73  C   UNL A   1      39.671  28.131  29.116  1.00  0.00     0.057 A 
ATOM     74  C   UNL A   1      38.685  28.113  30.114  1.00  0.00     0.134 A 
ATOM     75  C   UNL A   1      39.388  28.923  27.988  1.00  0.00     0.134 A 
ATOM     76  F   UNL A   1      38.873  27.417  31.244  1.00  0.00    -0.206 F 
ATOM     77  C   UNL A   1      37.507  28.867  30.014  1.00  0.00     0.040 A 
ATOM     78  C   UNL A   1      38.212  29.670  27.871  1.00  0.00     0.040 A 
ATOM     79  F   UNL A   1      40.282  29.078  27.001  1.00  0.00    -0.206 F 
ATOM     80  C   UNL A   1      37.274  29.658  28.894  1.00  0.00     0.006 A 
ENDBRANCH  52  73
BRANCH  64  81
ATOM     81  C   UNL A   1      44.798  26.796  32.465  1.00  0.00     0.057 A 
ATOM     82  C   UNL A   1      44.504  25.439  32.258  1.00  0.00     0.134 A 
ATOM     83  C   UNL A   1      44.917  27.220  33.792  1.00  0.00     0.134 A 
ATOM     84  F   UNL A   1      44.480  24.913  31.028  1.00  0.00    -0.206 F 
ATOM     85  C   UNL A   1      44.275  24.563  33.323  1.00  0.00     0.040 A 
ATOM     86  C   UNL A   1      44.728  26.346  34.866  1.00  0.00     0.040 A 
ATOM     87  F   UNL A   1      45.258  28.489  34.070  1.00  0.00    -0.206 F 
ATOM     88  C   UNL A   1      44.390  25.016  34.634  1.00  0.00     0.006 A 
ENDBRANCH  64  81
ENDBRANCH  38  39
ENDBRANCH  31  33
ENDBRANCH  30  31
ENDBRANCH  29  30
ENDBRANCH  28  29
ENDBRANCH  27  28
ENDBRANCH  26  27
ENDBRANCH  25  26
ENDBRANCH   1  25
TORSDOF 23
ENDMDL
