MODEL 1
REMARK VINA RESULT:     -10.9      0.000      0.000
REMARK SMILES O=C(OCCOCCOCCOCCOC(=O)c1ccc(-c2c3nc(c(-c4c(F)cccc4F)c4ccc([nH]4)c(-c4c(F)cccc4F)c4nc(c(-c5c(F)cccc5F)c5ccc2[nH]5)C=C4)C=C3)cc1)C1=Cc2cc(Cl)ccc2O[C@@H]1C(F)(F)F
REMARK SMILES IDX 10 1 9 2 8 3 7 4 6 5 5 6 4 7 3 8 2 9 1 10 72 11 73 12 82 13
REMARK SMILES IDX 74 14 81 15 75 16 80 17 76 18 79 19 77 20 78 21 83 22 84 23
REMARK SMILES IDX 85 24 86 25 11 26 12 27 13 28 14 29 15 30 16 31 17 32 18 33
REMARK SMILES IDX 19 34 71 35 20 36 70 37 21 38 22 39 23 40 64 41 24 42 69 43
REMARK SMILES IDX 63 44 65 45 25 46 68 47 62 48 61 49 26 51 52 52 35 53 51 54
REMARK SMILES IDX 36 55 39 56 50 57 66 58 37 59 38 60 49 62 67 63 40 64 27 65
REMARK SMILES IDX 28 66 33 67 29 68 30 69 32 70 34 71 31 72 53 73 54 74 59 75
REMARK SMILES IDX 55 76 56 77 58 78 60 79 57 80 41 81 42 82 47 83 43 84 44 85
REMARK SMILES IDX 46 86 48 87 45 88
REMARK H PARENT 65 50 39 61
REMARK Flexibility Score: inf
ROOT
ATOM      1  C   UNL A   1      43.048  19.099  25.915  1.00  0.00     0.188 C 
ENDROOT
BRANCH   1   2
ATOM      2  O   UNL A   1      41.874  19.770  25.479  1.00  0.00    -0.377 OA
BRANCH   2   3
ATOM      3  C   UNL A   1      41.513  20.925  26.225  1.00  0.00     0.188 C 
BRANCH   3   4
ATOM      4  C   UNL A   1      40.014  21.026  26.467  1.00  0.00     0.188 C 
BRANCH   4   5
ATOM      5  O   UNL A   1      39.496  22.334  26.293  1.00  0.00    -0.376 OA
BRANCH   5   6
ATOM      6  C   UNL A   1      38.135  22.499  25.924  1.00  0.00     0.202 C 
BRANCH   6   7
ATOM      7  C   UNL A   1      37.636  21.612  24.783  1.00  0.00     0.261 C 
BRANCH   7   8
ATOM      8  O   UNL A   1      36.207  21.647  24.657  1.00  0.00    -0.460 OA
BRANCH   8   9
ATOM      9  C   UNL A   1      35.707  22.582  23.816  1.00  0.00     0.338 C 
ATOM     10  O   UNL A   1      36.396  23.171  22.997  1.00  0.00    -0.246 OA
BRANCH   9  11
ATOM     11  C   UNL A   1      34.272  22.894  24.068  1.00  0.00     0.087 C 
ATOM     12  C   UNL A   1      34.120  23.803  25.048  1.00  0.00     0.027 C 
ATOM     13  C   UNL A   1      33.353  22.902  22.870  1.00  0.00     0.316 C 
ATOM     14  C   UNL A   1      33.729  25.133  24.561  1.00  0.00     0.019 A 
ATOM     15  O   UNL A   1      32.950  24.228  22.441  1.00  0.00    -0.475 OA
ATOM     16  C   UNL A   1      33.944  26.258  25.363  1.00  0.00     0.032 A 
ATOM     17  C   UNL A   1      33.273  25.286  23.249  1.00  0.00     0.128 A 
ATOM     18  C   UNL A   1      33.803  27.531  24.812  1.00  0.00     0.041 A 
ATOM     19  C   UNL A   1      33.166  26.562  22.696  1.00  0.00     0.048 A 
ATOM     20  Cl  UNL A   1      34.085  28.920  25.788  1.00  0.00    -0.084 Cl
ATOM     21  C   UNL A   1      33.462  27.687  23.469  1.00  0.00     0.024 A 
BRANCH  13  22
ATOM     22  C   UNL A   1      32.170  21.948  23.039  1.00  0.00     0.430 C 
ATOM     23  F   UNL A   1      31.027  22.495  22.561  1.00  0.00    -0.167 F 
ATOM     24  F   UNL A   1      32.371  20.804  22.335  1.00  0.00    -0.167 F 
ATOM     25  F   UNL A   1      31.959  21.599  24.325  1.00  0.00    -0.167 F 
ENDBRANCH  13  22
ENDBRANCH   9  11
ENDBRANCH   8   9
ENDBRANCH   7   8
ENDBRANCH   6   7
ENDBRANCH   5   6
ENDBRANCH   4   5
ENDBRANCH   3   4
ENDBRANCH   2   3
ENDBRANCH   1   2
BRANCH   1  26
ATOM     26  C   UNL A   1      44.162  18.870  24.862  1.00  0.00     0.188 C 
BRANCH  26  27
ATOM     27  O   UNL A   1      44.755  19.917  24.101  1.00  0.00    -0.376 OA
BRANCH  27  28
ATOM     28  C   UNL A   1      45.025  21.162  24.714  1.00  0.00     0.202 C 
BRANCH  28  29
ATOM     29  C   UNL A   1      44.644  22.391  23.871  1.00  0.00     0.261 C 
BRANCH  29  30
ATOM     30  O   UNL A   1      43.826  23.356  24.559  1.00  0.00    -0.460 OA
BRANCH  30  31
ATOM     31  C   UNL A   1      44.476  24.473  24.989  1.00  0.00     0.338 C 
ATOM     32  O   UNL A   1      45.553  24.875  24.619  1.00  0.00    -0.246 OA
BRANCH  31  33
ATOM     33  C   UNL A   1      43.578  25.267  25.880  1.00  0.00     0.060 A 
ATOM     34  C   UNL A   1      43.881  26.626  26.043  1.00  0.00     0.016 A 
ATOM     35  C   UNL A   1      42.452  24.730  26.516  1.00  0.00     0.016 A 
ATOM     36  C   UNL A   1      43.105  27.432  26.877  1.00  0.00     0.010 A 
ATOM     37  C   UNL A   1      41.678  25.538  27.366  1.00  0.00     0.010 A 
ATOM     38  C   UNL A   1      42.034  26.881  27.591  1.00  0.00    -0.014 A 
BRANCH  38  39
ATOM     39  C   UNL A   1      41.508  27.634  28.762  1.00  0.00     0.031 A 
ATOM     40  C   UNL A   1      42.254  27.503  30.067  1.00  0.00     0.074 A 
ATOM     41  C   UNL A   1      40.478  28.495  28.665  1.00  0.00     0.049 A 
ATOM     42  N   UNL A   1      42.042  28.093  31.215  1.00  0.00    -0.248 NA
ATOM     43  C   UNL A   1      43.403  26.581  30.069  1.00  0.00     0.031 C 
ATOM     44  C   UNL A   1      39.698  28.757  27.456  1.00  0.00     0.029 A 
ATOM     45  N   UNL A   1      39.917  29.320  29.611  1.00  0.00    -0.354 N 
ATOM     46  C   UNL A   1      43.035  27.624  32.067  1.00  0.00     0.074 A 
ATOM     47  C   UNL A   1      43.818  26.664  31.323  1.00  0.00     0.031 C 
ATOM     48  C   UNL A   1      38.754  29.674  27.736  1.00  0.00     0.029 A 
ATOM     49  C   UNL A   1      38.849  30.051  29.147  1.00  0.00     0.049 A 
ATOM     50  H   UNL A   1      40.249  29.382  30.535  1.00  0.00     0.167 HD
ATOM     51  C   UNL A   1      43.293  27.976  33.348  1.00  0.00     0.037 A 
ATOM     52  C   UNL A   1      38.037  30.914  29.792  1.00  0.00     0.037 A 
ATOM     53  C   UNL A   1      42.515  28.923  34.100  1.00  0.00     0.049 A 
ATOM     54  C   UNL A   1      38.295  31.229  31.246  1.00  0.00     0.074 A 
ATOM     55  C   UNL A   1      42.686  29.334  35.410  1.00  0.00     0.029 A 
ATOM     56  N   UNL A   1      41.414  29.605  33.607  1.00  0.00    -0.354 N 
ATOM     57  N   UNL A   1      39.245  30.789  32.036  1.00  0.00    -0.248 NA
ATOM     58  C   UNL A   1      37.370  32.172  31.895  1.00  0.00     0.031 C 
ATOM     59  C   UNL A   1      41.657  30.228  35.725  1.00  0.00     0.029 A 
ATOM     60  C   UNL A   1      40.883  30.420  34.593  1.00  0.00     0.049 A 
ATOM     61  H   UNL A   1      41.062  29.524  32.691  1.00  0.00     0.167 HD
ATOM     62  C   UNL A   1      39.047  31.418  33.261  1.00  0.00     0.074 A 
ATOM     63  C   UNL A   1      37.906  32.292  33.100  1.00  0.00     0.031 C 
ATOM     64  C   UNL A   1      39.743  31.283  34.419  1.00  0.00     0.037 A 
BRANCH  51  65
ATOM     65  C   UNL A   1      44.460  27.314  34.023  1.00  0.00     0.057 A 
ATOM     66  C   UNL A   1      44.357  26.036  34.591  1.00  0.00     0.134 A 
ATOM     67  C   UNL A   1      45.706  27.949  34.084  1.00  0.00     0.134 A 
ATOM     68  F   UNL A   1      43.186  25.382  34.585  1.00  0.00    -0.206 F 
ATOM     69  C   UNL A   1      45.448  25.424  35.210  1.00  0.00     0.040 A 
ATOM     70  C   UNL A   1      46.811  27.336  34.675  1.00  0.00     0.040 A 
ATOM     71  F   UNL A   1      45.871  29.175  33.562  1.00  0.00    -0.206 F 
ATOM     72  C   UNL A   1      46.682  26.070  35.245  1.00  0.00     0.006 A 
ENDBRANCH  51  65
BRANCH  52  73
ATOM     73  C   UNL A   1      36.879  31.531  29.088  1.00  0.00     0.057 A 
ATOM     74  C   UNL A   1      36.891  32.871  28.682  1.00  0.00     0.134 A 
ATOM     75  C   UNL A   1      35.704  30.804  28.860  1.00  0.00     0.134 A 
ATOM     76  F   UNL A   1      37.975  33.632  28.896  1.00  0.00    -0.206 F 
ATOM     77  C   UNL A   1      35.771  33.473  28.102  1.00  0.00     0.040 A 
ATOM     78  C   UNL A   1      34.587  31.384  28.254  1.00  0.00     0.040 A 
ATOM     79  F   UNL A   1      35.622  29.517  29.226  1.00  0.00    -0.206 F 
ATOM     80  C   UNL A   1      34.615  32.726  27.884  1.00  0.00     0.006 A 
ENDBRANCH  52  73
BRANCH  64  81
ATOM     81  C   UNL A   1      39.304  32.121  35.587  1.00  0.00     0.057 A 
ATOM     82  C   UNL A   1      38.440  31.627  36.573  1.00  0.00     0.134 A 
ATOM     83  C   UNL A   1      39.763  33.437  35.733  1.00  0.00     0.134 A 
ATOM     84  F   UNL A   1      37.958  30.378  36.490  1.00  0.00    -0.206 F 
ATOM     85  C   UNL A   1      38.014  32.425  37.637  1.00  0.00     0.040 A 
ATOM     86  C   UNL A   1      39.369  34.234  36.810  1.00  0.00     0.040 A 
ATOM     87  F   UNL A   1      40.605  33.971  34.835  1.00  0.00    -0.206 F 
ATOM     88  C   UNL A   1      38.482  33.731  37.759  1.00  0.00     0.006 A 
ENDBRANCH  64  81
ENDBRANCH  38  39
ENDBRANCH  31  33
ENDBRANCH  30  31
ENDBRANCH  29  30
ENDBRANCH  28  29
ENDBRANCH  27  28
ENDBRANCH  26  27
ENDBRANCH   1  26
TORSDOF 21
ENDMDL
MODEL 2
REMARK VINA RESULT:     -10.5      1.822      2.902
REMARK SMILES O=C(OCCOCCOCCOCCOC(=O)c1ccc(-c2c3nc(c(-c4c(F)cccc4F)c4ccc([nH]4)c(-c4c(F)cccc4F)c4nc(c(-c5c(F)cccc5F)c5ccc2[nH]5)C=C4)C=C3)cc1)C1=Cc2cc(Cl)ccc2O[C@@H]1C(F)(F)F
REMARK SMILES IDX 10 1 9 2 8 3 7 4 6 5 5 6 4 7 3 8 2 9 1 10 72 11 73 12 82 13
REMARK SMILES IDX 74 14 81 15 75 16 80 17 76 18 79 19 77 20 78 21 83 22 84 23
REMARK SMILES IDX 85 24 86 25 11 26 12 27 13 28 14 29 15 30 16 31 17 32 18 33
REMARK SMILES IDX 19 34 71 35 20 36 70 37 21 38 22 39 23 40 64 41 24 42 69 43
REMARK SMILES IDX 63 44 65 45 25 46 68 47 62 48 61 49 26 51 52 52 35 53 51 54
REMARK SMILES IDX 36 55 39 56 50 57 66 58 37 59 38 60 49 62 67 63 40 64 27 65
REMARK SMILES IDX 28 66 33 67 29 68 30 69 32 70 34 71 31 72 53 73 54 74 59 75
REMARK SMILES IDX 55 76 56 77 58 78 60 79 57 80 41 81 42 82 47 83 43 84 44 85
REMARK SMILES IDX 46 86 48 87 45 88
REMARK H PARENT 65 50 39 61
REMARK Flexibility Score: inf
ROOT
ATOM      1  C   UNL A   1      42.677  19.498  26.136  1.00  0.00     0.188 C 
ENDROOT
BRANCH   1   2
ATOM      2  O   UNL A   1      41.788  20.551  25.789  1.00  0.00    -0.377 OA
BRANCH   2   3
ATOM      3  C   UNL A   1      40.487  20.469  26.356  1.00  0.00     0.188 C 
BRANCH   3   4
ATOM      4  C   UNL A   1      39.745  21.797  26.324  1.00  0.00     0.188 C 
BRANCH   4   5
ATOM      5  O   UNL A   1      38.663  21.823  25.407  1.00  0.00    -0.376 OA
BRANCH   5   6
ATOM      6  C   UNL A   1      37.479  22.527  25.750  1.00  0.00     0.202 C 
BRANCH   6   7
ATOM      7  C   UNL A   1      37.095  23.685  24.829  1.00  0.00     0.261 C 
BRANCH   7   8
ATOM      8  O   UNL A   1      35.717  24.059  24.978  1.00  0.00    -0.460 OA
BRANCH   8   9
ATOM      9  C   UNL A   1      34.909  23.778  23.930  1.00  0.00     0.338 C 
ATOM     10  O   UNL A   1      35.288  23.826  22.770  1.00  0.00    -0.246 OA
BRANCH   9  11
ATOM     11  C   UNL A   1      33.497  23.516  24.328  1.00  0.00     0.087 C 
ATOM     12  C   UNL A   1      32.867  22.715  23.450  1.00  0.00     0.027 C 
ATOM     13  C   UNL A   1      33.212  23.400  25.806  1.00  0.00     0.316 C 
ATOM     14  C   UNL A   1      32.656  21.349  23.946  1.00  0.00     0.019 A 
ATOM     15  O   UNL A   1      32.965  22.044  26.258  1.00  0.00    -0.475 OA
ATOM     16  C   UNL A   1      32.421  20.308  23.043  1.00  0.00     0.032 A 
ATOM     17  C   UNL A   1      32.828  21.069  25.305  1.00  0.00     0.128 A 
ATOM     18  C   UNL A   1      32.465  18.988  23.488  1.00  0.00     0.041 A 
ATOM     19  C   UNL A   1      32.903  19.745  25.738  1.00  0.00     0.048 A 
ATOM     20  Cl  UNL A   1      32.196  17.702  22.377  1.00  0.00    -0.084 Cl
ATOM     21  C   UNL A   1      32.752  18.701  24.822  1.00  0.00     0.024 A 
BRANCH  13  22
ATOM     22  C   UNL A   1      32.139  24.385  26.271  1.00  0.00     0.430 C 
ATOM     23  F   UNL A   1      32.692  25.537  26.722  1.00  0.00    -0.167 F 
ATOM     24  F   UNL A   1      31.324  24.730  25.240  1.00  0.00    -0.167 F 
ATOM     25  F   UNL A   1      31.359  23.885  27.251  1.00  0.00    -0.167 F 
ENDBRANCH  13  22
ENDBRANCH   9  11
ENDBRANCH   8   9
ENDBRANCH   7   8
ENDBRANCH   6   7
ENDBRANCH   5   6
ENDBRANCH   4   5
ENDBRANCH   3   4
ENDBRANCH   2   3
ENDBRANCH   1   2
BRANCH   1  26
ATOM     26  C   UNL A   1      43.770  19.128  25.102  1.00  0.00     0.188 C 
BRANCH  26  27
ATOM     27  O   UNL A   1      45.093  19.653  25.130  1.00  0.00    -0.376 OA
BRANCH  27  28
ATOM     28  C   UNL A   1      45.343  20.947  24.619  1.00  0.00     0.202 C 
BRANCH  28  29
ATOM     29  C   UNL A   1      45.311  22.071  25.669  1.00  0.00     0.261 C 
BRANCH  29  30
ATOM     30  O   UNL A   1      44.211  22.989  25.525  1.00  0.00    -0.460 OA
BRANCH  30  31
ATOM     31  C   UNL A   1      44.555  24.300  25.397  1.00  0.00     0.338 C 
ATOM     32  O   UNL A   1      45.359  24.768  24.625  1.00  0.00    -0.246 OA
BRANCH  31  33
ATOM     33  C   UNL A   1      43.652  25.144  26.236  1.00  0.00     0.060 A 
ATOM     34  C   UNL A   1      44.053  26.466  26.472  1.00  0.00     0.016 A 
ATOM     35  C   UNL A   1      42.434  24.688  26.754  1.00  0.00     0.016 A 
ATOM     36  C   UNL A   1      43.277  27.313  27.265  1.00  0.00     0.010 A 
ATOM     37  C   UNL A   1      41.659  25.536  27.563  1.00  0.00     0.010 A 
ATOM     38  C   UNL A   1      42.106  26.836  27.865  1.00  0.00    -0.014 A 
BRANCH  38  39
ATOM     39  C   UNL A   1      41.544  27.600  29.013  1.00  0.00     0.031 A 
ATOM     40  C   UNL A   1      42.261  27.494  30.337  1.00  0.00     0.074 A 
ATOM     41  C   UNL A   1      40.506  28.447  28.881  1.00  0.00     0.049 A 
ATOM     42  N   UNL A   1      42.015  28.098  31.472  1.00  0.00    -0.248 NA
ATOM     43  C   UNL A   1      43.420  26.586  30.379  1.00  0.00     0.031 C 
ATOM     44  C   UNL A   1      39.752  28.683  27.651  1.00  0.00     0.029 A 
ATOM     45  N   UNL A   1      39.914  29.278  29.802  1.00  0.00    -0.354 N 
ATOM     46  C   UNL A   1      42.994  27.652  32.353  1.00  0.00     0.074 A 
ATOM     47  C   UNL A   1      43.804  26.691  31.641  1.00  0.00     0.031 C 
ATOM     48  C   UNL A   1      38.791  29.593  27.897  1.00  0.00     0.029 A 
ATOM     49  C   UNL A   1      38.850  29.990  29.303  1.00  0.00     0.049 A 
ATOM     50  H   UNL A   1      40.224  29.356  30.733  1.00  0.00     0.167 HD
ATOM     51  C   UNL A   1      43.218  28.024  33.634  1.00  0.00     0.037 A 
ATOM     52  C   UNL A   1      38.013  30.852  29.918  1.00  0.00     0.037 A 
ATOM     53  C   UNL A   1      42.412  28.972  34.355  1.00  0.00     0.049 A 
ATOM     54  C   UNL A   1      38.233  31.189  31.373  1.00  0.00     0.074 A 
ATOM     55  C   UNL A   1      42.548  29.402  35.662  1.00  0.00     0.029 A 
ATOM     56  N   UNL A   1      41.315  29.635  33.827  1.00  0.00    -0.354 N 
ATOM     57  N   UNL A   1      39.169  30.771  32.190  1.00  0.00    -0.248 NA
ATOM     58  C   UNL A   1      37.283  32.131  31.987  1.00  0.00     0.031 C 
ATOM     59  C   UNL A   1      41.502  30.289  35.942  1.00  0.00     0.029 A 
ATOM     60  C   UNL A   1      40.752  30.456  34.789  1.00  0.00     0.049 A 
ATOM     61  H   UNL A   1      40.985  29.537  32.904  1.00  0.00     0.167 HD
ATOM     62  C   UNL A   1      38.936  31.414  33.402  1.00  0.00     0.074 A 
ATOM     63  C   UNL A   1      37.789  32.273  33.203  1.00  0.00     0.031 C 
ATOM     64  C   UNL A   1      39.607  31.303  34.577  1.00  0.00     0.037 A 
BRANCH  51  65
ATOM     65  C   UNL A   1      44.376  27.385  34.345  1.00  0.00     0.057 A 
ATOM     66  C   UNL A   1      45.636  27.999  34.405  1.00  0.00     0.134 A 
ATOM     67  C   UNL A   1      44.226  26.155  34.996  1.00  0.00     0.134 A 
ATOM     68  F   UNL A   1      45.852  29.168  33.784  1.00  0.00    -0.206 F 
ATOM     69  C   UNL A   1      46.706  27.403  35.073  1.00  0.00     0.040 A 
ATOM     70  C   UNL A   1      45.281  25.563  35.691  1.00  0.00     0.040 A 
ATOM     71  F   UNL A   1      43.048  25.513  34.974  1.00  0.00    -0.206 F 
ATOM     72  C   UNL A   1      46.528  26.185  35.726  1.00  0.00     0.006 A 
ENDBRANCH  51  65
BRANCH  52  73
ATOM     73  C   UNL A   1      36.864  31.446  29.179  1.00  0.00     0.057 A 
ATOM     74  C   UNL A   1      35.738  30.687  28.835  1.00  0.00     0.134 A 
ATOM     75  C   UNL A   1      36.894  32.777  28.746  1.00  0.00     0.134 A 
ATOM     76  F   UNL A   1      35.657  29.396  29.194  1.00  0.00    -0.206 F 
ATOM     77  C   UNL A   1      34.701  31.220  28.065  1.00  0.00     0.040 A 
ATOM     78  C   UNL A   1      35.852  33.331  28.002  1.00  0.00     0.040 A 
ATOM     79  F   UNL A   1      37.943  33.560  29.038  1.00  0.00    -0.206 F 
ATOM     80  C   UNL A   1      34.756  32.549  27.649  1.00  0.00     0.006 A 
ENDBRANCH  52  73
BRANCH  64  81
ATOM     81  C   UNL A   1      39.132  32.153  35.723  1.00  0.00     0.057 A 
ATOM     82  C   UNL A   1      38.247  31.663  36.694  1.00  0.00     0.134 A 
ATOM     83  C   UNL A   1      39.575  33.474  35.864  1.00  0.00     0.134 A 
ATOM     84  F   UNL A   1      37.778  30.408  36.615  1.00  0.00    -0.206 F 
ATOM     85  C   UNL A   1      37.787  32.470  37.736  1.00  0.00     0.040 A 
ATOM     86  C   UNL A   1      39.148  34.280  36.921  1.00  0.00     0.040 A 
ATOM     87  F   UNL A   1      40.435  34.004  34.981  1.00  0.00    -0.206 F 
ATOM     88  C   UNL A   1      38.241  33.782  37.854  1.00  0.00     0.006 A 
ENDBRANCH  64  81
ENDBRANCH  38  39
ENDBRANCH  31  33
ENDBRANCH  30  31
ENDBRANCH  29  30
ENDBRANCH  28  29
ENDBRANCH  27  28
ENDBRANCH  26  27
ENDBRANCH   1  26
TORSDOF 21
ENDMDL
MODEL 3
REMARK VINA RESULT:     -10.4      3.309      8.752
REMARK SMILES O=C(OCCOCCOCCOCCOC(=O)c1ccc(-c2c3nc(c(-c4c(F)cccc4F)c4ccc([nH]4)c(-c4c(F)cccc4F)c4nc(c(-c5c(F)cccc5F)c5ccc2[nH]5)C=C4)C=C3)cc1)C1=Cc2cc(Cl)ccc2O[C@@H]1C(F)(F)F
REMARK SMILES IDX 10 1 9 2 8 3 7 4 6 5 5 6 4 7 3 8 2 9 1 10 72 11 73 12 82 13
REMARK SMILES IDX 74 14 81 15 75 16 80 17 76 18 79 19 77 20 78 21 83 22 84 23
REMARK SMILES IDX 85 24 86 25 11 26 12 27 13 28 14 29 15 30 16 31 17 32 18 33
REMARK SMILES IDX 19 34 71 35 20 36 70 37 21 38 22 39 23 40 64 41 24 42 69 43
REMARK SMILES IDX 63 44 65 45 25 46 68 47 62 48 61 49 26 51 52 52 35 53 51 54
REMARK SMILES IDX 36 55 39 56 50 57 66 58 37 59 38 60 49 62 67 63 40 64 27 65
REMARK SMILES IDX 28 66 33 67 29 68 30 69 32 70 34 71 31 72 53 73 54 74 59 75
REMARK SMILES IDX 55 76 56 77 58 78 60 79 57 80 41 81 42 82 47 83 43 84 44 85
REMARK SMILES IDX 46 86 48 87 45 88
REMARK H PARENT 65 50 39 61
REMARK Flexibility Score: inf
ROOT
ATOM      1  C   UNL A   1      32.290  28.611  25.496  1.00  0.00     0.188 C 
ENDROOT
BRANCH   1   2
ATOM      2  O   UNL A   1      31.027  28.701  24.850  1.00  0.00    -0.377 OA
BRANCH   2   3
ATOM      3  C   UNL A   1      31.063  29.068  23.477  1.00  0.00     0.188 C 
BRANCH   3   4
ATOM      4  C   UNL A   1      30.177  28.188  22.608  1.00  0.00     0.188 C 
BRANCH   4   5
ATOM      5  O   UNL A   1      30.898  27.256  21.819  1.00  0.00    -0.376 OA
BRANCH   5   6
ATOM      6  C   UNL A   1      32.135  26.752  22.297  1.00  0.00     0.202 C 
BRANCH   6   7
ATOM      7  C   UNL A   1      32.925  25.876  21.325  1.00  0.00     0.261 C 
BRANCH   7   8
ATOM      8  O   UNL A   1      33.744  24.915  22.007  1.00  0.00    -0.460 OA
BRANCH   8   9
ATOM      9  C   UNL A   1      33.268  23.649  22.044  1.00  0.00     0.338 C 
ATOM     10  O   UNL A   1      33.175  22.947  21.048  1.00  0.00    -0.246 OA
BRANCH   9  11
ATOM     11  C   UNL A   1      32.772  23.244  23.389  1.00  0.00     0.087 C 
ATOM     12  C   UNL A   1      32.122  22.066  23.352  1.00  0.00     0.027 C 
ATOM     13  C   UNL A   1      33.636  23.602  24.574  1.00  0.00     0.316 C 
ATOM     14  C   UNL A   1      32.887  20.955  23.934  1.00  0.00     0.019 A 
ATOM     15  O   UNL A   1      34.344  22.476  25.154  1.00  0.00    -0.475 OA
ATOM     16  C   UNL A   1      32.563  19.637  23.600  1.00  0.00     0.032 A 
ATOM     17  C   UNL A   1      34.020  21.221  24.709  1.00  0.00     0.128 A 
ATOM     18  C   UNL A   1      33.431  18.605  23.953  1.00  0.00     0.041 A 
ATOM     19  C   UNL A   1      34.900  20.188  25.030  1.00  0.00     0.048 A 
ATOM     20  Cl  UNL A   1      33.048  16.982  23.527  1.00  0.00    -0.084 Cl
ATOM     21  C   UNL A   1      34.622  18.881  24.624  1.00  0.00     0.024 A 
BRANCH  13  22
ATOM     22  C   UNL A   1      32.881  24.428  25.616  1.00  0.00     0.430 C 
ATOM     23  F   UNL A   1      32.200  23.631  26.474  1.00  0.00    -0.167 F 
ATOM     24  F   UNL A   1      33.745  25.154  26.372  1.00  0.00    -0.167 F 
ATOM     25  F   UNL A   1      32.005  25.293  25.064  1.00  0.00    -0.167 F 
ENDBRANCH  13  22
ENDBRANCH   9  11
ENDBRANCH   8   9
ENDBRANCH   7   8
ENDBRANCH   6   7
ENDBRANCH   5   6
ENDBRANCH   4   5
ENDBRANCH   3   4
ENDBRANCH   2   3
ENDBRANCH   1   2
BRANCH   1  26
ATOM     26  C   UNL A   1      32.487  29.453  26.780  1.00  0.00     0.188 C 
BRANCH  26  27
ATOM     27  O   UNL A   1      32.686  30.863  26.777  1.00  0.00    -0.376 OA
BRANCH  27  28
ATOM     28  C   UNL A   1      31.588  31.724  26.555  1.00  0.00     0.202 C 
BRANCH  28  29
ATOM     29  C   UNL A   1      31.671  33.076  27.285  1.00  0.00     0.261 C 
BRANCH  29  30
ATOM     30  O   UNL A   1      32.987  33.661  27.307  1.00  0.00    -0.460 OA
BRANCH  30  31
ATOM     31  C   UNL A   1      33.483  33.941  28.543  1.00  0.00     0.338 C 
ATOM     32  O   UNL A   1      32.931  34.552  29.427  1.00  0.00    -0.246 OA
BRANCH  31  33
ATOM     33  C   UNL A   1      34.775  33.218  28.744  1.00  0.00     0.060 A 
ATOM     34  C   UNL A   1      34.699  31.873  29.129  1.00  0.00     0.016 A 
ATOM     35  C   UNL A   1      36.028  33.807  28.534  1.00  0.00     0.016 A 
ATOM     36  C   UNL A   1      35.859  31.133  29.360  1.00  0.00     0.010 A 
ATOM     37  C   UNL A   1      37.196  33.067  28.778  1.00  0.00     0.010 A 
ATOM     38  C   UNL A   1      37.115  31.741  29.244  1.00  0.00    -0.014 A 
BRANCH  38  39
ATOM     39  C   UNL A   1      38.280  31.076  29.891  1.00  0.00     0.031 A 
ATOM     40  C   UNL A   1      38.541  31.389  31.344  1.00  0.00     0.074 A 
ATOM     41  C   UNL A   1      39.021  30.143  29.264  1.00  0.00     0.049 A 
ATOM     42  N   UNL A   1      39.448  30.905  32.154  1.00  0.00    -0.248 NA
ATOM     43  C   UNL A   1      37.649  32.382  31.967  1.00  0.00     0.031 C 
ATOM     44  C   UNL A   1      38.848  29.709  27.879  1.00  0.00     0.029 A 
ATOM     45  N   UNL A   1      40.069  29.383  29.726  1.00  0.00    -0.354 N 
ATOM     46  C   UNL A   1      39.226  31.523  33.379  1.00  0.00     0.074 A 
ATOM     47  C   UNL A   1      38.135  32.454  33.196  1.00  0.00     0.031 C 
ATOM     48  C   UNL A   1      39.765  28.764  27.601  1.00  0.00     0.029 A 
ATOM     49  C   UNL A   1      40.601  28.539  28.781  1.00  0.00     0.049 A 
ATOM     50  H   UNL A   1      40.406  29.438  30.649  1.00  0.00     0.167 HD
ATOM     51  C   UNL A   1      39.853  31.322  34.561  1.00  0.00     0.037 A 
ATOM     52  C   UNL A   1      41.650  27.693  28.859  1.00  0.00     0.037 A 
ATOM     53  C   UNL A   1      40.945  30.406  34.751  1.00  0.00     0.049 A 
ATOM     54  C   UNL A   1      42.388  27.546  30.167  1.00  0.00     0.074 A 
ATOM     55  C   UNL A   1      41.658  30.142  35.906  1.00  0.00     0.029 A 
ATOM     56  N   UNL A   1      41.484  29.605  33.756  1.00  0.00    -0.354 N 
ATOM     57  N   UNL A   1      42.159  28.126  31.320  1.00  0.00    -0.248 NA
ATOM     58  C   UNL A   1      43.526  26.613  30.186  1.00  0.00     0.031 C 
ATOM     59  C   UNL A   1      42.663  29.218  35.598  1.00  0.00     0.029 A 
ATOM     60  C   UNL A   1      42.534  28.861  34.266  1.00  0.00     0.049 A 
ATOM     61  H   UNL A   1      41.166  29.569  32.825  1.00  0.00     0.167 HD
ATOM     62  C   UNL A   1      43.104  27.613  32.203  1.00  0.00     0.074 A 
ATOM     63  C   UNL A   1      43.889  26.653  31.459  1.00  0.00     0.031 C 
ATOM     64  C   UNL A   1      43.310  27.911  33.511  1.00  0.00     0.037 A 
BRANCH  51  65
ATOM     65  C   UNL A   1      39.380  32.125  35.738  1.00  0.00     0.057 A 
ATOM     66  C   UNL A   1      38.433  31.623  36.642  1.00  0.00     0.134 A 
ATOM     67  C   UNL A   1      39.894  33.404  35.984  1.00  0.00     0.134 A 
ATOM     68  F   UNL A   1      37.885  30.414  36.451  1.00  0.00    -0.206 F 
ATOM     69  C   UNL A   1      38.004  32.373  37.738  1.00  0.00     0.040 A 
ATOM     70  C   UNL A   1      39.494  34.151  37.092  1.00  0.00     0.040 A 
ATOM     71  F   UNL A   1      40.801  33.944  35.155  1.00  0.00    -0.206 F 
ATOM     72  C   UNL A   1      38.541  33.637  37.971  1.00  0.00     0.006 A 
ENDBRANCH  51  65
BRANCH  52  73
ATOM     73  C   UNL A   1      42.097  26.933  27.659  1.00  0.00     0.057 A 
ATOM     74  C   UNL A   1      42.966  27.492  26.714  1.00  0.00     0.134 A 
ATOM     75  C   UNL A   1      41.613  25.644  27.400  1.00  0.00     0.134 A 
ATOM     76  F   UNL A   1      43.444  28.734  26.886  1.00  0.00    -0.206 F 
ATOM     77  C   UNL A   1      43.314  26.811  25.544  1.00  0.00     0.040 A 
ATOM     78  C   UNL A   1      41.976  24.941  26.250  1.00  0.00     0.040 A 
ATOM     79  F   UNL A   1      40.775  25.050  28.261  1.00  0.00    -0.206 F 
ATOM     80  C   UNL A   1      42.820  25.529  25.312  1.00  0.00     0.006 A 
ENDBRANCH  52  73
BRANCH  64  81
ATOM     81  C   UNL A   1      44.406  27.167  34.222  1.00  0.00     0.057 A 
ATOM     82  C   UNL A   1      45.705  27.684  34.329  1.00  0.00     0.134 A 
ATOM     83  C   UNL A   1      44.157  25.924  34.817  1.00  0.00     0.134 A 
ATOM     84  F   UNL A   1      46.014  28.866  33.776  1.00  0.00    -0.206 F 
ATOM     85  C   UNL A   1      46.724  26.970  34.964  1.00  0.00     0.040 A 
ATOM     86  C   UNL A   1      45.159  25.217  35.483  1.00  0.00     0.040 A 
ATOM     87  F   UNL A   1      42.932  25.376  34.768  1.00  0.00    -0.206 F 
ATOM     88  C   UNL A   1      46.451  25.735  35.547  1.00  0.00     0.006 A 
ENDBRANCH  64  81
ENDBRANCH  38  39
ENDBRANCH  31  33
ENDBRANCH  30  31
ENDBRANCH  29  30
ENDBRANCH  28  29
ENDBRANCH  27  28
ENDBRANCH  26  27
ENDBRANCH   1  26
TORSDOF 21
ENDMDL
