MODEL 1
REMARK VINA RESULT:     -10.7      0.000      0.000
REMARK SMILES COC(=O)c1ccc(C)c(NC(=O)[C@H]2CC=CC[C@H]2C(=O)OCCOCCOCCOCCOC(=O)c2ccc(-c3c4nc(c(-c5c(F)cccc5F)c5ccc([nH]5)c(-c5c(F)cccc5F)c5nc(c(-c6c(F)cccc6F)c6ccc3[nH]6)C=C5)C=C4)cc2)c1
REMARK SMILES IDX 27 1 26 2 25 3 24 4 23 5 22 6 20 7 21 8 19 9 14 10 15 11
REMARK SMILES IDX 16 12 18 13 17 14 12 15 11 16 13 18 10 19 5 20 6 21 91 22
REMARK SMILES IDX 7 23 8 24 9 25 3 26 4 27 2 28 1 29 28 30 29 31 30 32 31 33
REMARK SMILES IDX 32 34 33 35 34 36 35 37 36 38 37 39 38 40 90 41 39 42 89 43
REMARK SMILES IDX 40 44 41 45 42 46 83 47 43 48 88 49 82 50 84 51 44 52 87 53
REMARK SMILES IDX 81 54 80 55 45 57 71 58 54 59 70 60 55 61 58 62 69 63 85 64
REMARK SMILES IDX 56 65 57 66 68 68 86 69 59 70 46 71 47 72 52 73 48 74 49 75
REMARK SMILES IDX 51 76 53 77 50 78 72 79 73 80 78 81 74 82 75 83 77 84 79 85
REMARK SMILES IDX 76 86 60 87 61 88 66 89 62 90 63 91 65 92 67 93 64 94
REMARK H PARENT 11 17 84 56 58 67
REMARK Flexibility Score: inf
ROOT
ATOM      1  C   UNL A   1      29.617  27.363  23.297  1.00  0.00     0.188 C 
ENDROOT
BRANCH   1   2
ATOM      2  C   UNL A   1      30.031  26.061  23.955  1.00  0.00     0.188 C 
BRANCH   2   3
ATOM      3  O   UNL A   1      29.801  25.920  25.343  1.00  0.00    -0.376 OA
BRANCH   3   4
ATOM      4  C   UNL A   1      30.628  26.521  26.291  1.00  0.00     0.202 C 
BRANCH   4   5
ATOM      5  C   UNL A   1      32.141  26.450  26.155  1.00  0.00     0.261 C 
BRANCH   5   6
ATOM      6  O   UNL A   1      32.888  25.231  26.098  1.00  0.00    -0.463 OA
BRANCH   6   7
ATOM      7  C   UNL A   1      33.654  24.890  25.051  1.00  0.00     0.310 C 
ATOM      8  O   UNL A   1      33.560  25.268  23.894  1.00  0.00    -0.252 OA
BRANCH   7   9
ATOM      9  C   UNL A   1      34.650  23.832  25.388  1.00  0.00     0.116 C 
ATOM     10  C   UNL A   1      34.351  22.977  26.640  1.00  0.00     0.097 C 
ATOM     11  C   UNL A   1      35.262  21.744  26.671  1.00  0.00     0.041 C 
ATOM     12  C   UNL A   1      35.382  21.051  25.345  1.00  0.00    -0.030 C 
ATOM     13  C   UNL A   1      35.087  23.167  24.082  1.00  0.00     0.043 C 
ATOM     14  C   UNL A   1      35.304  21.698  24.177  1.00  0.00    -0.030 C 
BRANCH  10  15
ATOM     15  C   UNL A   1      32.944  22.509  26.994  1.00  0.00     0.228 C 
ATOM     16  N   UNL A   1      32.123  21.759  26.192  1.00  0.00    -0.326 N 
ATOM     17  H   UNL A   1      31.249  21.662  26.636  1.00  0.00     0.169 HD
ATOM     18  O   UNL A   1      32.441  22.827  28.081  1.00  0.00    -0.274 OA
BRANCH  16  19
ATOM     19  C   UNL A   1      32.085  21.067  24.944  1.00  0.00     0.044 A 
ATOM     20  C   UNL A   1      32.615  18.831  23.967  1.00  0.00     0.062 A 
ATOM     21  C   UNL A   1      32.529  19.356  22.687  1.00  0.00     0.016 A 
ATOM     22  C   UNL A   1      32.369  19.675  25.076  1.00  0.00     0.042 A 
ATOM     23  C   UNL A   1      32.158  20.689  22.533  1.00  0.00     0.006 A 
ATOM     24  C   UNL A   1      31.891  21.546  23.638  1.00  0.00    -0.027 A 
ATOM     25  C   UNL A   1      31.430  22.911  23.235  1.00  0.00     0.046 C 
BRANCH  20  26
ATOM     26  C   UNL A   1      33.206  17.461  24.117  1.00  0.00     0.337 C 
ATOM     27  O   UNL A   1      34.088  17.001  23.413  1.00  0.00    -0.246 OA
BRANCH  26  28
ATOM     28  O   UNL A   1      32.822  16.930  25.308  1.00  0.00    -0.465 OA
ATOM     29  C   UNL A   1      32.747  15.513  25.352  1.00  0.00     0.282 C 
ENDBRANCH  26  28
ENDBRANCH  20  26
ENDBRANCH  16  19
ENDBRANCH  10  15
ENDBRANCH   7   9
ENDBRANCH   6   7
ENDBRANCH   5   6
ENDBRANCH   4   5
ENDBRANCH   3   4
ENDBRANCH   2   3
ENDBRANCH   1   2
BRANCH   1  30
ATOM     30  O   UNL A   1      30.604  28.015  22.514  1.00  0.00    -0.377 OA
BRANCH  30  31
ATOM     31  C   UNL A   1      31.476  28.952  23.131  1.00  0.00     0.188 C 
BRANCH  31  32
ATOM     32  C   UNL A   1      30.998  29.519  24.447  1.00  0.00     0.188 C 
BRANCH  32  33
ATOM     33  O   UNL A   1      32.116  30.060  25.109  1.00  0.00    -0.376 OA
BRANCH  33  34
ATOM     34  C   UNL A   1      31.917  30.275  26.498  1.00  0.00     0.202 C 
BRANCH  34  35
ATOM     35  C   UNL A   1      32.529  31.630  26.842  1.00  0.00     0.261 C 
BRANCH  35  36
ATOM     36  O   UNL A   1      33.439  31.444  27.958  1.00  0.00    -0.460 OA
BRANCH  36  37
ATOM     37  C   UNL A   1      34.557  32.230  27.933  1.00  0.00     0.338 C 
ATOM     38  O   UNL A   1      34.576  33.406  27.567  1.00  0.00    -0.246 OA
BRANCH  37  39
ATOM     39  C   UNL A   1      35.811  31.437  28.168  1.00  0.00     0.060 A 
ATOM     40  C   UNL A   1      35.770  30.030  28.256  1.00  0.00     0.016 A 
ATOM     41  C   UNL A   1      36.964  32.092  28.586  1.00  0.00     0.016 A 
ATOM     42  C   UNL A   1      36.852  29.293  28.798  1.00  0.00     0.010 A 
ATOM     43  C   UNL A   1      37.982  31.366  29.194  1.00  0.00     0.010 A 
ATOM     44  C   UNL A   1      37.970  29.959  29.300  1.00  0.00    -0.014 A 
BRANCH  44  45
ATOM     45  C   UNL A   1      39.111  29.366  30.048  1.00  0.00     0.031 A 
ATOM     46  C   UNL A   1      39.932  28.268  29.428  1.00  0.00     0.074 A 
ATOM     47  C   UNL A   1      39.708  29.980  31.106  1.00  0.00     0.049 A 
ATOM     48  N   UNL A   1      40.930  27.681  30.016  1.00  0.00    -0.248 NA
ATOM     49  C   UNL A   1      39.675  27.678  28.112  1.00  0.00     0.031 C 
ATOM     50  C   UNL A   1      41.159  30.001  31.281  1.00  0.00     0.029 A 
ATOM     51  N   UNL A   1      39.265  30.780  32.154  1.00  0.00    -0.354 N 
ATOM     52  C   UNL A   1      41.688  27.106  29.029  1.00  0.00     0.074 A 
ATOM     53  C   UNL A   1      40.746  26.890  27.961  1.00  0.00     0.031 C 
ATOM     54  C   UNL A   1      41.486  30.583  32.431  1.00  0.00     0.029 A 
ATOM     55  C   UNL A   1      40.262  30.949  33.102  1.00  0.00     0.049 A 
ATOM     56  H   UNL A   1      38.365  31.174  32.214  1.00  0.00     0.167 HD
ATOM     57  C   UNL A   1      43.052  27.062  29.145  1.00  0.00     0.037 A 
ATOM     58  C   UNL A   1      40.194  31.143  34.438  1.00  0.00     0.037 A 
ATOM     59  C   UNL A   1      43.547  27.589  30.446  1.00  0.00     0.049 A 
ATOM     60  C   UNL A   1      41.044  30.067  35.048  1.00  0.00     0.074 A 
ATOM     61  C   UNL A   1      44.503  28.529  30.804  1.00  0.00     0.029 A 
ATOM     62  N   UNL A   1      42.908  27.251  31.650  1.00  0.00    -0.354 N 
ATOM     63  N   UNL A   1      41.198  28.932  34.401  1.00  0.00    -0.248 NA
ATOM     64  C   UNL A   1      41.915  30.169  36.215  1.00  0.00     0.031 C 
ATOM     65  C   UNL A   1      44.453  28.719  32.220  1.00  0.00     0.029 A 
ATOM     66  C   UNL A   1      43.472  27.891  32.746  1.00  0.00     0.049 A 
ATOM     67  H   UNL A   1      42.147  26.629  31.711  1.00  0.00     0.167 HD
ATOM     68  C   UNL A   1      42.309  28.309  34.871  1.00  0.00     0.074 A 
ATOM     69  C   UNL A   1      42.680  29.067  36.064  1.00  0.00     0.031 C 
ATOM     70  C   UNL A   1      43.127  27.518  34.118  1.00  0.00     0.037 A 
BRANCH  57  71
ATOM     71  C   UNL A   1      43.997  26.648  28.004  1.00  0.00     0.057 A 
ATOM     72  C   UNL A   1      44.951  25.625  28.192  1.00  0.00     0.134 A 
ATOM     73  C   UNL A   1      44.038  27.208  26.707  1.00  0.00     0.134 A 
ATOM     74  F   UNL A   1      45.108  25.022  29.378  1.00  0.00    -0.206 F 
ATOM     75  C   UNL A   1      45.805  25.162  27.173  1.00  0.00     0.040 A 
ATOM     76  C   UNL A   1      44.828  26.702  25.658  1.00  0.00     0.040 A 
ATOM     77  F   UNL A   1      43.382  28.326  26.383  1.00  0.00    -0.206 F 
ATOM     78  C   UNL A   1      45.717  25.669  25.887  1.00  0.00     0.006 A 
ENDBRANCH  57  71
BRANCH  58  79
ATOM     79  C   UNL A   1      39.137  32.051  34.918  1.00  0.00     0.057 A 
ATOM     80  C   UNL A   1      38.334  31.596  35.982  1.00  0.00     0.134 A 
ATOM     81  C   UNL A   1      39.324  33.437  34.832  1.00  0.00     0.134 A 
ATOM     82  F   UNL A   1      38.109  30.282  36.143  1.00  0.00    -0.206 F 
ATOM     83  C   UNL A   1      37.885  32.457  36.998  1.00  0.00     0.040 A 
ATOM     84  C   UNL A   1      38.914  34.301  35.858  1.00  0.00     0.040 A 
ATOM     85  F   UNL A   1      40.110  33.948  33.873  1.00  0.00    -0.206 F 
ATOM     86  C   UNL A   1      38.226  33.807  36.963  1.00  0.00     0.006 A 
ENDBRANCH  58  79
BRANCH  70  87
ATOM     87  C   UNL A   1      43.401  26.124  34.621  1.00  0.00     0.057 A 
ATOM     88  C   UNL A   1      42.394  25.236  35.033  1.00  0.00     0.134 A 
ATOM     89  C   UNL A   1      44.701  25.581  34.555  1.00  0.00     0.134 A 
ATOM     90  F   UNL A   1      41.110  25.615  35.124  1.00  0.00    -0.206 F 
ATOM     91  C   UNL A   1      42.661  23.901  35.349  1.00  0.00     0.040 A 
ATOM     92  C   UNL A   1      44.970  24.240  34.831  1.00  0.00     0.040 A 
ATOM     93  F   UNL A   1      45.764  26.316  34.200  1.00  0.00    -0.206 F 
ATOM     94  C   UNL A   1      43.950  23.395  35.234  1.00  0.00     0.006 A 
ENDBRANCH  70  87
ENDBRANCH  44  45
ENDBRANCH  37  39
ENDBRANCH  36  37
ENDBRANCH  35  36
ENDBRANCH  34  35
ENDBRANCH  33  34
ENDBRANCH  32  33
ENDBRANCH  31  32
ENDBRANCH  30  31
ENDBRANCH   1  30
TORSDOF 24
ENDMDL
MODEL 2
REMARK VINA RESULT:      -9.9      4.214      9.593
REMARK SMILES COC(=O)c1ccc(C)c(NC(=O)[C@H]2CC=CC[C@H]2C(=O)OCCOCCOCCOCCOC(=O)c2ccc(-c3c4nc(c(-c5c(F)cccc5F)c5ccc([nH]5)c(-c5c(F)cccc5F)c5nc(c(-c6c(F)cccc6F)c6ccc3[nH]6)C=C5)C=C4)cc2)c1
REMARK SMILES IDX 27 1 26 2 25 3 24 4 23 5 22 6 20 7 21 8 19 9 14 10 15 11
REMARK SMILES IDX 16 12 18 13 17 14 12 15 11 16 13 18 10 19 5 20 6 21 91 22
REMARK SMILES IDX 7 23 8 24 9 25 3 26 4 27 2 28 1 29 28 30 29 31 30 32 31 33
REMARK SMILES IDX 32 34 33 35 34 36 35 37 36 38 37 39 38 40 90 41 39 42 89 43
REMARK SMILES IDX 40 44 41 45 42 46 83 47 43 48 88 49 82 50 84 51 44 52 87 53
REMARK SMILES IDX 81 54 80 55 45 57 71 58 54 59 70 60 55 61 58 62 69 63 85 64
REMARK SMILES IDX 56 65 57 66 68 68 86 69 59 70 46 71 47 72 52 73 48 74 49 75
REMARK SMILES IDX 51 76 53 77 50 78 72 79 73 80 78 81 74 82 75 83 77 84 79 85
REMARK SMILES IDX 76 86 60 87 61 88 66 89 62 90 63 91 65 92 67 93 64 94
REMARK H PARENT 11 17 84 56 58 67
REMARK Flexibility Score: inf
ROOT
ATOM      1  C   UNL A   1      41.389  23.310  27.394  1.00  0.00     0.188 C 
ENDROOT
BRANCH   1   2
ATOM      2  C   UNL A   1      40.384  22.186  27.238  1.00  0.00     0.188 C 
BRANCH   2   3
ATOM      3  O   UNL A   1      39.247  22.424  26.432  1.00  0.00    -0.376 OA
BRANCH   3   4
ATOM      4  C   UNL A   1      38.531  23.619  26.502  1.00  0.00     0.202 C 
BRANCH   4   5
ATOM      5  C   UNL A   1      37.093  23.689  26.014  1.00  0.00     0.261 C 
BRANCH   5   6
ATOM      6  O   UNL A   1      36.066  22.769  26.396  1.00  0.00    -0.463 OA
BRANCH   6   7
ATOM      7  C   UNL A   1      35.725  21.704  25.656  1.00  0.00     0.310 C 
ATOM      8  O   UNL A   1      36.461  20.875  25.145  1.00  0.00    -0.252 OA
BRANCH   7   9
ATOM      9  C   UNL A   1      34.263  21.648  25.369  1.00  0.00     0.116 C 
ATOM     10  C   UNL A   1      33.665  22.846  24.597  1.00  0.00     0.097 C 
ATOM     11  C   UNL A   1      32.258  22.505  24.094  1.00  0.00     0.041 C 
ATOM     12  C   UNL A   1      32.153  21.138  23.483  1.00  0.00    -0.030 C 
ATOM     13  C   UNL A   1      33.920  20.215  24.960  1.00  0.00     0.043 C 
ATOM     14  C   UNL A   1      32.905  20.105  23.879  1.00  0.00    -0.030 C 
BRANCH  10  15
ATOM     15  C   UNL A   1      34.403  23.531  23.452  1.00  0.00     0.228 C 
ATOM     16  N   UNL A   1      34.032  24.705  22.848  1.00  0.00    -0.326 N 
ATOM     17  H   UNL A   1      34.642  24.879  22.094  1.00  0.00     0.169 HD
ATOM     18  O   UNL A   1      35.420  23.011  22.972  1.00  0.00    -0.274 OA
BRANCH  16  19
ATOM     19  C   UNL A   1      33.079  25.764  22.923  1.00  0.00     0.044 A 
ATOM     20  C   UNL A   1      32.044  27.306  24.592  1.00  0.00     0.062 A 
ATOM     21  C   UNL A   1      31.059  27.652  23.680  1.00  0.00     0.016 A 
ATOM     22  C   UNL A   1      33.052  26.393  24.203  1.00  0.00     0.042 A 
ATOM     23  C   UNL A   1      31.122  27.125  22.393  1.00  0.00     0.006 A 
ATOM     24  C   UNL A   1      32.139  26.219  21.982  1.00  0.00    -0.027 A 
ATOM     25  C   UNL A   1      32.057  25.847  20.535  1.00  0.00     0.046 C 
BRANCH  20  26
ATOM     26  C   UNL A   1      31.846  27.723  26.019  1.00  0.00     0.337 C 
ATOM     27  O   UNL A   1      31.264  27.066  26.864  1.00  0.00    -0.246 OA
BRANCH  26  28
ATOM     28  O   UNL A   1      32.643  28.789  26.293  1.00  0.00    -0.465 OA
ATOM     29  C   UNL A   1      33.673  28.555  27.242  1.00  0.00     0.282 C 
ENDBRANCH  26  28
ENDBRANCH  20  26
ENDBRANCH  16  19
ENDBRANCH  10  15
ENDBRANCH   7   9
ENDBRANCH   6   7
ENDBRANCH   5   6
ENDBRANCH   4   5
ENDBRANCH   3   4
ENDBRANCH   2   3
ENDBRANCH   1   2
BRANCH   1  30
ATOM     30  O   UNL A   1      42.621  23.155  26.707  1.00  0.00    -0.377 OA
BRANCH  30  31
ATOM     31  C   UNL A   1      42.628  22.568  25.413  1.00  0.00     0.188 C 
BRANCH  31  32
ATOM     32  C   UNL A   1      43.739  23.024  24.497  1.00  0.00     0.188 C 
BRANCH  32  33
ATOM     33  O   UNL A   1      44.473  21.884  24.118  1.00  0.00    -0.376 OA
BRANCH  33  34
ATOM     34  C   UNL A   1      45.788  21.839  24.654  1.00  0.00     0.202 C 
BRANCH  34  35
ATOM     35  C   UNL A   1      46.202  23.274  24.967  1.00  0.00     0.261 C 
BRANCH  35  36
ATOM     36  O   UNL A   1      46.492  23.360  26.387  1.00  0.00    -0.460 OA
BRANCH  36  37
ATOM     37  C   UNL A   1      46.199  24.562  26.968  1.00  0.00     0.338 C 
ATOM     38  O   UNL A   1      46.243  25.647  26.388  1.00  0.00    -0.246 OA
BRANCH  37  39
ATOM     39  C   UNL A   1      46.051  24.448  28.459  1.00  0.00     0.060 A 
ATOM     40  C   UNL A   1      44.949  23.776  29.026  1.00  0.00     0.016 A 
ATOM     41  C   UNL A   1      46.835  25.246  29.285  1.00  0.00     0.016 A 
ATOM     42  C   UNL A   1      44.610  23.936  30.393  1.00  0.00     0.010 A 
ATOM     43  C   UNL A   1      46.442  25.464  30.601  1.00  0.00     0.010 A 
ATOM     44  C   UNL A   1      45.344  24.808  31.197  1.00  0.00    -0.014 A 
BRANCH  44  45
ATOM     45  C   UNL A   1      45.033  25.224  32.591  1.00  0.00     0.031 A 
ATOM     46  C   UNL A   1      44.376  26.552  32.854  1.00  0.00     0.074 A 
ATOM     47  C   UNL A   1      44.961  24.350  33.632  1.00  0.00     0.049 A 
ATOM     48  N   UNL A   1      44.088  27.003  34.038  1.00  0.00    -0.248 NA
ATOM     49  C   UNL A   1      44.032  27.531  31.819  1.00  0.00     0.031 C 
ATOM     50  C   UNL A   1      43.913  24.428  34.648  1.00  0.00     0.029 A 
ATOM     51  N   UNL A   1      45.644  23.193  33.989  1.00  0.00    -0.354 N 
ATOM     52  C   UNL A   1      43.124  27.965  33.871  1.00  0.00     0.074 A 
ATOM     53  C   UNL A   1      43.343  28.433  32.527  1.00  0.00     0.031 C 
ATOM     54  C   UNL A   1      44.113  23.522  35.601  1.00  0.00     0.029 A 
ATOM     55  C   UNL A   1      45.331  22.815  35.286  1.00  0.00     0.049 A 
ATOM     56  H   UNL A   1      46.266  22.707  33.401  1.00  0.00     0.167 HD
ATOM     57  C   UNL A   1      42.131  28.114  34.802  1.00  0.00     0.037 A 
ATOM     58  C   UNL A   1      46.056  22.163  36.222  1.00  0.00     0.037 A 
ATOM     59  C   UNL A   1      42.298  27.225  35.984  1.00  0.00     0.049 A 
ATOM     60  C   UNL A   1      46.041  23.045  37.435  1.00  0.00     0.074 A 
ATOM     61  C   UNL A   1      41.466  26.329  36.641  1.00  0.00     0.029 A 
ATOM     62  N   UNL A   1      43.556  27.052  36.584  1.00  0.00    -0.354 N 
ATOM     63  N   UNL A   1      45.902  24.344  37.277  1.00  0.00    -0.248 NA
ATOM     64  C   UNL A   1      45.965  22.640  38.836  1.00  0.00     0.031 C 
ATOM     65  C   UNL A   1      42.223  25.655  37.650  1.00  0.00     0.029 A 
ATOM     66  C   UNL A   1      43.523  26.136  37.628  1.00  0.00     0.049 A 
ATOM     67  H   UNL A   1      44.370  27.527  36.297  1.00  0.00     0.167 HD
ATOM     68  C   UNL A   1      45.472  24.882  38.447  1.00  0.00     0.074 A 
ATOM     69  C   UNL A   1      45.609  23.802  39.422  1.00  0.00     0.031 C 
ATOM     70  C   UNL A   1      44.653  25.969  38.542  1.00  0.00     0.037 A 
BRANCH  57  71
ATOM     71  C   UNL A   1      40.890  28.999  34.598  1.00  0.00     0.057 A 
ATOM     72  C   UNL A   1      40.595  30.047  35.496  1.00  0.00     0.134 A 
ATOM     73  C   UNL A   1      39.939  28.879  33.559  1.00  0.00     0.134 A 
ATOM     74  F   UNL A   1      41.345  30.271  36.582  1.00  0.00    -0.206 F 
ATOM     75  C   UNL A   1      39.507  30.927  35.333  1.00  0.00     0.040 A 
ATOM     76  C   UNL A   1      38.896  29.799  33.339  1.00  0.00     0.040 A 
ATOM     77  F   UNL A   1      39.901  27.829  32.734  1.00  0.00    -0.206 F 
ATOM     78  C   UNL A   1      38.677  30.833  34.229  1.00  0.00     0.006 A 
ENDBRANCH  57  71
BRANCH  58  79
ATOM     79  C   UNL A   1      46.879  21.035  35.748  1.00  0.00     0.057 A 
ATOM     80  C   UNL A   1      46.210  19.982  35.092  1.00  0.00     0.134 A 
ATOM     81  C   UNL A   1      48.206  21.261  35.360  1.00  0.00     0.134 A 
ATOM     82  F   UNL A   1      44.933  19.702  35.398  1.00  0.00    -0.206 F 
ATOM     83  C   UNL A   1      46.775  19.309  33.996  1.00  0.00     0.040 A 
ATOM     84  C   UNL A   1      48.767  20.622  34.245  1.00  0.00     0.040 A 
ATOM     85  F   UNL A   1      48.899  22.272  35.905  1.00  0.00    -0.206 F 
ATOM     86  C   UNL A   1      48.038  19.671  33.536  1.00  0.00     0.006 A 
ENDBRANCH  58  79
BRANCH  70  87
ATOM     87  C   UNL A   1      45.125  27.123  39.389  1.00  0.00     0.057 A 
ATOM     88  C   UNL A   1      44.885  27.220  40.770  1.00  0.00     0.134 A 
ATOM     89  C   UNL A   1      45.980  28.106  38.850  1.00  0.00     0.134 A 
ATOM     90  F   UNL A   1      44.104  26.341  41.417  1.00  0.00    -0.206 F 
ATOM     91  C   UNL A   1      45.462  28.219  41.558  1.00  0.00     0.040 A 
ATOM     92  C   UNL A   1      46.591  29.083  39.636  1.00  0.00     0.040 A 
ATOM     93  F   UNL A   1      46.281  28.152  37.545  1.00  0.00    -0.206 F 
ATOM     94  C   UNL A   1      46.330  29.146  40.994  1.00  0.00     0.006 A 
ENDBRANCH  70  87
ENDBRANCH  44  45
ENDBRANCH  37  39
ENDBRANCH  36  37
ENDBRANCH  35  36
ENDBRANCH  34  35
ENDBRANCH  33  34
ENDBRANCH  32  33
ENDBRANCH  31  32
ENDBRANCH  30  31
ENDBRANCH   1  30
TORSDOF 24
ENDMDL
MODEL 3
REMARK VINA RESULT:      -9.7      3.753      6.931
REMARK SMILES COC(=O)c1ccc(C)c(NC(=O)[C@H]2CC=CC[C@H]2C(=O)OCCOCCOCCOCCOC(=O)c2ccc(-c3c4nc(c(-c5c(F)cccc5F)c5ccc([nH]5)c(-c5c(F)cccc5F)c5nc(c(-c6c(F)cccc6F)c6ccc3[nH]6)C=C5)C=C4)cc2)c1
REMARK SMILES IDX 27 1 26 2 25 3 24 4 23 5 22 6 20 7 21 8 19 9 14 10 15 11
REMARK SMILES IDX 16 12 18 13 17 14 12 15 11 16 13 18 10 19 5 20 6 21 91 22
REMARK SMILES IDX 7 23 8 24 9 25 3 26 4 27 2 28 1 29 28 30 29 31 30 32 31 33
REMARK SMILES IDX 32 34 33 35 34 36 35 37 36 38 37 39 38 40 90 41 39 42 89 43
REMARK SMILES IDX 40 44 41 45 42 46 83 47 43 48 88 49 82 50 84 51 44 52 87 53
REMARK SMILES IDX 81 54 80 55 45 57 71 58 54 59 70 60 55 61 58 62 69 63 85 64
REMARK SMILES IDX 56 65 57 66 68 68 86 69 59 70 46 71 47 72 52 73 48 74 49 75
REMARK SMILES IDX 51 76 53 77 50 78 72 79 73 80 78 81 74 82 75 83 77 84 79 85
REMARK SMILES IDX 76 86 60 87 61 88 66 89 62 90 63 91 65 92 67 93 64 94
REMARK H PARENT 11 17 84 56 58 67
REMARK Flexibility Score: inf
ROOT
ATOM      1  C   UNL A   1      33.669  32.550  28.177  1.00  0.00     0.188 C 
ENDROOT
BRANCH   1   2
ATOM      2  C   UNL A   1      33.775  31.170  27.559  1.00  0.00     0.188 C 
BRANCH   2   3
ATOM      3  O   UNL A   1      32.605  30.379  27.504  1.00  0.00    -0.376 OA
BRANCH   3   4
ATOM      4  C   UNL A   1      31.950  30.116  26.301  1.00  0.00     0.202 C 
BRANCH   4   5
ATOM      5  C   UNL A   1      32.089  28.762  25.623  1.00  0.00     0.261 C 
BRANCH   5   6
ATOM      6  O   UNL A   1      32.706  27.620  26.225  1.00  0.00    -0.463 OA
BRANCH   6   7
ATOM      7  C   UNL A   1      32.026  26.515  26.568  1.00  0.00     0.310 C 
ATOM      8  O   UNL A   1      30.840  26.415  26.836  1.00  0.00    -0.252 OA
BRANCH   7   9
ATOM      9  C   UNL A   1      32.909  25.325  26.730  1.00  0.00     0.116 C 
ATOM     10  C   UNL A   1      32.208  23.949  26.794  1.00  0.00     0.097 C 
ATOM     11  C   UNL A   1      33.235  22.822  26.629  1.00  0.00     0.041 C 
ATOM     12  C   UNL A   1      34.227  23.068  25.530  1.00  0.00    -0.030 C 
ATOM     13  C   UNL A   1      34.137  25.528  25.842  1.00  0.00     0.043 C 
ATOM     14  C   UNL A   1      34.633  24.292  25.178  1.00  0.00    -0.030 C 
BRANCH  10  15
ATOM     15  C   UNL A   1      31.009  23.601  25.919  1.00  0.00     0.228 C 
ATOM     16  N   UNL A   1      30.830  23.985  24.615  1.00  0.00    -0.326 N 
ATOM     17  H   UNL A   1      29.940  23.686  24.316  1.00  0.00     0.169 HD
ATOM     18  O   UNL A   1      30.075  22.934  26.385  1.00  0.00    -0.274 OA
BRANCH  16  19
ATOM     19  C   UNL A   1      31.474  24.663  23.536  1.00  0.00     0.044 A 
ATOM     20  C   UNL A   1      31.535  26.902  22.433  1.00  0.00     0.062 A 
ATOM     21  C   UNL A   1      32.200  26.361  21.344  1.00  0.00     0.016 A 
ATOM     22  C   UNL A   1      31.203  26.063  23.523  1.00  0.00     0.042 A 
ATOM     23  C   UNL A   1      32.561  25.017  21.379  1.00  0.00     0.006 A 
ATOM     24  C   UNL A   1      32.248  24.165  22.475  1.00  0.00    -0.027 A 
ATOM     25  C   UNL A   1      32.805  22.782  22.333  1.00  0.00     0.046 C 
BRANCH  20  26
ATOM     26  C   UNL A   1      30.984  28.289  22.291  1.00  0.00     0.337 C 
ATOM     27  O   UNL A   1      31.656  29.301  22.200  1.00  0.00    -0.246 OA
BRANCH  26  28
ATOM     28  O   UNL A   1      29.659  28.221  21.995  1.00  0.00    -0.465 OA
ATOM     29  C   UNL A   1      28.832  29.159  22.668  1.00  0.00     0.282 C 
ENDBRANCH  26  28
ENDBRANCH  20  26
ENDBRANCH  16  19
ENDBRANCH  10  15
ENDBRANCH   7   9
ENDBRANCH   6   7
ENDBRANCH   5   6
ENDBRANCH   4   5
ENDBRANCH   3   4
ENDBRANCH   2   3
ENDBRANCH   1   2
BRANCH   1  30
ATOM     30  O   UNL A   1      34.891  33.236  28.403  1.00  0.00    -0.377 OA
BRANCH  30  31
ATOM     31  C   UNL A   1      35.146  33.802  29.681  1.00  0.00     0.188 C 
BRANCH  31  32
ATOM     32  C   UNL A   1      34.666  32.991  30.861  1.00  0.00     0.188 C 
BRANCH  32  33
ATOM     33  O   UNL A   1      35.710  32.952  31.804  1.00  0.00    -0.376 OA
BRANCH  33  34
ATOM     34  C   UNL A   1      36.996  33.202  31.254  1.00  0.00     0.202 C 
BRANCH  34  35
ATOM     35  C   UNL A   1      37.832  31.942  31.458  1.00  0.00     0.261 C 
BRANCH  35  36
ATOM     36  O   UNL A   1      37.179  30.849  30.759  1.00  0.00    -0.460 OA
BRANCH  36  37
ATOM     37  C   UNL A   1      37.428  29.604  31.266  1.00  0.00     0.338 C 
ATOM     38  O   UNL A   1      36.821  29.100  32.212  1.00  0.00    -0.246 OA
BRANCH  37  39
ATOM     39  C   UNL A   1      38.688  29.007  30.706  1.00  0.00     0.060 A 
ATOM     40  C   UNL A   1      39.695  28.512  31.560  1.00  0.00     0.016 A 
ATOM     41  C   UNL A   1      38.996  29.199  29.363  1.00  0.00     0.016 A 
ATOM     42  C   UNL A   1      41.006  28.256  31.086  1.00  0.00     0.010 A 
ATOM     43  C   UNL A   1      40.306  29.027  28.929  1.00  0.00     0.010 A 
ATOM     44  C   UNL A   1      41.335  28.536  29.760  1.00  0.00    -0.014 A 
BRANCH  44  45
ATOM     45  C   UNL A   1      42.686  28.490  29.139  1.00  0.00     0.031 A 
ATOM     46  C   UNL A   1      43.291  27.170  28.741  1.00  0.00     0.074 A 
ATOM     47  C   UNL A   1      43.280  29.571  28.563  1.00  0.00     0.049 A 
ATOM     48  N   UNL A   1      44.470  27.036  28.213  1.00  0.00    -0.248 NA
ATOM     49  C   UNL A   1      42.657  25.867  28.954  1.00  0.00     0.031 C 
ATOM     50  C   UNL A   1      44.010  29.483  27.299  1.00  0.00     0.029 A 
ATOM     51  N   UNL A   1      43.305  30.936  28.833  1.00  0.00    -0.354 N 
ATOM     52  C   UNL A   1      44.485  25.819  27.583  1.00  0.00     0.074 A 
ATOM     53  C   UNL A   1      43.495  25.055  28.298  1.00  0.00     0.031 C 
ATOM     54  C   UNL A   1      44.567  30.651  26.996  1.00  0.00     0.029 A 
ATOM     55  C   UNL A   1      44.267  31.573  28.065  1.00  0.00     0.049 A 
ATOM     56  H   UNL A   1      42.719  31.388  29.481  1.00  0.00     0.167 HD
ATOM     57  C   UNL A   1      45.176  25.657  26.412  1.00  0.00     0.037 A 
ATOM     58  C   UNL A   1      45.014  32.673  28.308  1.00  0.00     0.037 A 
ATOM     59  C   UNL A   1      45.941  26.870  26.011  1.00  0.00     0.049 A 
ATOM     60  C   UNL A   1      46.440  32.245  28.119  1.00  0.00     0.074 A 
ATOM     61  C   UNL A   1      46.023  27.615  24.843  1.00  0.00     0.029 A 
ATOM     62  N   UNL A   1      46.676  27.604  26.956  1.00  0.00    -0.354 N 
ATOM     63  N   UNL A   1      46.761  30.986  28.324  1.00  0.00    -0.248 NA
ATOM     64  C   UNL A   1      47.534  33.014  27.533  1.00  0.00     0.031 C 
ATOM     65  C   UNL A   1      46.833  28.767  25.089  1.00  0.00     0.029 A 
ATOM     66  C   UNL A   1      47.264  28.735  26.407  1.00  0.00     0.049 A 
ATOM     67  H   UNL A   1      46.765  27.345  27.902  1.00  0.00     0.167 HD
ATOM     68  C   UNL A   1      47.931  30.725  27.688  1.00  0.00     0.074 A 
ATOM     69  C   UNL A   1      48.430  32.037  27.280  1.00  0.00     0.031 C 
ATOM     70  C   UNL A   1      48.259  29.519  27.139  1.00  0.00     0.037 A 
BRANCH  57  71
ATOM     71  C   UNL A   1      45.071  24.410  25.518  1.00  0.00     0.057 A 
ATOM     72  C   UNL A   1      46.218  23.653  25.198  1.00  0.00     0.134 A 
ATOM     73  C   UNL A   1      43.892  23.899  24.930  1.00  0.00     0.134 A 
ATOM     74  F   UNL A   1      47.439  24.021  25.608  1.00  0.00    -0.206 F 
ATOM     75  C   UNL A   1      46.180  22.471  24.433  1.00  0.00     0.040 A 
ATOM     76  C   UNL A   1      43.827  22.678  24.233  1.00  0.00     0.040 A 
ATOM     77  F   UNL A   1      42.740  24.576  24.920  1.00  0.00    -0.206 F 
ATOM     78  C   UNL A   1      44.977  21.954  23.983  1.00  0.00     0.006 A 
ENDBRANCH  57  71
BRANCH  58  79
ATOM     79  C   UNL A   1      44.329  33.800  28.967  1.00  0.00     0.057 A 
ATOM     80  C   UNL A   1      43.355  34.488  28.216  1.00  0.00     0.134 A 
ATOM     81  C   UNL A   1      44.139  33.779  30.355  1.00  0.00     0.134 A 
ATOM     82  F   UNL A   1      43.457  34.550  26.879  1.00  0.00    -0.206 F 
ATOM     83  C   UNL A   1      42.174  34.977  28.798  1.00  0.00     0.040 A 
ATOM     84  C   UNL A   1      42.948  34.230  30.943  1.00  0.00     0.040 A 
ATOM     85  F   UNL A   1      44.998  33.109  31.138  1.00  0.00    -0.206 F 
ATOM     86  C   UNL A   1      41.945  34.795  30.160  1.00  0.00     0.006 A 
ENDBRANCH  58  79
BRANCH  70  87
ATOM     87  C   UNL A   1      49.558  28.889  27.572  1.00  0.00     0.057 A 
ATOM     88  C   UNL A   1      49.804  28.440  28.880  1.00  0.00     0.134 A 
ATOM     89  C   UNL A   1      50.554  28.576  26.624  1.00  0.00     0.134 A 
ATOM     90  F   UNL A   1      48.933  28.653  29.878  1.00  0.00    -0.206 F 
ATOM     91  C   UNL A   1      50.955  27.723  29.216  1.00  0.00     0.040 A 
ATOM     92  C   UNL A   1      51.687  27.828  26.942  1.00  0.00     0.040 A 
ATOM     93  F   UNL A   1      50.465  28.961  25.343  1.00  0.00    -0.206 F 
ATOM     94  C   UNL A   1      51.894  27.402  28.244  1.00  0.00     0.006 A 
ENDBRANCH  70  87
ENDBRANCH  44  45
ENDBRANCH  37  39
ENDBRANCH  36  37
ENDBRANCH  35  36
ENDBRANCH  34  35
ENDBRANCH  33  34
ENDBRANCH  32  33
ENDBRANCH  31  32
ENDBRANCH  30  31
ENDBRANCH   1  30
TORSDOF 24
ENDMDL
