MODEL 1
REMARK VINA RESULT:     -10.3      0.000      0.000
REMARK SMILES C[C@@H]1CN(C(=O)C[NH+]2CCC(CC(=O)OCCOCCOCCOCCOC(=O)c3ccc(-c4c5nc(c(-c6c(F)cccc6F)c6ccc([nH]6)c(-c6c(F)cccc6F)c6nc(c(-c7c(F)cccc7F)c7ccc4[nH]7)C=C6)C=C5)cc3)CC2)C[C@@H](C)O1
REMARK SMILES IDX 20 1 19 2 18 3 17 4 16 5 15 6 13 7 14 8 12 9 11 10 8 11 9 12
REMARK SMILES IDX 85 13 10 15 84 16 7 17 5 18 1 19 2 20 3 21 89 22 4 23 87 24
REMARK SMILES IDX 86 25 88 26 6 27 21 28 22 29 23 30 24 31 25 32 26 33 27 34
REMARK SMILES IDX 28 35 29 36 30 37 31 38 83 39 32 40 82 41 33 42 34 43 35 44
REMARK SMILES IDX 76 45 36 46 81 47 75 48 77 49 37 50 80 51 74 52 73 53 38 55
REMARK SMILES IDX 64 56 47 57 63 58 48 59 51 60 62 61 78 62 49 63 50 64 61 66
REMARK SMILES IDX 79 67 52 68 39 69 40 70 45 71 41 72 42 73 44 74 46 75 43 76
REMARK SMILES IDX 65 77 66 78 71 79 67 80 68 81 70 82 72 83 69 84 53 85 54 86
REMARK SMILES IDX 59 87 55 88 56 89 58 90 60 91 57 92
REMARK H PARENT 8 14 77 54 51 65
REMARK Flexibility Score: inf
ROOT
ATOM      1  C   UNL A   1      39.607  21.852  26.650  1.00  0.00     0.188 C 
ENDROOT
BRANCH   1   2
ATOM      2  C   UNL A   1      38.576  22.402  25.661  1.00  0.00     0.188 C 
BRANCH   2   3
ATOM      3  O   UNL A   1      37.932  21.501  24.787  1.00  0.00    -0.376 OA
BRANCH   3   4
ATOM      4  C   UNL A   1      36.518  21.473  24.663  1.00  0.00     0.202 C 
BRANCH   4   5
ATOM      5  C   UNL A   1      35.612  20.283  25.027  1.00  0.00     0.261 C 
BRANCH   5   6
ATOM      6  O   UNL A   1      34.279  20.578  25.459  1.00  0.00    -0.463 OA
BRANCH   6   7
ATOM      7  C   UNL A   1      33.323  20.489  24.508  1.00  0.00     0.306 C 
ATOM      8  O   UNL A   1      33.072  19.471  23.869  1.00  0.00    -0.252 OA
BRANCH   7   9
ATOM      9  C   UNL A   1      32.526  21.752  24.282  1.00  0.00     0.126 C 
BRANCH   9  10
ATOM     10  C   UNL A   1      33.193  23.064  23.860  1.00  0.00     0.011 C 
ATOM     11  N   UNL A   1      33.140  25.965  23.302  1.00  0.00    -0.327 N 
ATOM     12  C   UNL A   1      33.572  25.438  24.598  1.00  0.00     0.262 C 
ATOM     13  C   UNL A   1      33.418  24.994  22.231  1.00  0.00     0.262 C 
ATOM     14  H   UNL A   1      33.686  26.807  23.122  1.00  0.00     0.348 HD
ATOM     15  C   UNL A   1      32.913  24.113  24.947  1.00  0.00     0.066 C 
ATOM     16  C   UNL A   1      32.803  23.603  22.478  1.00  0.00     0.066 C 
BRANCH  11  17
ATOM     17  C   UNL A   1      31.728  26.399  23.299  1.00  0.00     0.363 C 
BRANCH  17  18
ATOM     18  C   UNL A   1      31.647  27.920  23.469  1.00  0.00     0.277 C 
ATOM     19  C   UNL A   1      33.307  27.799  26.971  1.00  0.00     0.040 C 
ATOM     20  C   UNL A   1      31.825  28.168  27.064  1.00  0.00     0.135 C 
ATOM     21  C   UNL A   1      30.961  27.642  25.901  1.00  0.00     0.151 C 
ATOM     22  O   UNL A   1      31.647  29.587  27.238  1.00  0.00    -0.372 OA
ATOM     23  N   UNL A   1      31.188  28.413  24.682  1.00  0.00    -0.333 N 
ATOM     24  C   UNL A   1      31.870  30.347  26.029  1.00  0.00     0.135 C 
ATOM     25  C   UNL A   1      30.994  29.845  24.870  1.00  0.00     0.151 C 
ATOM     26  C   UNL A   1      31.547  31.799  26.351  1.00  0.00     0.040 C 
ATOM     27  O   UNL A   1      31.951  28.665  22.533  1.00  0.00    -0.268 OA
ENDBRANCH  17  18
ENDBRANCH  11  17
ENDBRANCH   9  10
ENDBRANCH   7   9
ENDBRANCH   6   7
ENDBRANCH   5   6
ENDBRANCH   4   5
ENDBRANCH   3   4
ENDBRANCH   2   3
ENDBRANCH   1   2
BRANCH   1  28
ATOM     28  O   UNL A   1      40.749  21.219  26.105  1.00  0.00    -0.377 OA
BRANCH  28  29
ATOM     29  C   UNL A   1      41.336  20.114  26.788  1.00  0.00     0.188 C 
BRANCH  29  30
ATOM     30  C   UNL A   1      42.209  19.080  26.046  1.00  0.00     0.188 C 
BRANCH  30  31
ATOM     31  O   UNL A   1      43.031  19.601  25.017  1.00  0.00    -0.376 OA
BRANCH  31  32
ATOM     32  C   UNL A   1      44.142  20.413  25.370  1.00  0.00     0.202 C 
BRANCH  32  33
ATOM     33  C   UNL A   1      44.301  21.761  24.650  1.00  0.00     0.261 C 
BRANCH  33  34
ATOM     34  O   UNL A   1      43.636  22.882  25.259  1.00  0.00    -0.460 OA
BRANCH  34  35
ATOM     35  C   UNL A   1      44.277  24.071  25.255  1.00  0.00     0.338 C 
ATOM     36  O   UNL A   1      45.204  24.409  24.550  1.00  0.00    -0.246 OA
BRANCH  35  37
ATOM     37  C   UNL A   1      43.530  24.985  26.143  1.00  0.00     0.060 A 
ATOM     38  C   UNL A   1      43.955  26.315  26.247  1.00  0.00     0.016 A 
ATOM     39  C   UNL A   1      42.441  24.528  26.886  1.00  0.00     0.016 A 
ATOM     40  C   UNL A   1      43.316  27.183  27.130  1.00  0.00     0.010 A 
ATOM     41  C   UNL A   1      41.814  25.393  27.787  1.00  0.00     0.010 A 
ATOM     42  C   UNL A   1      42.272  26.715  27.939  1.00  0.00    -0.014 A 
BRANCH  42  43
ATOM     43  C   UNL A   1      41.791  27.556  29.062  1.00  0.00     0.031 A 
ATOM     44  C   UNL A   1      42.513  27.479  30.380  1.00  0.00     0.074 A 
ATOM     45  C   UNL A   1      40.758  28.403  28.905  1.00  0.00     0.049 A 
ATOM     46  N   UNL A   1      42.263  28.103  31.502  1.00  0.00    -0.248 NA
ATOM     47  C   UNL A   1      43.675  26.576  30.439  1.00  0.00     0.031 C 
ATOM     48  C   UNL A   1      40.004  28.597  27.669  1.00  0.00     0.029 A 
ATOM     49  N   UNL A   1      40.165  29.257  29.801  1.00  0.00    -0.354 N 
ATOM     50  C   UNL A   1      43.229  27.664  32.401  1.00  0.00     0.074 A 
ATOM     51  C   UNL A   1      44.052  26.702  31.702  1.00  0.00     0.031 C 
ATOM     52  C   UNL A   1      39.036  29.504  27.889  1.00  0.00     0.029 A 
ATOM     53  C   UNL A   1      39.083  29.929  29.287  1.00  0.00     0.049 A 
ATOM     54  H   UNL A   1      40.486  29.377  30.724  1.00  0.00     0.167 HD
ATOM     55  C   UNL A   1      43.416  28.036  33.690  1.00  0.00     0.037 A 
ATOM     56  C   UNL A   1      38.216  30.768  29.887  1.00  0.00     0.037 A 
ATOM     57  C   UNL A   1      42.596  28.996  34.382  1.00  0.00     0.049 A 
ATOM     58  C   UNL A   1      38.406  31.111  31.342  1.00  0.00     0.074 A 
ATOM     59  C   UNL A   1      42.723  29.458  35.680  1.00  0.00     0.029 A 
ATOM     60  N   UNL A   1      41.490  29.630  33.837  1.00  0.00    -0.354 N 
ATOM     61  N   UNL A   1      39.343  30.721  32.173  1.00  0.00    -0.248 NA
ATOM     62  C   UNL A   1      37.416  32.018  31.944  1.00  0.00     0.031 C 
ATOM     63  C   UNL A   1      41.658  30.325  35.942  1.00  0.00     0.029 A 
ATOM     64  C   UNL A   1      40.907  30.455  34.785  1.00  0.00     0.049 A 
ATOM     65  H   UNL A   1      41.168  29.512  32.914  1.00  0.00     0.167 HD
ATOM     66  C   UNL A   1      39.074  31.355  33.381  1.00  0.00     0.074 A 
ATOM     67  C   UNL A   1      37.898  32.172  33.169  1.00  0.00     0.031 C 
ATOM     68  C   UNL A   1      39.738  31.268  34.560  1.00  0.00     0.037 A 
BRANCH  55  69
ATOM     69  C   UNL A   1      44.532  27.380  34.449  1.00  0.00     0.057 A 
ATOM     70  C   UNL A   1      45.809  27.949  34.535  1.00  0.00     0.134 A 
ATOM     71  C   UNL A   1      44.308  26.188  35.150  1.00  0.00     0.134 A 
ATOM     72  F   UNL A   1      46.095  29.082  33.876  1.00  0.00    -0.206 F 
ATOM     73  C   UNL A   1      46.828  27.347  35.276  1.00  0.00     0.040 A 
ATOM     74  C   UNL A   1      45.310  25.590  35.916  1.00  0.00     0.040 A 
ATOM     75  F   UNL A   1      43.106  25.592  35.113  1.00  0.00    -0.206 F 
ATOM     76  C   UNL A   1      46.576  26.168  35.977  1.00  0.00     0.006 A 
ENDBRANCH  55  69
BRANCH  56  77
ATOM     77  C   UNL A   1      37.065  31.326  29.128  1.00  0.00     0.057 A 
ATOM     78  C   UNL A   1      37.074  32.640  28.646  1.00  0.00     0.134 A 
ATOM     79  C   UNL A   1      35.906  30.569  28.910  1.00  0.00     0.134 A 
ATOM     80  F   UNL A   1      38.143  33.425  28.846  1.00  0.00    -0.206 F 
ATOM     81  C   UNL A   1      35.965  33.190  28.001  1.00  0.00     0.040 A 
ATOM     82  C   UNL A   1      34.802  31.096  28.238  1.00  0.00     0.040 A 
ATOM     83  F   UNL A   1      35.832  29.303  29.346  1.00  0.00    -0.206 F 
ATOM     84  C   UNL A   1      34.826  32.416  27.791  1.00  0.00     0.006 A 
ENDBRANCH  56  77
BRANCH  68  85
ATOM     85  C   UNL A   1      39.233  32.108  35.700  1.00  0.00     0.057 A 
ATOM     86  C   UNL A   1      39.624  33.442  35.872  1.00  0.00     0.134 A 
ATOM     87  C   UNL A   1      38.318  31.581  36.622  1.00  0.00     0.134 A 
ATOM     88  F   UNL A   1      40.505  34.006  35.031  1.00  0.00    -0.206 F 
ATOM     89  C   UNL A   1      39.153  34.211  36.938  1.00  0.00     0.040 A 
ATOM     90  C   UNL A   1      37.814  32.350  37.673  1.00  0.00     0.040 A 
ATOM     91  F   UNL A   1      37.889  30.316  36.511  1.00  0.00    -0.206 F 
ATOM     92  C   UNL A   1      38.239  33.666  37.838  1.00  0.00     0.006 A 
ENDBRANCH  68  85
ENDBRANCH  42  43
ENDBRANCH  35  37
ENDBRANCH  34  35
ENDBRANCH  33  34
ENDBRANCH  32  33
ENDBRANCH  31  32
ENDBRANCH  30  31
ENDBRANCH  29  30
ENDBRANCH  28  29
ENDBRANCH   1  28
TORSDOF 23
ENDMDL
MODEL 2
REMARK VINA RESULT:      -9.8      1.277      6.217
REMARK SMILES C[C@@H]1CN(C(=O)C[NH+]2CCC(CC(=O)OCCOCCOCCOCCOC(=O)c3ccc(-c4c5nc(c(-c6c(F)cccc6F)c6ccc([nH]6)c(-c6c(F)cccc6F)c6nc(c(-c7c(F)cccc7F)c7ccc4[nH]7)C=C6)C=C5)cc3)CC2)C[C@@H](C)O1
REMARK SMILES IDX 20 1 19 2 18 3 17 4 16 5 15 6 13 7 14 8 12 9 11 10 8 11 9 12
REMARK SMILES IDX 85 13 10 15 84 16 7 17 5 18 1 19 2 20 3 21 89 22 4 23 87 24
REMARK SMILES IDX 86 25 88 26 6 27 21 28 22 29 23 30 24 31 25 32 26 33 27 34
REMARK SMILES IDX 28 35 29 36 30 37 31 38 83 39 32 40 82 41 33 42 34 43 35 44
REMARK SMILES IDX 76 45 36 46 81 47 75 48 77 49 37 50 80 51 74 52 73 53 38 55
REMARK SMILES IDX 64 56 47 57 63 58 48 59 51 60 62 61 78 62 49 63 50 64 61 66
REMARK SMILES IDX 79 67 52 68 39 69 40 70 45 71 41 72 42 73 44 74 46 75 43 76
REMARK SMILES IDX 65 77 66 78 71 79 67 80 68 81 70 82 72 83 69 84 53 85 54 86
REMARK SMILES IDX 59 87 55 88 56 89 58 90 60 91 57 92
REMARK H PARENT 8 14 77 54 51 65
REMARK Flexibility Score: inf
ROOT
ATOM      1  C   UNL A   1      38.286  22.395  26.101  1.00  0.00     0.188 C 
ENDROOT
BRANCH   1   2
ATOM      2  C   UNL A   1      37.254  21.775  25.155  1.00  0.00     0.188 C 
BRANCH   2   3
ATOM      3  O   UNL A   1      36.167  21.067  25.712  1.00  0.00    -0.376 OA
BRANCH   3   4
ATOM      4  C   UNL A   1      34.825  21.444  25.447  1.00  0.00     0.202 C 
BRANCH   4   5
ATOM      5  C   UNL A   1      33.792  20.595  24.685  1.00  0.00     0.261 C 
BRANCH   5   6
ATOM      6  O   UNL A   1      32.486  21.154  24.501  1.00  0.00    -0.463 OA
BRANCH   6   7
ATOM      7  C   UNL A   1      32.205  21.582  23.250  1.00  0.00     0.306 C 
ATOM      8  O   UNL A   1      31.974  20.841  22.298  1.00  0.00    -0.252 OA
BRANCH   7   9
ATOM      9  C   UNL A   1      32.160  23.082  23.082  1.00  0.00     0.126 C 
BRANCH   9  10
ATOM     10  C   UNL A   1      31.952  24.023  24.272  1.00  0.00     0.011 C 
ATOM     11  N   UNL A   1      31.717  26.713  25.471  1.00  0.00    -0.327 N 
ATOM     12  C   UNL A   1      30.538  25.939  25.080  1.00  0.00     0.262 C 
ATOM     13  C   UNL A   1      32.826  25.816  25.839  1.00  0.00     0.262 C 
ATOM     14  H   UNL A   1      31.460  27.258  26.293  1.00  0.00     0.348 HD
ATOM     15  C   UNL A   1      30.811  24.990  23.924  1.00  0.00     0.066 C 
ATOM     16  C   UNL A   1      33.190  24.798  24.741  1.00  0.00     0.066 C 
BRANCH  11  17
ATOM     17  C   UNL A   1      32.123  27.700  24.450  1.00  0.00     0.363 C 
BRANCH  17  18
ATOM     18  C   UNL A   1      31.359  29.013  24.657  1.00  0.00     0.277 C 
ATOM     19  C   UNL A   1      27.999  27.448  23.518  1.00  0.00     0.040 C 
ATOM     20  C   UNL A   1      28.529  28.450  22.490  1.00  0.00     0.135 C 
ATOM     21  C   UNL A   1      30.060  28.632  22.505  1.00  0.00     0.151 C 
ATOM     22  O   UNL A   1      27.859  29.720  22.600  1.00  0.00    -0.372 OA
ATOM     23  N   UNL A   1      30.488  29.420  23.657  1.00  0.00    -0.333 N 
ATOM     24  C   UNL A   1      28.286  30.499  23.740  1.00  0.00     0.135 C 
ATOM     25  C   UNL A   1      29.809  30.706  23.750  1.00  0.00     0.151 C 
ATOM     26  C   UNL A   1      27.567  31.838  23.658  1.00  0.00     0.040 C 
ATOM     27  O   UNL A   1      31.552  29.688  25.672  1.00  0.00    -0.268 OA
ENDBRANCH  17  18
ENDBRANCH  11  17
ENDBRANCH   9  10
ENDBRANCH   7   9
ENDBRANCH   6   7
ENDBRANCH   5   6
ENDBRANCH   4   5
ENDBRANCH   3   4
ENDBRANCH   2   3
ENDBRANCH   1   2
BRANCH   1  28
ATOM     28  O   UNL A   1      39.643  22.064  25.880  1.00  0.00    -0.377 OA
BRANCH  28  29
ATOM     29  C   UNL A   1      40.510  21.858  26.993  1.00  0.00     0.188 C 
BRANCH  29  30
ATOM     30  C   UNL A   1      41.657  20.828  26.941  1.00  0.00     0.188 C 
BRANCH  30  31
ATOM     31  O   UNL A   1      42.388  20.789  25.728  1.00  0.00    -0.376 OA
BRANCH  31  32
ATOM     32  C   UNL A   1      43.668  21.402  25.676  1.00  0.00     0.202 C 
BRANCH  32  33
ATOM     33  C   UNL A   1      43.896  22.496  24.621  1.00  0.00     0.261 C 
BRANCH  33  34
ATOM     34  O   UNL A   1      43.259  23.760  24.877  1.00  0.00    -0.460 OA
BRANCH  34  35
ATOM     35  C   UNL A   1      44.050  24.813  25.177  1.00  0.00     0.338 C 
ATOM     36  O   UNL A   1      45.089  25.134  24.640  1.00  0.00    -0.246 OA
BRANCH  35  37
ATOM     37  C   UNL A   1      43.334  25.642  26.168  1.00  0.00     0.060 A 
ATOM     38  C   UNL A   1      43.781  26.950  26.395  1.00  0.00     0.016 A 
ATOM     39  C   UNL A   1      42.255  25.126  26.886  1.00  0.00     0.016 A 
ATOM     40  C   UNL A   1      43.173  27.732  27.375  1.00  0.00     0.010 A 
ATOM     41  C   UNL A   1      41.660  25.903  27.883  1.00  0.00     0.010 A 
ATOM     42  C   UNL A   1      42.140  27.197  28.156  1.00  0.00    -0.014 A 
BRANCH  42  43
ATOM     43  C   UNL A   1      41.695  27.927  29.369  1.00  0.00     0.031 A 
ATOM     44  C   UNL A   1      40.461  28.785  29.282  1.00  0.00     0.074 A 
ATOM     45  C   UNL A   1      42.348  27.798  30.538  1.00  0.00     0.049 A 
ATOM     46  N   UNL A   1      39.897  29.525  30.200  1.00  0.00    -0.248 NA
ATOM     47  C   UNL A   1      39.772  28.810  27.981  1.00  0.00     0.031 C 
ATOM     48  C   UNL A   1      43.529  26.968  30.759  1.00  0.00     0.029 A 
ATOM     49  N   UNL A   1      42.105  28.375  31.759  1.00  0.00    -0.354 N 
ATOM     50  C   UNL A   1      38.794  30.109  29.590  1.00  0.00     0.074 A 
ATOM     51  C   UNL A   1      38.782  29.659  28.215  1.00  0.00     0.031 C 
ATOM     52  C   UNL A   1      43.919  27.101  32.039  1.00  0.00     0.029 A 
ATOM     53  C   UNL A   1      43.035  28.047  32.716  1.00  0.00     0.049 A 
ATOM     54  H   UNL A   1      41.338  28.967  31.933  1.00  0.00     0.167 HD
ATOM     55  C   UNL A   1      37.870  30.939  30.128  1.00  0.00     0.037 A 
ATOM     56  C   UNL A   1      43.169  28.486  33.983  1.00  0.00     0.037 A 
ATOM     57  C   UNL A   1      37.882  31.383  31.498  1.00  0.00     0.049 A 
ATOM     58  C   UNL A   1      42.166  29.465  34.537  1.00  0.00     0.074 A 
ATOM     59  C   UNL A   1      36.973  32.203  32.144  1.00  0.00     0.029 A 
ATOM     60  N   UNL A   1      38.857  31.056  32.426  1.00  0.00    -0.354 N 
ATOM     61  N   UNL A   1      41.105  29.981  33.964  1.00  0.00    -0.248 NA
ATOM     62  C   UNL A   1      42.377  29.919  35.920  1.00  0.00     0.031 C 
ATOM     63  C   UNL A   1      37.432  32.423  33.447  1.00  0.00     0.029 A 
ATOM     64  C   UNL A   1      38.589  31.685  33.632  1.00  0.00     0.049 A 
ATOM     65  H   UNL A   1      39.625  30.464  32.255  1.00  0.00     0.167 HD
ATOM     66  C   UNL A   1      40.509  30.795  34.922  1.00  0.00     0.074 A 
ATOM     67  C   UNL A   1      41.315  30.686  36.119  1.00  0.00     0.031 C 
ATOM     68  C   UNL A   1      39.397  31.564  34.820  1.00  0.00     0.037 A 
BRANCH  55  69
ATOM     69  C   UNL A   1      36.782  31.449  29.229  1.00  0.00     0.057 A 
ATOM     70  C   UNL A   1      35.680  30.662  28.871  1.00  0.00     0.134 A 
ATOM     71  C   UNL A   1      36.813  32.768  28.757  1.00  0.00     0.134 A 
ATOM     72  F   UNL A   1      35.596  29.385  29.277  1.00  0.00    -0.206 F 
ATOM     73  C   UNL A   1      34.657  31.162  28.063  1.00  0.00     0.040 A 
ATOM     74  C   UNL A   1      35.783  33.289  27.972  1.00  0.00     0.040 A 
ATOM     75  F   UNL A   1      37.838  33.578  29.065  1.00  0.00    -0.206 F 
ATOM     76  C   UNL A   1      34.703  32.483  27.620  1.00  0.00     0.006 A 
ENDBRANCH  55  69
BRANCH  56  77
ATOM     77  C   UNL A   1      44.313  28.032  34.817  1.00  0.00     0.057 A 
ATOM     78  C   UNL A   1      45.513  28.750  34.869  1.00  0.00     0.134 A 
ATOM     79  C   UNL A   1      44.249  26.836  35.545  1.00  0.00     0.134 A 
ATOM     80  F   UNL A   1      45.648  29.890  34.172  1.00  0.00    -0.206 F 
ATOM     81  C   UNL A   1      46.615  28.286  35.589  1.00  0.00     0.040 A 
ATOM     82  C   UNL A   1      45.332  26.376  36.296  1.00  0.00     0.040 A 
ATOM     83  F   UNL A   1      43.130  26.099  35.539  1.00  0.00    -0.206 F 
ATOM     84  C   UNL A   1      46.524  27.098  36.310  1.00  0.00     0.006 A 
ENDBRANCH  56  77
BRANCH  68  85
ATOM     85  C   UNL A   1      38.963  32.316  36.046  1.00  0.00     0.057 A 
ATOM     86  C   UNL A   1      38.174  31.725  37.042  1.00  0.00     0.134 A 
ATOM     87  C   UNL A   1      39.367  33.643  36.249  1.00  0.00     0.134 A 
ATOM     88  F   UNL A   1      37.745  30.461  36.907  1.00  0.00    -0.206 F 
ATOM     89  C   UNL A   1      37.772  32.435  38.175  1.00  0.00     0.040 A 
ATOM     90  C   UNL A   1      39.000  34.353  37.393  1.00  0.00     0.040 A 
ATOM     91  F   UNL A   1      40.135  34.268  35.345  1.00  0.00    -0.206 F 
ATOM     92  C   UNL A   1      38.192  33.752  38.356  1.00  0.00     0.006 A 
ENDBRANCH  68  85
ENDBRANCH  42  43
ENDBRANCH  35  37
ENDBRANCH  34  35
ENDBRANCH  33  34
ENDBRANCH  32  33
ENDBRANCH  31  32
ENDBRANCH  30  31
ENDBRANCH  29  30
ENDBRANCH  28  29
ENDBRANCH   1  28
TORSDOF 23
ENDMDL
MODEL 3
REMARK VINA RESULT:      -9.2      4.533     10.874
REMARK SMILES C[C@@H]1CN(C(=O)C[NH+]2CCC(CC(=O)OCCOCCOCCOCCOC(=O)c3ccc(-c4c5nc(c(-c6c(F)cccc6F)c6ccc([nH]6)c(-c6c(F)cccc6F)c6nc(c(-c7c(F)cccc7F)c7ccc4[nH]7)C=C6)C=C5)cc3)CC2)C[C@@H](C)O1
REMARK SMILES IDX 20 1 19 2 18 3 17 4 16 5 15 6 13 7 14 8 12 9 11 10 8 11 9 12
REMARK SMILES IDX 85 13 10 15 84 16 7 17 5 18 1 19 2 20 3 21 89 22 4 23 87 24
REMARK SMILES IDX 86 25 88 26 6 27 21 28 22 29 23 30 24 31 25 32 26 33 27 34
REMARK SMILES IDX 28 35 29 36 30 37 31 38 83 39 32 40 82 41 33 42 34 43 35 44
REMARK SMILES IDX 76 45 36 46 81 47 75 48 77 49 37 50 80 51 74 52 73 53 38 55
REMARK SMILES IDX 64 56 47 57 63 58 48 59 51 60 62 61 78 62 49 63 50 64 61 66
REMARK SMILES IDX 79 67 52 68 39 69 40 70 45 71 41 72 42 73 44 74 46 75 43 76
REMARK SMILES IDX 65 77 66 78 71 79 67 80 68 81 70 82 72 83 69 84 53 85 54 86
REMARK SMILES IDX 59 87 55 88 56 89 58 90 60 91 57 92
REMARK H PARENT 8 14 77 54 51 65
REMARK Flexibility Score: inf
ROOT
ATOM      1  C   UNL A   1      32.878  36.318  30.320  1.00  0.00     0.188 C 
ENDROOT
BRANCH   1   2
ATOM      2  C   UNL A   1      33.230  35.882  28.895  1.00  0.00     0.188 C 
BRANCH   2   3
ATOM      3  O   UNL A   1      32.785  34.620  28.447  1.00  0.00    -0.376 OA
BRANCH   3   4
ATOM      4  C   UNL A   1      33.699  33.574  28.153  1.00  0.00     0.202 C 
BRANCH   4   5
ATOM      5  C   UNL A   1      33.328  32.097  27.938  1.00  0.00     0.261 C 
BRANCH   5   6
ATOM      6  O   UNL A   1      34.323  31.245  27.359  1.00  0.00    -0.463 OA
BRANCH   6   7
ATOM      7  C   UNL A   1      33.964  29.952  27.199  1.00  0.00     0.306 C 
ATOM      8  O   UNL A   1      34.755  29.016  27.120  1.00  0.00    -0.252 OA
BRANCH   7   9
ATOM      9  C   UNL A   1      32.475  29.703  27.151  1.00  0.00     0.126 C 
BRANCH   9  10
ATOM     10  C   UNL A   1      31.816  28.962  25.985  1.00  0.00     0.011 C 
ATOM     11  N   UNL A   1      31.678  26.745  24.037  1.00  0.00    -0.327 N 
ATOM     12  C   UNL A   1      30.929  26.713  25.294  1.00  0.00     0.262 C 
ATOM     13  C   UNL A   1      31.876  28.133  23.589  1.00  0.00     0.262 C 
ATOM     14  H   UNL A   1      31.115  26.259  23.339  1.00  0.00     0.348 HD
ATOM     15  C   UNL A   1      31.605  27.500  26.405  1.00  0.00     0.066 C 
ATOM     16  C   UNL A   1      32.551  29.034  24.640  1.00  0.00     0.066 C 
BRANCH  11  17
ATOM     17  C   UNL A   1      32.952  26.002  24.107  1.00  0.00     0.363 C 
BRANCH  17  18
ATOM     18  C   UNL A   1      32.764  24.584  23.555  1.00  0.00     0.277 C 
ATOM     19  C   UNL A   1      31.522  23.226  26.968  1.00  0.00     0.040 C 
ATOM     20  C   UNL A   1      32.910  22.685  26.620  1.00  0.00     0.135 C 
ATOM     21  C   UNL A   1      33.734  23.593  25.686  1.00  0.00     0.151 C 
ATOM     22  O   UNL A   1      32.836  21.343  26.100  1.00  0.00    -0.372 OA
ATOM     23  N   UNL A   1      33.243  23.525  24.312  1.00  0.00    -0.333 N 
ATOM     24  C   UNL A   1      32.352  21.279  24.740  1.00  0.00     0.135 C 
ATOM     25  C   UNL A   1      33.183  22.163  23.797  1.00  0.00     0.151 C 
ATOM     26  C   UNL A   1      32.428  19.822  24.309  1.00  0.00     0.040 C 
ATOM     27  O   UNL A   1      32.231  24.414  22.455  1.00  0.00    -0.268 OA
ENDBRANCH  17  18
ENDBRANCH  11  17
ENDBRANCH   9  10
ENDBRANCH   7   9
ENDBRANCH   6   7
ENDBRANCH   5   6
ENDBRANCH   4   5
ENDBRANCH   3   4
ENDBRANCH   2   3
ENDBRANCH   1   2
BRANCH   1  28
ATOM     28  O   UNL A   1      32.657  35.295  31.272  1.00  0.00    -0.377 OA
BRANCH  28  29
ATOM     29  C   UNL A   1      33.352  35.326  32.516  1.00  0.00     0.188 C 
BRANCH  29  30
ATOM     30  C   UNL A   1      34.871  35.582  32.584  1.00  0.00     0.188 C 
BRANCH  30  31
ATOM     31  O   UNL A   1      35.692  34.484  32.227  1.00  0.00    -0.376 OA
BRANCH  31  32
ATOM     32  C   UNL A   1      35.239  33.583  31.228  1.00  0.00     0.202 C 
BRANCH  32  33
ATOM     33  C   UNL A   1      35.185  32.089  31.582  1.00  0.00     0.261 C 
BRANCH  33  34
ATOM     34  O   UNL A   1      36.338  31.313  31.213  1.00  0.00    -0.460 OA
BRANCH  34  35
ATOM     35  C   UNL A   1      37.390  31.308  32.060  1.00  0.00     0.338 C 
ATOM     36  O   UNL A   1      37.403  31.644  33.225  1.00  0.00    -0.246 OA
BRANCH  35  37
ATOM     37  C   UNL A   1      38.513  30.635  31.376  1.00  0.00     0.060 A 
ATOM     38  C   UNL A   1      39.358  29.808  32.127  1.00  0.00     0.016 A 
ATOM     39  C   UNL A   1      38.747  30.842  30.016  1.00  0.00     0.016 A 
ATOM     40  C   UNL A   1      40.467  29.218  31.525  1.00  0.00     0.010 A 
ATOM     41  C   UNL A   1      39.873  30.267  29.419  1.00  0.00     0.010 A 
ATOM     42  C   UNL A   1      40.757  29.481  30.180  1.00  0.00    -0.014 A 
BRANCH  42  43
ATOM     43  C   UNL A   1      42.077  29.083  29.631  1.00  0.00     0.031 A 
ATOM     44  C   UNL A   1      42.235  27.696  29.069  1.00  0.00     0.074 A 
ATOM     45  C   UNL A   1      43.105  29.949  29.592  1.00  0.00     0.049 A 
ATOM     46  N   UNL A   1      43.292  27.122  28.555  1.00  0.00    -0.248 NA
ATOM     47  C   UNL A   1      41.036  26.840  29.090  1.00  0.00     0.031 C 
ATOM     48  C   UNL A   1      43.066  31.330  30.068  1.00  0.00     0.029 A 
ATOM     49  N   UNL A   1      44.388  29.785  29.133  1.00  0.00    -0.354 N 
ATOM     50  C   UNL A   1      42.891  25.840  28.199  1.00  0.00     0.074 A 
ATOM     51  C   UNL A   1      41.501  25.710  28.580  1.00  0.00     0.031 C 
ATOM     52  C   UNL A   1      44.277  31.885  29.889  1.00  0.00     0.029 A 
ATOM     53  C   UNL A   1      45.183  30.891  29.316  1.00  0.00     0.049 A 
ATOM     54  H   UNL A   1      44.708  28.956  28.711  1.00  0.00     0.167 HD
ATOM     55  C   UNL A   1      43.613  24.863  27.603  1.00  0.00     0.037 A 
ATOM     56  C   UNL A   1      46.496  31.066  29.074  1.00  0.00     0.037 A 
ATOM     57  C   UNL A   1      44.995  24.996  27.223  1.00  0.00     0.049 A 
ATOM     58  C   UNL A   1      47.295  29.938  28.473  1.00  0.00     0.074 A 
ATOM     59  C   UNL A   1      45.806  24.071  26.589  1.00  0.00     0.029 A 
ATOM     60  N   UNL A   1      45.774  26.119  27.455  1.00  0.00    -0.354 N 
ATOM     61  N   UNL A   1      46.897  28.743  28.105  1.00  0.00    -0.248 NA
ATOM     62  C   UNL A   1      48.728  30.185  28.250  1.00  0.00     0.031 C 
ATOM     63  C   UNL A   1      47.093  24.610  26.492  1.00  0.00     0.029 A 
ATOM     64  C   UNL A   1      47.066  25.897  27.005  1.00  0.00     0.049 A 
ATOM     65  H   UNL A   1      45.457  26.950  27.876  1.00  0.00     0.167 HD
ATOM     66  C   UNL A   1      48.020  28.110  27.583  1.00  0.00     0.074 A 
ATOM     67  C   UNL A   1      49.108  29.061  27.661  1.00  0.00     0.031 C 
ATOM     68  C   UNL A   1      48.140  26.854  27.084  1.00  0.00     0.037 A 
BRANCH  55  69
ATOM     69  C   UNL A   1      42.934  23.549  27.350  1.00  0.00     0.057 A 
ATOM     70  C   UNL A   1      42.795  22.577  28.350  1.00  0.00     0.134 A 
ATOM     71  C   UNL A   1      42.362  23.275  26.101  1.00  0.00     0.134 A 
ATOM     72  F   UNL A   1      43.332  22.769  29.565  1.00  0.00    -0.206 F 
ATOM     73  C   UNL A   1      42.128  21.374  28.111  1.00  0.00     0.040 A 
ATOM     74  C   UNL A   1      41.669  22.088  25.857  1.00  0.00     0.040 A 
ATOM     75  F   UNL A   1      42.455  24.164  25.100  1.00  0.00    -0.206 F 
ATOM     76  C   UNL A   1      41.554  21.132  26.864  1.00  0.00     0.006 A 
ENDBRANCH  55  69
BRANCH  56  77
ATOM     77  C   UNL A   1      47.159  32.351  29.424  1.00  0.00     0.057 A 
ATOM     78  C   UNL A   1      47.675  32.584  30.704  1.00  0.00     0.134 A 
ATOM     79  C   UNL A   1      47.247  33.397  28.496  1.00  0.00     0.134 A 
ATOM     80  F   UNL A   1      47.597  31.632  31.647  1.00  0.00    -0.206 F 
ATOM     81  C   UNL A   1      48.228  33.816  31.058  1.00  0.00     0.040 A 
ATOM     82  C   UNL A   1      47.827  34.623  28.826  1.00  0.00     0.040 A 
ATOM     83  F   UNL A   1      46.772  33.240  27.252  1.00  0.00    -0.206 F 
ATOM     84  C   UNL A   1      48.310  34.838  30.115  1.00  0.00     0.006 A 
ENDBRANCH  56  77
BRANCH  68  85
ATOM     85  C   UNL A   1      49.485  26.451  26.547  1.00  0.00     0.057 A 
ATOM     86  C   UNL A   1      50.380  25.669  27.290  1.00  0.00     0.134 A 
ATOM     87  C   UNL A   1      49.877  26.825  25.254  1.00  0.00     0.134 A 
ATOM     88  F   UNL A   1      50.072  25.285  28.537  1.00  0.00    -0.206 F 
ATOM     89  C   UNL A   1      51.628  25.305  26.782  1.00  0.00     0.040 A 
ATOM     90  C   UNL A   1      51.109  26.440  24.723  1.00  0.00     0.040 A 
ATOM     91  F   UNL A   1      49.065  27.561  24.481  1.00  0.00    -0.206 F 
ATOM     92  C   UNL A   1      51.992  25.685  25.491  1.00  0.00     0.006 A 
ENDBRANCH  68  85
ENDBRANCH  42  43
ENDBRANCH  35  37
ENDBRANCH  34  35
ENDBRANCH  33  34
ENDBRANCH  32  33
ENDBRANCH  31  32
ENDBRANCH  30  31
ENDBRANCH  29  30
ENDBRANCH  28  29
ENDBRANCH   1  28
TORSDOF 23
ENDMDL
