MODEL 1
REMARK VINA RESULT:      -8.2      0.000      0.000
REMARK SMILES CC1CC[NH+]([C@H](c2ccc(F)cc2)c2ccc([C@@H](C)C(=O)OCCOCCOCCOCCOC(=O)c3ccc(-c4c5nc(c(-c6c(F)cccc6F)c6ccc([nH]6)c(-c6c(F)cccc6F)c6nc(c(-c7c(F)cccc7F)c7ccc4[nH]7)C=C6)C=C5)cc3)cc2-c2ccc(C(F)(F)F)cc2)CC1
REMARK SMILES IDX 27 1 26 2 25 3 24 4 23 5 22 6 20 7 21 8 18 9 19 10 17 11
REMARK SMILES IDX 14 12 15 13 92 14 16 15 91 16 6 17 5 18 1 19 2 20 3 21
REMARK SMILES IDX 104 22 4 23 103 24 7 26 8 27 13 28 9 29 12 30 10 31 11 32
REMARK SMILES IDX 93 33 94 34 102 35 95 36 101 37 96 38 97 39 98 40 99 41
REMARK SMILES IDX 100 42 28 43 29 44 30 45 31 46 32 47 33 48 34 49 35 50 36 51
REMARK SMILES IDX 37 52 38 53 90 54 39 55 89 56 40 57 41 58 42 59 83 60 43 61
REMARK SMILES IDX 88 62 82 63 84 64 44 65 87 66 81 67 80 68 45 70 71 71 54 72
REMARK SMILES IDX 70 73 55 74 58 75 69 76 85 77 56 78 57 79 68 81 86 82 59 83
REMARK SMILES IDX 46 84 47 85 52 86 48 87 49 88 51 89 53 90 50 91 72 92 73 93
REMARK SMILES IDX 78 94 74 95 75 96 77 97 79 98 76 99 60 100 61 101 66 102
REMARK SMILES IDX 62 103 63 104 65 105 67 106 64 107
REMARK H PARENT 5 25 84 69 58 80
REMARK Flexibility Score: inf
ROOT
ATOM      1  C   UNL A   1      45.439  20.640  25.240  1.00  0.00     0.188 C 
ENDROOT
BRANCH   1   2
ATOM      2  C   UNL A   1      46.058  21.965  24.765  1.00  0.00     0.188 C 
BRANCH   2   3
ATOM      3  O   UNL A   1      45.641  23.211  25.307  1.00  0.00    -0.376 OA
BRANCH   3   4
ATOM      4  C   UNL A   1      46.562  24.278  25.465  1.00  0.00     0.202 C 
BRANCH   4   5
ATOM      5  C   UNL A   1      46.275  25.661  24.854  1.00  0.00     0.261 C 
BRANCH   5   6
ATOM      6  O   UNL A   1      47.255  26.180  23.934  1.00  0.00    -0.463 OA
BRANCH   6   7
ATOM      7  C   UNL A   1      47.773  27.396  24.230  1.00  0.00     0.313 C 
ATOM      8  O   UNL A   1      47.472  28.424  23.624  1.00  0.00    -0.252 OA
BRANCH   7   9
ATOM      9  C   UNL A   1      48.821  27.418  25.345  1.00  0.00     0.126 C 
ATOM     10  C   UNL A   1      49.917  26.427  24.964  1.00  0.00     0.025 C 
BRANCH   9  11
ATOM     11  C   UNL A   1      48.408  27.254  26.809  1.00  0.00    -0.033 A 
ATOM     12  C   UNL A   1      47.544  26.991  29.571  1.00  0.00     0.022 A 
ATOM     13  C   UNL A   1      48.413  26.073  28.933  1.00  0.00     0.011 A 
ATOM     14  C   UNL A   1      47.085  28.073  28.768  1.00  0.00    -0.009 A 
ATOM     15  C   UNL A   1      48.855  26.208  27.606  1.00  0.00     0.005 A 
ATOM     16  C   UNL A   1      47.528  28.178  27.414  1.00  0.00     0.013 A 
BRANCH  12  17
ATOM     17  C   UNL A   1      47.229  26.883  31.106  1.00  0.00     0.247 C 
BRANCH  17  18
ATOM     18  N   UNL A   1      48.390  26.805  32.061  1.00  0.00    -0.325 N 
ATOM     19  C   UNL A   1      52.497  27.603  33.442  1.00  0.00     0.008 C 
ATOM     20  C   UNL A   1      51.164  27.536  32.703  1.00  0.00    -0.003 C 
ATOM     21  C   UNL A   1      50.014  28.139  33.502  1.00  0.00     0.065 C 
ATOM     22  C   UNL A   1      50.798  26.092  32.420  1.00  0.00     0.065 C 
ATOM     23  C   UNL A   1      48.699  28.084  32.711  1.00  0.00     0.263 C 
ATOM     24  C   UNL A   1      49.510  25.977  31.617  1.00  0.00     0.263 C 
ATOM     25  H   UNL A   1      48.066  26.240  32.845  1.00  0.00     0.348 HD
ENDBRANCH  17  18
BRANCH  17  26
ATOM     26  C   UNL A   1      46.128  25.872  31.510  1.00  0.00     0.014 A 
ATOM     27  C   UNL A   1      45.366  25.183  30.556  1.00  0.00     0.013 A 
ATOM     28  C   UNL A   1      45.908  25.552  32.866  1.00  0.00     0.013 A 
ATOM     29  C   UNL A   1      44.458  24.189  30.936  1.00  0.00     0.040 A 
ATOM     30  C   UNL A   1      44.939  24.617  33.249  1.00  0.00     0.040 A 
ATOM     31  C   UNL A   1      44.230  23.934  32.277  1.00  0.00     0.123 A 
ATOM     32  F   UNL A   1      43.322  23.014  32.629  1.00  0.00    -0.207 F 
ENDBRANCH  17  26
ENDBRANCH  12  17
BRANCH  14  33
ATOM     33  C   UNL A   1      46.146  29.107  29.251  1.00  0.00    -0.018 A 
ATOM     34  C   UNL A   1      45.071  29.521  28.446  1.00  0.00     0.009 A 
ATOM     35  C   UNL A   1      46.297  29.709  30.509  1.00  0.00     0.009 A 
ATOM     36  C   UNL A   1      44.144  30.464  28.905  1.00  0.00     0.014 A 
ATOM     37  C   UNL A   1      45.363  30.643  30.977  1.00  0.00     0.014 A 
ATOM     38  C   UNL A   1      44.267  31.017  30.187  1.00  0.00     0.056 A 
BRANCH  38  39
ATOM     39  C   UNL A   1      43.235  31.997  30.692  1.00  0.00     0.416 C 
ATOM     40  F   UNL A   1      42.881  31.762  31.985  1.00  0.00    -0.166 F 
ATOM     41  F   UNL A   1      43.672  33.287  30.652  1.00  0.00    -0.166 F 
ATOM     42  F   UNL A   1      42.075  31.980  29.978  1.00  0.00    -0.166 F 
ENDBRANCH  38  39
ENDBRANCH  14  33
ENDBRANCH   9  11
ENDBRANCH   7   9
ENDBRANCH   6   7
ENDBRANCH   5   6
ENDBRANCH   4   5
ENDBRANCH   3   4
ENDBRANCH   2   3
ENDBRANCH   1   2
BRANCH   1  43
ATOM     43  O   UNL A   1      44.610  19.989  24.297  1.00  0.00    -0.377 OA
BRANCH  43  44
ATOM     44  C   UNL A   1      43.938  18.830  24.764  1.00  0.00     0.188 C 
BRANCH  44  45
ATOM     45  C   UNL A   1      42.933  19.024  25.920  1.00  0.00     0.188 C 
BRANCH  45  46
ATOM     46  O   UNL A   1      41.788  19.791  25.570  1.00  0.00    -0.376 OA
BRANCH  46  47
ATOM     47  C   UNL A   1      41.516  20.962  26.324  1.00  0.00     0.202 C 
BRANCH  47  48
ATOM     48  C   UNL A   1      42.207  22.251  25.879  1.00  0.00     0.261 C 
BRANCH  48  49
ATOM     49  O   UNL A   1      41.847  23.450  26.590  1.00  0.00    -0.460 OA
BRANCH  49  50
ATOM     50  C   UNL A   1      42.285  24.638  26.137  1.00  0.00     0.338 C 
ATOM     51  O   UNL A   1      42.894  24.843  25.095  1.00  0.00    -0.246 OA
BRANCH  50  52
ATOM     52  C   UNL A   1      41.764  25.692  27.037  1.00  0.00     0.060 A 
ATOM     53  C   UNL A   1      42.302  26.983  26.969  1.00  0.00     0.016 A 
ATOM     54  C   UNL A   1      40.759  25.409  27.962  1.00  0.00     0.016 A 
ATOM     55  C   UNL A   1      41.855  27.989  27.834  1.00  0.00     0.010 A 
ATOM     56  C   UNL A   1      40.335  26.411  28.848  1.00  0.00     0.010 A 
ATOM     57  C   UNL A   1      40.891  27.703  28.808  1.00  0.00    -0.014 A 
BRANCH  57  58
ATOM     58  C   UNL A   1      40.619  28.670  29.908  1.00  0.00     0.031 A 
ATOM     59  C   UNL A   1      41.485  28.610  31.141  1.00  0.00     0.074 A 
ATOM     60  C   UNL A   1      39.650  29.603  29.830  1.00  0.00     0.049 A 
ATOM     61  N   UNL A   1      41.424  29.315  32.241  1.00  0.00    -0.248 NA
ATOM     62  C   UNL A   1      42.563  27.608  31.130  1.00  0.00     0.031 C 
ATOM     63  C   UNL A   1      38.753  29.801  28.695  1.00  0.00     0.029 A 
ATOM     64  N   UNL A   1      39.262  30.566  30.735  1.00  0.00    -0.354 N 
ATOM     65  C   UNL A   1      42.439  28.830  33.056  1.00  0.00     0.074 A 
ATOM     66  C   UNL A   1      43.070  27.740  32.345  1.00  0.00     0.031 C 
ATOM     67  C   UNL A   1      37.924  30.825  28.967  1.00  0.00     0.029 A 
ATOM     68  C   UNL A   1      38.206  31.336  30.308  1.00  0.00     0.049 A 
ATOM     69  H   UNL A   1      39.700  30.689  31.608  1.00  0.00     0.167 HD
ATOM     70  C   UNL A   1      42.831  29.263  34.276  1.00  0.00     0.037 A 
ATOM     71  C   UNL A   1      37.539  32.332  30.929  1.00  0.00     0.037 A 
ATOM     72  C   UNL A   1      42.225  30.360  34.980  1.00  0.00     0.049 A 
ATOM     73  C   UNL A   1      37.952  32.765  32.313  1.00  0.00     0.074 A 
ATOM     74  C   UNL A   1      42.580  30.892  36.207  1.00  0.00     0.029 A 
ATOM     75  N   UNL A   1      41.137  31.088  34.525  1.00  0.00    -0.354 N 
ATOM     76  N   UNL A   1      38.931  32.317  33.061  1.00  0.00    -0.248 NA
ATOM     77  C   UNL A   1      37.168  33.842  32.941  1.00  0.00     0.031 C 
ATOM     78  C   UNL A   1      41.669  31.903  36.523  1.00  0.00     0.029 A 
ATOM     79  C   UNL A   1      40.788  32.046  35.463  1.00  0.00     0.049 A 
ATOM     80  H   UNL A   1      40.682  30.947  33.664  1.00  0.00     0.167 HD
ATOM     81  C   UNL A   1      38.897  33.068  34.232  1.00  0.00     0.074 A 
ATOM     82  C   UNL A   1      37.806  34.008  34.093  1.00  0.00     0.031 C 
ATOM     83  C   UNL A   1      39.702  32.983  35.320  1.00  0.00     0.037 A 
BRANCH  70  84
ATOM     84  C   UNL A   1      43.967  28.537  34.936  1.00  0.00     0.057 A 
ATOM     85  C   UNL A   1      45.289  28.966  34.753  1.00  0.00     0.134 A 
ATOM     86  C   UNL A   1      43.762  27.396  35.723  1.00  0.00     0.134 A 
ATOM     87  F   UNL A   1      45.556  30.050  34.009  1.00  0.00    -0.206 F 
ATOM     88  C   UNL A   1      46.363  28.282  35.323  1.00  0.00     0.040 A 
ATOM     89  C   UNL A   1      44.827  26.722  36.323  1.00  0.00     0.040 A 
ATOM     90  F   UNL A   1      42.520  26.941  35.951  1.00  0.00    -0.206 F 
ATOM     91  C   UNL A   1      46.133  27.160  36.116  1.00  0.00     0.006 A 
ENDBRANCH  70  84
BRANCH  71  92
ATOM     92  C   UNL A   1      36.408  33.002  30.232  1.00  0.00     0.057 A 
ATOM     93  C   UNL A   1      36.628  33.927  29.204  1.00  0.00     0.134 A 
ATOM     94  C   UNL A   1      35.080  32.751  30.596  1.00  0.00     0.134 A 
ATOM     95  F   UNL A   1      37.877  34.209  28.804  1.00  0.00    -0.206 F 
ATOM     96  C   UNL A   1      35.573  34.599  28.585  1.00  0.00     0.040 A 
ATOM     97  C   UNL A   1      34.013  33.399  29.969  1.00  0.00     0.040 A 
ATOM     98  F   UNL A   1      34.801  31.854  31.553  1.00  0.00    -0.206 F 
ATOM     99  C   UNL A   1      34.260  34.335  28.967  1.00  0.00     0.006 A 
ENDBRANCH  71  92
BRANCH  83 100
ATOM    100  C   UNL A   1      39.467  33.940  36.455  1.00  0.00     0.057 A 
ATOM    101  C   UNL A   1      40.034  35.222  36.434  1.00  0.00     0.134 A 
ATOM    102  C   UNL A   1      38.777  33.560  37.611  1.00  0.00     0.134 A 
ATOM    103  F   UNL A   1      40.721  35.646  35.363  1.00  0.00    -0.206 F 
ATOM    104  C   UNL A   1      39.943  36.081  37.530  1.00  0.00     0.040 A 
ATOM    105  C   UNL A   1      38.654  34.421  38.704  1.00  0.00     0.040 A 
ATOM    106  F   UNL A   1      38.204  32.349  37.695  1.00  0.00    -0.206 F 
ATOM    107  C   UNL A   1      39.250  35.680  38.671  1.00  0.00     0.006 A 
ENDBRANCH  83 100
ENDBRANCH  57  58
ENDBRANCH  50  52
ENDBRANCH  49  50
ENDBRANCH  48  49
ENDBRANCH  47  48
ENDBRANCH  46  47
ENDBRANCH  45  46
ENDBRANCH  44  45
ENDBRANCH  43  44
ENDBRANCH   1  43
TORSDOF 26
ENDMDL
MODEL 2
REMARK VINA RESULT:      -7.1      2.900      5.463
REMARK SMILES CC1CC[NH+]([C@H](c2ccc(F)cc2)c2ccc([C@@H](C)C(=O)OCCOCCOCCOCCOC(=O)c3ccc(-c4c5nc(c(-c6c(F)cccc6F)c6ccc([nH]6)c(-c6c(F)cccc6F)c6nc(c(-c7c(F)cccc7F)c7ccc4[nH]7)C=C6)C=C5)cc3)cc2-c2ccc(C(F)(F)F)cc2)CC1
REMARK SMILES IDX 27 1 26 2 25 3 24 4 23 5 22 6 20 7 21 8 18 9 19 10 17 11
REMARK SMILES IDX 14 12 15 13 92 14 16 15 91 16 6 17 5 18 1 19 2 20 3 21
REMARK SMILES IDX 104 22 4 23 103 24 7 26 8 27 13 28 9 29 12 30 10 31 11 32
REMARK SMILES IDX 93 33 94 34 102 35 95 36 101 37 96 38 97 39 98 40 99 41
REMARK SMILES IDX 100 42 28 43 29 44 30 45 31 46 32 47 33 48 34 49 35 50 36 51
REMARK SMILES IDX 37 52 38 53 90 54 39 55 89 56 40 57 41 58 42 59 83 60 43 61
REMARK SMILES IDX 88 62 82 63 84 64 44 65 87 66 81 67 80 68 45 70 71 71 54 72
REMARK SMILES IDX 70 73 55 74 58 75 69 76 85 77 56 78 57 79 68 81 86 82 59 83
REMARK SMILES IDX 46 84 47 85 52 86 48 87 49 88 51 89 53 90 50 91 72 92 73 93
REMARK SMILES IDX 78 94 74 95 75 96 77 97 79 98 76 99 60 100 61 101 66 102
REMARK SMILES IDX 62 103 63 104 65 105 67 106 64 107
REMARK H PARENT 5 25 84 69 58 80
REMARK Flexibility Score: inf
ROOT
ATOM      1  C   UNL A   1      44.807  20.721  25.390  1.00  0.00     0.188 C 
ENDROOT
BRANCH   1   2
ATOM      2  C   UNL A   1      45.080  22.178  24.981  1.00  0.00     0.188 C 
BRANCH   2   3
ATOM      3  O   UNL A   1      44.872  23.252  25.890  1.00  0.00    -0.376 OA
BRANCH   3   4
ATOM      4  C   UNL A   1      45.436  24.530  25.644  1.00  0.00     0.202 C 
BRANCH   4   5
ATOM      5  C   UNL A   1      45.156  25.708  26.594  1.00  0.00     0.261 C 
BRANCH   5   6
ATOM      6  O   UNL A   1      45.867  26.934  26.336  1.00  0.00    -0.463 OA
BRANCH   6   7
ATOM      7  C   UNL A   1      45.206  28.083  26.614  1.00  0.00     0.313 C 
ATOM      8  O   UNL A   1      44.415  28.612  25.835  1.00  0.00    -0.252 OA
BRANCH   7   9
ATOM      9  C   UNL A   1      45.547  28.737  27.956  1.00  0.00     0.126 C 
ATOM     10  C   UNL A   1      45.332  27.690  29.044  1.00  0.00     0.025 C 
BRANCH   9  11
ATOM     11  C   UNL A   1      44.930  30.081  28.347  1.00  0.00    -0.033 A 
ATOM     12  C   UNL A   1      43.798  32.673  29.017  1.00  0.00     0.022 A 
ATOM     13  C   UNL A   1      43.221  31.442  29.413  1.00  0.00     0.011 A 
ATOM     14  C   UNL A   1      44.984  32.580  28.236  1.00  0.00    -0.009 A 
ATOM     15  C   UNL A   1      43.777  30.186  29.116  1.00  0.00     0.005 A 
ATOM     16  C   UNL A   1      45.519  31.292  27.924  1.00  0.00     0.013 A 
BRANCH  12  17
ATOM     17  C   UNL A   1      43.228  34.043  29.531  1.00  0.00     0.247 C 
BRANCH  17  18
ATOM     18  N   UNL A   1      43.308  35.231  28.608  1.00  0.00    -0.325 N 
ATOM     19  C   UNL A   1      42.297  39.281  27.201  1.00  0.00     0.008 C 
ATOM     20  C   UNL A   1      42.445  37.964  27.957  1.00  0.00    -0.003 C 
ATOM     21  C   UNL A   1      43.875  37.707  28.422  1.00  0.00     0.065 C 
ATOM     22  C   UNL A   1      42.056  36.804  27.062  1.00  0.00     0.065 C 
ATOM     23  C   UNL A   1      43.976  36.392  29.206  1.00  0.00     0.263 C 
ATOM     24  C   UNL A   1      42.117  35.472  27.796  1.00  0.00     0.263 C 
ATOM     25  H   UNL A   1      43.961  34.965  27.871  1.00  0.00     0.348 HD
ENDBRANCH  17  18
BRANCH  17  26
ATOM     26  C   UNL A   1      43.620  34.451  30.972  1.00  0.00     0.014 A 
ATOM     27  C   UNL A   1      44.883  34.166  31.508  1.00  0.00     0.013 A 
ATOM     28  C   UNL A   1      42.731  35.199  31.774  1.00  0.00     0.013 A 
ATOM     29  C   UNL A   1      45.260  34.644  32.768  1.00  0.00     0.040 A 
ATOM     30  C   UNL A   1      43.079  35.604  33.068  1.00  0.00     0.040 A 
ATOM     31  C   UNL A   1      44.348  35.331  33.549  1.00  0.00     0.123 A 
ATOM     32  F   UNL A   1      44.705  35.740  34.774  1.00  0.00    -0.207 F 
ENDBRANCH  17  26
ENDBRANCH  12  17
BRANCH  14  33
ATOM     33  C   UNL A   1      45.705  33.754  27.703  1.00  0.00    -0.018 A 
ATOM     34  C   UNL A   1      46.760  34.331  28.432  1.00  0.00     0.009 A 
ATOM     35  C   UNL A   1      45.364  34.331  26.470  1.00  0.00     0.009 A 
ATOM     36  C   UNL A   1      47.485  35.413  27.921  1.00  0.00     0.014 A 
ATOM     37  C   UNL A   1      46.097  35.406  25.950  1.00  0.00     0.014 A 
ATOM     38  C   UNL A   1      47.177  35.947  26.662  1.00  0.00     0.056 A 
BRANCH  38  39
ATOM     39  C   UNL A   1      47.997  37.083  26.099  1.00  0.00     0.416 C 
ATOM     40  F   UNL A   1      48.362  37.985  27.052  1.00  0.00    -0.166 F 
ATOM     41  F   UNL A   1      49.155  36.660  25.521  1.00  0.00    -0.166 F 
ATOM     42  F   UNL A   1      47.346  37.798  25.138  1.00  0.00    -0.166 F 
ENDBRANCH  38  39
ENDBRANCH  14  33
ENDBRANCH   9  11
ENDBRANCH   7   9
ENDBRANCH   6   7
ENDBRANCH   5   6
ENDBRANCH   4   5
ENDBRANCH   3   4
ENDBRANCH   2   3
ENDBRANCH   1   2
BRANCH   1  43
ATOM     43  O   UNL A   1      43.943  20.005  24.529  1.00  0.00    -0.377 OA
BRANCH  43  44
ATOM     44  C   UNL A   1      43.364  18.832  25.077  1.00  0.00     0.188 C 
BRANCH  44  45
ATOM     45  C   UNL A   1      42.660  18.974  26.443  1.00  0.00     0.188 C 
BRANCH  45  46
ATOM     46  O   UNL A   1      41.432  19.689  26.391  1.00  0.00    -0.376 OA
BRANCH  46  47
ATOM     47  C   UNL A   1      41.343  20.911  27.109  1.00  0.00     0.202 C 
BRANCH  47  48
ATOM     48  C   UNL A   1      41.304  22.198  26.285  1.00  0.00     0.261 C 
BRANCH  48  49
ATOM     49  O   UNL A   1      41.202  23.429  27.023  1.00  0.00    -0.460 OA
BRANCH  49  50
ATOM     50  C   UNL A   1      41.522  24.586  26.418  1.00  0.00     0.338 C 
ATOM     51  O   UNL A   1      41.971  24.720  25.287  1.00  0.00    -0.246 OA
BRANCH  50  52
ATOM     52  C   UNL A   1      41.088  25.698  27.295  1.00  0.00     0.060 A 
ATOM     53  C   UNL A   1      41.716  26.945  27.187  1.00  0.00     0.016 A 
ATOM     54  C   UNL A   1      40.076  25.512  28.236  1.00  0.00     0.016 A 
ATOM     55  C   UNL A   1      41.352  28.003  28.029  1.00  0.00     0.010 A 
ATOM     56  C   UNL A   1      39.734  26.564  29.099  1.00  0.00     0.010 A 
ATOM     57  C   UNL A   1      40.381  27.811  29.019  1.00  0.00    -0.014 A 
BRANCH  57  58
ATOM     58  C   UNL A   1      40.191  28.824  30.096  1.00  0.00     0.031 A 
ATOM     59  C   UNL A   1      41.099  28.765  31.299  1.00  0.00     0.074 A 
ATOM     60  C   UNL A   1      39.261  29.796  30.021  1.00  0.00     0.049 A 
ATOM     61  N   UNL A   1      41.108  29.506  32.376  1.00  0.00    -0.248 NA
ATOM     62  C   UNL A   1      42.132  27.716  31.283  1.00  0.00     0.031 C 
ATOM     63  C   UNL A   1      38.332  29.997  28.913  1.00  0.00     0.029 A 
ATOM     64  N   UNL A   1      38.947  30.803  30.907  1.00  0.00    -0.354 N 
ATOM     65  C   UNL A   1      42.131  29.003  33.170  1.00  0.00     0.074 A 
ATOM     66  C   UNL A   1      42.688  27.865  32.474  1.00  0.00     0.031 C 
ATOM     67  C   UNL A   1      37.558  31.064  29.180  1.00  0.00     0.029 A 
ATOM     68  C   UNL A   1      37.911  31.605  30.492  1.00  0.00     0.049 A 
ATOM     69  H   UNL A   1      39.422  30.934  31.760  1.00  0.00     0.167 HD
ATOM     70  C   UNL A   1      42.586  29.457  34.361  1.00  0.00     0.037 A 
ATOM     71  C   UNL A   1      37.310  32.648  31.103  1.00  0.00     0.037 A 
ATOM     72  C   UNL A   1      42.053  30.601  35.050  1.00  0.00     0.049 A 
ATOM     73  C   UNL A   1      37.791  33.106  32.457  1.00  0.00     0.074 A 
ATOM     74  C   UNL A   1      42.475  31.155  36.245  1.00  0.00     0.029 A 
ATOM     75  N   UNL A   1      40.982  31.362  34.610  1.00  0.00    -0.354 N 
ATOM     76  N   UNL A   1      38.777  32.639  33.184  1.00  0.00    -0.248 NA
ATOM     77  C   UNL A   1      37.078  34.236  33.076  1.00  0.00     0.031 C 
ATOM     78  C   UNL A   1      41.620  32.215  36.559  1.00  0.00     0.029 A 
ATOM     79  C   UNL A   1      40.708  32.362  35.527  1.00  0.00     0.049 A 
ATOM     80  H   UNL A   1      40.489  31.213  33.770  1.00  0.00     0.167 HD
ATOM     81  C   UNL A   1      38.818  33.427  34.330  1.00  0.00     0.074 A 
ATOM     82  C   UNL A   1      37.765  34.410  34.199  1.00  0.00     0.031 C 
ATOM     83  C   UNL A   1      39.659  33.342  35.391  1.00  0.00     0.037 A 
BRANCH  70  84
ATOM     84  C   UNL A   1      43.713  28.702  35.004  1.00  0.00     0.057 A 
ATOM     85  C   UNL A   1      43.453  27.728  35.978  1.00  0.00     0.134 A 
ATOM     86  C   UNL A   1      45.054  28.959  34.690  1.00  0.00     0.134 A 
ATOM     87  F   UNL A   1      42.192  27.436  36.329  1.00  0.00    -0.206 F 
ATOM     88  C   UNL A   1      44.486  27.044  36.619  1.00  0.00     0.040 A 
ATOM     89  C   UNL A   1      46.095  28.258  35.302  1.00  0.00     0.040 A 
ATOM     90  F   UNL A   1      45.372  29.867  33.754  1.00  0.00    -0.206 F 
ATOM     91  C   UNL A   1      45.811  27.304  36.276  1.00  0.00     0.006 A 
ENDBRANCH  70  84
BRANCH  71  92
ATOM     92  C   UNL A   1      36.184  33.345  30.426  1.00  0.00     0.057 A 
ATOM     93  C   UNL A   1      34.852  33.091  30.774  1.00  0.00     0.134 A 
ATOM     94  C   UNL A   1      36.414  34.266  29.396  1.00  0.00     0.134 A 
ATOM     95  F   UNL A   1      34.563  32.224  31.756  1.00  0.00    -0.206 F 
ATOM     96  C   UNL A   1      33.790  33.702  30.104  1.00  0.00     0.040 A 
ATOM     97  C   UNL A   1      35.362  34.902  28.733  1.00  0.00     0.040 A 
ATOM     98  F   UNL A   1      37.668  34.575  29.035  1.00  0.00    -0.206 F 
ATOM     99  C   UNL A   1      34.044  34.611  29.080  1.00  0.00     0.006 A 
ENDBRANCH  71  92
BRANCH  83 100
ATOM    100  C   UNL A   1      39.507  34.343  36.501  1.00  0.00     0.057 A 
ATOM    101  C   UNL A   1      40.130  35.596  36.420  1.00  0.00     0.134 A 
ATOM    102  C   UNL A   1      38.841  34.032  37.692  1.00  0.00     0.134 A 
ATOM    103  F   UNL A   1      40.798  35.954  35.314  1.00  0.00    -0.206 F 
ATOM    104  C   UNL A   1      40.116  36.492  37.490  1.00  0.00     0.040 A 
ATOM    105  C   UNL A   1      38.795  34.930  38.760  1.00  0.00     0.040 A 
ATOM    106  F   UNL A   1      38.216  32.852  37.834  1.00  0.00    -0.206 F 
ATOM    107  C   UNL A   1      39.446  36.159  38.666  1.00  0.00     0.006 A 
ENDBRANCH  83 100
ENDBRANCH  57  58
ENDBRANCH  50  52
ENDBRANCH  49  50
ENDBRANCH  48  49
ENDBRANCH  47  48
ENDBRANCH  46  47
ENDBRANCH  45  46
ENDBRANCH  44  45
ENDBRANCH  43  44
ENDBRANCH   1  43
TORSDOF 26
ENDMDL
MODEL 3
REMARK VINA RESULT:      -6.8      3.132      5.403
REMARK SMILES CC1CC[NH+]([C@H](c2ccc(F)cc2)c2ccc([C@@H](C)C(=O)OCCOCCOCCOCCOC(=O)c3ccc(-c4c5nc(c(-c6c(F)cccc6F)c6ccc([nH]6)c(-c6c(F)cccc6F)c6nc(c(-c7c(F)cccc7F)c7ccc4[nH]7)C=C6)C=C5)cc3)cc2-c2ccc(C(F)(F)F)cc2)CC1
REMARK SMILES IDX 27 1 26 2 25 3 24 4 23 5 22 6 20 7 21 8 18 9 19 10 17 11
REMARK SMILES IDX 14 12 15 13 92 14 16 15 91 16 6 17 5 18 1 19 2 20 3 21
REMARK SMILES IDX 104 22 4 23 103 24 7 26 8 27 13 28 9 29 12 30 10 31 11 32
REMARK SMILES IDX 93 33 94 34 102 35 95 36 101 37 96 38 97 39 98 40 99 41
REMARK SMILES IDX 100 42 28 43 29 44 30 45 31 46 32 47 33 48 34 49 35 50 36 51
REMARK SMILES IDX 37 52 38 53 90 54 39 55 89 56 40 57 41 58 42 59 83 60 43 61
REMARK SMILES IDX 88 62 82 63 84 64 44 65 87 66 81 67 80 68 45 70 71 71 54 72
REMARK SMILES IDX 70 73 55 74 58 75 69 76 85 77 56 78 57 79 68 81 86 82 59 83
REMARK SMILES IDX 46 84 47 85 52 86 48 87 49 88 51 89 53 90 50 91 72 92 73 93
REMARK SMILES IDX 78 94 74 95 75 96 77 97 79 98 76 99 60 100 61 101 66 102
REMARK SMILES IDX 62 103 63 104 65 105 67 106 64 107
REMARK H PARENT 5 25 84 69 58 80
REMARK Flexibility Score: inf
ROOT
ATOM      1  C   UNL A   1      44.576  20.637  25.409  1.00  0.00     0.188 C 
ENDROOT
BRANCH   1   2
ATOM      2  C   UNL A   1      44.864  22.049  24.872  1.00  0.00     0.188 C 
BRANCH   2   3
ATOM      3  O   UNL A   1      44.648  23.202  25.674  1.00  0.00    -0.376 OA
BRANCH   3   4
ATOM      4  C   UNL A   1      45.134  24.471  25.265  1.00  0.00     0.202 C 
BRANCH   4   5
ATOM      5  C   UNL A   1      44.960  25.706  26.166  1.00  0.00     0.261 C 
BRANCH   5   6
ATOM      6  O   UNL A   1      45.480  26.954  25.666  1.00  0.00    -0.463 OA
BRANCH   6   7
ATOM      7  C   UNL A   1      44.972  28.081  26.218  1.00  0.00     0.313 C 
ATOM      8  O   UNL A   1      43.984  28.664  25.774  1.00  0.00    -0.252 OA
BRANCH   7   9
ATOM      9  C   UNL A   1      45.742  28.639  27.418  1.00  0.00     0.126 C 
ATOM     10  C   UNL A   1      45.553  27.666  28.577  1.00  0.00     0.025 C 
BRANCH   9  11
ATOM     11  C   UNL A   1      45.542  30.087  27.869  1.00  0.00    -0.033 A 
ATOM     12  C   UNL A   1      45.199  32.867  28.647  1.00  0.00     0.022 A 
ATOM     13  C   UNL A   1      44.389  31.812  29.136  1.00  0.00     0.011 A 
ATOM     14  C   UNL A   1      46.208  32.493  27.714  1.00  0.00    -0.009 A 
ATOM     15  C   UNL A   1      44.566  30.463  28.784  1.00  0.00     0.005 A 
ATOM     16  C   UNL A   1      46.355  31.119  27.353  1.00  0.00     0.013 A 
BRANCH  12  17
ATOM     17  C   UNL A   1      45.066  34.326  29.212  1.00  0.00     0.247 C 
BRANCH  17  18
ATOM     18  N   UNL A   1      44.783  34.489  30.682  1.00  0.00    -0.325 N 
ATOM     19  C   UNL A   1      43.612  36.695  34.311  1.00  0.00     0.008 C 
ATOM     20  C   UNL A   1      43.935  36.228  32.895  1.00  0.00    -0.003 C 
ATOM     21  C   UNL A   1      43.026  35.098  32.423  1.00  0.00     0.065 C 
ATOM     22  C   UNL A   1      45.357  35.706  32.832  1.00  0.00     0.065 C 
ATOM     23  C   UNL A   1      43.359  34.681  30.984  1.00  0.00     0.263 C 
ATOM     24  C   UNL A   1      45.752  35.296  31.420  1.00  0.00     0.263 C 
ATOM     25  H   UNL A   1      44.970  33.579  31.102  1.00  0.00     0.348 HD
ENDBRANCH  17  18
BRANCH  17  26
ATOM     26  C   UNL A   1      44.203  35.306  28.382  1.00  0.00     0.014 A 
ATOM     27  C   UNL A   1      42.971  34.928  27.831  1.00  0.00     0.013 A 
ATOM     28  C   UNL A   1      44.600  36.650  28.217  1.00  0.00     0.013 A 
ATOM     29  C   UNL A   1      42.150  35.859  27.185  1.00  0.00     0.040 A 
ATOM     30  C   UNL A   1      43.817  37.560  27.496  1.00  0.00     0.040 A 
ATOM     31  C   UNL A   1      42.591  37.157  26.996  1.00  0.00     0.123 A 
ATOM     32  F   UNL A   1      41.817  38.026  26.331  1.00  0.00    -0.207 F 
ENDBRANCH  17  26
ENDBRANCH  12  17
BRANCH  14  33
ATOM     33  C   UNL A   1      47.123  33.459  27.071  1.00  0.00    -0.018 A 
ATOM     34  C   UNL A   1      46.662  34.292  26.037  1.00  0.00     0.009 A 
ATOM     35  C   UNL A   1      48.466  33.574  27.461  1.00  0.00     0.009 A 
ATOM     36  C   UNL A   1      47.501  35.247  25.449  1.00  0.00     0.014 A 
ATOM     37  C   UNL A   1      49.303  34.538  26.884  1.00  0.00     0.014 A 
ATOM     38  C   UNL A   1      48.825  35.396  25.885  1.00  0.00     0.056 A 
BRANCH  38  39
ATOM     39  C   UNL A   1      49.707  36.461  25.278  1.00  0.00     0.416 C 
ATOM     40  F   UNL A   1      49.677  36.449  23.916  1.00  0.00    -0.166 F 
ATOM     41  F   UNL A   1      49.341  37.720  25.649  1.00  0.00    -0.166 F 
ATOM     42  F   UNL A   1      51.019  36.342  25.624  1.00  0.00    -0.166 F 
ENDBRANCH  38  39
ENDBRANCH  14  33
ENDBRANCH   9  11
ENDBRANCH   7   9
ENDBRANCH   6   7
ENDBRANCH   5   6
ENDBRANCH   4   5
ENDBRANCH   3   4
ENDBRANCH   2   3
ENDBRANCH   1   2
BRANCH   1  43
ATOM     43  O   UNL A   1      43.690  19.862  24.625  1.00  0.00    -0.377 OA
BRANCH  43  44
ATOM     44  C   UNL A   1      43.105  18.747  25.278  1.00  0.00     0.188 C 
BRANCH  44  45
ATOM     45  C   UNL A   1      42.618  18.963  26.727  1.00  0.00     0.188 C 
BRANCH  45  46
ATOM     46  O   UNL A   1      41.411  19.707  26.828  1.00  0.00    -0.376 OA
BRANCH  46  47
ATOM     47  C   UNL A   1      41.457  20.965  27.484  1.00  0.00     0.202 C 
BRANCH  47  48
ATOM     48  C   UNL A   1      41.242  22.207  26.619  1.00  0.00     0.261 C 
BRANCH  48  49
ATOM     49  O   UNL A   1      41.202  23.470  27.309  1.00  0.00    -0.460 OA
BRANCH  49  50
ATOM     50  C   UNL A   1      41.384  24.605  26.612  1.00  0.00     0.338 C 
ATOM     51  O   UNL A   1      41.699  24.695  25.432  1.00  0.00    -0.246 OA
BRANCH  50  52
ATOM     52  C   UNL A   1      40.978  25.741  27.471  1.00  0.00     0.060 A 
ATOM     53  C   UNL A   1      41.733  26.920  27.454  1.00  0.00     0.016 A 
ATOM     54  C   UNL A   1      39.867  25.642  28.308  1.00  0.00     0.016 A 
ATOM     55  C   UNL A   1      41.396  27.996  28.284  1.00  0.00     0.010 A 
ATOM     56  C   UNL A   1      39.549  26.711  29.160  1.00  0.00     0.010 A 
ATOM     57  C   UNL A   1      40.320  27.888  29.173  1.00  0.00    -0.014 A 
BRANCH  57  58
ATOM     58  C   UNL A   1      40.127  28.898  30.252  1.00  0.00     0.031 A 
ATOM     59  C   UNL A   1      41.025  28.828  31.461  1.00  0.00     0.074 A 
ATOM     60  C   UNL A   1      39.204  29.876  30.173  1.00  0.00     0.049 A 
ATOM     61  N   UNL A   1      41.029  29.565  32.542  1.00  0.00    -0.248 NA
ATOM     62  C   UNL A   1      42.051  27.772  31.451  1.00  0.00     0.031 C 
ATOM     63  C   UNL A   1      38.286  30.087  29.057  1.00  0.00     0.029 A 
ATOM     64  N   UNL A   1      38.890  30.881  31.059  1.00  0.00    -0.354 N 
ATOM     65  C   UNL A   1      42.043  29.052  33.343  1.00  0.00     0.074 A 
ATOM     66  C   UNL A   1      42.598  27.913  32.647  1.00  0.00     0.031 C 
ATOM     67  C   UNL A   1      37.517  31.159  29.322  1.00  0.00     0.029 A 
ATOM     68  C   UNL A   1      37.863  31.692  30.639  1.00  0.00     0.049 A 
ATOM     69  H   UNL A   1      39.359  31.007  31.916  1.00  0.00     0.167 HD
ATOM     70  C   UNL A   1      42.490  29.499  34.539  1.00  0.00     0.037 A 
ATOM     71  C   UNL A   1      37.263  32.737  31.249  1.00  0.00     0.037 A 
ATOM     72  C   UNL A   1      41.959  30.643  35.227  1.00  0.00     0.049 A 
ATOM     73  C   UNL A   1      37.736  33.186  32.608  1.00  0.00     0.074 A 
ATOM     74  C   UNL A   1      42.375  31.190  36.428  1.00  0.00     0.029 A 
ATOM     75  N   UNL A   1      40.897  31.413  34.781  1.00  0.00    -0.354 N 
ATOM     76  N   UNL A   1      38.713  32.710  33.342  1.00  0.00    -0.248 NA
ATOM     77  C   UNL A   1      37.026  34.319  33.226  1.00  0.00     0.031 C 
ATOM     78  C   UNL A   1      41.525  32.255  36.739  1.00  0.00     0.029 A 
ATOM     79  C   UNL A   1      40.622  32.412  35.700  1.00  0.00     0.049 A 
ATOM     80  H   UNL A   1      40.411  31.271  33.937  1.00  0.00     0.167 HD
ATOM     81  C   UNL A   1      38.750  33.494  34.491  1.00  0.00     0.074 A 
ATOM     82  C   UNL A   1      37.704  34.484  34.355  1.00  0.00     0.031 C 
ATOM     83  C   UNL A   1      39.581  33.399  35.559  1.00  0.00     0.037 A 
BRANCH  70  84
ATOM     84  C   UNL A   1      43.607  28.734  35.189  1.00  0.00     0.057 A 
ATOM     85  C   UNL A   1      44.943  29.033  34.889  1.00  0.00     0.134 A 
ATOM     86  C   UNL A   1      43.366  27.682  36.082  1.00  0.00     0.134 A 
ATOM     87  F   UNL A   1      45.244  30.026  34.039  1.00  0.00    -0.206 F 
ATOM     88  C   UNL A   1      45.996  28.309  35.449  1.00  0.00     0.040 A 
ATOM     89  C   UNL A   1      44.412  26.971  36.673  1.00  0.00     0.040 A 
ATOM     90  F   UNL A   1      42.110  27.355  36.425  1.00  0.00    -0.206 F 
ATOM     91  C   UNL A   1      45.731  27.279  36.349  1.00  0.00     0.006 A 
ENDBRANCH  70  84
BRANCH  71  92
ATOM     92  C   UNL A   1      36.148  33.444  30.564  1.00  0.00     0.057 A 
ATOM     93  C   UNL A   1      34.816  33.260  30.956  1.00  0.00     0.134 A 
ATOM     94  C   UNL A   1      36.386  34.303  29.485  1.00  0.00     0.134 A 
ATOM     95  F   UNL A   1      34.520  32.454  31.987  1.00  0.00    -0.206 F 
ATOM     96  C   UNL A   1      33.762  33.879  30.283  1.00  0.00     0.040 A 
ATOM     97  C   UNL A   1      35.343  34.947  28.816  1.00  0.00     0.040 A 
ATOM     98  F   UNL A   1      37.641  34.545  29.079  1.00  0.00    -0.206 F 
ATOM     99  C   UNL A   1      34.024  34.726  29.209  1.00  0.00     0.006 A 
ENDBRANCH  71  92
BRANCH  83 100
ATOM    100  C   UNL A   1      39.426  34.397  36.671  1.00  0.00     0.057 A 
ATOM    101  C   UNL A   1      40.009  35.668  36.574  1.00  0.00     0.134 A 
ATOM    102  C   UNL A   1      38.799  34.068  37.879  1.00  0.00     0.134 A 
ATOM    103  F   UNL A   1      40.638  36.045  35.450  1.00  0.00    -0.206 F 
ATOM    104  C   UNL A   1      39.994  36.565  37.643  1.00  0.00     0.040 A 
ATOM    105  C   UNL A   1      38.752  34.967  38.946  1.00  0.00     0.040 A 
ATOM    106  F   UNL A   1      38.214  32.870  38.037  1.00  0.00    -0.206 F 
ATOM    107  C   UNL A   1      39.363  36.215  38.835  1.00  0.00     0.006 A 
ENDBRANCH  83 100
ENDBRANCH  57  58
ENDBRANCH  50  52
ENDBRANCH  49  50
ENDBRANCH  48  49
ENDBRANCH  47  48
ENDBRANCH  46  47
ENDBRANCH  45  46
ENDBRANCH  44  45
ENDBRANCH  43  44
ENDBRANCH   1  43
TORSDOF 26
ENDMDL
