MODEL 1
REMARK VINA RESULT:     -10.5      0.000      0.000
REMARK SMILES CC1CCN(S(=O)(=O)N2CCC[C@H](c3cccc(C(=O)OCCOCCOCCOCCOC(=O)c4ccc(-c5c6nc(c(-c7c(F)cccc7F)c7ccc([nH]7)c(-c7c(F)cccc7F)c7nc(c(-c8c(F)cccc8F)c8ccc5[nH]8)C=C7)C=C6)cc4)c3)C2)CC1
REMARK SMILES IDX 26 1 25 2 24 3 23 4 22 5 21 6 19 7 20 8 18 9 14 10 15 11
REMARK SMILES IDX 90 12 16 13 17 14 13 15 9 16 10 17 91 18 11 19 12 20 6 21
REMARK SMILES IDX 7 22 8 23 5 24 1 25 2 26 3 27 93 28 4 29 92 30 27 31 28 32
REMARK SMILES IDX 29 33 30 34 31 35 32 36 33 37 34 38 35 39 36 40 37 41 89 42
REMARK SMILES IDX 38 43 88 44 39 45 40 46 41 47 82 48 42 49 87 50 81 51 83 52
REMARK SMILES IDX 43 53 86 54 80 55 79 56 44 58 70 59 53 60 69 61 54 62 57 63
REMARK SMILES IDX 68 64 84 65 55 66 56 67 67 69 85 70 58 71 45 72 46 73 51 74
REMARK SMILES IDX 47 75 48 76 50 77 52 78 49 79 71 80 72 81 77 82 73 83 74 84
REMARK SMILES IDX 76 85 78 86 75 87 59 88 60 89 65 90 61 91 62 92 64 93 66 94
REMARK SMILES IDX 63 95
REMARK H PARENT 83 57 57 68
REMARK Flexibility Score: inf
ROOT
ATOM      1  C   UNL A   1      43.433  20.099  25.837  1.00  0.00     0.188 C 
ENDROOT
BRANCH   1   2
ATOM      2  C   UNL A   1      42.984  18.624  25.772  1.00  0.00     0.188 C 
BRANCH   2   3
ATOM      3  O   UNL A   1      41.575  18.462  25.760  1.00  0.00    -0.376 OA
BRANCH   3   4
ATOM      4  C   UNL A   1      40.752  19.561  26.100  1.00  0.00     0.202 C 
BRANCH   4   5
ATOM      5  C   UNL A   1      39.258  19.490  25.757  1.00  0.00     0.261 C 
BRANCH   5   6
ATOM      6  O   UNL A   1      38.749  20.579  24.983  1.00  0.00    -0.460 OA
BRANCH   6   7
ATOM      7  C   UNL A   1      38.277  21.660  25.646  1.00  0.00     0.338 C 
ATOM      8  O   UNL A   1      38.859  22.309  26.495  1.00  0.00    -0.246 OA
BRANCH   7   9
ATOM      9  C   UNL A   1      37.008  22.049  24.982  1.00  0.00     0.060 A 
ATOM     10  C   UNL A   1      34.585  21.805  24.759  1.00  0.00    -0.043 A 
ATOM     11  C   UNL A   1      34.655  22.575  23.588  1.00  0.00     0.004 A 
ATOM     12  C   UNL A   1      35.790  21.515  25.420  1.00  0.00     0.019 A 
ATOM     13  C   UNL A   1      35.874  23.088  23.130  1.00  0.00     0.001 A 
ATOM     14  C   UNL A   1      37.049  22.846  23.839  1.00  0.00     0.016 A 
BRANCH  10  15
ATOM     15  C   UNL A   1      33.282  21.246  25.323  1.00  0.00     0.034 C 
ATOM     16  N   UNL A   1      31.945  23.336  25.626  1.00  0.00    -0.188 NA
ATOM     17  C   UNL A   1      32.088  23.325  27.094  1.00  0.00     0.103 C 
ATOM     18  C   UNL A   1      32.002  22.015  24.952  1.00  0.00     0.111 C 
ATOM     19  C   UNL A   1      33.311  22.509  27.509  1.00  0.00     0.017 C 
ATOM     20  C   UNL A   1      33.291  21.125  26.865  1.00  0.00     0.011 C 
BRANCH  16  21
ATOM     21  S   UNL A   1      31.013  24.554  24.951  1.00  0.00     0.281 S 
ATOM     22  O   UNL A   1      30.299  25.212  26.016  1.00  0.00    -0.195 OA
ATOM     23  O   UNL A   1      30.287  23.990  23.831  1.00  0.00    -0.195 OA
BRANCH  21  24
ATOM     24  N   UNL A   1      32.155  25.628  24.291  1.00  0.00    -0.189 NA
ATOM     25  C   UNL A   1      31.872  28.718  27.209  1.00  0.00     0.008 C 
ATOM     26  C   UNL A   1      32.380  28.055  25.929  1.00  0.00    -0.012 C 
ATOM     27  C   UNL A   1      31.220  27.849  24.934  1.00  0.00     0.020 C 
ATOM     28  C   UNL A   1      33.124  26.755  26.268  1.00  0.00     0.020 C 
ATOM     29  C   UNL A   1      31.557  26.898  23.782  1.00  0.00     0.104 C 
ATOM     30  C   UNL A   1      33.404  25.953  25.009  1.00  0.00     0.104 C 
ENDBRANCH  21  24
ENDBRANCH  16  21
ENDBRANCH  10  15
ENDBRANCH   7   9
ENDBRANCH   6   7
ENDBRANCH   5   6
ENDBRANCH   4   5
ENDBRANCH   3   4
ENDBRANCH   2   3
ENDBRANCH   1   2
BRANCH   1  31
ATOM     31  O   UNL A   1      43.632  20.786  24.610  1.00  0.00    -0.377 OA
BRANCH  31  32
ATOM     32  C   UNL A   1      44.937  20.847  24.036  1.00  0.00     0.188 C 
BRANCH  32  33
ATOM     33  C   UNL A   1      46.207  21.136  24.877  1.00  0.00     0.188 C 
BRANCH  33  34
ATOM     34  O   UNL A   1      47.153  21.994  24.262  1.00  0.00    -0.376 OA
BRANCH  34  35
ATOM     35  C   UNL A   1      46.771  23.331  24.005  1.00  0.00     0.202 C 
BRANCH  35  36
ATOM     36  C   UNL A   1      45.963  24.029  25.107  1.00  0.00     0.261 C 
BRANCH  36  37
ATOM     37  O   UNL A   1      44.946  24.936  24.652  1.00  0.00    -0.460 OA
BRANCH  37  38
ATOM     38  C   UNL A   1      43.674  24.646  25.006  1.00  0.00     0.338 C 
ATOM     39  O   UNL A   1      42.939  23.821  24.499  1.00  0.00    -0.246 OA
BRANCH  38  40
ATOM     40  C   UNL A   1      43.374  25.368  26.259  1.00  0.00     0.060 A 
ATOM     41  C   UNL A   1      42.566  24.743  27.216  1.00  0.00     0.016 A 
ATOM     42  C   UNL A   1      43.880  26.651  26.486  1.00  0.00     0.016 A 
ATOM     43  C   UNL A   1      42.223  25.420  28.384  1.00  0.00     0.010 A 
ATOM     44  C   UNL A   1      43.519  27.335  27.651  1.00  0.00     0.010 A 
ATOM     45  C   UNL A   1      42.658  26.737  28.586  1.00  0.00    -0.014 A 
BRANCH  45  46
ATOM     46  C   UNL A   1      42.061  27.523  29.694  1.00  0.00     0.031 A 
ATOM     47  C   UNL A   1      42.719  27.487  31.046  1.00  0.00     0.074 A 
ATOM     48  C   UNL A   1      40.999  28.319  29.480  1.00  0.00     0.049 A 
ATOM     49  N   UNL A   1      42.419  28.146  32.135  1.00  0.00    -0.248 NA
ATOM     50  C   UNL A   1      43.874  26.586  31.188  1.00  0.00     0.031 C 
ATOM     51  C   UNL A   1      40.292  28.463  28.210  1.00  0.00     0.029 A 
ATOM     52  N   UNL A   1      40.339  29.170  30.333  1.00  0.00    -0.354 N 
ATOM     53  C   UNL A   1      43.348  27.747  33.088  1.00  0.00     0.074 A 
ATOM     54  C   UNL A   1      44.194  26.754  32.462  1.00  0.00     0.031 C 
ATOM     55  C   UNL A   1      39.299  29.357  28.363  1.00  0.00     0.029 A 
ATOM     56  C   UNL A   1      39.286  29.828  29.747  1.00  0.00     0.049 A 
ATOM     57  H   UNL A   1      40.596  29.295  31.274  1.00  0.00     0.167 HD
ATOM     58  C   UNL A   1      43.494  28.179  34.362  1.00  0.00     0.037 A 
ATOM     59  C   UNL A   1      38.410  30.706  30.271  1.00  0.00     0.037 A 
ATOM     60  C   UNL A   1      42.647  29.162  34.986  1.00  0.00     0.049 A 
ATOM     61  C   UNL A   1      38.553  31.120  31.713  1.00  0.00     0.074 A 
ATOM     62  C   UNL A   1      42.723  29.679  36.267  1.00  0.00     0.029 A 
ATOM     63  N   UNL A   1      41.558  29.768  34.376  1.00  0.00    -0.354 N 
ATOM     64  N   UNL A   1      39.459  30.766  32.592  1.00  0.00    -0.248 NA
ATOM     65  C   UNL A   1      37.555  32.067  32.230  1.00  0.00     0.031 C 
ATOM     66  C   UNL A   1      41.646  30.551  36.454  1.00  0.00     0.029 A 
ATOM     67  C   UNL A   1      40.936  30.629  35.267  1.00  0.00     0.049 A 
ATOM     68  H   UNL A   1      41.270  29.611  33.449  1.00  0.00     0.167 HD
ATOM     69  C   UNL A   1      39.156  31.464  33.756  1.00  0.00     0.074 A 
ATOM     70  C   UNL A   1      37.998  32.282  33.460  1.00  0.00     0.031 C 
ATOM     71  C   UNL A   1      39.776  31.430  34.962  1.00  0.00     0.037 A 
BRANCH  58  72
ATOM     72  C   UNL A   1      44.597  27.565  35.178  1.00  0.00     0.057 A 
ATOM     73  C   UNL A   1      45.923  28.014  35.095  1.00  0.00     0.134 A 
ATOM     74  C   UNL A   1      44.324  26.530  36.081  1.00  0.00     0.134 A 
ATOM     75  F   UNL A   1      46.257  28.992  34.240  1.00  0.00    -0.206 F 
ATOM     76  C   UNL A   1      46.938  27.438  35.861  1.00  0.00     0.040 A 
ATOM     77  C   UNL A   1      45.325  25.967  36.874  1.00  0.00     0.040 A 
ATOM     78  F   UNL A   1      43.077  26.054  36.214  1.00  0.00    -0.206 F 
ATOM     79  C   UNL A   1      46.639  26.417  36.760  1.00  0.00     0.006 A 
ENDBRANCH  58  72
BRANCH  59  80
ATOM     80  C   UNL A   1      37.310  31.254  29.434  1.00  0.00     0.057 A 
ATOM     81  C   UNL A   1      37.379  32.541  28.889  1.00  0.00     0.134 A 
ATOM     82  C   UNL A   1      36.149  30.511  29.186  1.00  0.00     0.134 A 
ATOM     83  F   UNL A   1      38.453  33.312  29.111  1.00  0.00    -0.206 F 
ATOM     84  C   UNL A   1      36.325  33.079  28.148  1.00  0.00     0.040 A 
ATOM     85  C   UNL A   1      35.101  31.024  28.422  1.00  0.00     0.040 A 
ATOM     86  F   UNL A   1      36.019  29.271  29.679  1.00  0.00    -0.206 F 
ATOM     87  C   UNL A   1      35.183  32.317  27.907  1.00  0.00     0.006 A 
ENDBRANCH  59  80
BRANCH  71  88
ATOM     88  C   UNL A   1      39.225  32.323  36.040  1.00  0.00     0.057 A 
ATOM     89  C   UNL A   1      38.256  31.879  36.950  1.00  0.00     0.134 A 
ATOM     90  C   UNL A   1      39.672  33.645  36.172  1.00  0.00     0.134 A 
ATOM     91  F   UNL A   1      37.776  30.628  36.876  1.00  0.00    -0.206 F 
ATOM     92  C   UNL A   1      37.719  32.729  37.920  1.00  0.00     0.040 A 
ATOM     93  C   UNL A   1      39.169  34.493  37.160  1.00  0.00     0.040 A 
ATOM     94  F   UNL A   1      40.609  34.133  35.345  1.00  0.00    -0.206 F 
ATOM     95  C   UNL A   1      38.180  34.039  38.029  1.00  0.00     0.006 A 
ENDBRANCH  71  88
ENDBRANCH  45  46
ENDBRANCH  38  40
ENDBRANCH  37  38
ENDBRANCH  36  37
ENDBRANCH  35  36
ENDBRANCH  34  35
ENDBRANCH  33  34
ENDBRANCH  32  33
ENDBRANCH  31  32
ENDBRANCH   1  31
TORSDOF 23
ENDMDL
MODEL 2
REMARK VINA RESULT:     -10.4      1.607      3.424
REMARK SMILES CC1CCN(S(=O)(=O)N2CCC[C@H](c3cccc(C(=O)OCCOCCOCCOCCOC(=O)c4ccc(-c5c6nc(c(-c7c(F)cccc7F)c7ccc([nH]7)c(-c7c(F)cccc7F)c7nc(c(-c8c(F)cccc8F)c8ccc5[nH]8)C=C7)C=C6)cc4)c3)C2)CC1
REMARK SMILES IDX 26 1 25 2 24 3 23 4 22 5 21 6 19 7 20 8 18 9 14 10 15 11
REMARK SMILES IDX 90 12 16 13 17 14 13 15 9 16 10 17 91 18 11 19 12 20 6 21
REMARK SMILES IDX 7 22 8 23 5 24 1 25 2 26 3 27 93 28 4 29 92 30 27 31 28 32
REMARK SMILES IDX 29 33 30 34 31 35 32 36 33 37 34 38 35 39 36 40 37 41 89 42
REMARK SMILES IDX 38 43 88 44 39 45 40 46 41 47 82 48 42 49 87 50 81 51 83 52
REMARK SMILES IDX 43 53 86 54 80 55 79 56 44 58 70 59 53 60 69 61 54 62 57 63
REMARK SMILES IDX 68 64 84 65 55 66 56 67 67 69 85 70 58 71 45 72 46 73 51 74
REMARK SMILES IDX 47 75 48 76 50 77 52 78 49 79 71 80 72 81 77 82 73 83 74 84
REMARK SMILES IDX 76 85 78 86 75 87 59 88 60 89 65 90 61 91 62 92 64 93 66 94
REMARK SMILES IDX 63 95
REMARK H PARENT 83 57 57 68
REMARK Flexibility Score: inf
ROOT
ATOM      1  C   UNL A   1      38.441  23.598  26.252  1.00  0.00     0.188 C 
ENDROOT
BRANCH   1   2
ATOM      2  C   UNL A   1      36.925  23.831  26.085  1.00  0.00     0.188 C 
BRANCH   2   3
ATOM      3  O   UNL A   1      36.509  23.895  24.731  1.00  0.00    -0.376 OA
BRANCH   3   4
ATOM      4  C   UNL A   1      36.299  22.693  24.016  1.00  0.00     0.202 C 
BRANCH   4   5
ATOM      5  C   UNL A   1      35.437  21.600  24.661  1.00  0.00     0.261 C 
BRANCH   5   6
ATOM      6  O   UNL A   1      34.130  21.436  24.105  1.00  0.00    -0.460 OA
BRANCH   6   7
ATOM      7  C   UNL A   1      33.164  20.918  24.899  1.00  0.00     0.338 C 
ATOM      8  O   UNL A   1      33.169  19.826  25.436  1.00  0.00    -0.246 OA
BRANCH   7   9
ATOM      9  C   UNL A   1      32.207  22.016  25.182  1.00  0.00     0.060 A 
ATOM     10  C   UNL A   1      30.879  23.910  24.390  1.00  0.00    -0.043 A 
ATOM     11  C   UNL A   1      30.609  24.230  25.730  1.00  0.00     0.004 A 
ATOM     12  C   UNL A   1      31.723  22.817  24.140  1.00  0.00     0.019 A 
ATOM     13  C   UNL A   1      31.113  23.450  26.777  1.00  0.00     0.001 A 
ATOM     14  C   UNL A   1      31.893  22.327  26.504  1.00  0.00     0.016 A 
BRANCH  10  15
ATOM     15  C   UNL A   1      30.332  24.705  23.208  1.00  0.00     0.034 C 
ATOM     16  N   UNL A   1      31.711  26.786  23.339  1.00  0.00    -0.188 NA
ATOM     17  C   UNL A   1      30.597  27.602  23.856  1.00  0.00     0.103 C 
ATOM     18  C   UNL A   1      31.336  25.626  22.492  1.00  0.00     0.111 C 
ATOM     19  C   UNL A   1      29.541  26.716  24.513  1.00  0.00     0.017 C 
ATOM     20  C   UNL A   1      29.116  25.585  23.580  1.00  0.00     0.011 C 
BRANCH  16  21
ATOM     21  S   UNL A   1      33.169  27.561  23.056  1.00  0.00     0.281 S 
ATOM     22  O   UNL A   1      32.932  28.982  23.081  1.00  0.00    -0.195 OA
ATOM     23  O   UNL A   1      33.782  26.948  21.894  1.00  0.00    -0.195 OA
BRANCH  21  24
ATOM     24  N   UNL A   1      34.131  27.127  24.390  1.00  0.00    -0.189 NA
ATOM     25  C   UNL A   1      31.683  28.736  27.482  1.00  0.00     0.008 C 
ATOM     26  C   UNL A   1      32.911  28.035  26.902  1.00  0.00    -0.012 C 
ATOM     27  C   UNL A   1      33.694  28.995  25.983  1.00  0.00     0.020 C 
ATOM     28  C   UNL A   1      32.495  26.733  26.202  1.00  0.00     0.020 C 
ATOM     29  C   UNL A   1      34.731  28.296  25.100  1.00  0.00     0.104 C 
ATOM     30  C   UNL A   1      33.651  26.162  25.399  1.00  0.00     0.104 C 
ENDBRANCH  21  24
ENDBRANCH  16  21
ENDBRANCH  10  15
ENDBRANCH   7   9
ENDBRANCH   6   7
ENDBRANCH   5   6
ENDBRANCH   4   5
ENDBRANCH   3   4
ENDBRANCH   2   3
ENDBRANCH   1   2
BRANCH   1  31
ATOM     31  O   UNL A   1      38.883  22.276  26.525  1.00  0.00    -0.377 OA
BRANCH  31  32
ATOM     32  C   UNL A   1      40.175  21.857  26.088  1.00  0.00     0.188 C 
BRANCH  32  33
ATOM     33  C   UNL A   1      40.710  20.421  26.321  1.00  0.00     0.188 C 
BRANCH  33  34
ATOM     34  O   UNL A   1      42.117  20.281  26.225  1.00  0.00    -0.376 OA
BRANCH  34  35
ATOM     35  C   UNL A   1      42.921  21.406  26.523  1.00  0.00     0.202 C 
BRANCH  35  36
ATOM     36  C   UNL A   1      43.740  21.981  25.360  1.00  0.00     0.261 C 
BRANCH  36  37
ATOM     37  O   UNL A   1      43.265  23.226  24.823  1.00  0.00    -0.460 OA
BRANCH  37  38
ATOM     38  C   UNL A   1      44.047  24.309  25.026  1.00  0.00     0.338 C 
ATOM     39  O   UNL A   1      45.074  24.597  24.440  1.00  0.00    -0.246 OA
BRANCH  38  40
ATOM     40  C   UNL A   1      43.342  25.211  25.960  1.00  0.00     0.060 A 
ATOM     41  C   UNL A   1      44.004  26.360  26.410  1.00  0.00     0.016 A 
ATOM     42  C   UNL A   1      42.045  24.925  26.391  1.00  0.00     0.016 A 
ATOM     43  C   UNL A   1      43.385  27.202  27.331  1.00  0.00     0.010 A 
ATOM     44  C   UNL A   1      41.432  25.762  27.329  1.00  0.00     0.010 A 
ATOM     45  C   UNL A   1      42.115  26.882  27.832  1.00  0.00    -0.014 A 
BRANCH  45  46
ATOM     46  C   UNL A   1      41.600  27.635  29.001  1.00  0.00     0.031 A 
ATOM     47  C   UNL A   1      42.328  27.526  30.313  1.00  0.00     0.074 A 
ATOM     48  C   UNL A   1      40.551  28.467  28.879  1.00  0.00     0.049 A 
ATOM     49  N   UNL A   1      42.105  28.147  31.443  1.00  0.00    -0.248 NA
ATOM     50  C   UNL A   1      43.463  26.590  30.355  1.00  0.00     0.031 C 
ATOM     51  C   UNL A   1      39.781  28.682  27.656  1.00  0.00     0.029 A 
ATOM     52  N   UNL A   1      39.962  29.298  29.800  1.00  0.00    -0.354 N 
ATOM     53  C   UNL A   1      43.073  27.683  32.326  1.00  0.00     0.074 A 
ATOM     54  C   UNL A   1      43.856  26.697  31.615  1.00  0.00     0.031 C 
ATOM     55  C   UNL A   1      38.823  29.594  27.899  1.00  0.00     0.029 A 
ATOM     56  C   UNL A   1      38.898  30.007  29.300  1.00  0.00     0.049 A 
ATOM     57  H   UNL A   1      40.272  29.377  30.730  1.00  0.00     0.167 HD
ATOM     58  C   UNL A   1      43.299  28.058  33.607  1.00  0.00     0.037 A 
ATOM     59  C   UNL A   1      38.075  30.884  29.907  1.00  0.00     0.037 A 
ATOM     60  C   UNL A   1      42.514  29.035  34.315  1.00  0.00     0.049 A 
ATOM     61  C   UNL A   1      38.308  31.234  31.354  1.00  0.00     0.074 A 
ATOM     62  C   UNL A   1      42.674  29.496  35.611  1.00  0.00     0.029 A 
ATOM     63  N   UNL A   1      41.412  29.695  33.791  1.00  0.00    -0.354 N 
ATOM     64  N   UNL A   1      39.249  30.820  32.167  1.00  0.00    -0.248 NA
ATOM     65  C   UNL A   1      37.366  32.184  31.963  1.00  0.00     0.031 C 
ATOM     66  C   UNL A   1      41.633  30.386  35.891  1.00  0.00     0.029 A 
ATOM     67  C   UNL A   1      40.863  30.533  34.749  1.00  0.00     0.049 A 
ATOM     68  H   UNL A   1      41.071  29.583  32.876  1.00  0.00     0.167 HD
ATOM     69  C   UNL A   1      39.029  31.476  33.373  1.00  0.00     0.074 A 
ATOM     70  C   UNL A   1      37.880  32.335  33.174  1.00  0.00     0.031 C 
ATOM     71  C   UNL A   1      39.711  31.375  34.541  1.00  0.00     0.037 A 
BRANCH  58  72
ATOM     72  C   UNL A   1      44.427  27.382  34.336  1.00  0.00     0.057 A 
ATOM     73  C   UNL A   1      44.238  26.205  35.073  1.00  0.00     0.134 A 
ATOM     74  C   UNL A   1      45.726  27.902  34.276  1.00  0.00     0.134 A 
ATOM     75  F   UNL A   1      43.016  25.661  35.184  1.00  0.00    -0.206 F 
ATOM     76  C   UNL A   1      45.294  25.584  35.742  1.00  0.00     0.040 A 
ATOM     77  C   UNL A   1      46.796  27.274  34.916  1.00  0.00     0.040 A 
ATOM     78  F   UNL A   1      45.980  29.024  33.587  1.00  0.00    -0.206 F 
ATOM     79  C   UNL A   1      46.580  26.115  35.658  1.00  0.00     0.006 A 
ENDBRANCH  58  72
BRANCH  59  80
ATOM     80  C   UNL A   1      36.948  31.495  29.154  1.00  0.00     0.057 A 
ATOM     81  C   UNL A   1      37.015  32.810  28.678  1.00  0.00     0.134 A 
ATOM     82  C   UNL A   1      35.764  30.785  28.920  1.00  0.00     0.134 A 
ATOM     83  F   UNL A   1      38.112  33.551  28.892  1.00  0.00    -0.206 F 
ATOM     84  C   UNL A   1      35.938  33.405  28.019  1.00  0.00     0.040 A 
ATOM     85  C   UNL A   1      34.691  31.357  28.236  1.00  0.00     0.040 A 
ATOM     86  F   UNL A   1      35.635  29.521  29.349  1.00  0.00    -0.206 F 
ATOM     87  C   UNL A   1      34.772  32.675  27.790  1.00  0.00     0.006 A 
ENDBRANCH  59  80
BRANCH  71  88
ATOM     88  C   UNL A   1      39.244  32.236  35.683  1.00  0.00     0.057 A 
ATOM     89  C   UNL A   1      39.669  33.563  35.837  1.00  0.00     0.134 A 
ATOM     90  C   UNL A   1      38.353  31.732  36.640  1.00  0.00     0.134 A 
ATOM     91  F   UNL A   1      40.529  34.107  34.962  1.00  0.00    -0.206 F 
ATOM     92  C   UNL A   1      39.262  34.340  36.924  1.00  0.00     0.040 A 
ATOM     93  C   UNL A   1      37.911  32.511  37.712  1.00  0.00     0.040 A 
ATOM     94  F   UNL A   1      37.892  30.476  36.548  1.00  0.00    -0.206 F 
ATOM     95  C   UNL A   1      38.377  33.815  37.862  1.00  0.00     0.006 A 
ENDBRANCH  71  88
ENDBRANCH  45  46
ENDBRANCH  38  40
ENDBRANCH  37  38
ENDBRANCH  36  37
ENDBRANCH  35  36
ENDBRANCH  34  35
ENDBRANCH  33  34
ENDBRANCH  32  33
ENDBRANCH  31  32
ENDBRANCH   1  31
TORSDOF 23
ENDMDL
MODEL 3
REMARK VINA RESULT:     -10.4      4.876     11.731
REMARK SMILES CC1CCN(S(=O)(=O)N2CCC[C@H](c3cccc(C(=O)OCCOCCOCCOCCOC(=O)c4ccc(-c5c6nc(c(-c7c(F)cccc7F)c7ccc([nH]7)c(-c7c(F)cccc7F)c7nc(c(-c8c(F)cccc8F)c8ccc5[nH]8)C=C7)C=C6)cc4)c3)C2)CC1
REMARK SMILES IDX 26 1 25 2 24 3 23 4 22 5 21 6 19 7 20 8 18 9 14 10 15 11
REMARK SMILES IDX 90 12 16 13 17 14 13 15 9 16 10 17 91 18 11 19 12 20 6 21
REMARK SMILES IDX 7 22 8 23 5 24 1 25 2 26 3 27 93 28 4 29 92 30 27 31 28 32
REMARK SMILES IDX 29 33 30 34 31 35 32 36 33 37 34 38 35 39 36 40 37 41 89 42
REMARK SMILES IDX 38 43 88 44 39 45 40 46 41 47 82 48 42 49 87 50 81 51 83 52
REMARK SMILES IDX 43 53 86 54 80 55 79 56 44 58 70 59 53 60 69 61 54 62 57 63
REMARK SMILES IDX 68 64 84 65 55 66 56 67 67 69 85 70 58 71 45 72 46 73 51 74
REMARK SMILES IDX 47 75 48 76 50 77 52 78 49 79 71 80 72 81 77 82 73 83 74 84
REMARK SMILES IDX 76 85 78 86 75 87 59 88 60 89 65 90 61 91 62 92 64 93 66 94
REMARK SMILES IDX 63 95
REMARK H PARENT 83 57 57 68
REMARK Flexibility Score: inf
ROOT
ATOM      1  C   UNL A   1      34.599  33.834  27.978  1.00  0.00     0.188 C 
ENDROOT
BRANCH   1   2
ATOM      2  C   UNL A   1      34.011  32.575  28.649  1.00  0.00     0.188 C 
BRANCH   2   3
ATOM      3  O   UNL A   1      33.665  31.554  27.728  1.00  0.00    -0.376 OA
BRANCH   3   4
ATOM      4  C   UNL A   1      34.621  30.559  27.411  1.00  0.00     0.202 C 
BRANCH   4   5
ATOM      5  C   UNL A   1      35.782  30.323  28.385  1.00  0.00     0.261 C 
BRANCH   5   6
ATOM      6  O   UNL A   1      37.089  30.344  27.804  1.00  0.00    -0.460 OA
BRANCH   6   7
ATOM      7  C   UNL A   1      38.148  30.487  28.634  1.00  0.00     0.338 C 
ATOM      8  O   UNL A   1      38.349  31.403  29.411  1.00  0.00    -0.246 OA
BRANCH   7   9
ATOM      9  C   UNL A   1      38.901  29.209  28.592  1.00  0.00     0.060 A 
ATOM     10  C   UNL A   1      40.462  27.720  27.440  1.00  0.00    -0.043 A 
ATOM     11  C   UNL A   1      40.129  26.720  28.368  1.00  0.00     0.004 A 
ATOM     12  C   UNL A   1      39.796  28.952  27.546  1.00  0.00     0.019 A 
ATOM     13  C   UNL A   1      39.214  26.962  29.398  1.00  0.00     0.001 A 
ATOM     14  C   UNL A   1      38.617  28.215  29.527  1.00  0.00     0.016 A 
BRANCH  10  15
ATOM     15  C   UNL A   1      41.474  27.523  26.316  1.00  0.00     0.034 C 
ATOM     16  N   UNL A   1      42.829  25.620  27.206  1.00  0.00    -0.188 NA
ATOM     17  C   UNL A   1      43.987  26.474  27.525  1.00  0.00     0.103 C 
ATOM     18  C   UNL A   1      41.961  26.081  26.092  1.00  0.00     0.111 C 
ATOM     19  C   UNL A   1      43.556  27.930  27.684  1.00  0.00     0.017 C 
ATOM     20  C   UNL A   1      42.740  28.396  26.480  1.00  0.00     0.011 C 
BRANCH  16  21
ATOM     21  S   UNL A   1      42.979  23.976  27.492  1.00  0.00     0.281 S 
ATOM     22  O   UNL A   1      42.477  23.706  28.816  1.00  0.00    -0.195 OA
ATOM     23  O   UNL A   1      44.326  23.582  27.132  1.00  0.00    -0.195 OA
BRANCH  21  24
ATOM     24  N   UNL A   1      41.947  23.263  26.342  1.00  0.00    -0.189 NA
ATOM     25  C   UNL A   1      42.278  19.215  27.625  1.00  0.00     0.008 C 
ATOM     26  C   UNL A   1      41.796  20.356  26.729  1.00  0.00    -0.012 C 
ATOM     27  C   UNL A   1      42.991  21.022  26.018  1.00  0.00     0.020 C 
ATOM     28  C   UNL A   1      40.951  21.346  27.544  1.00  0.00     0.020 C 
ATOM     29  C   UNL A   1      42.655  22.371  25.376  1.00  0.00     0.104 C 
ATOM     30  C   UNL A   1      40.686  22.610  26.747  1.00  0.00     0.104 C 
ENDBRANCH  21  24
ENDBRANCH  16  21
ENDBRANCH  10  15
ENDBRANCH   7   9
ENDBRANCH   6   7
ENDBRANCH   5   6
ENDBRANCH   4   5
ENDBRANCH   3   4
ENDBRANCH   2   3
ENDBRANCH   1   2
BRANCH   1  31
ATOM     31  O   UNL A   1      34.517  35.062  28.687  1.00  0.00    -0.377 OA
BRANCH  31  32
ATOM     32  C   UNL A   1      33.284  35.452  29.289  1.00  0.00     0.188 C 
BRANCH  32  33
ATOM     33  C   UNL A   1      33.149  35.745  30.805  1.00  0.00     0.188 C 
BRANCH  33  34
ATOM     34  O   UNL A   1      33.277  34.615  31.650  1.00  0.00    -0.376 OA
BRANCH  34  35
ATOM     35  C   UNL A   1      34.580  34.159  31.959  1.00  0.00     0.202 C 
BRANCH  35  36
ATOM     36  C   UNL A   1      34.717  33.314  33.233  1.00  0.00     0.261 C 
BRANCH  36  37
ATOM     37  O   UNL A   1      35.795  32.364  33.233  1.00  0.00    -0.460 OA
BRANCH  37  38
ATOM     38  C   UNL A   1      36.746  32.529  34.179  1.00  0.00     0.338 C 
ATOM     39  O   UNL A   1      36.624  33.079  35.257  1.00  0.00    -0.246 OA
BRANCH  38  40
ATOM     40  C   UNL A   1      37.934  31.751  33.772  1.00  0.00     0.060 A 
ATOM     41  C   UNL A   1      39.188  32.138  34.259  1.00  0.00     0.016 A 
ATOM     42  C   UNL A   1      37.813  30.655  32.914  1.00  0.00     0.016 A 
ATOM     43  C   UNL A   1      40.332  31.456  33.852  1.00  0.00     0.010 A 
ATOM     44  C   UNL A   1      38.965  29.983  32.492  1.00  0.00     0.010 A 
ATOM     45  C   UNL A   1      40.232  30.405  32.929  1.00  0.00    -0.014 A 
BRANCH  45  46
ATOM     46  C   UNL A   1      41.473  29.881  32.308  1.00  0.00     0.031 A 
ATOM     47  C   UNL A   1      42.129  30.679  31.214  1.00  0.00     0.074 A 
ATOM     48  C   UNL A   1      42.052  28.757  32.764  1.00  0.00     0.049 A 
ATOM     49  N   UNL A   1      43.252  30.456  30.581  1.00  0.00    -0.248 NA
ATOM     50  C   UNL A   1      41.423  31.894  30.777  1.00  0.00     0.031 C 
ATOM     51  C   UNL A   1      41.531  27.913  33.837  1.00  0.00     0.029 A 
ATOM     52  N   UNL A   1      43.220  28.141  32.386  1.00  0.00    -0.354 N 
ATOM     53  C   UNL A   1      43.391  31.503  29.677  1.00  0.00     0.074 A 
ATOM     54  C   UNL A   1      42.216  32.336  29.813  1.00  0.00     0.031 C 
ATOM     55  C   UNL A   1      42.380  26.890  34.037  1.00  0.00     0.029 A 
ATOM     56  C   UNL A   1      43.490  26.995  33.092  1.00  0.00     0.049 A 
ATOM     57  H   UNL A   1      43.806  28.488  31.676  1.00  0.00     0.167 HD
ATOM     58  C   UNL A   1      44.411  31.757  28.825  1.00  0.00     0.037 A 
ATOM     59  C   UNL A   1      44.515  26.128  32.981  1.00  0.00     0.037 A 
ATOM     60  C   UNL A   1      45.576  30.923  28.687  1.00  0.00     0.049 A 
ATOM     61  C   UNL A   1      45.605  26.398  31.977  1.00  0.00     0.074 A 
ATOM     62  C   UNL A   1      46.674  31.103  27.862  1.00  0.00     0.029 A 
ATOM     63  N   UNL A   1      45.791  29.742  29.382  1.00  0.00    -0.354 N 
ATOM     64  N   UNL A   1      45.746  27.410  31.156  1.00  0.00    -0.248 NA
ATOM     65  C   UNL A   1      46.685  25.405  31.893  1.00  0.00     0.031 C 
ATOM     66  C   UNL A   1      47.521  30.001  28.013  1.00  0.00     0.029 A 
ATOM     67  C   UNL A   1      46.986  29.166  28.981  1.00  0.00     0.049 A 
ATOM     68  H   UNL A   1      45.183  29.368  30.060  1.00  0.00     0.167 HD
ATOM     69  C   UNL A   1      46.939  27.190  30.478  1.00  0.00     0.074 A 
ATOM     70  C   UNL A   1      47.496  25.961  31.005  1.00  0.00     0.031 C 
ATOM     71  C   UNL A   1      47.523  27.935  29.506  1.00  0.00     0.037 A 
BRANCH  58  72
ATOM     72  C   UNL A   1      44.296  32.974  27.951  1.00  0.00     0.057 A 
ATOM     73  C   UNL A   1      43.885  32.895  26.613  1.00  0.00     0.134 A 
ATOM     74  C   UNL A   1      44.573  34.248  28.464  1.00  0.00     0.134 A 
ATOM     75  F   UNL A   1      43.618  31.705  26.054  1.00  0.00    -0.206 F 
ATOM     76  C   UNL A   1      43.778  34.033  25.813  1.00  0.00     0.040 A 
ATOM     77  C   UNL A   1      44.440  35.396  27.682  1.00  0.00     0.040 A 
ATOM     78  F   UNL A   1      44.968  34.398  29.737  1.00  0.00    -0.206 F 
ATOM     79  C   UNL A   1      44.048  35.290  26.350  1.00  0.00     0.006 A 
ENDBRANCH  58  72
BRANCH  59  80
ATOM     80  C   UNL A   1      44.563  24.916  33.840  1.00  0.00     0.057 A 
ATOM     81  C   UNL A   1      44.160  23.664  33.360  1.00  0.00     0.134 A 
ATOM     82  C   UNL A   1      44.985  24.988  35.174  1.00  0.00     0.134 A 
ATOM     83  F   UNL A   1      43.722  23.533  32.100  1.00  0.00    -0.206 F 
ATOM     84  C   UNL A   1      44.152  22.534  34.180  1.00  0.00     0.040 A 
ATOM     85  C   UNL A   1      45.011  23.861  35.996  1.00  0.00     0.040 A 
ATOM     86  F   UNL A   1      45.384  26.157  35.696  1.00  0.00    -0.206 F 
ATOM     87  C   UNL A   1      44.585  22.629  35.502  1.00  0.00     0.006 A 
ENDBRANCH  59  80
BRANCH  71  88
ATOM     88  C   UNL A   1      48.841  27.448  28.970  1.00  0.00     0.057 A 
ATOM     89  C   UNL A   1      48.924  26.583  27.870  1.00  0.00     0.134 A 
ATOM     90  C   UNL A   1      50.047  27.853  29.560  1.00  0.00     0.134 A 
ATOM     91  F   UNL A   1      47.809  26.149  27.262  1.00  0.00    -0.206 F 
ATOM     92  C   UNL A   1      50.151  26.103  27.406  1.00  0.00     0.040 A 
ATOM     93  C   UNL A   1      51.281  27.408  29.084  1.00  0.00     0.040 A 
ATOM     94  F   UNL A   1      50.046  28.691  30.607  1.00  0.00    -0.206 F 
ATOM     95  C   UNL A   1      51.334  26.520  28.011  1.00  0.00     0.006 A 
ENDBRANCH  71  88
ENDBRANCH  45  46
ENDBRANCH  38  40
ENDBRANCH  37  38
ENDBRANCH  36  37
ENDBRANCH  35  36
ENDBRANCH  34  35
ENDBRANCH  33  34
ENDBRANCH  32  33
ENDBRANCH  31  32
ENDBRANCH   1  31
TORSDOF 23
ENDMDL
