MODEL 1
REMARK VINA RESULT:     -10.3      0.000      0.000
REMARK SMILES Cc1cc(Cl)c(C)c2c1O[C@H](C(F)(F)F)C(C(=O)OCCOCCOCCOCCOC(=O)c1ccc(-c3c4nc(c(-c5c(F)cccc5F)c5ccc([nH]5)c(-c5c(F)cccc5F)c5nc(c(-c6c(F)cccc6F)c6ccc3[nH]6)C=C5)C=C4)cc1)=C2
REMARK SMILES IDX 26 1 25 2 24 3 23 4 22 5 21 6 20 7 19 8 17 9 18 10 16 11
REMARK SMILES IDX 1 12 2 13 3 14 9 15 4 16 8 17 10 18 5 19 6 20 88 21 11 22
REMARK SMILES IDX 7 23 12 24 13 25 14 26 15 27 27 28 28 29 29 30 30 31 31 32
REMARK SMILES IDX 32 33 33 34 34 35 35 36 87 37 36 38 86 39 37 40 38 41 39 42
REMARK SMILES IDX 80 43 40 44 85 45 79 46 81 47 41 48 84 49 78 50 77 51 42 53
REMARK SMILES IDX 68 54 51 55 67 56 52 57 55 58 66 59 82 60 53 61 54 62 65 64
REMARK SMILES IDX 83 65 56 66 43 67 44 68 49 69 45 70 46 71 48 72 50 73 47 74
REMARK SMILES IDX 69 75 70 76 75 77 71 78 72 79 74 80 76 81 73 82 57 83 58 84
REMARK SMILES IDX 63 85 59 86 60 87 62 88 64 89 61 90
REMARK H PARENT 81 52 55 63
REMARK Flexibility Score: inf
ROOT
ATOM      1  C   UNL A   1      35.056  22.213  26.153  1.00  0.00     0.188 C 
ENDROOT
BRANCH   1   2
ATOM      2  O   UNL A   1      34.178  21.107  26.381  1.00  0.00    -0.377 OA
BRANCH   2   3
ATOM      3  C   UNL A   1      32.936  21.088  25.693  1.00  0.00     0.188 C 
BRANCH   3   4
ATOM      4  C   UNL A   1      33.048  20.573  24.245  1.00  0.00     0.188 C 
BRANCH   4   5
ATOM      5  O   UNL A   1      32.183  21.253  23.350  1.00  0.00    -0.376 OA
BRANCH   5   6
ATOM      6  C   UNL A   1      32.398  22.621  23.047  1.00  0.00     0.202 C 
BRANCH   6   7
ATOM      7  C   UNL A   1      31.692  23.757  23.810  1.00  0.00     0.261 C 
BRANCH   7   8
ATOM      8  O   UNL A   1      30.950  24.699  23.030  1.00  0.00    -0.460 OA
BRANCH   8   9
ATOM      9  C   UNL A   1      31.630  25.689  22.427  1.00  0.00     0.338 C 
ATOM     10  O   UNL A   1      32.214  25.630  21.360  1.00  0.00    -0.246 OA
BRANCH   9  11
ATOM     11  C   UNL A   1      31.401  26.926  23.206  1.00  0.00     0.087 C 
ATOM     12  C   UNL A   1      31.895  30.910  26.327  1.00  0.00     0.048 C 
ATOM     13  C   UNL A   1      30.961  30.556  25.204  1.00  0.00    -0.007 A 
ATOM     14  C   UNL A   1      30.026  31.491  24.749  1.00  0.00     0.028 A 
ATOM     15  C   UNL A   1      31.021  29.301  24.582  1.00  0.00     0.131 A 
ATOM     16  C   UNL A   1      29.144  31.174  23.712  1.00  0.00     0.045 A 
ATOM     17  C   UNL A   1      30.191  28.996  23.490  1.00  0.00     0.022 A 
ATOM     18  O   UNL A   1      31.933  28.429  25.108  1.00  0.00    -0.475 OA
ATOM     19  Cl  UNL A   1      28.027  32.410  23.246  1.00  0.00    -0.084 Cl
ATOM     20  C   UNL A   1      29.197  29.919  23.075  1.00  0.00    -0.021 A 
ATOM     21  C   UNL A   1      30.445  27.754  22.764  1.00  0.00     0.027 C 
ATOM     22  C   UNL A   1      32.174  27.150  24.474  1.00  0.00     0.316 C 
ATOM     23  C   UNL A   1      28.209  29.540  21.998  1.00  0.00     0.047 C 
BRANCH  22  24
ATOM     24  C   UNL A   1      33.689  27.013  24.277  1.00  0.00     0.430 C 
ATOM     25  F   UNL A   1      34.095  25.733  24.458  1.00  0.00    -0.167 F 
ATOM     26  F   UNL A   1      34.079  27.369  23.031  1.00  0.00    -0.167 F 
ATOM     27  F   UNL A   1      34.379  27.783  25.150  1.00  0.00    -0.167 F 
ENDBRANCH  22  24
ENDBRANCH   9  11
ENDBRANCH   8   9
ENDBRANCH   7   8
ENDBRANCH   6   7
ENDBRANCH   5   6
ENDBRANCH   4   5
ENDBRANCH   3   4
ENDBRANCH   2   3
ENDBRANCH   1   2
BRANCH   1  28
ATOM     28  C   UNL A   1      36.507  22.031  25.643  1.00  0.00     0.188 C 
BRANCH  28  29
ATOM     29  O   UNL A   1      36.664  21.001  24.676  1.00  0.00    -0.376 OA
BRANCH  29  30
ATOM     30  C   UNL A   1      37.668  20.026  24.900  1.00  0.00     0.202 C 
BRANCH  30  31
ATOM     31  C   UNL A   1      39.021  20.569  25.378  1.00  0.00     0.261 C 
BRANCH  31  32
ATOM     32  O   UNL A   1      39.778  19.688  26.221  1.00  0.00    -0.460 OA
BRANCH  32  33
ATOM     33  C   UNL A   1      41.119  19.677  26.065  1.00  0.00     0.338 C 
ATOM     34  O   UNL A   1      41.786  18.865  25.449  1.00  0.00    -0.246 OA
BRANCH  33  35
ATOM     35  C   UNL A   1      41.636  20.946  26.616  1.00  0.00     0.060 A 
ATOM     36  C   UNL A   1      41.457  21.222  27.978  1.00  0.00     0.016 A 
ATOM     37  C   UNL A   1      42.315  21.847  25.792  1.00  0.00     0.016 A 
ATOM     38  C   UNL A   1      41.932  22.419  28.514  1.00  0.00     0.010 A 
ATOM     39  C   UNL A   1      42.767  23.056  26.324  1.00  0.00     0.010 A 
ATOM     40  C   UNL A   1      42.548  23.361  27.679  1.00  0.00    -0.014 A 
BRANCH  40  41
ATOM     41  C   UNL A   1      42.760  24.744  28.167  1.00  0.00     0.031 A 
ATOM     42  C   UNL A   1      44.162  25.160  28.520  1.00  0.00     0.074 A 
ATOM     43  C   UNL A   1      41.747  25.624  28.263  1.00  0.00     0.049 A 
ATOM     44  N   UNL A   1      44.597  26.296  28.998  1.00  0.00    -0.248 NA
ATOM     45  C   UNL A   1      45.217  24.156  28.296  1.00  0.00     0.031 C 
ATOM     46  C   UNL A   1      40.358  25.360  27.896  1.00  0.00     0.029 A 
ATOM     47  N   UNL A   1      41.740  26.926  28.699  1.00  0.00    -0.354 N 
ATOM     48  C   UNL A   1      45.972  26.148  29.122  1.00  0.00     0.074 A 
ATOM     49  C   UNL A   1      46.297  24.801  28.711  1.00  0.00     0.031 C 
ATOM     50  C   UNL A   1      39.631  26.468  28.123  1.00  0.00     0.029 A 
ATOM     51  C   UNL A   1      40.496  27.507  28.682  1.00  0.00     0.049 A 
ATOM     52  H   UNL A   1      42.551  27.398  28.997  1.00  0.00     0.167 HD
ATOM     53  C   UNL A   1      46.886  27.059  29.527  1.00  0.00     0.037 A 
ATOM     54  C   UNL A   1      40.104  28.732  29.088  1.00  0.00     0.037 A 
ATOM     55  C   UNL A   1      46.562  28.395  29.945  1.00  0.00     0.049 A 
ATOM     56  C   UNL A   1      41.126  29.690  29.645  1.00  0.00     0.074 A 
ATOM     57  C   UNL A   1      47.417  29.388  30.389  1.00  0.00     0.029 A 
ATOM     58  N   UNL A   1      45.281  28.924  29.977  1.00  0.00    -0.354 N 
ATOM     59  N   UNL A   1      42.425  29.543  29.757  1.00  0.00    -0.248 NA
ATOM     60  C   UNL A   1      40.628  30.983  30.137  1.00  0.00     0.031 C 
ATOM     61  C   UNL A   1      46.649  30.502  30.734  1.00  0.00     0.029 A 
ATOM     62  C   UNL A   1      45.321  30.222  30.453  1.00  0.00     0.049 A 
ATOM     63  H   UNL A   1      44.465  28.447  29.701  1.00  0.00     0.167 HD
ATOM     64  C   UNL A   1      42.900  30.731  30.300  1.00  0.00     0.074 A 
ATOM     65  C   UNL A   1      41.753  31.594  30.485  1.00  0.00     0.031 C 
ATOM     66  C   UNL A   1      44.172  31.076  30.618  1.00  0.00     0.037 A 
BRANCH  53  67
ATOM     67  C   UNL A   1      48.326  26.641  29.543  1.00  0.00     0.057 A 
ATOM     68  C   UNL A   1      49.167  26.868  28.446  1.00  0.00     0.134 A 
ATOM     69  C   UNL A   1      48.892  26.065  30.686  1.00  0.00     0.134 A 
ATOM     70  F   UNL A   1      48.681  27.401  27.314  1.00  0.00    -0.206 F 
ATOM     71  C   UNL A   1      50.520  26.531  28.483  1.00  0.00     0.040 A 
ATOM     72  C   UNL A   1      50.250  25.747  30.745  1.00  0.00     0.040 A 
ATOM     73  F   UNL A   1      48.141  25.821  31.770  1.00  0.00    -0.206 F 
ATOM     74  C   UNL A   1      51.067  25.978  29.641  1.00  0.00     0.006 A 
ENDBRANCH  53  67
BRANCH  54  75
ATOM     75  C   UNL A   1      38.675  29.132  28.985  1.00  0.00     0.057 A 
ATOM     76  C   UNL A   1      38.136  29.579  27.773  1.00  0.00     0.134 A 
ATOM     77  C   UNL A   1      37.823  29.102  30.096  1.00  0.00     0.134 A 
ATOM     78  F   UNL A   1      38.908  29.657  26.678  1.00  0.00    -0.206 F 
ATOM     79  C   UNL A   1      36.806  29.993  27.670  1.00  0.00     0.040 A 
ATOM     80  C   UNL A   1      36.484  29.487  30.002  1.00  0.00     0.040 A 
ATOM     81  F   UNL A   1      38.277  28.690  31.288  1.00  0.00    -0.206 F 
ATOM     82  C   UNL A   1      35.974  29.940  28.787  1.00  0.00     0.006 A 
ENDBRANCH  54  75
BRANCH  66  83
ATOM     83  C   UNL A   1      44.410  32.452  31.172  1.00  0.00     0.057 A 
ATOM     84  C   UNL A   1      44.616  33.558  30.339  1.00  0.00     0.134 A 
ATOM     85  C   UNL A   1      44.340  32.687  32.552  1.00  0.00     0.134 A 
ATOM     86  F   UNL A   1      44.700  33.401  29.009  1.00  0.00    -0.206 F 
ATOM     87  C   UNL A   1      44.756  34.846  30.858  1.00  0.00     0.040 A 
ATOM     88  C   UNL A   1      44.448  33.973  33.081  1.00  0.00     0.040 A 
ATOM     89  F   UNL A   1      44.130  31.673  33.407  1.00  0.00    -0.206 F 
ATOM     90  C   UNL A   1      44.660  35.057  32.233  1.00  0.00     0.006 A 
ENDBRANCH  66  83
ENDBRANCH  40  41
ENDBRANCH  33  35
ENDBRANCH  32  33
ENDBRANCH  31  32
ENDBRANCH  30  31
ENDBRANCH  29  30
ENDBRANCH  28  29
ENDBRANCH   1  28
TORSDOF 21
ENDMDL
MODEL 2
REMARK VINA RESULT:     -10.3      0.542      6.015
REMARK SMILES Cc1cc(Cl)c(C)c2c1O[C@H](C(F)(F)F)C(C(=O)OCCOCCOCCOCCOC(=O)c1ccc(-c3c4nc(c(-c5c(F)cccc5F)c5ccc([nH]5)c(-c5c(F)cccc5F)c5nc(c(-c6c(F)cccc6F)c6ccc3[nH]6)C=C5)C=C4)cc1)=C2
REMARK SMILES IDX 26 1 25 2 24 3 23 4 22 5 21 6 20 7 19 8 17 9 18 10 16 11
REMARK SMILES IDX 1 12 2 13 3 14 9 15 4 16 8 17 10 18 5 19 6 20 88 21 11 22
REMARK SMILES IDX 7 23 12 24 13 25 14 26 15 27 27 28 28 29 29 30 30 31 31 32
REMARK SMILES IDX 32 33 33 34 34 35 35 36 87 37 36 38 86 39 37 40 38 41 39 42
REMARK SMILES IDX 80 43 40 44 85 45 79 46 81 47 41 48 84 49 78 50 77 51 42 53
REMARK SMILES IDX 68 54 51 55 67 56 52 57 55 58 66 59 82 60 53 61 54 62 65 64
REMARK SMILES IDX 83 65 56 66 43 67 44 68 49 69 45 70 46 71 48 72 50 73 47 74
REMARK SMILES IDX 69 75 70 76 75 77 71 78 72 79 74 80 76 81 73 82 57 83 58 84
REMARK SMILES IDX 63 85 59 86 60 87 62 88 64 89 61 90
REMARK H PARENT 81 52 55 63
REMARK Flexibility Score: inf
ROOT
ATOM      1  C   UNL A   1      34.194  21.348  26.329  1.00  0.00     0.188 C 
ENDROOT
BRANCH   1   2
ATOM      2  O   UNL A   1      33.379  20.277  25.844  1.00  0.00    -0.377 OA
BRANCH   2   3
ATOM      3  C   UNL A   1      32.237  20.607  25.067  1.00  0.00     0.188 C 
BRANCH   3   4
ATOM      4  C   UNL A   1      32.437  20.369  23.558  1.00  0.00     0.188 C 
BRANCH   4   5
ATOM      5  O   UNL A   1      32.044  21.479  22.768  1.00  0.00    -0.376 OA
BRANCH   5   6
ATOM      6  C   UNL A   1      32.548  22.773  23.052  1.00  0.00     0.202 C 
BRANCH   6   7
ATOM      7  C   UNL A   1      31.686  23.872  23.701  1.00  0.00     0.261 C 
BRANCH   7   8
ATOM      8  O   UNL A   1      30.986  24.754  22.818  1.00  0.00    -0.460 OA
BRANCH   8   9
ATOM      9  C   UNL A   1      31.680  25.759  22.255  1.00  0.00     0.338 C 
ATOM     10  O   UNL A   1      32.297  25.722  21.207  1.00  0.00    -0.246 OA
BRANCH   9  11
ATOM     11  C   UNL A   1      31.419  26.980  23.049  1.00  0.00     0.087 C 
ATOM     12  C   UNL A   1      31.819  30.955  26.195  1.00  0.00     0.048 C 
ATOM     13  C   UNL A   1      30.878  30.575  25.086  1.00  0.00    -0.007 A 
ATOM     14  C   UNL A   1      29.901  31.476  24.656  1.00  0.00     0.028 A 
ATOM     15  C   UNL A   1      30.975  29.327  24.453  1.00  0.00     0.131 A 
ATOM     16  C   UNL A   1      29.013  31.135  23.632  1.00  0.00     0.045 A 
ATOM     17  C   UNL A   1      30.137  29.000  23.373  1.00  0.00     0.022 A 
ATOM     18  O   UNL A   1      31.929  28.486  24.955  1.00  0.00    -0.475 OA
ATOM     19  Cl  UNL A   1      27.842  32.331  23.197  1.00  0.00    -0.084 Cl
ATOM     20  C   UNL A   1      29.101  29.888  22.984  1.00  0.00    -0.021 A 
ATOM     21  C   UNL A   1      30.424  27.774  22.632  1.00  0.00     0.027 C 
ATOM     22  C   UNL A   1      32.205  27.222  24.305  1.00  0.00     0.316 C 
ATOM     23  C   UNL A   1      28.108  29.480  21.921  1.00  0.00     0.047 C 
BRANCH  22  24
ATOM     24  C   UNL A   1      33.721  27.145  24.079  1.00  0.00     0.430 C 
ATOM     25  F   UNL A   1      34.066  27.660  22.874  1.00  0.00    -0.167 F 
ATOM     26  F   UNL A   1      34.415  27.843  25.009  1.00  0.00    -0.167 F 
ATOM     27  F   UNL A   1      34.169  25.869  24.117  1.00  0.00    -0.167 F 
ENDBRANCH  22  24
ENDBRANCH   9  11
ENDBRANCH   8   9
ENDBRANCH   7   8
ENDBRANCH   6   7
ENDBRANCH   5   6
ENDBRANCH   4   5
ENDBRANCH   3   4
ENDBRANCH   2   3
ENDBRANCH   1   2
BRANCH   1  28
ATOM     28  C   UNL A   1      35.672  21.528  25.900  1.00  0.00     0.188 C 
BRANCH  28  29
ATOM     29  O   UNL A   1      36.046  20.774  24.754  1.00  0.00    -0.376 OA
BRANCH  29  30
ATOM     30  C   UNL A   1      37.343  20.203  24.728  1.00  0.00     0.202 C 
BRANCH  30  31
ATOM     31  C   UNL A   1      38.435  21.012  25.440  1.00  0.00     0.261 C 
BRANCH  31  32
ATOM     32  O   UNL A   1      39.180  20.300  26.439  1.00  0.00    -0.460 OA
BRANCH  32  33
ATOM     33  C   UNL A   1      40.492  20.087  26.203  1.00  0.00     0.338 C 
ATOM     34  O   UNL A   1      40.992  19.179  25.564  1.00  0.00    -0.246 OA
BRANCH  33  35
ATOM     35  C   UNL A   1      41.225  21.270  26.697  1.00  0.00     0.060 A 
ATOM     36  C   UNL A   1      41.266  21.522  28.075  1.00  0.00     0.016 A 
ATOM     37  C   UNL A   1      41.888  22.113  25.802  1.00  0.00     0.016 A 
ATOM     38  C   UNL A   1      41.946  22.640  28.559  1.00  0.00     0.010 A 
ATOM     39  C   UNL A   1      42.548  23.245  26.285  1.00  0.00     0.010 A 
ATOM     40  C   UNL A   1      42.551  23.530  27.662  1.00  0.00    -0.014 A 
BRANCH  40  41
ATOM     41  C   UNL A   1      42.988  24.864  28.137  1.00  0.00     0.031 A 
ATOM     42  C   UNL A   1      41.932  25.911  28.364  1.00  0.00     0.074 A 
ATOM     43  C   UNL A   1      44.280  25.135  28.397  1.00  0.00     0.049 A 
ATOM     44  N   UNL A   1      42.063  27.156  28.741  1.00  0.00    -0.248 NA
ATOM     45  C   UNL A   1      40.537  25.493  28.139  1.00  0.00     0.031 C 
ATOM     46  C   UNL A   1      45.385  24.189  28.274  1.00  0.00     0.029 A 
ATOM     47  N   UNL A   1      44.874  26.296  28.824  1.00  0.00    -0.354 N 
ATOM     48  C   UNL A   1      40.773  27.664  28.808  1.00  0.00     0.074 A 
ATOM     49  C   UNL A   1      39.874  26.611  28.394  1.00  0.00     0.031 C 
ATOM     50  C   UNL A   1      46.528  24.809  28.618  1.00  0.00     0.029 A 
ATOM     51  C   UNL A   1      46.239  26.203  28.953  1.00  0.00     0.049 A 
ATOM     52  H   UNL A   1      44.370  27.120  29.019  1.00  0.00     0.167 HD
ATOM     53  C   UNL A   1      40.369  28.895  29.198  1.00  0.00     0.037 A 
ATOM     54  C   UNL A   1      47.146  27.143  29.288  1.00  0.00     0.037 A 
ATOM     55  C   UNL A   1      41.264  29.947  29.601  1.00  0.00     0.049 A 
ATOM     56  C   UNL A   1      46.680  28.542  29.605  1.00  0.00     0.074 A 
ATOM     57  C   UNL A   1      40.952  31.235  29.998  1.00  0.00     0.029 A 
ATOM     58  N   UNL A   1      42.644  29.832  29.654  1.00  0.00    -0.354 N 
ATOM     59  N   UNL A   1      45.458  29.014  29.669  1.00  0.00    -0.248 NA
ATOM     60  C   UNL A   1      47.720  29.541  29.893  1.00  0.00     0.031 C 
ATOM     61  C   UNL A   1      42.146  31.915  30.245  1.00  0.00     0.029 A 
ATOM     62  C   UNL A   1      43.199  31.034  30.056  1.00  0.00     0.049 A 
ATOM     63  H   UNL A   1      43.153  29.017  29.438  1.00  0.00     0.167 HD
ATOM     64  C   UNL A   1      45.582  30.350  30.033  1.00  0.00     0.074 A 
ATOM     65  C   UNL A   1      46.996  30.612  30.189  1.00  0.00     0.031 C 
ATOM     66  C   UNL A   1      44.609  31.276  30.221  1.00  0.00     0.037 A 
BRANCH  53  67
ATOM     67  C   UNL A   1      38.897  29.177  29.202  1.00  0.00     0.057 A 
ATOM     68  C   UNL A   1      38.141  29.103  30.378  1.00  0.00     0.134 A 
ATOM     69  C   UNL A   1      38.243  29.588  28.035  1.00  0.00     0.134 A 
ATOM     70  F   UNL A   1      38.705  28.698  31.527  1.00  0.00    -0.206 F 
ATOM     71  C   UNL A   1      36.782  29.420  30.392  1.00  0.00     0.040 A 
ATOM     72  C   UNL A   1      36.891  29.933  28.041  1.00  0.00     0.040 A 
ATOM     73  F   UNL A   1      38.911  29.679  26.875  1.00  0.00    -0.206 F 
ATOM     74  C   UNL A   1      36.156  29.848  29.222  1.00  0.00     0.006 A 
ENDBRANCH  53  67
BRANCH  54  75
ATOM     75  C   UNL A   1      48.592  26.801  29.343  1.00  0.00     0.057 A 
ATOM     76  C   UNL A   1      49.168  26.289  30.512  1.00  0.00     0.134 A 
ATOM     77  C   UNL A   1      49.435  26.998  28.243  1.00  0.00     0.134 A 
ATOM     78  F   UNL A   1      48.419  26.104  31.609  1.00  0.00    -0.206 F 
ATOM     79  C   UNL A   1      50.532  25.998  30.590  1.00  0.00     0.040 A 
ATOM     80  C   UNL A   1      50.795  26.686  28.298  1.00  0.00     0.040 A 
ATOM     81  F   UNL A   1      48.948  27.490  27.095  1.00  0.00    -0.206 F 
ATOM     82  C   UNL A   1      51.348  26.190  29.477  1.00  0.00     0.006 A 
ENDBRANCH  54  75
BRANCH  66  83
ATOM     83  C   UNL A   1      45.027  32.656  30.644  1.00  0.00     0.057 A 
ATOM     84  C   UNL A   1      45.159  33.702  29.723  1.00  0.00     0.134 A 
ATOM     85  C   UNL A   1      45.208  32.963  32.000  1.00  0.00     0.134 A 
ATOM     86  F   UNL A   1      45.005  33.475  28.409  1.00  0.00    -0.206 F 
ATOM     87  C   UNL A   1      45.467  35.000  30.133  1.00  0.00     0.040 A 
ATOM     88  C   UNL A   1      45.487  34.262  32.424  1.00  0.00     0.040 A 
ATOM     89  F   UNL A   1      45.081  32.010  32.937  1.00  0.00    -0.206 F 
ATOM     90  C   UNL A   1      45.621  35.285  31.489  1.00  0.00     0.006 A 
ENDBRANCH  66  83
ENDBRANCH  40  41
ENDBRANCH  33  35
ENDBRANCH  32  33
ENDBRANCH  31  32
ENDBRANCH  30  31
ENDBRANCH  29  30
ENDBRANCH  28  29
ENDBRANCH   1  28
TORSDOF 21
ENDMDL
MODEL 3
REMARK VINA RESULT:     -10.2      3.324      8.737
REMARK SMILES Cc1cc(Cl)c(C)c2c1O[C@H](C(F)(F)F)C(C(=O)OCCOCCOCCOCCOC(=O)c1ccc(-c3c4nc(c(-c5c(F)cccc5F)c5ccc([nH]5)c(-c5c(F)cccc5F)c5nc(c(-c6c(F)cccc6F)c6ccc3[nH]6)C=C5)C=C4)cc1)=C2
REMARK SMILES IDX 26 1 25 2 24 3 23 4 22 5 21 6 20 7 19 8 17 9 18 10 16 11
REMARK SMILES IDX 1 12 2 13 3 14 9 15 4 16 8 17 10 18 5 19 6 20 88 21 11 22
REMARK SMILES IDX 7 23 12 24 13 25 14 26 15 27 27 28 28 29 29 30 30 31 31 32
REMARK SMILES IDX 32 33 33 34 34 35 35 36 87 37 36 38 86 39 37 40 38 41 39 42
REMARK SMILES IDX 80 43 40 44 85 45 79 46 81 47 41 48 84 49 78 50 77 51 42 53
REMARK SMILES IDX 68 54 51 55 67 56 52 57 55 58 66 59 82 60 53 61 54 62 65 64
REMARK SMILES IDX 83 65 56 66 43 67 44 68 49 69 45 70 46 71 48 72 50 73 47 74
REMARK SMILES IDX 69 75 70 76 75 77 71 78 72 79 74 80 76 81 73 82 57 83 58 84
REMARK SMILES IDX 63 85 59 86 60 87 62 88 64 89 61 90
REMARK H PARENT 81 52 55 63
REMARK Flexibility Score: inf
ROOT
ATOM      1  C   UNL A   1      33.135  33.492  27.795  1.00  0.00     0.188 C 
ENDROOT
BRANCH   1   2
ATOM      2  O   UNL A   1      31.822  33.420  27.232  1.00  0.00    -0.377 OA
BRANCH   2   3
ATOM      3  C   UNL A   1      31.459  32.237  26.535  1.00  0.00     0.188 C 
BRANCH   3   4
ATOM      4  C   UNL A   1      32.291  31.007  26.949  1.00  0.00     0.188 C 
BRANCH   4   5
ATOM      5  O   UNL A   1      32.724  30.237  25.840  1.00  0.00    -0.376 OA
BRANCH   5   6
ATOM      6  C   UNL A   1      31.849  29.301  25.233  1.00  0.00     0.202 C 
BRANCH   6   7
ATOM      7  C   UNL A   1      32.186  28.594  23.907  1.00  0.00     0.261 C 
BRANCH   7   8
ATOM      8  O   UNL A   1      33.352  27.766  23.893  1.00  0.00    -0.460 OA
BRANCH   8   9
ATOM      9  C   UNL A   1      33.460  26.851  22.913  1.00  0.00     0.338 C 
ATOM     10  O   UNL A   1      33.718  27.061  21.743  1.00  0.00    -0.246 OA
BRANCH   9  11
ATOM     11  C   UNL A   1      33.380  25.513  23.542  1.00  0.00     0.087 C 
ATOM     12  C   UNL A   1      31.778  21.036  25.344  1.00  0.00     0.048 C 
ATOM     13  C   UNL A   1      33.123  21.626  25.020  1.00  0.00    -0.007 A 
ATOM     14  C   UNL A   1      34.272  20.834  25.096  1.00  0.00     0.028 A 
ATOM     15  C   UNL A   1      33.247  22.964  24.618  1.00  0.00     0.131 A 
ATOM     16  C   UNL A   1      35.530  21.370  24.806  1.00  0.00     0.045 A 
ATOM     17  C   UNL A   1      34.496  23.493  24.253  1.00  0.00     0.022 A 
ATOM     18  O   UNL A   1      32.085  23.683  24.606  1.00  0.00    -0.475 OA
ATOM     19  Cl  UNL A   1      36.877  20.293  24.947  1.00  0.00    -0.084 Cl
ATOM     20  C   UNL A   1      35.670  22.710  24.397  1.00  0.00    -0.021 A 
ATOM     21  C   UNL A   1      34.524  24.826  23.653  1.00  0.00     0.027 C 
ATOM     22  C   UNL A   1      32.067  25.036  24.092  1.00  0.00     0.316 C 
ATOM     23  C   UNL A   1      37.028  23.319  24.143  1.00  0.00     0.047 C 
BRANCH  22  24
ATOM     24  C   UNL A   1      30.929  25.122  23.066  1.00  0.00     0.430 C 
ATOM     25  F   UNL A   1      31.410  25.175  21.800  1.00  0.00    -0.167 F 
ATOM     26  F   UNL A   1      30.106  24.049  23.121  1.00  0.00    -0.167 F 
ATOM     27  F   UNL A   1      30.166  26.224  23.255  1.00  0.00    -0.167 F 
ENDBRANCH  22  24
ENDBRANCH   9  11
ENDBRANCH   8   9
ENDBRANCH   7   8
ENDBRANCH   6   7
ENDBRANCH   5   6
ENDBRANCH   4   5
ENDBRANCH   3   4
ENDBRANCH   2   3
ENDBRANCH   1   2
BRANCH   1  28
ATOM     28  C   UNL A   1      33.444  34.298  29.082  1.00  0.00     0.188 C 
BRANCH  28  29
ATOM     29  O   UNL A   1      34.818  34.323  29.442  1.00  0.00    -0.376 OA
BRANCH  29  30
ATOM     30  C   UNL A   1      35.168  33.921  30.756  1.00  0.00     0.202 C 
BRANCH  30  31
ATOM     31  C   UNL A   1      35.212  32.406  30.993  1.00  0.00     0.261 C 
BRANCH  31  32
ATOM     32  O   UNL A   1      36.353  31.726  30.447  1.00  0.00    -0.460 OA
BRANCH  32  33
ATOM     33  C   UNL A   1      36.127  30.791  29.501  1.00  0.00     0.338 C 
ATOM     34  O   UNL A   1      35.100  30.607  28.872  1.00  0.00    -0.246 OA
BRANCH  33  35
ATOM     35  C   UNL A   1      37.419  30.137  29.210  1.00  0.00     0.060 A 
ATOM     36  C   UNL A   1      38.231  29.727  30.276  1.00  0.00     0.016 A 
ATOM     37  C   UNL A   1      37.814  29.912  27.890  1.00  0.00     0.016 A 
ATOM     38  C   UNL A   1      39.459  29.116  30.021  1.00  0.00     0.010 A 
ATOM     39  C   UNL A   1      39.054  29.323  27.635  1.00  0.00     0.010 A 
ATOM     40  C   UNL A   1      39.895  28.953  28.699  1.00  0.00    -0.014 A 
BRANCH  40  41
ATOM     41  C   UNL A   1      41.311  28.608  28.433  1.00  0.00     0.031 A 
ATOM     42  C   UNL A   1      41.637  27.177  28.100  1.00  0.00     0.074 A 
ATOM     43  C   UNL A   1      42.282  29.538  28.449  1.00  0.00     0.049 A 
ATOM     44  N   UNL A   1      42.796  26.621  27.863  1.00  0.00    -0.248 NA
ATOM     45  C   UNL A   1      40.495  26.249  28.017  1.00  0.00     0.031 C 
ATOM     46  C   UNL A   1      42.086  30.963  28.700  1.00  0.00     0.029 A 
ATOM     47  N   UNL A   1      43.635  29.413  28.245  1.00  0.00    -0.354 N 
ATOM     48  C   UNL A   1      42.523  25.286  27.595  1.00  0.00     0.074 A 
ATOM     49  C   UNL A   1      41.096  25.102  27.738  1.00  0.00     0.031 C 
ATOM     50  C   UNL A   1      43.277  31.584  28.635  1.00  0.00     0.029 A 
ATOM     51  C   UNL A   1      44.323  30.595  28.371  1.00  0.00     0.049 A 
ATOM     52  H   UNL A   1      44.070  28.557  28.029  1.00  0.00     0.167 HD
ATOM     53  C   UNL A   1      43.382  24.302  27.243  1.00  0.00     0.037 A 
ATOM     54  C   UNL A   1      45.647  30.841  28.298  1.00  0.00     0.037 A 
ATOM     55  C   UNL A   1      44.802  24.482  27.110  1.00  0.00     0.049 A 
ATOM     56  C   UNL A   1      46.597  29.704  28.020  1.00  0.00     0.074 A 
ATOM     57  C   UNL A   1      45.760  23.542  26.774  1.00  0.00     0.029 A 
ATOM     58  N   UNL A   1      45.469  25.681  27.312  1.00  0.00    -0.354 N 
ATOM     59  N   UNL A   1      46.331  28.445  27.764  1.00  0.00    -0.248 NA
ATOM     60  C   UNL A   1      48.033  30.021  28.022  1.00  0.00     0.031 C 
ATOM     61  C   UNL A   1      47.011  24.160  26.818  1.00  0.00     0.029 A 
ATOM     62  C   UNL A   1      46.828  25.499  27.128  1.00  0.00     0.049 A 
ATOM     63  H   UNL A   1      45.039  26.535  27.550  1.00  0.00     0.167 HD
ATOM     64  C   UNL A   1      47.558  27.830  27.547  1.00  0.00     0.074 A 
ATOM     65  C   UNL A   1      48.570  28.855  27.687  1.00  0.00     0.031 C 
ATOM     66  C   UNL A   1      47.823  26.532  27.257  1.00  0.00     0.037 A 
BRANCH  53  67
ATOM     67  C   UNL A   1      42.813  22.940  26.982  1.00  0.00     0.057 A 
ATOM     68  C   UNL A   1      42.670  22.444  25.681  1.00  0.00     0.134 A 
ATOM     69  C   UNL A   1      42.465  22.094  28.041  1.00  0.00     0.134 A 
ATOM     70  F   UNL A   1      42.969  23.212  24.621  1.00  0.00    -0.206 F 
ATOM     71  C   UNL A   1      42.193  21.154  25.441  1.00  0.00     0.040 A 
ATOM     72  C   UNL A   1      42.012  20.794  27.816  1.00  0.00     0.040 A 
ATOM     73  F   UNL A   1      42.578  22.510  29.311  1.00  0.00    -0.206 F 
ATOM     74  C   UNL A   1      41.873  20.321  26.513  1.00  0.00     0.006 A 
ENDBRANCH  53  67
BRANCH  54  75
ATOM     75  C   UNL A   1      46.162  32.223  28.490  1.00  0.00     0.057 A 
ATOM     76  C   UNL A   1      46.569  32.672  29.752  1.00  0.00     0.134 A 
ATOM     77  C   UNL A   1      46.239  33.132  27.428  1.00  0.00     0.134 A 
ATOM     78  F   UNL A   1      46.494  31.859  30.816  1.00  0.00    -0.206 F 
ATOM     79  C   UNL A   1      47.021  33.978  29.954  1.00  0.00     0.040 A 
ATOM     80  C   UNL A   1      46.714  34.432  27.610  1.00  0.00     0.040 A 
ATOM     81  F   UNL A   1      45.859  32.767  26.195  1.00  0.00    -0.206 F 
ATOM     82  C   UNL A   1      47.101  34.860  28.877  1.00  0.00     0.006 A 
ENDBRANCH  54  75
BRANCH  66  83
ATOM     83  C   UNL A   1      49.257  26.139  27.042  1.00  0.00     0.057 A 
ATOM     84  C   UNL A   1      49.843  26.152  25.771  1.00  0.00     0.134 A 
ATOM     85  C   UNL A   1      50.084  25.832  28.131  1.00  0.00     0.134 A 
ATOM     86  F   UNL A   1      49.106  26.430  24.685  1.00  0.00    -0.206 F 
ATOM     87  C   UNL A   1      51.196  25.863  25.589  1.00  0.00     0.040 A 
ATOM     88  C   UNL A   1      51.444  25.571  27.965  1.00  0.00     0.040 A 
ATOM     89  F   UNL A   1      49.589  25.816  29.379  1.00  0.00    -0.206 F 
ATOM     90  C   UNL A   1      52.004  25.583  26.690  1.00  0.00     0.006 A 
ENDBRANCH  66  83
ENDBRANCH  40  41
ENDBRANCH  33  35
ENDBRANCH  32  33
ENDBRANCH  31  32
ENDBRANCH  30  31
ENDBRANCH  29  30
ENDBRANCH  28  29
ENDBRANCH   1  28
TORSDOF 21
ENDMDL
