MODEL 1
REMARK VINA RESULT:      -7.5      0.000      0.000
REMARK SMILES CCOC(=O)C1=C(C)N(c2ccccc2)C(=O)[C@@H]1CC(=O)OCCOCCOCCOCCOC(=O)c1ccc(-c2c3nc(c(-c4c(F)cccc4F)c4ccc([nH]4)c(-c4c(F)cccc4F)c4nc(c(-c5c(F)cccc5F)c5ccc2[nH]5)C=C4)C=C3)cc1
REMARK SMILES IDX 27 1 26 2 25 3 24 4 23 5 22 6 20 7 21 8 19 9 18 10 6 11 7 12
REMARK SMILES IDX 8 13 9 14 16 15 17 16 4 17 5 18 3 19 2 20 1 21 10 22 11 23
REMARK SMILES IDX 15 24 12 25 14 26 13 27 28 28 29 29 30 30 31 31 32 32 33 33
REMARK SMILES IDX 34 34 35 35 36 36 37 37 38 38 90 39 39 40 89 41 40 42 41 43
REMARK SMILES IDX 42 44 83 45 43 46 88 47 82 48 84 49 44 50 87 51 81 52 80 53
REMARK SMILES IDX 45 55 71 56 54 57 70 58 55 59 58 60 69 61 85 62 56 63 57 64
REMARK SMILES IDX 68 66 86 67 59 68 46 69 47 70 52 71 48 72 49 73 51 74 53 75
REMARK SMILES IDX 50 76 72 77 73 78 78 79 74 80 75 81 77 82 79 83 76 84 60 85
REMARK SMILES IDX 61 86 66 87 62 88 63 89 65 90 67 91 64 92
REMARK H PARENT 84 54 58 65
REMARK Flexibility Score: inf
ROOT
ATOM      1  C   UNL A   1      45.855  25.412  27.620  1.00  0.00     0.188 C 
ENDROOT
BRANCH   1   2
ATOM      2  C   UNL A   1      47.118  25.397  28.492  1.00  0.00     0.188 C 
BRANCH   2   3
ATOM      3  O   UNL A   1      48.179  26.168  27.981  1.00  0.00    -0.376 OA
BRANCH   3   4
ATOM      4  C   UNL A   1      48.385  27.491  28.444  1.00  0.00     0.202 C 
BRANCH   4   5
ATOM      5  C   UNL A   1      48.511  28.726  27.529  1.00  0.00     0.261 C 
BRANCH   5   6
ATOM      6  O   UNL A   1      48.142  28.571  26.152  1.00  0.00    -0.463 OA
BRANCH   6   7
ATOM      7  C   UNL A   1      47.066  29.273  25.734  1.00  0.00     0.307 C 
ATOM      8  O   UNL A   1      46.463  29.053  24.688  1.00  0.00    -0.252 OA
BRANCH   7   9
ATOM      9  C   UNL A   1      46.574  30.327  26.703  1.00  0.00     0.141 C 
BRANCH   9  10
ATOM     10  C   UNL A   1      46.272  31.727  26.195  1.00  0.00     0.130 C 
ATOM     11  C   UNL A   1      47.096  32.803  26.845  1.00  0.00     0.070 C 
ATOM     12  C   UNL A   1      46.349  33.816  27.303  1.00  0.00     0.034 C 
ATOM     13  C   UNL A   1      46.817  34.997  28.091  1.00  0.00     0.065 C 
ATOM     14  N   UNL A   1      45.010  33.526  27.089  1.00  0.00    -0.284 N 
ATOM     15  C   UNL A   1      44.874  32.225  26.549  1.00  0.00     0.239 C 
ATOM     16  O   UNL A   1      43.845  31.601  26.336  1.00  0.00    -0.273 OA
BRANCH  11  17
ATOM     17  C   UNL A   1      48.540  32.681  27.040  1.00  0.00     0.336 C 
ATOM     18  O   UNL A   1      49.044  32.135  28.007  1.00  0.00    -0.246 OA
BRANCH  17  19
ATOM     19  O   UNL A   1      49.188  33.240  25.991  1.00  0.00    -0.463 OA
BRANCH  19  20
ATOM     20  C   UNL A   1      50.571  33.554  26.222  1.00  0.00     0.230 C 
ATOM     21  C   UNL A   1      51.478  32.864  25.215  1.00  0.00     0.049 C 
ENDBRANCH  19  20
ENDBRANCH  17  19
ENDBRANCH  11  17
BRANCH  14  22
ATOM     22  C   UNL A   1      43.880  34.344  27.354  1.00  0.00     0.049 A 
ATOM     23  C   UNL A   1      43.224  34.290  28.592  1.00  0.00     0.027 A 
ATOM     24  C   UNL A   1      43.422  35.262  26.401  1.00  0.00     0.027 A 
ATOM     25  C   UNL A   1      42.133  35.123  28.861  1.00  0.00     0.002 A 
ATOM     26  C   UNL A   1      42.325  36.085  26.662  1.00  0.00     0.002 A 
ATOM     27  C   UNL A   1      41.680  36.013  27.893  1.00  0.00     0.000 A 
ENDBRANCH  14  22
ENDBRANCH   9  10
ENDBRANCH   7   9
ENDBRANCH   6   7
ENDBRANCH   5   6
ENDBRANCH   4   5
ENDBRANCH   3   4
ENDBRANCH   2   3
ENDBRANCH   1   2
BRANCH   1  28
ATOM     28  O   UNL A   1      45.850  26.172  26.418  1.00  0.00    -0.377 OA
BRANCH  28  29
ATOM     29  C   UNL A   1      46.141  25.546  25.168  1.00  0.00     0.188 C 
BRANCH  29  30
ATOM     30  C   UNL A   1      46.511  24.049  25.100  1.00  0.00     0.188 C 
BRANCH  30  31
ATOM     31  O   UNL A   1      46.169  23.404  23.887  1.00  0.00    -0.376 OA
BRANCH  31  32
ATOM     32  C   UNL A   1      45.067  22.509  23.900  1.00  0.00     0.202 C 
BRANCH  32  33
ATOM     33  C   UNL A   1      44.186  22.503  25.158  1.00  0.00     0.261 C 
BRANCH  33  34
ATOM     34  O   UNL A   1      43.082  23.426  25.155  1.00  0.00    -0.460 OA
BRANCH  34  35
ATOM     35  C   UNL A   1      42.023  23.150  25.947  1.00  0.00     0.338 C 
ATOM     36  O   UNL A   1      41.502  22.074  26.145  1.00  0.00    -0.246 OA
BRANCH  35  37
ATOM     37  C   UNL A   1      41.691  24.385  26.683  1.00  0.00     0.060 A 
ATOM     38  C   UNL A   1      42.304  25.588  26.307  1.00  0.00     0.016 A 
ATOM     39  C   UNL A   1      40.796  24.345  27.753  1.00  0.00     0.016 A 
ATOM     40  C   UNL A   1      42.043  26.754  27.025  1.00  0.00     0.010 A 
ATOM     41  C   UNL A   1      40.551  25.510  28.483  1.00  0.00     0.010 A 
ATOM     42  C   UNL A   1      41.196  26.712  28.142  1.00  0.00    -0.014 A 
BRANCH  42  43
ATOM     43  C   UNL A   1      41.124  27.871  29.062  1.00  0.00     0.031 A 
ATOM     44  C   UNL A   1      42.156  27.985  30.150  1.00  0.00     0.074 A 
ATOM     45  C   UNL A   1      40.164  28.803  28.937  1.00  0.00     0.049 A 
ATOM     46  N   UNL A   1      42.248  28.858  31.120  1.00  0.00    -0.248 NA
ATOM     47  C   UNL A   1      43.224  26.973  30.146  1.00  0.00     0.031 C 
ATOM     48  C   UNL A   1      39.132  28.823  27.903  1.00  0.00     0.029 A 
ATOM     49  N   UNL A   1      39.894  29.908  29.706  1.00  0.00    -0.354 N 
ATOM     50  C   UNL A   1      43.373  28.492  31.848  1.00  0.00     0.074 A 
ATOM     51  C   UNL A   1      43.919  27.307  31.223  1.00  0.00     0.031 C 
ATOM     52  C   UNL A   1      38.326  29.878  28.114  1.00  0.00     0.029 A 
ATOM     53  C   UNL A   1      38.762  30.582  29.319  1.00  0.00     0.049 A 
ATOM     54  H   UNL A   1      40.458  30.190  30.463  1.00  0.00     0.167 HD
ATOM     55  C   UNL A   1      43.905  29.093  32.938  1.00  0.00     0.037 A 
ATOM     56  C   UNL A   1      38.135  31.629  29.893  1.00  0.00     0.037 A 
ATOM     57  C   UNL A   1      43.361  30.273  33.556  1.00  0.00     0.049 A 
ATOM     58  C   UNL A   1      38.708  32.238  31.148  1.00  0.00     0.074 A 
ATOM     59  C   UNL A   1      43.846  30.977  34.644  1.00  0.00     0.029 A 
ATOM     60  N   UNL A   1      42.204  30.917  33.145  1.00  0.00    -0.354 N 
ATOM     61  N   UNL A   1      39.791  31.909  31.810  1.00  0.00    -0.248 NA
ATOM     62  C   UNL A   1      37.970  33.366  31.736  1.00  0.00     0.031 C 
ATOM     63  C   UNL A   1      42.949  32.010  34.930  1.00  0.00     0.029 A 
ATOM     64  C   UNL A   1      41.939  31.989  33.982  1.00  0.00     0.049 A 
ATOM     65  H   UNL A   1      41.652  30.652  32.374  1.00  0.00     0.167 HD
ATOM     66  C   UNL A   1      39.879  32.803  32.871  1.00  0.00     0.074 A 
ATOM     67  C   UNL A   1      38.748  33.698  32.757  1.00  0.00     0.031 C 
ATOM     68  C   UNL A   1      40.813  32.877  33.852  1.00  0.00     0.037 A 
BRANCH  55  69
ATOM     69  C   UNL A   1      45.118  28.463  33.558  1.00  0.00     0.057 A 
ATOM     70  C   UNL A   1      46.418  28.843  33.202  1.00  0.00     0.134 A 
ATOM     71  C   UNL A   1      44.979  27.494  34.559  1.00  0.00     0.134 A 
ATOM     72  F   UNL A   1      46.621  29.755  32.239  1.00  0.00    -0.206 F 
ATOM     73  C   UNL A   1      47.536  28.267  33.806  1.00  0.00     0.040 A 
ATOM     74  C   UNL A   1      46.089  26.930  35.190  1.00  0.00     0.040 A 
ATOM     75  F   UNL A   1      43.762  27.086  34.950  1.00  0.00    -0.206 F 
ATOM     76  C   UNL A   1      47.373  27.314  34.810  1.00  0.00     0.006 A 
ENDBRANCH  55  69
BRANCH  56  77
ATOM     77  C   UNL A   1      36.871  32.151  29.312  1.00  0.00     0.057 A 
ATOM     78  C   UNL A   1      35.665  31.453  29.443  1.00  0.00     0.134 A 
ATOM     79  C   UNL A   1      36.846  33.344  28.577  1.00  0.00     0.134 A 
ATOM     80  F   UNL A   1      35.627  30.290  30.110  1.00  0.00    -0.206 F 
ATOM     81  C   UNL A   1      34.487  31.909  28.847  1.00  0.00     0.040 A 
ATOM     82  C   UNL A   1      35.671  33.826  28.002  1.00  0.00     0.040 A 
ATOM     83  F   UNL A   1      37.968  34.060  28.410  1.00  0.00    -0.206 F 
ATOM     84  C   UNL A   1      34.487  33.102  28.128  1.00  0.00     0.006 A 
ENDBRANCH  56  77
BRANCH  68  85
ATOM     85  C   UNL A   1      40.677  33.983  34.859  1.00  0.00     0.057 A 
ATOM     86  C   UNL A   1      41.169  35.272  34.616  1.00  0.00     0.134 A 
ATOM     87  C   UNL A   1      39.995  33.768  36.064  1.00  0.00     0.134 A 
ATOM     88  F   UNL A   1      41.840  35.544  33.487  1.00  0.00    -0.206 F 
ATOM     89  C   UNL A   1      41.004  36.302  35.545  1.00  0.00     0.040 A 
ATOM     90  C   UNL A   1      39.798  34.797  36.986  1.00  0.00     0.040 A 
ATOM     91  F   UNL A   1      39.488  32.561  36.354  1.00  0.00    -0.206 F 
ATOM     92  C   UNL A   1      40.309  36.067  36.730  1.00  0.00     0.006 A 
ENDBRANCH  68  85
ENDBRANCH  42  43
ENDBRANCH  35  37
ENDBRANCH  34  35
ENDBRANCH  33  34
ENDBRANCH  32  33
ENDBRANCH  31  32
ENDBRANCH  30  31
ENDBRANCH  29  30
ENDBRANCH  28  29
ENDBRANCH   1  28
TORSDOF 25
ENDMDL
MODEL 2
REMARK VINA RESULT:      -7.2      3.254      8.215
REMARK SMILES CCOC(=O)C1=C(C)N(c2ccccc2)C(=O)[C@@H]1CC(=O)OCCOCCOCCOCCOC(=O)c1ccc(-c2c3nc(c(-c4c(F)cccc4F)c4ccc([nH]4)c(-c4c(F)cccc4F)c4nc(c(-c5c(F)cccc5F)c5ccc2[nH]5)C=C4)C=C3)cc1
REMARK SMILES IDX 27 1 26 2 25 3 24 4 23 5 22 6 20 7 21 8 19 9 18 10 6 11 7 12
REMARK SMILES IDX 8 13 9 14 16 15 17 16 4 17 5 18 3 19 2 20 1 21 10 22 11 23
REMARK SMILES IDX 15 24 12 25 14 26 13 27 28 28 29 29 30 30 31 31 32 32 33 33
REMARK SMILES IDX 34 34 35 35 36 36 37 37 38 38 90 39 39 40 89 41 40 42 41 43
REMARK SMILES IDX 42 44 83 45 43 46 88 47 82 48 84 49 44 50 87 51 81 52 80 53
REMARK SMILES IDX 45 55 71 56 54 57 70 58 55 59 58 60 69 61 85 62 56 63 57 64
REMARK SMILES IDX 68 66 86 67 59 68 46 69 47 70 52 71 48 72 49 73 51 74 53 75
REMARK SMILES IDX 50 76 72 77 73 78 78 79 74 80 75 81 77 82 79 83 76 84 60 85
REMARK SMILES IDX 61 86 66 87 62 88 63 89 65 90 67 91 64 92
REMARK H PARENT 84 54 58 65
REMARK Flexibility Score: inf
ROOT
ATOM      1  C   UNL A   1      48.663  27.854  21.743  1.00  0.00     0.188 C 
ENDROOT
BRANCH   1   2
ATOM      2  C   UNL A   1      47.471  28.147  22.666  1.00  0.00     0.188 C 
BRANCH   2   3
ATOM      3  O   UNL A   1      47.101  27.065  23.488  1.00  0.00    -0.376 OA
BRANCH   3   4
ATOM      4  C   UNL A   1      47.112  27.207  24.898  1.00  0.00     0.202 C 
BRANCH   4   5
ATOM      5  C   UNL A   1      45.936  27.760  25.729  1.00  0.00     0.261 C 
BRANCH   5   6
ATOM      6  O   UNL A   1      44.773  28.204  25.017  1.00  0.00    -0.463 OA
BRANCH   6   7
ATOM      7  C   UNL A   1      43.646  27.482  25.195  1.00  0.00     0.307 C 
ATOM      8  O   UNL A   1      42.577  27.725  24.642  1.00  0.00    -0.252 OA
BRANCH   7   9
ATOM      9  C   UNL A   1      43.800  26.261  26.077  1.00  0.00     0.141 C 
BRANCH   9  10
ATOM     10  C   UNL A   1      42.852  25.087  25.900  1.00  0.00     0.130 C 
ATOM     11  C   UNL A   1      42.301  24.548  27.191  1.00  0.00     0.070 C 
ATOM     12  C   UNL A   1      42.439  23.219  27.293  1.00  0.00     0.034 C 
ATOM     13  C   UNL A   1      42.103  22.366  28.473  1.00  0.00     0.065 C 
ATOM     14  N   UNL A   1      43.119  22.747  26.181  1.00  0.00    -0.284 N 
ATOM     15  C   UNL A   1      43.521  23.827  25.360  1.00  0.00     0.239 C 
ATOM     16  O   UNL A   1      44.227  23.795  24.363  1.00  0.00    -0.273 OA
BRANCH  11  17
ATOM     17  C   UNL A   1      41.778  25.412  28.248  1.00  0.00     0.336 C 
ATOM     18  O   UNL A   1      42.455  25.826  29.174  1.00  0.00    -0.246 OA
BRANCH  17  19
ATOM     19  O   UNL A   1      40.472  25.677  28.012  1.00  0.00    -0.463 OA
BRANCH  19  20
ATOM     20  C   UNL A   1      40.210  26.923  27.344  1.00  0.00     0.230 C 
ATOM     21  C   UNL A   1      39.312  27.826  28.174  1.00  0.00     0.049 C 
ENDBRANCH  19  20
ENDBRANCH  17  19
ENDBRANCH  11  17
BRANCH  14  22
ATOM     22  C   UNL A   1      43.422  21.401  25.841  1.00  0.00     0.049 A 
ATOM     23  C   UNL A   1      42.494  20.375  26.060  1.00  0.00     0.027 A 
ATOM     24  C   UNL A   1      44.640  21.075  25.232  1.00  0.00     0.027 A 
ATOM     25  C   UNL A   1      42.784  19.057  25.691  1.00  0.00     0.002 A 
ATOM     26  C   UNL A   1      44.937  19.758  24.876  1.00  0.00     0.002 A 
ATOM     27  C   UNL A   1      44.009  18.749  25.108  1.00  0.00     0.000 A 
ENDBRANCH  14  22
ENDBRANCH   9  10
ENDBRANCH   7   9
ENDBRANCH   6   7
ENDBRANCH   5   6
ENDBRANCH   4   5
ENDBRANCH   3   4
ENDBRANCH   2   3
ENDBRANCH   1   2
BRANCH   1  28
ATOM     28  O   UNL A   1      49.982  28.096  22.215  1.00  0.00    -0.377 OA
BRANCH  28  29
ATOM     29  C   UNL A   1      50.471  27.416  23.371  1.00  0.00     0.188 C 
BRANCH  29  30
ATOM     30  C   UNL A   1      51.987  27.257  23.612  1.00  0.00     0.188 C 
BRANCH  30  31
ATOM     31  O   UNL A   1      52.651  28.433  24.036  1.00  0.00    -0.376 OA
BRANCH  31  32
ATOM     32  C   UNL A   1      53.689  28.299  24.996  1.00  0.00     0.202 C 
BRANCH  32  33
ATOM     33  C   UNL A   1      53.304  28.479  26.471  1.00  0.00     0.261 C 
BRANCH  33  34
ATOM     34  O   UNL A   1      53.510  27.332  27.317  1.00  0.00    -0.460 OA
BRANCH  34  35
ATOM     35  C   UNL A   1      52.697  26.267  27.146  1.00  0.00     0.338 C 
ATOM     36  O   UNL A   1      52.952  25.215  26.602  1.00  0.00    -0.246 OA
BRANCH  35  37
ATOM     37  C   UNL A   1      51.457  26.536  27.900  1.00  0.00     0.060 A 
ATOM     38  C   UNL A   1      50.233  26.101  27.374  1.00  0.00     0.016 A 
ATOM     39  C   UNL A   1      51.506  27.234  29.107  1.00  0.00     0.016 A 
ATOM     40  C   UNL A   1      49.046  26.393  28.046  1.00  0.00     0.010 A 
ATOM     41  C   UNL A   1      50.316  27.542  29.768  1.00  0.00     0.010 A 
ATOM     42  C   UNL A   1      49.079  27.150  29.225  1.00  0.00    -0.014 A 
BRANCH  42  43
ATOM     43  C   UNL A   1      47.822  27.689  29.794  1.00  0.00     0.031 A 
ATOM     44  C   UNL A   1      47.162  26.932  30.913  1.00  0.00     0.074 A 
ATOM     45  C   UNL A   1      47.274  28.825  29.329  1.00  0.00     0.049 A 
ATOM     46  N   UNL A   1      46.021  27.158  31.511  1.00  0.00    -0.248 NA
ATOM     47  C   UNL A   1      47.886  25.755  31.422  1.00  0.00     0.031 C 
ATOM     48  C   UNL A   1      47.837  29.666  28.275  1.00  0.00     0.029 A 
ATOM     49  N   UNL A   1      46.105  29.455  29.678  1.00  0.00    -0.354 N 
ATOM     50  C   UNL A   1      45.884  26.147  32.454  1.00  0.00     0.074 A 
ATOM     51  C   UNL A   1      47.046  25.293  32.335  1.00  0.00     0.031 C 
ATOM     52  C   UNL A   1      47.001  30.695  28.048  1.00  0.00     0.029 A 
ATOM     53  C   UNL A   1      45.828  30.560  28.911  1.00  0.00     0.049 A 
ATOM     54  H   UNL A   1      45.521  29.144  30.407  1.00  0.00     0.167 HD
ATOM     55  C   UNL A   1      44.880  25.951  33.341  1.00  0.00     0.037 A 
ATOM     56  C   UNL A   1      44.736  31.351  28.889  1.00  0.00     0.037 A 
ATOM     57  C   UNL A   1      43.727  26.803  33.457  1.00  0.00     0.049 A 
ATOM     58  C   UNL A   1      43.600  31.070  29.839  1.00  0.00     0.074 A 
ATOM     59  C   UNL A   1      42.672  26.708  34.347  1.00  0.00     0.029 A 
ATOM     60  N   UNL A   1      43.473  27.903  32.651  1.00  0.00    -0.354 N 
ATOM     61  N   UNL A   1      43.493  30.134  30.751  1.00  0.00    -0.248 NA
ATOM     62  C   UNL A   1      42.429  31.957  29.756  1.00  0.00     0.031 C 
ATOM     63  C   UNL A   1      41.749  27.711  34.040  1.00  0.00     0.029 A 
ATOM     64  C   UNL A   1      42.260  28.472  33.000  1.00  0.00     0.049 A 
ATOM     65  H   UNL A   1      44.068  28.230  31.938  1.00  0.00     0.167 HD
ATOM     66  C   UNL A   1      42.263  30.337  31.367  1.00  0.00     0.074 A 
ATOM     67  C   UNL A   1      41.666  31.493  30.735  1.00  0.00     0.031 C 
ATOM     68  C   UNL A   1      41.680  29.629  32.367  1.00  0.00     0.037 A 
BRANCH  55  69
ATOM     69  C   UNL A   1      44.964  24.746  34.232  1.00  0.00     0.057 A 
ATOM     70  C   UNL A   1      45.562  24.797  35.497  1.00  0.00     0.134 A 
ATOM     71  C   UNL A   1      44.397  23.530  33.832  1.00  0.00     0.134 A 
ATOM     72  F   UNL A   1      46.137  25.927  35.934  1.00  0.00    -0.206 F 
ATOM     73  C   UNL A   1      45.609  23.674  36.325  1.00  0.00     0.040 A 
ATOM     74  C   UNL A   1      44.414  22.408  34.662  1.00  0.00     0.040 A 
ATOM     75  F   UNL A   1      43.807  23.413  32.633  1.00  0.00    -0.206 F 
ATOM     76  C   UNL A   1      45.026  22.478  35.912  1.00  0.00     0.006 A 
ENDBRANCH  55  69
BRANCH  56  77
ATOM     77  C   UNL A   1      44.642  32.466  27.911  1.00  0.00     0.057 A 
ATOM     78  C   UNL A   1      44.082  32.278  26.642  1.00  0.00     0.134 A 
ATOM     79  C   UNL A   1      45.146  33.739  28.209  1.00  0.00     0.134 A 
ATOM     80  F   UNL A   1      43.607  31.075  26.286  1.00  0.00    -0.206 F 
ATOM     81  C   UNL A   1      44.046  33.307  25.698  1.00  0.00     0.040 A 
ATOM     82  C   UNL A   1      45.090  34.783  27.286  1.00  0.00     0.040 A 
ATOM     83  F   UNL A   1      45.700  33.985  29.406  1.00  0.00    -0.206 F 
ATOM     84  C   UNL A   1      44.548  34.566  26.022  1.00  0.00     0.006 A 
ENDBRANCH  56  77
BRANCH  68  85
ATOM     85  C   UNL A   1      40.347  30.104  32.869  1.00  0.00     0.057 A 
ATOM     86  C   UNL A   1      40.234  31.071  33.875  1.00  0.00     0.134 A 
ATOM     87  C   UNL A   1      39.160  29.626  32.296  1.00  0.00     0.134 A 
ATOM     88  F   UNL A   1      41.330  31.563  34.473  1.00  0.00    -0.206 F 
ATOM     89  C   UNL A   1      38.988  31.532  34.308  1.00  0.00     0.040 A 
ATOM     90  C   UNL A   1      37.911  30.101  32.699  1.00  0.00     0.040 A 
ATOM     91  F   UNL A   1      39.196  28.708  31.318  1.00  0.00    -0.206 F 
ATOM     92  C   UNL A   1      37.823  31.052  33.713  1.00  0.00     0.006 A 
ENDBRANCH  68  85
ENDBRANCH  42  43
ENDBRANCH  35  37
ENDBRANCH  34  35
ENDBRANCH  33  34
ENDBRANCH  32  33
ENDBRANCH  31  32
ENDBRANCH  30  31
ENDBRANCH  29  30
ENDBRANCH  28  29
ENDBRANCH   1  28
TORSDOF 25
ENDMDL
MODEL 3
REMARK VINA RESULT:      -7.2      3.234      9.391
REMARK SMILES CCOC(=O)C1=C(C)N(c2ccccc2)C(=O)[C@@H]1CC(=O)OCCOCCOCCOCCOC(=O)c1ccc(-c2c3nc(c(-c4c(F)cccc4F)c4ccc([nH]4)c(-c4c(F)cccc4F)c4nc(c(-c5c(F)cccc5F)c5ccc2[nH]5)C=C4)C=C3)cc1
REMARK SMILES IDX 27 1 26 2 25 3 24 4 23 5 22 6 20 7 21 8 19 9 18 10 6 11 7 12
REMARK SMILES IDX 8 13 9 14 16 15 17 16 4 17 5 18 3 19 2 20 1 21 10 22 11 23
REMARK SMILES IDX 15 24 12 25 14 26 13 27 28 28 29 29 30 30 31 31 32 32 33 33
REMARK SMILES IDX 34 34 35 35 36 36 37 37 38 38 90 39 39 40 89 41 40 42 41 43
REMARK SMILES IDX 42 44 83 45 43 46 88 47 82 48 84 49 44 50 87 51 81 52 80 53
REMARK SMILES IDX 45 55 71 56 54 57 70 58 55 59 58 60 69 61 85 62 56 63 57 64
REMARK SMILES IDX 68 66 86 67 59 68 46 69 47 70 52 71 48 72 49 73 51 74 53 75
REMARK SMILES IDX 50 76 72 77 73 78 78 79 74 80 75 81 77 82 79 83 76 84 60 85
REMARK SMILES IDX 61 86 66 87 62 88 63 89 65 90 67 91 64 92
REMARK H PARENT 84 54 58 65
REMARK Flexibility Score: inf
ROOT
ATOM      1  C   UNL A   1      48.557  27.834  21.673  1.00  0.00     0.188 C 
ENDROOT
BRANCH   1   2
ATOM      2  C   UNL A   1      47.553  28.146  22.791  1.00  0.00     0.188 C 
BRANCH   2   3
ATOM      3  O   UNL A   1      47.146  27.018  23.530  1.00  0.00    -0.376 OA
BRANCH   3   4
ATOM      4  C   UNL A   1      47.084  27.079  24.944  1.00  0.00     0.202 C 
BRANCH   4   5
ATOM      5  C   UNL A   1      45.812  27.420  25.748  1.00  0.00     0.261 C 
BRANCH   5   6
ATOM      6  O   UNL A   1      44.723  28.026  25.039  1.00  0.00    -0.463 OA
BRANCH   6   7
ATOM      7  C   UNL A   1      43.517  27.431  25.164  1.00  0.00     0.307 C 
ATOM      8  O   UNL A   1      42.490  27.834  24.626  1.00  0.00    -0.252 OA
BRANCH   7   9
ATOM      9  C   UNL A   1      43.519  26.143  25.959  1.00  0.00     0.141 C 
BRANCH   9  10
ATOM     10  C   UNL A   1      42.995  24.868  25.319  1.00  0.00     0.130 C 
ATOM     11  C   UNL A   1      42.053  24.088  26.194  1.00  0.00     0.070 C 
ATOM     12  C   UNL A   1      42.392  22.795  26.288  1.00  0.00     0.034 C 
ATOM     13  C   UNL A   1      41.749  21.755  27.148  1.00  0.00     0.065 C 
ATOM     14  N   UNL A   1      43.568  22.581  25.586  1.00  0.00    -0.284 N 
ATOM     15  C   UNL A   1      44.067  23.808  25.087  1.00  0.00     0.239 C 
ATOM     16  O   UNL A   1      45.130  24.014  24.518  1.00  0.00    -0.273 OA
BRANCH  11  17
ATOM     17  C   UNL A   1      40.962  24.717  26.936  1.00  0.00     0.336 C 
ATOM     18  O   UNL A   1      39.820  24.792  26.516  1.00  0.00    -0.246 OA
BRANCH  17  19
ATOM     19  O   UNL A   1      41.422  25.160  28.129  1.00  0.00    -0.463 OA
BRANCH  19  20
ATOM     20  C   UNL A   1      40.708  26.277  28.685  1.00  0.00     0.230 C 
ATOM     21  C   UNL A   1      41.642  27.428  29.022  1.00  0.00     0.049 C 
ENDBRANCH  19  20
ENDBRANCH  17  19
ENDBRANCH  11  17
BRANCH  14  22
ATOM     22  C   UNL A   1      44.248  21.354  25.361  1.00  0.00     0.049 A 
ATOM     23  C   UNL A   1      45.648  21.303  25.316  1.00  0.00     0.027 A 
ATOM     24  C   UNL A   1      43.536  20.156  25.231  1.00  0.00     0.027 A 
ATOM     25  C   UNL A   1      46.314  20.087  25.131  1.00  0.00     0.002 A 
ATOM     26  C   UNL A   1      44.198  18.943  25.031  1.00  0.00     0.002 A 
ATOM     27  C   UNL A   1      45.588  18.910  24.980  1.00  0.00     0.000 A 
ENDBRANCH  14  22
ENDBRANCH   9  10
ENDBRANCH   7   9
ENDBRANCH   6   7
ENDBRANCH   5   6
ENDBRANCH   4   5
ENDBRANCH   3   4
ENDBRANCH   2   3
ENDBRANCH   1   2
BRANCH   1  28
ATOM     28  O   UNL A   1      49.944  28.033  21.910  1.00  0.00    -0.377 OA
BRANCH  28  29
ATOM     29  C   UNL A   1      50.514  27.703  23.177  1.00  0.00     0.188 C 
BRANCH  29  30
ATOM     30  C   UNL A   1      52.036  27.500  23.331  1.00  0.00     0.188 C 
BRANCH  30  31
ATOM     31  O   UNL A   1      52.802  28.691  23.313  1.00  0.00    -0.376 OA
BRANCH  31  32
ATOM     32  C   UNL A   1      53.560  29.009  24.471  1.00  0.00     0.202 C 
BRANCH  32  33
ATOM     33  C   UNL A   1      52.780  29.264  25.768  1.00  0.00     0.261 C 
BRANCH  33  34
ATOM     34  O   UNL A   1      53.195  28.494  26.911  1.00  0.00    -0.460 OA
BRANCH  34  35
ATOM     35  C   UNL A   1      52.752  27.222  27.011  1.00  0.00     0.338 C 
ATOM     36  O   UNL A   1      53.331  26.205  26.698  1.00  0.00    -0.246 OA
BRANCH  35  37
ATOM     37  C   UNL A   1      51.469  27.260  27.740  1.00  0.00     0.060 A 
ATOM     38  C   UNL A   1      50.353  26.617  27.188  1.00  0.00     0.016 A 
ATOM     39  C   UNL A   1      51.370  27.946  28.951  1.00  0.00     0.016 A 
ATOM     40  C   UNL A   1      49.120  26.687  27.837  1.00  0.00     0.010 A 
ATOM     41  C   UNL A   1      50.131  28.031  29.589  1.00  0.00     0.010 A 
ATOM     42  C   UNL A   1      48.995  27.429  29.019  1.00  0.00    -0.014 A 
BRANCH  42  43
ATOM     43  C   UNL A   1      47.651  27.731  29.565  1.00  0.00     0.031 A 
ATOM     44  C   UNL A   1      46.926  28.943  29.051  1.00  0.00     0.074 A 
ATOM     45  C   UNL A   1      47.085  26.948  30.500  1.00  0.00     0.049 A 
ATOM     46  N   UNL A   1      45.785  29.455  29.434  1.00  0.00    -0.248 NA
ATOM     47  C   UNL A   1      47.581  29.682  27.958  1.00  0.00     0.031 C 
ATOM     48  C   UNL A   1      47.671  25.728  31.051  1.00  0.00     0.029 A 
ATOM     49  N   UNL A   1      45.890  27.081  31.164  1.00  0.00    -0.354 N 
ATOM     50  C   UNL A   1      45.594  30.580  28.642  1.00  0.00     0.074 A 
ATOM     51  C   UNL A   1      46.744  30.691  27.772  1.00  0.00     0.031 C 
ATOM     52  C   UNL A   1      46.841  25.233  31.986  1.00  0.00     0.029 A 
ATOM     53  C   UNL A   1      45.689  26.122  32.126  1.00  0.00     0.049 A 
ATOM     54  H   UNL A   1      45.240  27.794  30.969  1.00  0.00     0.167 HD
ATOM     55  C   UNL A   1      44.550  31.442  28.640  1.00  0.00     0.037 A 
ATOM     56  C   UNL A   1      44.702  25.998  33.037  1.00  0.00     0.037 A 
ATOM     57  C   UNL A   1      43.406  31.328  29.504  1.00  0.00     0.049 A 
ATOM     58  C   UNL A   1      43.586  27.011  33.060  1.00  0.00     0.074 A 
ATOM     59  C   UNL A   1      42.281  32.132  29.555  1.00  0.00     0.029 A 
ATOM     60  N   UNL A   1      43.246  30.354  30.478  1.00  0.00    -0.354 N 
ATOM     61  N   UNL A   1      43.393  28.052  32.285  1.00  0.00    -0.248 NA
ATOM     62  C   UNL A   1      42.547  26.833  34.086  1.00  0.00     0.031 C 
ATOM     63  C   UNL A   1      41.469  31.682  30.600  1.00  0.00     0.029 A 
ATOM     64  C   UNL A   1      42.058  30.560  31.160  1.00  0.00     0.049 A 
ATOM     65  H   UNL A   1      43.883  29.625  30.658  1.00  0.00     0.167 HD
ATOM     66  C   UNL A   1      42.203  28.632  32.710  1.00  0.00     0.074 A 
ATOM     67  C   UNL A   1      41.710  27.820  33.802  1.00  0.00     0.031 C 
ATOM     68  C   UNL A   1      41.574  29.738  32.239  1.00  0.00     0.037 A 
BRANCH  55  69
ATOM     69  C   UNL A   1      44.612  32.608  27.697  1.00  0.00     0.057 A 
ATOM     70  C   UNL A   1      45.243  33.810  28.041  1.00  0.00     0.134 A 
ATOM     71  C   UNL A   1      44.071  32.507  26.409  1.00  0.00     0.134 A 
ATOM     72  F   UNL A   1      45.768  33.978  29.263  1.00  0.00    -0.206 F 
ATOM     73  C   UNL A   1      45.316  34.877  27.143  1.00  0.00     0.040 A 
ATOM     74  C   UNL A   1      44.162  33.556  25.493  1.00  0.00     0.040 A 
ATOM     75  F   UNL A   1      43.455  31.382  26.014  1.00  0.00    -0.206 F 
ATOM     76  C   UNL A   1      44.783  34.748  25.861  1.00  0.00     0.006 A 
ENDBRANCH  55  69
BRANCH  56  77
ATOM     77  C   UNL A   1      44.737  24.893  34.029  1.00  0.00     0.057 A 
ATOM     78  C   UNL A   1      45.272  25.079  35.310  1.00  0.00     0.134 A 
ATOM     79  C   UNL A   1      44.270  23.611  33.708  1.00  0.00     0.134 A 
ATOM     80  F   UNL A   1      45.761  26.275  35.669  1.00  0.00    -0.206 F 
ATOM     81  C   UNL A   1      45.363  24.028  36.225  1.00  0.00     0.040 A 
ATOM     82  C   UNL A   1      44.327  22.560  34.623  1.00  0.00     0.040 A 
ATOM     83  F   UNL A   1      43.749  23.364  32.497  1.00  0.00    -0.206 F 
ATOM     84  C   UNL A   1      44.885  22.765  35.883  1.00  0.00     0.006 A 
ENDBRANCH  56  77
BRANCH  68  85
ATOM     85  C   UNL A   1      40.266  30.116  32.872  1.00  0.00     0.057 A 
ATOM     86  C   UNL A   1      40.192  31.010  33.947  1.00  0.00     0.134 A 
ATOM     87  C   UNL A   1      39.059  29.620  32.359  1.00  0.00     0.134 A 
ATOM     88  F   UNL A   1      41.310  31.514  34.491  1.00  0.00    -0.206 F 
ATOM     89  C   UNL A   1      38.966  31.383  34.503  1.00  0.00     0.040 A 
ATOM     90  C   UNL A   1      37.826  30.009  32.888  1.00  0.00     0.040 A 
ATOM     91  F   UNL A   1      39.056  28.769  31.322  1.00  0.00    -0.206 F 
ATOM     92  C   UNL A   1      37.779  30.888  33.967  1.00  0.00     0.006 A 
ENDBRANCH  68  85
ENDBRANCH  42  43
ENDBRANCH  35  37
ENDBRANCH  34  35
ENDBRANCH  33  34
ENDBRANCH  32  33
ENDBRANCH  31  32
ENDBRANCH  30  31
ENDBRANCH  29  30
ENDBRANCH  28  29
ENDBRANCH   1  28
TORSDOF 25
ENDMDL
