MODEL 1
REMARK VINA RESULT:     -12.2      0.000      0.000
REMARK SMILES C=C1C[C@@]23CC[C@H]4[C@@](C)(CCC[C@@]4(C)C(=O)OCCOCCOCCOCCOC(=O)c4ccc(-c5c6nc(c(-c7c(F)cccc7F)c7ccc([nH]7)c(-c7c(F)cccc7F)c7nc(c(-c8c(F)cccc8F)c8ccc5[nH]8)C=C7)C=C6)cc4)[C@H]2CC[C@]1(O)C3
REMARK SMILES IDX 24 1 23 2 22 3 21 4 20 5 19 6 18 7 17 8 15 9 16 10 13 11
REMARK SMILES IDX 1 12 2 13 3 14 89 15 4 16 88 17 91 18 5 19 86 20 87 21 6 22
REMARK SMILES IDX 8 23 7 24 9 25 10 26 11 27 12 28 14 29 90 30 25 32 26 33
REMARK SMILES IDX 27 34 28 35 29 36 30 37 31 38 32 39 33 40 85 41 34 42 84 43
REMARK SMILES IDX 35 44 36 45 37 46 78 47 38 48 83 49 77 50 79 51 39 52 82 53
REMARK SMILES IDX 76 54 75 55 40 57 66 58 49 59 65 60 50 61 53 62 64 63 80 64
REMARK SMILES IDX 51 65 52 66 63 68 81 69 54 70 41 71 42 72 47 73 43 74 44 75
REMARK SMILES IDX 46 76 48 77 45 78 67 79 68 80 73 81 69 82 70 83 72 84 74 85
REMARK SMILES IDX 71 86 55 87 56 88 61 89 57 90 58 91 60 92 62 93 59 94
REMARK H PARENT 90 31 79 56 53 67
REMARK Flexibility Score: inf
ROOT
ATOM      1  C   UNL A   1      41.653  20.046  26.900  1.00  0.00     0.188 C 
ENDROOT
BRANCH   1   2
ATOM      2  O   UNL A   1      40.323  20.296  26.474  1.00  0.00    -0.377 OA
BRANCH   2   3
ATOM      3  C   UNL A   1      40.073  21.639  26.120  1.00  0.00     0.188 C 
BRANCH   3   4
ATOM      4  C   UNL A   1      38.622  22.138  26.097  1.00  0.00     0.188 C 
BRANCH   4   5
ATOM      5  O   UNL A   1      37.943  21.908  24.879  1.00  0.00    -0.376 OA
BRANCH   5   6
ATOM      6  C   UNL A   1      37.378  20.609  24.759  1.00  0.00     0.202 C 
BRANCH   6   7
ATOM      7  C   UNL A   1      35.875  20.544  25.081  1.00  0.00     0.261 C 
BRANCH   7   8
ATOM      8  O   UNL A   1      35.047  21.703  24.799  1.00  0.00    -0.463 OA
BRANCH   8   9
ATOM      9  C   UNL A   1      34.517  22.479  25.791  1.00  0.00     0.312 C 
ATOM     10  O   UNL A   1      35.172  22.807  26.774  1.00  0.00    -0.252 OA
BRANCH   9  11
ATOM     11  C   UNL A   1      32.947  22.826  25.565  1.00  0.00     0.069 C 
ATOM     12  C   UNL A   1      30.024  29.822  22.016  1.00  0.00     0.011 C 
ATOM     13  C   UNL A   1      30.750  28.874  22.627  1.00  0.00    -0.045 C 
ATOM     14  C   UNL A   1      30.775  27.388  22.274  1.00  0.00     0.040 C 
ATOM     15  C   UNL A   1      31.442  29.039  23.954  1.00  0.00     0.086 C 
ATOM     16  C   UNL A   1      31.163  26.693  23.627  1.00  0.00    -0.020 C 
ATOM     17  C   UNL A   1      32.982  28.949  23.814  1.00  0.00     0.040 C 
ATOM     18  C   UNL A   1      30.817  27.826  24.631  1.00  0.00     0.047 C 
ATOM     19  C   UNL A   1      30.362  25.455  23.984  1.00  0.00     0.008 C 
ATOM     20  C   UNL A   1      32.686  26.440  23.820  1.00  0.00     0.002 C 
ATOM     21  C   UNL A   1      33.525  27.606  23.230  1.00  0.00     0.008 C 
ATOM     22  C   UNL A   1      30.937  24.784  25.285  1.00  0.00     0.006 C 
ATOM     23  C   UNL A   1      33.275  24.967  24.104  1.00  0.00    -0.025 C 
ATOM     24  C   UNL A   1      32.297  24.144  24.928  1.00  0.00     0.012 C 
ATOM     25  C   UNL A   1      34.492  25.369  25.003  1.00  0.00     0.012 C 
ATOM     26  C   UNL A   1      33.548  23.864  22.954  1.00  0.00     0.007 C 
ATOM     27  C   UNL A   1      32.905  22.358  23.048  1.00  0.00     0.002 C 
ATOM     28  C   UNL A   1      32.548  21.780  24.493  1.00  0.00     0.019 C 
ATOM     29  C   UNL A   1      32.348  22.696  26.967  1.00  0.00     0.024 C 
BRANCH  15  30
ATOM     30  O   UNL A   1      31.084  30.221  24.644  1.00  0.00    -0.386 OA
ATOM     31  H   UNL A   1      31.441  30.189  25.545  1.00  0.00     0.211 HD
ENDBRANCH  15  30
ENDBRANCH   9  11
ENDBRANCH   8   9
ENDBRANCH   7   8
ENDBRANCH   6   7
ENDBRANCH   5   6
ENDBRANCH   4   5
ENDBRANCH   3   4
ENDBRANCH   2   3
ENDBRANCH   1   2
BRANCH   1  32
ATOM     32  C   UNL A   1      42.556  19.206  25.965  1.00  0.00     0.188 C 
BRANCH  32  33
ATOM     33  O   UNL A   1      43.357  19.942  25.047  1.00  0.00    -0.376 OA
BRANCH  33  34
ATOM     34  C   UNL A   1      43.939  21.174  25.497  1.00  0.00     0.202 C 
BRANCH  34  35
ATOM     35  C   UNL A   1      44.477  22.245  24.502  1.00  0.00     0.261 C 
BRANCH  35  36
ATOM     36  O   UNL A   1      43.832  23.525  24.516  1.00  0.00    -0.460 OA
BRANCH  36  37
ATOM     37  C   UNL A   1      44.537  24.544  25.038  1.00  0.00     0.338 C 
ATOM     38  O   UNL A   1      45.653  24.917  24.693  1.00  0.00    -0.246 OA
BRANCH  37  39
ATOM     39  C   UNL A   1      43.659  25.318  25.935  1.00  0.00     0.060 A 
ATOM     40  C   UNL A   1      44.029  26.640  26.211  1.00  0.00     0.016 A 
ATOM     41  C   UNL A   1      42.505  24.772  26.502  1.00  0.00     0.016 A 
ATOM     42  C   UNL A   1      43.233  27.435  27.023  1.00  0.00     0.010 A 
ATOM     43  C   UNL A   1      41.745  25.548  27.388  1.00  0.00     0.010 A 
ATOM     44  C   UNL A   1      42.123  26.876  27.662  1.00  0.00    -0.014 A 
BRANCH  44  45
ATOM     45  C   UNL A   1      41.572  27.623  28.812  1.00  0.00     0.031 A 
ATOM     46  C   UNL A   1      42.311  27.518  30.118  1.00  0.00     0.074 A 
ATOM     47  C   UNL A   1      40.541  28.474  28.668  1.00  0.00     0.049 A 
ATOM     48  N   UNL A   1      42.083  28.121  31.254  1.00  0.00    -0.248 NA
ATOM     49  C   UNL A   1      43.483  26.625  30.135  1.00  0.00     0.031 C 
ATOM     50  C   UNL A   1      39.809  28.718  27.427  1.00  0.00     0.029 A 
ATOM     51  N   UNL A   1      39.944  29.304  29.582  1.00  0.00    -0.354 N 
ATOM     52  C   UNL A   1      43.093  27.698  32.109  1.00  0.00     0.074 A 
ATOM     53  C   UNL A   1      43.915  26.761  31.378  1.00  0.00     0.031 C 
ATOM     54  C   UNL A   1      38.844  29.627  27.663  1.00  0.00     0.029 A 
ATOM     55  C   UNL A   1      38.879  30.007  29.073  1.00  0.00     0.049 A 
ATOM     56  H   UNL A   1      40.249  29.388  30.514  1.00  0.00     0.167 HD
ATOM     57  C   UNL A   1      43.323  28.070  33.388  1.00  0.00     0.037 A 
ATOM     58  C   UNL A   1      38.023  30.842  29.695  1.00  0.00     0.037 A 
ATOM     59  C   UNL A   1      42.486  28.981  34.118  1.00  0.00     0.049 A 
ATOM     60  C   UNL A   1      38.230  31.141  31.160  1.00  0.00     0.074 A 
ATOM     61  C   UNL A   1      42.600  29.392  35.434  1.00  0.00     0.029 A 
ATOM     62  N   UNL A   1      41.375  29.620  33.591  1.00  0.00    -0.354 N 
ATOM     63  N   UNL A   1      39.185  30.736  31.964  1.00  0.00    -0.248 NA
ATOM     64  C   UNL A   1      37.244  32.021  31.803  1.00  0.00     0.031 C 
ATOM     65  C   UNL A   1      41.528  30.242  35.717  1.00  0.00     0.029 A 
ATOM     66  C   UNL A   1      40.782  30.409  34.561  1.00  0.00     0.049 A 
ATOM     67  H   UNL A   1      41.054  29.527  32.665  1.00  0.00     0.167 HD
ATOM     68  C   UNL A   1      38.934  31.337  33.191  1.00  0.00     0.074 A 
ATOM     69  C   UNL A   1      37.750  32.153  33.020  1.00  0.00     0.031 C 
ATOM     70  C   UNL A   1      39.614  31.227  34.359  1.00  0.00     0.037 A 
BRANCH  57  71
ATOM     71  C   UNL A   1      44.508  27.471  34.082  1.00  0.00     0.057 A 
ATOM     72  C   UNL A   1      45.752  28.117  34.106  1.00  0.00     0.134 A 
ATOM     73  C   UNL A   1      44.397  26.256  34.768  1.00  0.00     0.134 A 
ATOM     74  F   UNL A   1      45.932  29.272  33.448  1.00  0.00    -0.206 F 
ATOM     75  C   UNL A   1      46.844  27.571  34.783  1.00  0.00     0.040 A 
ATOM     76  C   UNL A   1      45.473  25.713  35.470  1.00  0.00     0.040 A 
ATOM     77  F   UNL A   1      43.236  25.584  34.778  1.00  0.00    -0.206 F 
ATOM     78  C   UNL A   1      46.703  26.371  35.477  1.00  0.00     0.006 A 
ENDBRANCH  57  71
BRANCH  58  79
ATOM     79  C   UNL A   1      36.863  31.424  28.966  1.00  0.00     0.057 A 
ATOM     80  C   UNL A   1      36.837  32.770  28.579  1.00  0.00     0.134 A 
ATOM     81  C   UNL A   1      35.713  30.665  28.716  1.00  0.00     0.134 A 
ATOM     82  F   UNL A   1      37.895  33.561  28.810  1.00  0.00    -0.206 F 
ATOM     83  C   UNL A   1      35.699  33.347  28.010  1.00  0.00     0.040 A 
ATOM     84  C   UNL A   1      34.582  31.220  28.118  1.00  0.00     0.040 A 
ATOM     85  F   UNL A   1      35.667  29.370  29.062  1.00  0.00    -0.206 F 
ATOM     86  C   UNL A   1      34.567  32.571  27.777  1.00  0.00     0.006 A 
ENDBRANCH  58  79
BRANCH  70  87
ATOM     87  C   UNL A   1      39.126  32.044  35.521  1.00  0.00     0.057 A 
ATOM     88  C   UNL A   1      38.309  31.502  36.520  1.00  0.00     0.134 A 
ATOM     89  C   UNL A   1      39.509  33.385  35.656  1.00  0.00     0.134 A 
ATOM     90  F   UNL A   1      37.900  30.226  36.447  1.00  0.00    -0.206 F 
ATOM     91  C   UNL A   1      37.861  32.273  37.594  1.00  0.00     0.040 A 
ATOM     92  C   UNL A   1      39.096  34.157  36.742  1.00  0.00     0.040 A 
ATOM     93  F   UNL A   1      40.303  33.964  34.743  1.00  0.00    -0.206 F 
ATOM     94  C   UNL A   1      38.261  33.603  37.710  1.00  0.00     0.006 A 
ENDBRANCH  70  87
ENDBRANCH  44  45
ENDBRANCH  37  39
ENDBRANCH  36  37
ENDBRANCH  35  36
ENDBRANCH  34  35
ENDBRANCH  33  34
ENDBRANCH  32  33
ENDBRANCH   1  32
TORSDOF 21
ENDMDL
MODEL 2
REMARK VINA RESULT:     -11.6      0.993      5.986
REMARK SMILES C=C1C[C@@]23CC[C@H]4[C@@](C)(CCC[C@@]4(C)C(=O)OCCOCCOCCOCCOC(=O)c4ccc(-c5c6nc(c(-c7c(F)cccc7F)c7ccc([nH]7)c(-c7c(F)cccc7F)c7nc(c(-c8c(F)cccc8F)c8ccc5[nH]8)C=C7)C=C6)cc4)[C@H]2CC[C@]1(O)C3
REMARK SMILES IDX 24 1 23 2 22 3 21 4 20 5 19 6 18 7 17 8 15 9 16 10 13 11
REMARK SMILES IDX 1 12 2 13 3 14 89 15 4 16 88 17 91 18 5 19 86 20 87 21 6 22
REMARK SMILES IDX 8 23 7 24 9 25 10 26 11 27 12 28 14 29 90 30 25 32 26 33
REMARK SMILES IDX 27 34 28 35 29 36 30 37 31 38 32 39 33 40 85 41 34 42 84 43
REMARK SMILES IDX 35 44 36 45 37 46 78 47 38 48 83 49 77 50 79 51 39 52 82 53
REMARK SMILES IDX 76 54 75 55 40 57 66 58 49 59 65 60 50 61 53 62 64 63 80 64
REMARK SMILES IDX 51 65 52 66 63 68 81 69 54 70 41 71 42 72 47 73 43 74 44 75
REMARK SMILES IDX 46 76 48 77 45 78 67 79 68 80 73 81 69 82 70 83 72 84 74 85
REMARK SMILES IDX 71 86 55 87 56 88 61 89 57 90 58 91 60 92 62 93 59 94
REMARK H PARENT 90 31 79 56 53 67
REMARK Flexibility Score: inf
ROOT
ATOM      1  C   UNL A   1      42.582  20.181  26.526  1.00  0.00     0.188 C 
ENDROOT
BRANCH   1   2
ATOM      2  O   UNL A   1      41.572  21.125  26.210  1.00  0.00    -0.377 OA
BRANCH   2   3
ATOM      3  C   UNL A   1      40.261  20.605  26.248  1.00  0.00     0.188 C 
BRANCH   3   4
ATOM      4  C   UNL A   1      39.083  21.549  25.974  1.00  0.00     0.188 C 
BRANCH   4   5
ATOM      5  O   UNL A   1      39.179  22.805  26.613  1.00  0.00    -0.376 OA
BRANCH   5   6
ATOM      6  C   UNL A   1      38.140  23.714  26.277  1.00  0.00     0.202 C 
BRANCH   6   7
ATOM      7  C   UNL A   1      37.026  23.105  25.408  1.00  0.00     0.261 C 
BRANCH   7   8
ATOM      8  O   UNL A   1      35.684  23.007  25.955  1.00  0.00    -0.463 OA
BRANCH   8   9
ATOM      9  C   UNL A   1      34.655  22.431  25.265  1.00  0.00     0.312 C 
ATOM     10  O   UNL A   1      34.855  21.671  24.325  1.00  0.00    -0.252 OA
BRANCH   9  11
ATOM     11  C   UNL A   1      33.191  22.927  25.762  1.00  0.00     0.069 C 
ATOM     12  C   UNL A   1      29.394  29.964  23.284  1.00  0.00     0.011 C 
ATOM     13  C   UNL A   1      30.260  28.984  23.580  1.00  0.00    -0.045 C 
ATOM     14  C   UNL A   1      30.019  27.485  23.411  1.00  0.00     0.040 C 
ATOM     15  C   UNL A   1      31.506  29.155  24.407  1.00  0.00     0.086 C 
ATOM     16  C   UNL A   1      30.955  26.836  24.491  1.00  0.00    -0.020 C 
ATOM     17  C   UNL A   1      32.788  28.896  23.576  1.00  0.00     0.040 C 
ATOM     18  C   UNL A   1      31.200  28.058  25.419  1.00  0.00     0.047 C 
ATOM     19  C   UNL A   1      30.341  25.714  25.306  1.00  0.00     0.008 C 
ATOM     20  C   UNL A   1      32.369  26.437  23.978  1.00  0.00     0.002 C 
ATOM     21  C   UNL A   1      32.901  27.470  22.948  1.00  0.00     0.008 C 
ATOM     22  C   UNL A   1      31.419  25.065  26.251  1.00  0.00     0.006 C 
ATOM     23  C   UNL A   1      32.925  24.929  24.105  1.00  0.00    -0.025 C 
ATOM     24  C   UNL A   1      32.403  24.265  25.369  1.00  0.00     0.012 C 
ATOM     25  C   UNL A   1      34.446  25.255  24.287  1.00  0.00     0.012 C 
ATOM     26  C   UNL A   1      32.550  23.736  23.081  1.00  0.00     0.007 C 
ATOM     27  C   UNL A   1      31.933  22.315  23.618  1.00  0.00     0.002 C 
ATOM     28  C   UNL A   1      32.267  21.866  25.114  1.00  0.00     0.019 C 
ATOM     29  C   UNL A   1      33.320  22.946  27.287  1.00  0.00     0.024 C 
BRANCH  15  30
ATOM     30  O   UNL A   1      31.595  30.407  25.058  1.00  0.00    -0.386 OA
ATOM     31  H   UNL A   1      32.420  30.451  25.565  1.00  0.00     0.211 HD
ENDBRANCH  15  30
ENDBRANCH   9  11
ENDBRANCH   8   9
ENDBRANCH   7   8
ENDBRANCH   6   7
ENDBRANCH   5   6
ENDBRANCH   4   5
ENDBRANCH   3   4
ENDBRANCH   2   3
ENDBRANCH   1   2
BRANCH   1  32
ATOM     32  C   UNL A   1      43.440  19.637  25.358  1.00  0.00     0.188 C 
BRANCH  32  33
ATOM     33  O   UNL A   1      44.255  20.593  24.688  1.00  0.00    -0.376 OA
BRANCH  33  34
ATOM     34  C   UNL A   1      45.474  21.004  25.323  1.00  0.00     0.202 C 
BRANCH  34  35
ATOM     35  C   UNL A   1      45.703  22.469  25.803  1.00  0.00     0.261 C 
BRANCH  35  36
ATOM     36  O   UNL A   1      44.613  23.107  26.480  1.00  0.00    -0.460 OA
BRANCH  36  37
ATOM     37  C   UNL A   1      43.909  24.004  25.767  1.00  0.00     0.338 C 
ATOM     38  O   UNL A   1      43.656  23.952  24.567  1.00  0.00    -0.246 OA
BRANCH  37  39
ATOM     39  C   UNL A   1      43.265  24.949  26.697  1.00  0.00     0.060 A 
ATOM     40  C   UNL A   1      43.869  26.203  26.856  1.00  0.00     0.016 A 
ATOM     41  C   UNL A   1      42.106  24.625  27.406  1.00  0.00     0.016 A 
ATOM     42  C   UNL A   1      43.300  27.153  27.693  1.00  0.00     0.010 A 
ATOM     43  C   UNL A   1      41.578  25.554  28.314  1.00  0.00     0.010 A 
ATOM     44  C   UNL A   1      42.189  26.812  28.470  1.00  0.00    -0.014 A 
BRANCH  44  45
ATOM     45  C   UNL A   1      41.888  27.689  29.621  1.00  0.00     0.031 A 
ATOM     46  C   UNL A   1      40.713  28.618  29.488  1.00  0.00     0.074 A 
ATOM     47  C   UNL A   1      42.542  27.564  30.789  1.00  0.00     0.049 A 
ATOM     48  N   UNL A   1      40.195  29.435  30.365  1.00  0.00    -0.248 NA
ATOM     49  C   UNL A   1      40.012  28.604  28.191  1.00  0.00     0.031 C 
ATOM     50  C   UNL A   1      43.638  26.634  31.053  1.00  0.00     0.029 A 
ATOM     51  N   UNL A   1      42.361  28.220  31.980  1.00  0.00    -0.354 N 
ATOM     52  C   UNL A   1      39.100  30.013  29.736  1.00  0.00     0.074 A 
ATOM     53  C   UNL A   1      39.045  29.485  28.392  1.00  0.00     0.031 C 
ATOM     54  C   UNL A   1      44.046  26.793  32.326  1.00  0.00     0.029 A 
ATOM     55  C   UNL A   1      43.255  27.849  32.954  1.00  0.00     0.049 A 
ATOM     56  H   UNL A   1      41.656  28.892  32.122  1.00  0.00     0.167 HD
ATOM     57  C   UNL A   1      38.209  30.897  30.239  1.00  0.00     0.037 A 
ATOM     58  C   UNL A   1      43.420  28.334  34.200  1.00  0.00     0.037 A 
ATOM     59  C   UNL A   1      38.285  31.439  31.567  1.00  0.00     0.049 A 
ATOM     60  C   UNL A   1      42.487  29.414  34.692  1.00  0.00     0.074 A 
ATOM     61  C   UNL A   1      37.462  32.377  32.164  1.00  0.00     0.029 A 
ATOM     62  N   UNL A   1      39.247  31.093  32.503  1.00  0.00    -0.354 N 
ATOM     63  N   UNL A   1      41.456  29.958  34.091  1.00  0.00    -0.248 NA
ATOM     64  C   UNL A   1      42.737  29.942  36.042  1.00  0.00     0.031 C 
ATOM     65  C   UNL A   1      37.956  32.634  33.446  1.00  0.00     0.029 A 
ATOM     66  C   UNL A   1      39.049  31.812  33.668  1.00  0.00     0.049 A 
ATOM     67  H   UNL A   1      39.965  30.434  32.360  1.00  0.00     0.167 HD
ATOM     68  C   UNL A   1      40.916  30.862  34.998  1.00  0.00     0.074 A 
ATOM     69  C   UNL A   1      41.721  30.776  36.198  1.00  0.00     0.031 C 
ATOM     70  C   UNL A   1      39.854  31.693  34.857  1.00  0.00     0.037 A 
BRANCH  57  71
ATOM     71  C   UNL A   1      37.097  31.348  29.342  1.00  0.00     0.057 A 
ATOM     72  C   UNL A   1      35.969  30.550  29.108  1.00  0.00     0.134 A 
ATOM     73  C   UNL A   1      37.133  32.609  28.736  1.00  0.00     0.134 A 
ATOM     74  F   UNL A   1      35.883  29.320  29.639  1.00  0.00    -0.206 F 
ATOM     75  C   UNL A   1      34.920  30.989  28.299  1.00  0.00     0.040 A 
ATOM     76  C   UNL A   1      36.080  33.070  27.946  1.00  0.00     0.040 A 
ATOM     77  F   UNL A   1      38.187  33.419  28.914  1.00  0.00    -0.206 F 
ATOM     78  C   UNL A   1      34.969  32.257  27.724  1.00  0.00     0.006 A 
ENDBRANCH  57  71
BRANCH  58  79
ATOM     79  C   UNL A   1      44.533  27.851  35.064  1.00  0.00     0.057 A 
ATOM     80  C   UNL A   1      44.358  26.796  35.968  1.00  0.00     0.134 A 
ATOM     81  C   UNL A   1      45.776  28.495  35.065  1.00  0.00     0.134 A 
ATOM     82  F   UNL A   1      43.185  26.151  36.035  1.00  0.00    -0.206 F 
ATOM     83  C   UNL A   1      45.362  26.427  36.867  1.00  0.00     0.040 A 
ATOM     84  C   UNL A   1      46.799  28.116  35.935  1.00  0.00     0.040 A 
ATOM     85  F   UNL A   1      46.013  29.516  34.228  1.00  0.00    -0.206 F 
ATOM     86  C   UNL A   1      46.588  27.088  36.851  1.00  0.00     0.006 A 
ENDBRANCH  58  79
BRANCH  70  87
ATOM     87  C   UNL A   1      39.473  32.533  36.043  1.00  0.00     0.057 A 
ATOM     88  C   UNL A   1      38.545  32.097  36.995  1.00  0.00     0.134 A 
ATOM     89  C   UNL A   1      40.072  33.783  36.248  1.00  0.00     0.134 A 
ATOM     90  F   UNL A   1      37.929  30.913  36.854  1.00  0.00    -0.206 F 
ATOM     91  C   UNL A   1      38.198  32.889  38.091  1.00  0.00     0.040 A 
ATOM     92  C   UNL A   1      39.759  34.569  37.358  1.00  0.00     0.040 A 
ATOM     93  F   UNL A   1      40.981  34.255  35.382  1.00  0.00    -0.206 F 
ATOM     94  C   UNL A   1      38.812  34.126  38.278  1.00  0.00     0.006 A 
ENDBRANCH  70  87
ENDBRANCH  44  45
ENDBRANCH  37  39
ENDBRANCH  36  37
ENDBRANCH  35  36
ENDBRANCH  34  35
ENDBRANCH  33  34
ENDBRANCH  32  33
ENDBRANCH   1  32
TORSDOF 21
ENDMDL
MODEL 3
REMARK VINA RESULT:     -10.8      3.639      5.604
REMARK SMILES C=C1C[C@@]23CC[C@H]4[C@@](C)(CCC[C@@]4(C)C(=O)OCCOCCOCCOCCOC(=O)c4ccc(-c5c6nc(c(-c7c(F)cccc7F)c7ccc([nH]7)c(-c7c(F)cccc7F)c7nc(c(-c8c(F)cccc8F)c8ccc5[nH]8)C=C7)C=C6)cc4)[C@H]2CC[C@]1(O)C3
REMARK SMILES IDX 24 1 23 2 22 3 21 4 20 5 19 6 18 7 17 8 15 9 16 10 13 11
REMARK SMILES IDX 1 12 2 13 3 14 89 15 4 16 88 17 91 18 5 19 86 20 87 21 6 22
REMARK SMILES IDX 8 23 7 24 9 25 10 26 11 27 12 28 14 29 90 30 25 32 26 33
REMARK SMILES IDX 27 34 28 35 29 36 30 37 31 38 32 39 33 40 85 41 34 42 84 43
REMARK SMILES IDX 35 44 36 45 37 46 78 47 38 48 83 49 77 50 79 51 39 52 82 53
REMARK SMILES IDX 76 54 75 55 40 57 66 58 49 59 65 60 50 61 53 62 64 63 80 64
REMARK SMILES IDX 51 65 52 66 63 68 81 69 54 70 41 71 42 72 47 73 43 74 44 75
REMARK SMILES IDX 46 76 48 77 45 78 67 79 68 80 73 81 69 82 70 83 72 84 74 85
REMARK SMILES IDX 71 86 55 87 56 88 61 89 57 90 58 91 60 92 62 93 59 94
REMARK H PARENT 90 31 79 56 53 67
REMARK Flexibility Score: inf
ROOT
ATOM      1  C   UNL A   1      36.231  20.192  25.000  1.00  0.00     0.188 C 
ENDROOT
BRANCH   1   2
ATOM      2  O   UNL A   1      34.981  19.617  24.657  1.00  0.00    -0.377 OA
BRANCH   2   3
ATOM      3  C   UNL A   1      33.886  20.498  24.782  1.00  0.00     0.188 C 
BRANCH   3   4
ATOM      4  C   UNL A   1      33.160  20.587  26.130  1.00  0.00     0.188 C 
BRANCH   4   5
ATOM      5  O   UNL A   1      33.843  21.337  27.114  1.00  0.00    -0.376 OA
BRANCH   5   6
ATOM      6  C   UNL A   1      33.118  22.454  27.608  1.00  0.00     0.202 C 
BRANCH   6   7
ATOM      7  C   UNL A   1      31.870  22.811  26.781  1.00  0.00     0.261 C 
BRANCH   7   8
ATOM      8  O   UNL A   1      31.842  24.075  26.065  1.00  0.00    -0.463 OA
BRANCH   8   9
ATOM      9  C   UNL A   1      32.026  24.151  24.713  1.00  0.00     0.312 C 
ATOM     10  O   UNL A   1      31.802  23.196  23.977  1.00  0.00    -0.252 OA
BRANCH   9  11
ATOM     11  C   UNL A   1      32.642  25.572  24.228  1.00  0.00     0.069 C 
ATOM     12  C   UNL A   1      28.166  32.462  22.625  1.00  0.00     0.011 C 
ATOM     13  C   UNL A   1      28.608  31.214  22.841  1.00  0.00    -0.045 C 
ATOM     14  C   UNL A   1      29.639  30.790  23.884  1.00  0.00     0.040 C 
ATOM     15  C   UNL A   1      28.399  30.052  21.907  1.00  0.00     0.086 C 
ATOM     16  C   UNL A   1      30.274  29.492  23.270  1.00  0.00    -0.020 C 
ATOM     17  C   UNL A   1      27.514  28.953  22.547  1.00  0.00     0.040 C 
ATOM     18  C   UNL A   1      29.866  29.660  21.781  1.00  0.00     0.047 C 
ATOM     19  C   UNL A   1      31.786  29.394  23.359  1.00  0.00     0.008 C 
ATOM     20  C   UNL A   1      29.607  28.161  23.719  1.00  0.00     0.002 C 
ATOM     21  C   UNL A   1      28.070  28.328  23.866  1.00  0.00     0.008 C 
ATOM     22  C   UNL A   1      32.278  27.995  22.833  1.00  0.00     0.006 C 
ATOM     23  C   UNL A   1      30.450  26.980  24.421  1.00  0.00    -0.025 C 
ATOM     24  C   UNL A   1      31.866  26.927  23.870  1.00  0.00     0.012 C 
ATOM     25  C   UNL A   1      29.641  25.756  23.875  1.00  0.00     0.012 C 
ATOM     26  C   UNL A   1      30.843  26.957  25.989  1.00  0.00     0.007 C 
ATOM     27  C   UNL A   1      32.399  26.776  26.474  1.00  0.00     0.002 C 
ATOM     28  C   UNL A   1      33.412  26.026  25.494  1.00  0.00     0.019 C 
ATOM     29  C   UNL A   1      33.447  25.204  22.979  1.00  0.00     0.024 C 
BRANCH  15  30
ATOM     30  O   UNL A   1      27.882  30.418  20.643  1.00  0.00    -0.386 OA
ATOM     31  H   UNL A   1      27.156  29.821  20.405  1.00  0.00     0.211 HD
ENDBRANCH  15  30
ENDBRANCH   9  11
ENDBRANCH   8   9
ENDBRANCH   7   8
ENDBRANCH   6   7
ENDBRANCH   5   6
ENDBRANCH   4   5
ENDBRANCH   3   4
ENDBRANCH   2   3
ENDBRANCH   1   2
BRANCH   1  32
ATOM     32  C   UNL A   1      36.497  21.646  24.543  1.00  0.00     0.188 C 
BRANCH  32  33
ATOM     33  O   UNL A   1      37.796  22.158  24.821  1.00  0.00    -0.376 OA
BRANCH  33  34
ATOM     34  C   UNL A   1      38.607  21.459  25.776  1.00  0.00     0.202 C 
BRANCH  34  35
ATOM     35  C   UNL A   1      39.461  20.216  25.384  1.00  0.00     0.261 C 
BRANCH  35  36
ATOM     36  O   UNL A   1      40.324  19.677  26.395  1.00  0.00    -0.460 OA
BRANCH  36  37
ATOM     37  C   UNL A   1      41.642  19.697  26.128  1.00  0.00     0.338 C 
ATOM     38  O   UNL A   1      42.267  18.880  25.459  1.00  0.00    -0.246 OA
BRANCH  37  39
ATOM     39  C   UNL A   1      42.192  20.996  26.556  1.00  0.00     0.060 A 
ATOM     40  C   UNL A   1      42.144  21.293  27.923  1.00  0.00     0.016 A 
ATOM     41  C   UNL A   1      42.737  21.910  25.650  1.00  0.00     0.016 A 
ATOM     42  C   UNL A   1      42.671  22.485  28.400  1.00  0.00     0.010 A 
ATOM     43  C   UNL A   1      43.194  23.148  26.121  1.00  0.00     0.010 A 
ATOM     44  C   UNL A   1      43.143  23.442  27.496  1.00  0.00    -0.014 A 
BRANCH  44  45
ATOM     45  C   UNL A   1      43.296  24.820  28.007  1.00  0.00     0.031 A 
ATOM     46  C   UNL A   1      44.698  25.325  28.212  1.00  0.00     0.074 A 
ATOM     47  C   UNL A   1      42.239  25.639  28.145  1.00  0.00     0.049 A 
ATOM     48  N   UNL A   1      45.111  26.508  28.581  1.00  0.00    -0.248 NA
ATOM     49  C   UNL A   1      45.784  24.366  27.939  1.00  0.00     0.031 C 
ATOM     50  C   UNL A   1      40.846  25.279  27.889  1.00  0.00     0.029 A 
ATOM     51  N   UNL A   1      42.183  26.956  28.525  1.00  0.00    -0.354 N 
ATOM     52  C   UNL A   1      46.499  26.441  28.564  1.00  0.00     0.074 A 
ATOM     53  C   UNL A   1      46.861  25.095  28.184  1.00  0.00     0.031 C 
ATOM     54  C   UNL A   1      40.068  26.349  28.138  1.00  0.00     0.029 A 
ATOM     55  C   UNL A   1      40.906  27.456  28.591  1.00  0.00     0.049 A 
ATOM     56  H   UNL A   1      42.984  27.492  28.730  1.00  0.00     0.167 HD
ATOM     57  C   UNL A   1      47.392  27.420  28.827  1.00  0.00     0.037 A 
ATOM     58  C   UNL A   1      40.475  28.667  28.997  1.00  0.00     0.037 A 
ATOM     59  C   UNL A   1      47.024  28.749  29.230  1.00  0.00     0.049 A 
ATOM     60  C   UNL A   1      41.494  29.703  29.408  1.00  0.00     0.074 A 
ATOM     61  C   UNL A   1      47.849  29.807  29.568  1.00  0.00     0.029 A 
ATOM     62  N   UNL A   1      45.719  29.200  29.355  1.00  0.00    -0.354 N 
ATOM     63  N   UNL A   1      42.804  29.632  29.393  1.00  0.00    -0.248 NA
ATOM     64  C   UNL A   1      40.972  30.992  29.887  1.00  0.00     0.031 C 
ATOM     65  C   UNL A   1      47.041  30.884  29.944  1.00  0.00     0.029 A 
ATOM     66  C   UNL A   1      45.715  30.516  29.782  1.00  0.00     0.049 A 
ATOM     67  H   UNL A   1      44.915  28.663  29.168  1.00  0.00     0.167 HD
ATOM     68  C   UNL A   1      43.260  30.873  29.823  1.00  0.00     0.074 A 
ATOM     69  C   UNL A   1      42.087  31.684  30.070  1.00  0.00     0.031 C 
ATOM     70  C   UNL A   1      44.532  31.307  30.002  1.00  0.00     0.037 A 
BRANCH  57  71
ATOM     71  C   UNL A   1      48.847  27.081  28.713  1.00  0.00     0.057 A 
ATOM     72  C   UNL A   1      49.544  26.465  29.760  1.00  0.00     0.134 A 
ATOM     73  C   UNL A   1      49.549  27.336  27.529  1.00  0.00     0.134 A 
ATOM     74  F   UNL A   1      48.936  26.216  30.929  1.00  0.00    -0.206 F 
ATOM     75  C   UNL A   1      50.891  26.120  29.635  1.00  0.00     0.040 A 
ATOM     76  C   UNL A   1      50.888  26.973  27.383  1.00  0.00     0.040 A 
ATOM     77  F   UNL A   1      48.942  27.930  26.491  1.00  0.00    -0.206 F 
ATOM     78  C   UNL A   1      51.564  26.364  28.439  1.00  0.00     0.006 A 
ENDBRANCH  57  71
BRANCH  58  79
ATOM     79  C   UNL A   1      39.020  28.967  29.087  1.00  0.00     0.057 A 
ATOM     80  C   UNL A   1      38.310  29.502  28.005  1.00  0.00     0.134 A 
ATOM     81  C   UNL A   1      38.324  28.805  30.291  1.00  0.00     0.134 A 
ATOM     82  F   UNL A   1      38.922  29.705  26.830  1.00  0.00    -0.206 F 
ATOM     83  C   UNL A   1      36.977  29.901  28.128  1.00  0.00     0.040 A 
ATOM     84  C   UNL A   1      36.983  29.169  30.419  1.00  0.00     0.040 A 
ATOM     85  F   UNL A   1      38.941  28.301  31.370  1.00  0.00    -0.206 F 
ATOM     86  C   UNL A   1      36.309  29.735  29.339  1.00  0.00     0.006 A 
ENDBRANCH  58  79
BRANCH  70  87
ATOM     87  C   UNL A   1      44.719  32.733  30.438  1.00  0.00     0.057 A 
ATOM     88  C   UNL A   1      44.862  33.778  29.518  1.00  0.00     0.134 A 
ATOM     89  C   UNL A   1      44.721  33.064  31.799  1.00  0.00     0.134 A 
ATOM     90  F   UNL A   1      44.877  33.528  28.200  1.00  0.00    -0.206 F 
ATOM     91  C   UNL A   1      45.038  35.098  29.936  1.00  0.00     0.040 A 
ATOM     92  C   UNL A   1      44.861  34.384  32.229  1.00  0.00     0.040 A 
ATOM     93  F   UNL A   1      44.573  32.113  32.734  1.00  0.00    -0.206 F 
ATOM     94  C   UNL A   1      45.030  35.404  31.296  1.00  0.00     0.006 A 
ENDBRANCH  70  87
ENDBRANCH  44  45
ENDBRANCH  37  39
ENDBRANCH  36  37
ENDBRANCH  35  36
ENDBRANCH  34  35
ENDBRANCH  33  34
ENDBRANCH  32  33
ENDBRANCH   1  32
TORSDOF 21
ENDMDL
