MODEL 1
REMARK VINA RESULT:      -9.7      0.000      0.000
REMARK SMILES Cc1cccc(-n2ncc(C(=O)Nc3cccc(C(=O)OCCOCCOCCOCCOC(=O)c4ccc(-c5c6nc(c(-c7c(F)cccc7F)c7ccc([nH]7)c(-c7c(F)cccc7F)c7nc(c(-c8c(F)cccc8F)c8ccc5[nH]8)C=C7)C=C6)cc4)c3C)c2C)c1
REMARK SMILES IDX 26 1 25 2 24 3 23 4 22 5 21 6 19 7 20 8 18 9 14 10 15 11
REMARK SMILES IDX 90 12 16 13 91 14 17 15 13 16 11 17 12 18 10 20 7 21 8 22
REMARK SMILES IDX 92 23 9 24 93 25 6 26 1 27 2 28 3 29 94 30 4 31 5 32 27 33
REMARK SMILES IDX 28 34 29 35 30 36 31 37 32 38 33 39 34 40 35 41 36 42 37 43
REMARK SMILES IDX 89 44 38 45 88 46 39 47 40 48 41 49 82 50 42 51 87 52 81 53
REMARK SMILES IDX 83 54 43 55 86 56 80 57 79 58 44 60 70 61 53 62 69 63 54 64
REMARK SMILES IDX 57 65 68 66 84 67 55 68 56 69 67 71 85 72 58 73 45 74 46 75
REMARK SMILES IDX 51 76 47 77 48 78 50 79 52 80 49 81 71 82 72 83 77 84 73 85
REMARK SMILES IDX 74 86 76 87 78 88 75 89 59 90 60 91 65 92 61 93 62 94 64 95
REMARK SMILES IDX 66 96 63 97
REMARK H PARENT 13 19 83 59 57 70
REMARK Flexibility Score: inf
ROOT
ATOM      1  C   UNL A   1      34.818  32.984  29.600  1.00  0.00     0.188 C 
ENDROOT
BRANCH   1   2
ATOM      2  C   UNL A   1      35.066  31.830  28.598  1.00  0.00     0.188 C 
BRANCH   2   3
ATOM      3  O   UNL A   1      34.038  31.404  27.706  1.00  0.00    -0.376 OA
BRANCH   3   4
ATOM      4  C   UNL A   1      33.796  30.011  27.562  1.00  0.00     0.202 C 
BRANCH   4   5
ATOM      5  C   UNL A   1      34.574  29.185  26.543  1.00  0.00     0.261 C 
BRANCH   5   6
ATOM      6  O   UNL A   1      33.913  27.991  26.183  1.00  0.00    -0.460 OA
BRANCH   6   7
ATOM      7  C   UNL A   1      32.976  28.026  25.231  1.00  0.00     0.338 C 
ATOM      8  O   UNL A   1      32.806  28.777  24.301  1.00  0.00    -0.246 OA
BRANCH   7   9
ATOM      9  C   UNL A   1      32.407  26.689  25.341  1.00  0.00     0.065 A 
ATOM     10  C   UNL A   1      32.127  24.521  24.411  1.00  0.00     0.045 A 
ATOM     11  C   UNL A   1      31.299  24.170  25.485  1.00  0.00     0.026 A 
ATOM     12  C   UNL A   1      32.761  25.760  24.349  1.00  0.00    -0.013 A 
ATOM     13  C   UNL A   1      31.040  25.090  26.502  1.00  0.00     0.003 A 
ATOM     14  C   UNL A   1      33.669  26.117  23.195  1.00  0.00     0.047 C 
ATOM     15  C   UNL A   1      31.573  26.372  26.417  1.00  0.00     0.016 A 
BRANCH  10  16
ATOM     16  N   UNL A   1      32.165  23.707  23.282  1.00  0.00    -0.322 N 
ATOM     17  C   UNL A   1      32.930  22.558  23.184  1.00  0.00     0.259 C 
ATOM     18  O   UNL A   1      32.724  21.814  22.225  1.00  0.00    -0.269 OA
ATOM     19  H   UNL A   1      31.613  23.963  22.508  1.00  0.00     0.170 HD
BRANCH  17  20
ATOM     20  C   UNL A   1      33.961  22.268  24.183  1.00  0.00     0.081 A 
ATOM     21  N   UNL A   1      35.928  22.197  25.225  1.00  0.00    -0.237 N 
ATOM     22  N   UNL A   1      35.098  21.487  26.016  1.00  0.00    -0.175 NA
ATOM     23  C   UNL A   1      35.316  22.534  24.028  1.00  0.00     0.054 A 
ATOM     24  C   UNL A   1      33.923  21.553  25.400  1.00  0.00     0.149 A 
ATOM     25  C   UNL A   1      36.024  22.959  22.793  1.00  0.00     0.068 C 
BRANCH  21  26
ATOM     26  C   UNL A   1      37.247  22.451  25.665  1.00  0.00     0.065 A 
ATOM     27  C   UNL A   1      39.125  25.324  27.297  1.00  0.00     0.044 C 
ATOM     28  C   UNL A   1      38.825  23.992  26.676  1.00  0.00    -0.049 A 
ATOM     29  C   UNL A   1      39.782  22.972  26.686  1.00  0.00     0.003 A 
ATOM     30  C   UNL A   1      37.564  23.736  26.129  1.00  0.00     0.031 A 
ATOM     31  C   UNL A   1      39.489  21.713  26.155  1.00  0.00     0.002 A 
ATOM     32  C   UNL A   1      38.219  21.448  25.647  1.00  0.00     0.028 A 
ENDBRANCH  21  26
ENDBRANCH  17  20
ENDBRANCH  10  16
ENDBRANCH   7   9
ENDBRANCH   6   7
ENDBRANCH   5   6
ENDBRANCH   4   5
ENDBRANCH   3   4
ENDBRANCH   2   3
ENDBRANCH   1   2
BRANCH   1  33
ATOM     33  O   UNL A   1      33.767  33.850  29.206  1.00  0.00    -0.377 OA
BRANCH  33  34
ATOM     34  C   UNL A   1      34.027  34.862  28.245  1.00  0.00     0.188 C 
BRANCH  34  35
ATOM     35  C   UNL A   1      33.625  36.289  28.635  1.00  0.00     0.188 C 
BRANCH  35  36
ATOM     36  O   UNL A   1      32.611  36.256  29.632  1.00  0.00    -0.376 OA
BRANCH  36  37
ATOM     37  C   UNL A   1      33.044  36.525  30.965  1.00  0.00     0.202 C 
BRANCH  37  38
ATOM     38  C   UNL A   1      32.269  35.699  31.991  1.00  0.00     0.261 C 
BRANCH  38  39
ATOM     39  O   UNL A   1      33.111  35.480  33.137  1.00  0.00    -0.460 OA
BRANCH  39  40
ATOM     40  C   UNL A   1      33.810  34.313  33.099  1.00  0.00     0.338 C 
ATOM     41  O   UNL A   1      33.321  33.205  32.941  1.00  0.00    -0.246 OA
BRANCH  40  42
ATOM     42  C   UNL A   1      35.215  34.545  33.541  1.00  0.00     0.060 A 
ATOM     43  C   UNL A   1      36.215  34.761  32.579  1.00  0.00     0.016 A 
ATOM     44  C   UNL A   1      35.583  34.280  34.856  1.00  0.00     0.016 A 
ATOM     45  C   UNL A   1      37.571  34.581  32.904  1.00  0.00     0.010 A 
ATOM     46  C   UNL A   1      36.919  34.046  35.151  1.00  0.00     0.010 A 
ATOM     47  C   UNL A   1      37.935  34.146  34.181  1.00  0.00    -0.014 A 
BRANCH  47  48
ATOM     48  C   UNL A   1      39.261  33.575  34.548  1.00  0.00     0.031 A 
ATOM     49  C   UNL A   1      40.279  34.433  35.262  1.00  0.00     0.074 A 
ATOM     50  C   UNL A   1      39.451  32.222  34.574  1.00  0.00     0.049 A 
ATOM     51  N   UNL A   1      41.261  33.940  35.929  1.00  0.00    -0.248 NA
ATOM     52  C   UNL A   1      40.292  35.898  35.337  1.00  0.00     0.031 C 
ATOM     53  C   UNL A   1      40.321  31.507  35.527  1.00  0.00     0.029 A 
ATOM     54  N   UNL A   1      38.832  31.161  33.899  1.00  0.00    -0.354 N 
ATOM     55  C   UNL A   1      41.814  34.890  36.735  1.00  0.00     0.074 A 
ATOM     56  C   UNL A   1      41.216  36.122  36.287  1.00  0.00     0.031 C 
ATOM     57  C   UNL A   1      40.228  30.185  35.379  1.00  0.00     0.029 A 
ATOM     58  C   UNL A   1      39.596  29.984  34.114  1.00  0.00     0.049 A 
ATOM     59  H   UNL A   1      38.006  31.222  33.366  1.00  0.00     0.167 HD
ATOM     60  C   UNL A   1      42.643  34.465  37.729  1.00  0.00     0.037 A 
ATOM     61  C   UNL A   1      40.277  29.356  33.108  1.00  0.00     0.037 A 
ATOM     62  C   UNL A   1      43.084  33.080  37.517  1.00  0.00     0.049 A 
ATOM     63  C   UNL A   1      41.785  29.444  33.269  1.00  0.00     0.074 A 
ATOM     64  C   UNL A   1      43.023  31.903  38.241  1.00  0.00     0.029 A 
ATOM     65  N   UNL A   1      43.599  32.733  36.264  1.00  0.00    -0.354 N 
ATOM     66  N   UNL A   1      42.367  30.398  33.954  1.00  0.00    -0.248 NA
ATOM     67  C   UNL A   1      42.750  28.448  32.810  1.00  0.00     0.031 C 
ATOM     68  C   UNL A   1      43.456  30.842  37.390  1.00  0.00     0.029 A 
ATOM     69  C   UNL A   1      43.820  31.380  36.164  1.00  0.00     0.049 A 
ATOM     70  H   UNL A   1      43.780  33.379  35.543  1.00  0.00     0.167 HD
ATOM     71  C   UNL A   1      43.688  30.105  34.140  1.00  0.00     0.074 A 
ATOM     72  C   UNL A   1      43.902  28.915  33.335  1.00  0.00     0.031 C 
ATOM     73  C   UNL A   1      44.485  30.810  34.997  1.00  0.00     0.037 A 
BRANCH  60  74
ATOM     74  C   UNL A   1      43.020  35.265  38.955  1.00  0.00     0.057 A 
ATOM     75  C   UNL A   1      42.377  35.043  40.190  1.00  0.00     0.134 A 
ATOM     76  C   UNL A   1      43.923  36.346  38.954  1.00  0.00     0.134 A 
ATOM     77  F   UNL A   1      41.464  34.072  40.339  1.00  0.00    -0.206 F 
ATOM     78  C   UNL A   1      42.629  35.814  41.334  1.00  0.00     0.040 A 
ATOM     79  C   UNL A   1      44.220  37.094  40.105  1.00  0.00     0.040 A 
ATOM     80  F   UNL A   1      44.521  36.766  37.832  1.00  0.00    -0.206 F 
ATOM     81  C   UNL A   1      43.569  36.833  41.301  1.00  0.00     0.006 A 
ENDBRANCH  60  74
BRANCH  61  82
ATOM     82  C   UNL A   1      39.424  29.213  31.908  1.00  0.00     0.057 A 
ATOM     83  C   UNL A   1      39.766  30.070  30.841  1.00  0.00     0.134 A 
ATOM     84  C   UNL A   1      38.889  27.963  31.578  1.00  0.00     0.134 A 
ATOM     85  F   UNL A   1      40.282  31.285  31.096  1.00  0.00    -0.206 F 
ATOM     86  C   UNL A   1      39.789  29.621  29.519  1.00  0.00     0.040 A 
ATOM     87  C   UNL A   1      38.901  27.508  30.254  1.00  0.00     0.040 A 
ATOM     88  F   UNL A   1      38.544  27.096  32.540  1.00  0.00    -0.206 F 
ATOM     89  C   UNL A   1      39.403  28.316  29.231  1.00  0.00     0.006 A 
ENDBRANCH  61  82
BRANCH  73  90
ATOM     90  C   UNL A   1      45.985  30.981  34.881  1.00  0.00     0.057 A 
ATOM     91  C   UNL A   1      46.599  32.114  34.330  1.00  0.00     0.134 A 
ATOM     92  C   UNL A   1      46.870  30.094  35.544  1.00  0.00     0.134 A 
ATOM     93  F   UNL A   1      45.890  33.087  33.743  1.00  0.00    -0.206 F 
ATOM     94  C   UNL A   1      47.982  32.337  34.413  1.00  0.00     0.040 A 
ATOM     95  C   UNL A   1      48.241  30.329  35.671  1.00  0.00     0.040 A 
ATOM     96  F   UNL A   1      46.443  28.976  36.148  1.00  0.00    -0.206 F 
ATOM     97  C   UNL A   1      48.805  31.453  35.098  1.00  0.00     0.006 A 
ENDBRANCH  73  90
ENDBRANCH  47  48
ENDBRANCH  40  42
ENDBRANCH  39  40
ENDBRANCH  38  39
ENDBRANCH  37  38
ENDBRANCH  36  37
ENDBRANCH  35  36
ENDBRANCH  34  35
ENDBRANCH  33  34
ENDBRANCH   1  33
TORSDOF 23
ENDMDL
MODEL 2
REMARK VINA RESULT:      -9.7      2.019      6.223
REMARK SMILES Cc1cccc(-n2ncc(C(=O)Nc3cccc(C(=O)OCCOCCOCCOCCOC(=O)c4ccc(-c5c6nc(c(-c7c(F)cccc7F)c7ccc([nH]7)c(-c7c(F)cccc7F)c7nc(c(-c8c(F)cccc8F)c8ccc5[nH]8)C=C7)C=C6)cc4)c3C)c2C)c1
REMARK SMILES IDX 26 1 25 2 24 3 23 4 22 5 21 6 19 7 20 8 18 9 14 10 15 11
REMARK SMILES IDX 90 12 16 13 91 14 17 15 13 16 11 17 12 18 10 20 7 21 8 22
REMARK SMILES IDX 92 23 9 24 93 25 6 26 1 27 2 28 3 29 94 30 4 31 5 32 27 33
REMARK SMILES IDX 28 34 29 35 30 36 31 37 32 38 33 39 34 40 35 41 36 42 37 43
REMARK SMILES IDX 89 44 38 45 88 46 39 47 40 48 41 49 82 50 42 51 87 52 81 53
REMARK SMILES IDX 83 54 43 55 86 56 80 57 79 58 44 60 70 61 53 62 69 63 54 64
REMARK SMILES IDX 57 65 68 66 84 67 55 68 56 69 67 71 85 72 58 73 45 74 46 75
REMARK SMILES IDX 51 76 47 77 48 78 50 79 52 80 49 81 71 82 72 83 77 84 73 85
REMARK SMILES IDX 74 86 76 87 78 88 75 89 59 90 60 91 65 92 61 93 62 94 64 95
REMARK SMILES IDX 66 96 63 97
REMARK H PARENT 13 19 83 59 57 70
REMARK Flexibility Score: inf
ROOT
ATOM      1  C   UNL A   1      34.588  33.439  29.713  1.00  0.00     0.188 C 
ENDROOT
BRANCH   1   2
ATOM      2  C   UNL A   1      34.855  32.464  28.541  1.00  0.00     0.188 C 
BRANCH   2   3
ATOM      3  O   UNL A   1      33.806  32.083  27.654  1.00  0.00    -0.376 OA
BRANCH   3   4
ATOM      4  C   UNL A   1      33.628  30.703  27.363  1.00  0.00     0.202 C 
BRANCH   4   5
ATOM      5  C   UNL A   1      32.858  30.260  26.124  1.00  0.00     0.261 C 
BRANCH   5   6
ATOM      6  O   UNL A   1      33.561  29.312  25.349  1.00  0.00    -0.460 OA
BRANCH   6   7
ATOM      7  C   UNL A   1      33.007  28.849  24.224  1.00  0.00     0.338 C 
ATOM      8  O   UNL A   1      33.291  29.017  23.063  1.00  0.00    -0.246 OA
BRANCH   7   9
ATOM      9  C   UNL A   1      32.196  27.753  24.737  1.00  0.00     0.065 A 
ATOM     10  C   UNL A   1      31.171  25.641  24.367  1.00  0.00     0.045 A 
ATOM     11  C   UNL A   1      30.614  25.689  25.651  1.00  0.00     0.026 A 
ATOM     12  C   UNL A   1      32.035  26.632  23.906  1.00  0.00    -0.013 A 
ATOM     13  C   UNL A   1      30.868  26.778  26.486  1.00  0.00     0.003 A 
ATOM     14  C   UNL A   1      32.646  26.557  22.526  1.00  0.00     0.047 C 
ATOM     15  C   UNL A   1      31.641  27.835  26.017  1.00  0.00     0.016 A 
BRANCH  10  16
ATOM     16  N   UNL A   1      30.705  24.700  23.454  1.00  0.00    -0.322 N 
ATOM     17  C   UNL A   1      31.030  23.355  23.498  1.00  0.00     0.259 C 
ATOM     18  O   UNL A   1      30.397  22.590  22.770  1.00  0.00    -0.269 OA
ATOM     19  H   UNL A   1      30.108  25.009  22.734  1.00  0.00     0.170 HD
BRANCH  17  20
ATOM     20  C   UNL A   1      32.108  22.882  24.369  1.00  0.00     0.081 A 
ATOM     21  N   UNL A   1      34.144  22.437  25.153  1.00  0.00    -0.237 N 
ATOM     22  N   UNL A   1      33.304  21.921  26.074  1.00  0.00    -0.175 NA
ATOM     23  C   UNL A   1      33.455  22.870  24.031  1.00  0.00     0.054 A 
ATOM     24  C   UNL A   1      32.093  22.210  25.610  1.00  0.00     0.149 A 
ATOM     25  C   UNL A   1      34.062  23.123  22.698  1.00  0.00     0.068 C 
BRANCH  21  26
ATOM     26  C   UNL A   1      35.534  22.430  25.410  1.00  0.00     0.065 A 
ATOM     27  C   UNL A   1      38.413  19.978  25.034  1.00  0.00     0.044 C 
ATOM     28  C   UNL A   1      37.635  21.217  25.362  1.00  0.00    -0.049 A 
ATOM     29  C   UNL A   1      38.295  22.388  25.752  1.00  0.00     0.003 A 
ATOM     30  C   UNL A   1      36.244  21.235  25.227  1.00  0.00     0.031 A 
ATOM     31  C   UNL A   1      37.578  23.559  26.008  1.00  0.00     0.002 A 
ATOM     32  C   UNL A   1      36.196  23.585  25.833  1.00  0.00     0.028 A 
ENDBRANCH  21  26
ENDBRANCH  17  20
ENDBRANCH  10  16
ENDBRANCH   7   9
ENDBRANCH   6   7
ENDBRANCH   5   6
ENDBRANCH   4   5
ENDBRANCH   3   4
ENDBRANCH   2   3
ENDBRANCH   1   2
BRANCH   1  33
ATOM     33  O   UNL A   1      33.692  34.484  29.376  1.00  0.00    -0.377 OA
BRANCH  33  34
ATOM     34  C   UNL A   1      34.145  35.545  28.548  1.00  0.00     0.188 C 
BRANCH  34  35
ATOM     35  C   UNL A   1      33.472  36.906  28.757  1.00  0.00     0.188 C 
BRANCH  35  36
ATOM     36  O   UNL A   1      32.668  36.879  29.930  1.00  0.00    -0.376 OA
BRANCH  36  37
ATOM     37  C   UNL A   1      33.278  37.397  31.112  1.00  0.00     0.202 C 
BRANCH  37  38
ATOM     38  C   UNL A   1      32.663  36.799  32.377  1.00  0.00     0.261 C 
BRANCH  38  39
ATOM     39  O   UNL A   1      33.719  36.270  33.197  1.00  0.00    -0.460 OA
BRANCH  39  40
ATOM     40  C   UNL A   1      33.917  34.931  33.054  1.00  0.00     0.338 C 
ATOM     41  O   UNL A   1      33.034  34.103  32.895  1.00  0.00    -0.246 OA
BRANCH  40  42
ATOM     42  C   UNL A   1      35.330  34.585  33.384  1.00  0.00     0.060 A 
ATOM     43  C   UNL A   1      36.327  34.753  32.410  1.00  0.00     0.016 A 
ATOM     44  C   UNL A   1      35.617  33.853  34.532  1.00  0.00     0.016 A 
ATOM     45  C   UNL A   1      37.558  34.083  32.523  1.00  0.00     0.010 A 
ATOM     46  C   UNL A   1      36.810  33.147  34.604  1.00  0.00     0.010 A 
ATOM     47  C   UNL A   1      37.785  33.208  33.590  1.00  0.00    -0.014 A 
BRANCH  47  48
ATOM     48  C   UNL A   1      38.861  32.180  33.641  1.00  0.00     0.031 A 
ATOM     49  C   UNL A   1      38.724  30.907  32.839  1.00  0.00     0.074 A 
ATOM     50  C   UNL A   1      40.107  32.501  34.104  1.00  0.00     0.049 A 
ATOM     51  N   UNL A   1      39.729  30.164  32.534  1.00  0.00    -0.248 NA
ATOM     52  C   UNL A   1      37.489  30.354  32.275  1.00  0.00     0.031 C 
ATOM     53  C   UNL A   1      41.371  31.940  33.591  1.00  0.00     0.029 A 
ATOM     54  N   UNL A   1      40.567  33.476  34.998  1.00  0.00    -0.354 N 
ATOM     55  C   UNL A   1      39.391  29.288  31.546  1.00  0.00     0.074 A 
ATOM     56  C   UNL A   1      37.957  29.398  31.455  1.00  0.00     0.031 C 
ATOM     57  C   UNL A   1      42.429  32.515  34.163  1.00  0.00     0.029 A 
ATOM     58  C   UNL A   1      41.922  33.196  35.311  1.00  0.00     0.049 A 
ATOM     59  H   UNL A   1      40.039  34.230  35.348  1.00  0.00     0.167 HD
ATOM     60  C   UNL A   1      40.405  28.658  30.891  1.00  0.00     0.037 A 
ATOM     61  C   UNL A   1      42.323  32.810  36.560  1.00  0.00     0.037 A 
ATOM     62  C   UNL A   1      41.675  28.761  31.623  1.00  0.00     0.049 A 
ATOM     63  C   UNL A   1      42.814  31.373  36.607  1.00  0.00     0.074 A 
ATOM     64  C   UNL A   1      42.942  29.239  31.341  1.00  0.00     0.029 A 
ATOM     65  N   UNL A   1      41.685  28.430  32.981  1.00  0.00    -0.354 N 
ATOM     66  N   UNL A   1      42.437  30.470  35.735  1.00  0.00    -0.248 NA
ATOM     67  C   UNL A   1      43.831  30.850  37.515  1.00  0.00     0.031 C 
ATOM     68  C   UNL A   1      43.691  29.240  32.556  1.00  0.00     0.029 A 
ATOM     69  C   UNL A   1      42.894  28.723  33.566  1.00  0.00     0.049 A 
ATOM     70  H   UNL A   1      40.920  28.035  33.460  1.00  0.00     0.167 HD
ATOM     71  C   UNL A   1      43.204  29.347  35.859  1.00  0.00     0.074 A 
ATOM     72  C   UNL A   1      44.008  29.598  37.041  1.00  0.00     0.031 C 
ATOM     73  C   UNL A   1      43.179  28.333  34.943  1.00  0.00     0.037 A 
BRANCH  60  74
ATOM     74  C   UNL A   1      40.294  27.994  29.538  1.00  0.00     0.057 A 
ATOM     75  C   UNL A   1      40.934  28.542  28.407  1.00  0.00     0.134 A 
ATOM     76  C   UNL A   1      39.475  26.882  29.261  1.00  0.00     0.134 A 
ATOM     77  F   UNL A   1      41.719  29.625  28.504  1.00  0.00    -0.206 F 
ATOM     78  C   UNL A   1      40.792  28.014  27.116  1.00  0.00     0.040 A 
ATOM     79  C   UNL A   1      39.364  26.314  27.982  1.00  0.00     0.040 A 
ATOM     80  F   UNL A   1      38.702  26.323  30.201  1.00  0.00    -0.206 F 
ATOM     81  C   UNL A   1      40.020  26.883  26.901  1.00  0.00     0.006 A 
ENDBRANCH  60  74
BRANCH  61  82
ATOM     82  C   UNL A   1      41.716  33.674  37.596  1.00  0.00     0.057 A 
ATOM     83  C   UNL A   1      42.239  34.984  37.645  1.00  0.00     0.134 A 
ATOM     84  C   UNL A   1      40.370  33.509  37.941  1.00  0.00     0.134 A 
ATOM     85  F   UNL A   1      43.525  35.205  37.327  1.00  0.00    -0.206 F 
ATOM     86  C   UNL A   1      41.411  36.097  37.806  1.00  0.00     0.040 A 
ATOM     87  C   UNL A   1      39.535  34.620  38.112  1.00  0.00     0.040 A 
ATOM     88  F   UNL A   1      39.806  32.293  37.914  1.00  0.00    -0.206 F 
ATOM     89  C   UNL A   1      40.044  35.915  37.989  1.00  0.00     0.006 A 
ENDBRANCH  61  82
BRANCH  73  90
ATOM     90  C   UNL A   1      43.492  26.877  35.218  1.00  0.00     0.057 A 
ATOM     91  C   UNL A   1      44.783  26.394  35.476  1.00  0.00     0.134 A 
ATOM     92  C   UNL A   1      42.453  25.945  35.463  1.00  0.00     0.134 A 
ATOM     93  F   UNL A   1      45.863  27.178  35.373  1.00  0.00    -0.206 F 
ATOM     94  C   UNL A   1      45.022  25.085  35.921  1.00  0.00     0.040 A 
ATOM     95  C   UNL A   1      42.677  24.654  35.948  1.00  0.00     0.040 A 
ATOM     96  F   UNL A   1      41.159  26.253  35.291  1.00  0.00    -0.206 F 
ATOM     97  C   UNL A   1      43.969  24.217  36.174  1.00  0.00     0.006 A 
ENDBRANCH  73  90
ENDBRANCH  47  48
ENDBRANCH  40  42
ENDBRANCH  39  40
ENDBRANCH  38  39
ENDBRANCH  37  38
ENDBRANCH  36  37
ENDBRANCH  35  36
ENDBRANCH  34  35
ENDBRANCH  33  34
ENDBRANCH   1  33
TORSDOF 23
ENDMDL
MODEL 3
REMARK VINA RESULT:      -9.6      2.335      6.656
REMARK SMILES Cc1cccc(-n2ncc(C(=O)Nc3cccc(C(=O)OCCOCCOCCOCCOC(=O)c4ccc(-c5c6nc(c(-c7c(F)cccc7F)c7ccc([nH]7)c(-c7c(F)cccc7F)c7nc(c(-c8c(F)cccc8F)c8ccc5[nH]8)C=C7)C=C6)cc4)c3C)c2C)c1
REMARK SMILES IDX 26 1 25 2 24 3 23 4 22 5 21 6 19 7 20 8 18 9 14 10 15 11
REMARK SMILES IDX 90 12 16 13 91 14 17 15 13 16 11 17 12 18 10 20 7 21 8 22
REMARK SMILES IDX 92 23 9 24 93 25 6 26 1 27 2 28 3 29 94 30 4 31 5 32 27 33
REMARK SMILES IDX 28 34 29 35 30 36 31 37 32 38 33 39 34 40 35 41 36 42 37 43
REMARK SMILES IDX 89 44 38 45 88 46 39 47 40 48 41 49 82 50 42 51 87 52 81 53
REMARK SMILES IDX 83 54 43 55 86 56 80 57 79 58 44 60 70 61 53 62 69 63 54 64
REMARK SMILES IDX 57 65 68 66 84 67 55 68 56 69 67 71 85 72 58 73 45 74 46 75
REMARK SMILES IDX 51 76 47 77 48 78 50 79 52 80 49 81 71 82 72 83 77 84 73 85
REMARK SMILES IDX 74 86 76 87 78 88 75 89 59 90 60 91 65 92 61 93 62 94 64 95
REMARK SMILES IDX 66 96 63 97
REMARK H PARENT 13 19 83 59 57 70
REMARK Flexibility Score: inf
ROOT
ATOM      1  C   UNL A   1      34.858  32.321  29.382  1.00  0.00     0.188 C 
ENDROOT
BRANCH   1   2
ATOM      2  C   UNL A   1      35.051  31.548  28.055  1.00  0.00     0.188 C 
BRANCH   2   3
ATOM      3  O   UNL A   1      33.928  31.149  27.273  1.00  0.00    -0.376 OA
BRANCH   3   4
ATOM      4  C   UNL A   1      33.620  29.765  27.181  1.00  0.00     0.202 C 
BRANCH   4   5
ATOM      5  C   UNL A   1      34.164  28.918  26.036  1.00  0.00     0.261 C 
BRANCH   5   6
ATOM      6  O   UNL A   1      33.409  27.747  25.809  1.00  0.00    -0.460 OA
BRANCH   6   7
ATOM      7  C   UNL A   1      32.344  27.804  25.003  1.00  0.00     0.338 C 
ATOM      8  O   UNL A   1      32.016  28.607  24.164  1.00  0.00    -0.246 OA
BRANCH   7   9
ATOM      9  C   UNL A   1      31.844  26.439  25.094  1.00  0.00     0.065 A 
ATOM     10  C   UNL A   1      31.689  24.267  24.142  1.00  0.00     0.045 A 
ATOM     11  C   UNL A   1      30.867  23.864  25.201  1.00  0.00     0.026 A 
ATOM     12  C   UNL A   1      32.259  25.538  24.099  1.00  0.00    -0.013 A 
ATOM     13  C   UNL A   1      30.548  24.760  26.223  1.00  0.00     0.003 A 
ATOM     14  C   UNL A   1      33.161  25.953  22.961  1.00  0.00     0.047 C 
ATOM     15  C   UNL A   1      31.014  26.068  26.156  1.00  0.00     0.016 A 
BRANCH  10  16
ATOM     16  N   UNL A   1      31.783  23.467  23.007  1.00  0.00    -0.322 N 
ATOM     17  C   UNL A   1      32.592  22.347  22.917  1.00  0.00     0.259 C 
ATOM     18  O   UNL A   1      32.437  21.606  21.946  1.00  0.00    -0.269 OA
ATOM     19  H   UNL A   1      31.242  23.711  22.221  1.00  0.00     0.170 HD
BRANCH  17  20
ATOM     20  C   UNL A   1      33.608  22.084  23.938  1.00  0.00     0.081 A 
ATOM     21  N   UNL A   1      35.512  22.168  25.091  1.00  0.00    -0.237 N 
ATOM     22  N   UNL A   1      34.766  21.245  25.732  1.00  0.00    -0.175 NA
ATOM     23  C   UNL A   1      34.911  22.565  23.907  1.00  0.00     0.054 A 
ATOM     24  C   UNL A   1      33.624  21.218  25.053  1.00  0.00     0.149 A 
ATOM     25  C   UNL A   1      35.602  23.249  22.782  1.00  0.00     0.068 C 
BRANCH  21  26
ATOM     26  C   UNL A   1      36.754  22.554  25.644  1.00  0.00     0.065 A 
ATOM     27  C   UNL A   1      40.170  20.972  26.170  1.00  0.00     0.044 C 
ATOM     28  C   UNL A   1      39.044  21.963  26.185  1.00  0.00    -0.049 A 
ATOM     29  C   UNL A   1      39.269  23.286  26.583  1.00  0.00     0.003 A 
ATOM     30  C   UNL A   1      37.770  21.592  25.749  1.00  0.00     0.031 A 
ATOM     31  C   UNL A   1      38.235  24.226  26.550  1.00  0.00     0.002 A 
ATOM     32  C   UNL A   1      36.977  23.864  26.076  1.00  0.00     0.028 A 
ENDBRANCH  21  26
ENDBRANCH  17  20
ENDBRANCH  10  16
ENDBRANCH   7   9
ENDBRANCH   6   7
ENDBRANCH   5   6
ENDBRANCH   4   5
ENDBRANCH   3   4
ENDBRANCH   2   3
ENDBRANCH   1   2
BRANCH   1  33
ATOM     33  O   UNL A   1      33.690  33.125  29.395  1.00  0.00    -0.377 OA
BRANCH  33  34
ATOM     34  C   UNL A   1      33.765  34.465  28.933  1.00  0.00     0.188 C 
BRANCH  34  35
ATOM     35  C   UNL A   1      33.220  35.541  29.878  1.00  0.00     0.188 C 
BRANCH  35  36
ATOM     36  O   UNL A   1      32.636  34.936  31.025  1.00  0.00    -0.376 OA
BRANCH  36  37
ATOM     37  C   UNL A   1      33.367  35.083  32.242  1.00  0.00     0.202 C 
BRANCH  37  38
ATOM     38  C   UNL A   1      33.788  33.731  32.818  1.00  0.00     0.261 C 
BRANCH  38  39
ATOM     39  O   UNL A   1      34.688  33.959  33.918  1.00  0.00    -0.460 OA
BRANCH  39  40
ATOM     40  C   UNL A   1      35.950  34.299  33.543  1.00  0.00     0.338 C 
ATOM     41  O   UNL A   1      36.350  35.440  33.372  1.00  0.00    -0.246 OA
BRANCH  40  42
ATOM     42  C   UNL A   1      36.700  33.084  33.110  1.00  0.00     0.060 A 
ATOM     43  C   UNL A   1      36.866  32.019  34.011  1.00  0.00     0.016 A 
ATOM     44  C   UNL A   1      37.455  33.112  31.943  1.00  0.00     0.016 A 
ATOM     45  C   UNL A   1      37.875  31.061  33.807  1.00  0.00     0.010 A 
ATOM     46  C   UNL A   1      38.487  32.197  31.783  1.00  0.00     0.010 A 
ATOM     47  C   UNL A   1      38.750  31.183  32.724  1.00  0.00    -0.014 A 
BRANCH  47  48
ATOM     48  C   UNL A   1      40.055  30.477  32.591  1.00  0.00     0.031 A 
ATOM     49  C   UNL A   1      40.145  29.210  31.774  1.00  0.00     0.074 A 
ATOM     50  C   UNL A   1      41.225  31.119  32.887  1.00  0.00     0.049 A 
ATOM     51  N   UNL A   1      41.255  28.759  31.308  1.00  0.00    -0.248 NA
ATOM     52  C   UNL A   1      39.030  28.347  31.368  1.00  0.00     0.031 C 
ATOM     53  C   UNL A   1      42.505  30.911  32.186  1.00  0.00     0.029 A 
ATOM     54  N   UNL A   1      41.535  32.185  33.741  1.00  0.00    -0.354 N 
ATOM     55  C   UNL A   1      41.021  27.820  30.347  1.00  0.00     0.074 A 
ATOM     56  C   UNL A   1      39.612  27.545  30.460  1.00  0.00     0.031 C 
ATOM     57  C   UNL A   1      43.446  31.748  32.623  1.00  0.00     0.029 A 
ATOM     58  C   UNL A   1      42.947  32.276  33.854  1.00  0.00     0.049 A 
ATOM     59  H   UNL A   1      40.883  32.774  34.186  1.00  0.00     0.167 HD
ATOM     60  C   UNL A   1      42.062  27.478  29.537  1.00  0.00     0.037 A 
ATOM     61  C   UNL A   1      43.609  32.015  35.021  1.00  0.00     0.037 A 
ATOM     62  C   UNL A   1      43.351  27.917  30.089  1.00  0.00     0.049 A 
ATOM     63  C   UNL A   1      44.462  30.760  34.951  1.00  0.00     0.074 A 
ATOM     64  C   UNL A   1      44.393  28.712  29.650  1.00  0.00     0.029 A 
ATOM     65  N   UNL A   1      43.640  27.606  31.421  1.00  0.00    -0.354 N 
ATOM     66  N   UNL A   1      44.215  29.786  34.110  1.00  0.00    -0.248 NA
ATOM     67  C   UNL A   1      45.700  30.529  35.692  1.00  0.00     0.031 C 
ATOM     68  C   UNL A   1      45.281  28.918  30.748  1.00  0.00     0.029 A 
ATOM     69  C   UNL A   1      44.801  28.213  31.842  1.00  0.00     0.049 A 
ATOM     70  H   UNL A   1      43.083  27.025  31.988  1.00  0.00     0.167 HD
ATOM     71  C   UNL A   1      45.260  28.906  34.089  1.00  0.00     0.074 A 
ATOM     72  C   UNL A   1      46.130  29.367  35.156  1.00  0.00     0.031 C 
ATOM     73  C   UNL A   1      45.371  27.918  33.152  1.00  0.00     0.037 A 
BRANCH  60  74
ATOM     74  C   UNL A   1      41.936  26.802  28.191  1.00  0.00     0.057 A 
ATOM     75  C   UNL A   1      42.624  25.601  27.918  1.00  0.00     0.134 A 
ATOM     76  C   UNL A   1      41.251  27.344  27.088  1.00  0.00     0.134 A 
ATOM     77  F   UNL A   1      43.352  24.982  28.858  1.00  0.00    -0.206 F 
ATOM     78  C   UNL A   1      42.610  24.981  26.660  1.00  0.00     0.040 A 
ATOM     79  C   UNL A   1      41.188  26.707  25.838  1.00  0.00     0.040 A 
ATOM     80  F   UNL A   1      40.652  28.541  27.146  1.00  0.00    -0.206 F 
ATOM     81  C   UNL A   1      41.873  25.522  25.617  1.00  0.00     0.006 A 
ENDBRANCH  60  74
BRANCH  61  82
ATOM     82  C   UNL A   1      42.950  32.693  36.159  1.00  0.00     0.057 A 
ATOM     83  C   UNL A   1      42.411  31.819  37.127  1.00  0.00     0.134 A 
ATOM     84  C   UNL A   1      43.430  33.928  36.608  1.00  0.00     0.134 A 
ATOM     85  F   UNL A   1      41.932  30.620  36.756  1.00  0.00    -0.206 F 
ATOM     86  C   UNL A   1      42.550  32.066  38.494  1.00  0.00     0.040 A 
ATOM     87  C   UNL A   1      43.566  34.186  37.978  1.00  0.00     0.040 A 
ATOM     88  F   UNL A   1      43.959  34.806  35.744  1.00  0.00    -0.206 F 
ATOM     89  C   UNL A   1      43.178  33.231  38.921  1.00  0.00     0.006 A 
ENDBRANCH  61  82
BRANCH  73  90
ATOM     90  C   UNL A   1      46.093  26.598  33.331  1.00  0.00     0.057 A 
ATOM     91  C   UNL A   1      47.456  26.414  33.063  1.00  0.00     0.134 A 
ATOM     92  C   UNL A   1      45.473  25.520  34.011  1.00  0.00     0.134 A 
ATOM     93  F   UNL A   1      48.201  27.374  32.502  1.00  0.00    -0.206 F 
ATOM     94  C   UNL A   1      48.143  25.244  33.423  1.00  0.00     0.040 A 
ATOM     95  C   UNL A   1      46.158  24.370  34.413  1.00  0.00     0.040 A 
ATOM     96  F   UNL A   1      44.181  25.544  34.367  1.00  0.00    -0.206 F 
ATOM     97  C   UNL A   1      47.499  24.226  34.114  1.00  0.00     0.006 A 
ENDBRANCH  73  90
ENDBRANCH  47  48
ENDBRANCH  40  42
ENDBRANCH  39  40
ENDBRANCH  38  39
ENDBRANCH  37  38
ENDBRANCH  36  37
ENDBRANCH  35  36
ENDBRANCH  34  35
ENDBRANCH  33  34
ENDBRANCH   1  33
TORSDOF 23
ENDMDL
