MODEL 1
REMARK VINA RESULT:     -10.1      0.000      0.000
REMARK SMILES O=C(OCCOCCOCCOCCOC(=O)c1ccn(-c2cc(-c3ccncc3)nc(-c3ccccc3F)n2)n1)c1ccc(-c2c3nc(c(-c4c(F)cccc4F)c4ccc([nH]4)c(-c4c(F)cccc4F)c4nc(c(-c5c(F)cccc5F)c5ccc2[nH]5)C=C4)C=C3)cc1
REMARK SMILES IDX 9 1 8 2 7 3 6 4 5 5 4 6 3 7 2 8 1 9 42 10 43 11 95 12 44 13
REMARK SMILES IDX 94 14 45 15 46 16 47 17 88 18 48 19 93 20 87 21 89 22 49 23
REMARK SMILES IDX 92 24 86 25 85 26 50 28 76 29 59 30 75 31 60 32 63 33 74 34
REMARK SMILES IDX 90 35 61 36 62 37 73 39 91 40 64 41 51 42 52 43 57 44 53 45
REMARK SMILES IDX 54 46 56 47 58 48 55 49 77 50 78 51 83 52 79 53 80 54 82 55
REMARK SMILES IDX 84 56 81 57 65 58 66 59 71 60 67 61 68 62 70 63 72 64 69 65
REMARK SMILES IDX 10 66 11 67 12 68 13 69 14 70 15 71 16 72 17 73 18 74 19 75
REMARK SMILES IDX 41 76 20 77 21 78 22 79 23 80 40 81 24 82 32 83 31 84 25 85
REMARK SMILES IDX 26 86 30 87 27 88 29 89 28 90 33 91 34 92 38 93 35 94 37 95
REMARK SMILES IDX 39 96 36 97
REMARK H PARENT 89 27 63 38
REMARK Flexibility Score: inf
ROOT
ATOM      1  O   UNL A   1      34.022  23.898  22.055  1.00  0.00    -0.377 OA
ENDROOT
BRANCH   1   2
ATOM      2  C   UNL A   1      34.528  23.613  23.345  1.00  0.00     0.188 C 
BRANCH   2   3
ATOM      3  C   UNL A   1      34.040  22.309  23.996  1.00  0.00     0.188 C 
BRANCH   3   4
ATOM      4  O   UNL A   1      34.864  21.301  24.560  1.00  0.00    -0.376 OA
BRANCH   4   5
ATOM      5  C   UNL A   1      35.976  21.448  25.411  1.00  0.00     0.202 C 
BRANCH   5   6
ATOM      6  C   UNL A   1      37.388  21.778  24.933  1.00  0.00     0.261 C 
BRANCH   6   7
ATOM      7  O   UNL A   1      38.307  22.248  25.911  1.00  0.00    -0.460 OA
BRANCH   7   8
ATOM      8  C   UNL A   1      39.486  21.736  26.314  1.00  0.00     0.338 C 
ATOM      9  O   UNL A   1      39.732  20.564  26.031  1.00  0.00    -0.246 OA
BRANCH   8  10
ATOM     10  C   UNL A   1      40.475  22.458  27.160  1.00  0.00     0.060 A 
ATOM     11  C   UNL A   1      40.445  23.810  27.493  1.00  0.00     0.016 A 
ATOM     12  C   UNL A   1      41.566  21.678  27.601  1.00  0.00     0.016 A 
ATOM     13  C   UNL A   1      41.544  24.403  28.093  1.00  0.00     0.010 A 
ATOM     14  C   UNL A   1      42.655  22.261  28.227  1.00  0.00     0.010 A 
ATOM     15  C   UNL A   1      42.672  23.638  28.387  1.00  0.00    -0.014 A 
BRANCH  15  16
ATOM     16  C   UNL A   1      43.862  24.364  28.797  1.00  0.00     0.031 A 
ATOM     17  C   UNL A   1      44.062  24.529  30.260  1.00  0.00     0.074 A 
ATOM     18  C   UNL A   1      44.720  24.886  27.901  1.00  0.00     0.049 A 
ATOM     19  N   UNL A   1      44.054  25.623  30.951  1.00  0.00    -0.248 NA
ATOM     20  C   UNL A   1      44.203  23.307  31.063  1.00  0.00     0.031 C 
ATOM     21  C   UNL A   1      44.817  24.632  26.461  1.00  0.00     0.029 A 
ATOM     22  N   UNL A   1      45.755  25.736  28.135  1.00  0.00    -0.354 N 
ATOM     23  C   UNL A   1      44.345  25.251  32.261  1.00  0.00     0.074 A 
ATOM     24  C   UNL A   1      44.331  23.810  32.292  1.00  0.00     0.031 C 
ATOM     25  C   UNL A   1      45.982  25.140  25.997  1.00  0.00     0.029 A 
ATOM     26  C   UNL A   1      46.622  25.885  27.066  1.00  0.00     0.049 A 
ATOM     27  H   UNL A   1      45.876  26.207  28.991  1.00  0.00     0.167 HD
ATOM     28  C   UNL A   1      44.737  26.149  33.204  1.00  0.00     0.037 A 
ATOM     29  C   UNL A   1      47.812  26.529  27.090  1.00  0.00     0.037 A 
ATOM     30  C   UNL A   1      44.381  27.495  32.852  1.00  0.00     0.049 A 
ATOM     31  C   UNL A   1      47.789  27.467  28.239  1.00  0.00     0.074 A 
ATOM     32  C   UNL A   1      43.187  28.158  32.655  1.00  0.00     0.029 A 
ATOM     33  N   UNL A   1      45.349  28.310  32.321  1.00  0.00    -0.354 N 
ATOM     34  N   UNL A   1      47.034  28.528  28.303  1.00  0.00    -0.248 NA
ATOM     35  C   UNL A   1      48.313  26.995  29.511  1.00  0.00     0.031 C 
ATOM     36  C   UNL A   1      43.444  29.072  31.594  1.00  0.00     0.029 A 
ATOM     37  C   UNL A   1      44.786  28.937  31.239  1.00  0.00     0.049 A 
ATOM     38  H   UNL A   1      46.270  28.422  32.652  1.00  0.00     0.167 HD
ATOM     39  C   UNL A   1      46.657  28.616  29.635  1.00  0.00     0.074 A 
ATOM     40  C   UNL A   1      47.548  27.703  30.344  1.00  0.00     0.031 C 
ATOM     41  C   UNL A   1      45.489  29.214  30.006  1.00  0.00     0.037 A 
BRANCH  28  42
ATOM     42  C   UNL A   1      45.687  25.828  34.323  1.00  0.00     0.057 A 
ATOM     43  C   UNL A   1      45.275  25.689  35.664  1.00  0.00     0.134 A 
ATOM     44  C   UNL A   1      46.991  25.381  34.043  1.00  0.00     0.134 A 
ATOM     45  F   UNL A   1      44.022  25.964  36.050  1.00  0.00    -0.206 F 
ATOM     46  C   UNL A   1      46.103  25.167  36.660  1.00  0.00     0.040 A 
ATOM     47  C   UNL A   1      47.811  24.811  35.024  1.00  0.00     0.040 A 
ATOM     48  F   UNL A   1      47.480  25.424  32.795  1.00  0.00    -0.206 F 
ATOM     49  C   UNL A   1      47.369  24.704  36.338  1.00  0.00     0.006 A 
ENDBRANCH  28  42
BRANCH  29  50
ATOM     50  C   UNL A   1      49.070  26.115  26.430  1.00  0.00     0.057 A 
ATOM     51  C   UNL A   1      49.964  25.218  27.042  1.00  0.00     0.134 A 
ATOM     52  C   UNL A   1      49.562  26.814  25.320  1.00  0.00     0.134 A 
ATOM     53  F   UNL A   1      49.624  24.546  28.152  1.00  0.00    -0.206 F 
ATOM     54  C   UNL A   1      51.277  25.047  26.595  1.00  0.00     0.040 A 
ATOM     55  C   UNL A   1      50.878  26.659  24.866  1.00  0.00     0.040 A 
ATOM     56  F   UNL A   1      48.795  27.719  24.692  1.00  0.00    -0.206 F 
ATOM     57  C   UNL A   1      51.744  25.783  25.513  1.00  0.00     0.006 A 
ENDBRANCH  29  50
BRANCH  41  58
ATOM     58  C   UNL A   1      44.724  29.990  28.969  1.00  0.00     0.057 A 
ATOM     59  C   UNL A   1      43.848  29.299  28.122  1.00  0.00     0.134 A 
ATOM     60  C   UNL A   1      44.983  31.333  28.658  1.00  0.00     0.134 A 
ATOM     61  F   UNL A   1      43.598  27.997  28.327  1.00  0.00    -0.206 F 
ATOM     62  C   UNL A   1      43.264  29.910  27.011  1.00  0.00     0.040 A 
ATOM     63  C   UNL A   1      44.379  31.964  27.565  1.00  0.00     0.040 A 
ATOM     64  F   UNL A   1      45.876  32.046  29.353  1.00  0.00    -0.206 F 
ATOM     65  C   UNL A   1      43.526  31.248  26.729  1.00  0.00     0.006 A 
ENDBRANCH  41  58
ENDBRANCH  15  16
ENDBRANCH   8  10
ENDBRANCH   7   8
ENDBRANCH   6   7
ENDBRANCH   5   6
ENDBRANCH   4   5
ENDBRANCH   3   4
ENDBRANCH   2   3
ENDBRANCH   1   2
BRANCH   1  66
ATOM     66  C   UNL A   1      32.621  24.034  22.001  1.00  0.00     0.188 C 
BRANCH  66  67
ATOM     67  C   UNL A   1      32.129  25.491  21.877  1.00  0.00     0.188 C 
BRANCH  67  68
ATOM     68  O   UNL A   1      31.468  26.150  22.951  1.00  0.00    -0.376 OA
BRANCH  68  69
ATOM     69  C   UNL A   1      31.718  25.791  24.301  1.00  0.00     0.202 C 
BRANCH  69  70
ATOM     70  C   UNL A   1      32.640  26.660  25.165  1.00  0.00     0.261 C 
BRANCH  70  71
ATOM     71  O   UNL A   1      32.889  27.979  24.663  1.00  0.00    -0.458 OA
BRANCH  71  72
ATOM     72  C   UNL A   1      31.940  28.916  24.948  1.00  0.00     0.358 C 
ATOM     73  O   UNL A   1      30.782  28.888  24.542  1.00  0.00    -0.244 OA
BRANCH  72  74
ATOM     74  C   UNL A   1      32.447  29.964  25.843  1.00  0.00     0.170 A 
ATOM     75  C   UNL A   1      31.726  31.085  26.316  1.00  0.00     0.058 A 
ATOM     76  N   UNL A   1      33.713  29.965  26.322  1.00  0.00    -0.159 NA
ATOM     77  C   UNL A   1      32.546  31.665  27.251  1.00  0.00     0.118 A 
ATOM     78  N   UNL A   1      33.725  30.963  27.236  1.00  0.00    -0.222 N 
BRANCH  78  79
ATOM     79  C   UNL A   1      34.807  31.149  28.133  1.00  0.00     0.158 A 
ATOM     80  C   UNL A   1      34.798  32.231  28.993  1.00  0.00     0.078 A 
ATOM     81  N   UNL A   1      35.763  30.199  28.134  1.00  0.00    -0.209 NA
ATOM     82  C   UNL A   1      35.830  32.265  29.913  1.00  0.00     0.077 A 
ATOM     83  C   UNL A   1      36.776  30.386  28.989  1.00  0.00     0.165 A 
ATOM     84  N   UNL A   1      36.849  31.380  29.886  1.00  0.00    -0.228 NA
BRANCH  82  85
ATOM     85  C   UNL A   1      35.878  33.199  31.048  1.00  0.00     0.003 A 
ATOM     86  C   UNL A   1      37.050  33.376  31.794  1.00  0.00     0.030 A 
ATOM     87  C   UNL A   1      34.784  34.020  31.351  1.00  0.00     0.030 A 
ATOM     88  C   UNL A   1      37.073  34.339  32.793  1.00  0.00     0.111 A 
ATOM     89  C   UNL A   1      34.900  34.948  32.375  1.00  0.00     0.111 A 
ATOM     90  N   UNL A   1      36.019  35.118  33.109  1.00  0.00    -0.265 NA
ENDBRANCH  82  85
BRANCH  83  91
ATOM     91  C   UNL A   1      37.914  29.492  28.867  1.00  0.00     0.055 A 
ATOM     92  C   UNL A   1      38.660  29.436  27.674  1.00  0.00     0.015 A 
ATOM     93  C   UNL A   1      38.289  28.655  29.918  1.00  0.00     0.134 A 
ATOM     94  C   UNL A   1      39.748  28.567  27.551  1.00  0.00     0.001 A 
ATOM     95  C   UNL A   1      39.368  27.780  29.800  1.00  0.00     0.040 A 
ATOM     96  F   UNL A   1      37.592  28.656  31.065  1.00  0.00    -0.206 F 
ATOM     97  C   UNL A   1      40.101  27.738  28.615  1.00  0.00     0.003 A 
ENDBRANCH  83  91
ENDBRANCH  78  79
ENDBRANCH  72  74
ENDBRANCH  71  72
ENDBRANCH  70  71
ENDBRANCH  69  70
ENDBRANCH  68  69
ENDBRANCH  67  68
ENDBRANCH  66  67
ENDBRANCH   1  66
TORSDOF 23
ENDMDL
MODEL 2
REMARK VINA RESULT:     -10.0      2.757      4.837
REMARK SMILES O=C(OCCOCCOCCOCCOC(=O)c1ccn(-c2cc(-c3ccncc3)nc(-c3ccccc3F)n2)n1)c1ccc(-c2c3nc(c(-c4c(F)cccc4F)c4ccc([nH]4)c(-c4c(F)cccc4F)c4nc(c(-c5c(F)cccc5F)c5ccc2[nH]5)C=C4)C=C3)cc1
REMARK SMILES IDX 9 1 8 2 7 3 6 4 5 5 4 6 3 7 2 8 1 9 42 10 43 11 95 12 44 13
REMARK SMILES IDX 94 14 45 15 46 16 47 17 88 18 48 19 93 20 87 21 89 22 49 23
REMARK SMILES IDX 92 24 86 25 85 26 50 28 76 29 59 30 75 31 60 32 63 33 74 34
REMARK SMILES IDX 90 35 61 36 62 37 73 39 91 40 64 41 51 42 52 43 57 44 53 45
REMARK SMILES IDX 54 46 56 47 58 48 55 49 77 50 78 51 83 52 79 53 80 54 82 55
REMARK SMILES IDX 84 56 81 57 65 58 66 59 71 60 67 61 68 62 70 63 72 64 69 65
REMARK SMILES IDX 10 66 11 67 12 68 13 69 14 70 15 71 16 72 17 73 18 74 19 75
REMARK SMILES IDX 41 76 20 77 21 78 22 79 23 80 40 81 24 82 32 83 31 84 25 85
REMARK SMILES IDX 26 86 30 87 27 88 29 89 28 90 33 91 34 92 38 93 35 94 37 95
REMARK SMILES IDX 39 96 36 97
REMARK H PARENT 89 27 63 38
REMARK Flexibility Score: inf
ROOT
ATOM      1  O   UNL A   1      35.235  21.697  26.008  1.00  0.00    -0.377 OA
ENDROOT
BRANCH   1   2
ATOM      2  C   UNL A   1      36.401  21.252  25.341  1.00  0.00     0.188 C 
BRANCH   2   3
ATOM      3  C   UNL A   1      37.705  21.995  25.676  1.00  0.00     0.188 C 
BRANCH   3   4
ATOM      4  O   UNL A   1      39.020  21.503  25.472  1.00  0.00    -0.376 OA
BRANCH   4   5
ATOM      5  C   UNL A   1      40.054  21.343  26.413  1.00  0.00     0.202 C 
BRANCH   5   6
ATOM      6  C   UNL A   1      41.374  20.630  26.127  1.00  0.00     0.261 C 
BRANCH   6   7
ATOM      7  O   UNL A   1      42.568  21.313  26.489  1.00  0.00    -0.460 OA
BRANCH   7   8
ATOM      8  C   UNL A   1      42.900  22.612  26.368  1.00  0.00     0.338 C 
ATOM      9  O   UNL A   1      42.871  23.111  25.243  1.00  0.00    -0.246 OA
BRANCH   8  10
ATOM     10  C   UNL A   1      43.390  23.467  27.482  1.00  0.00     0.060 A 
ATOM     11  C   UNL A   1      42.901  23.482  28.787  1.00  0.00     0.016 A 
ATOM     12  C   UNL A   1      44.408  24.379  27.133  1.00  0.00     0.016 A 
ATOM     13  C   UNL A   1      43.288  24.482  29.663  1.00  0.00     0.010 A 
ATOM     14  C   UNL A   1      44.820  25.365  28.015  1.00  0.00     0.010 A 
ATOM     15  C   UNL A   1      44.189  25.462  29.245  1.00  0.00    -0.014 A 
BRANCH  15  16
ATOM     16  C   UNL A   1      44.368  26.601  30.129  1.00  0.00     0.031 A 
ATOM     17  C   UNL A   1      44.888  26.304  31.489  1.00  0.00     0.074 A 
ATOM     18  C   UNL A   1      44.051  27.853  29.749  1.00  0.00     0.049 A 
ATOM     19  N   UNL A   1      44.288  26.454  32.626  1.00  0.00    -0.248 NA
ATOM     20  C   UNL A   1      46.214  25.680  31.583  1.00  0.00     0.031 C 
ATOM     21  C   UNL A   1      43.759  28.362  28.406  1.00  0.00     0.029 A 
ATOM     22  N   UNL A   1      43.990  28.969  30.523  1.00  0.00    -0.354 N 
ATOM     23  C   UNL A   1      45.215  26.091  33.600  1.00  0.00     0.074 A 
ATOM     24  C   UNL A   1      46.346  25.532  32.902  1.00  0.00     0.031 C 
ATOM     25  C   UNL A   1      43.768  29.715  28.432  1.00  0.00     0.029 A 
ATOM     26  C   UNL A   1      43.905  30.152  29.809  1.00  0.00     0.049 A 
ATOM     27  H   UNL A   1      44.004  28.938  31.506  1.00  0.00     0.167 HD
ATOM     28  C   UNL A   1      45.062  26.418  34.911  1.00  0.00     0.037 A 
ATOM     29  C   UNL A   1      44.004  31.401  30.323  1.00  0.00     0.037 A 
ATOM     30  C   UNL A   1      43.701  26.742  35.233  1.00  0.00     0.049 A 
ATOM     31  C   UNL A   1      43.690  31.314  31.770  1.00  0.00     0.074 A 
ATOM     32  C   UNL A   1      42.513  26.039  35.226  1.00  0.00     0.029 A 
ATOM     33  N   UNL A   1      43.347  28.064  35.327  1.00  0.00    -0.354 N 
ATOM     34  N   UNL A   1      42.509  31.039  32.248  1.00  0.00    -0.248 NA
ATOM     35  C   UNL A   1      44.798  31.126  32.694  1.00  0.00     0.031 C 
ATOM     36  C   UNL A   1      41.529  26.982  34.815  1.00  0.00     0.029 A 
ATOM     37  C   UNL A   1      42.171  28.207  34.637  1.00  0.00     0.049 A 
ATOM     38  H   UNL A   1      43.842  28.773  35.798  1.00  0.00     0.167 HD
ATOM     39  C   UNL A   1      42.752  30.268  33.375  1.00  0.00     0.074 A 
ATOM     40  C   UNL A   1      44.175  30.434  33.651  1.00  0.00     0.031 C 
ATOM     41  C   UNL A   1      41.842  29.357  33.824  1.00  0.00     0.037 A 
BRANCH  28  42
ATOM     42  C   UNL A   1      46.207  26.707  35.841  1.00  0.00     0.057 A 
ATOM     43  C   UNL A   1      46.844  27.962  35.906  1.00  0.00     0.134 A 
ATOM     44  C   UNL A   1      46.518  25.818  36.884  1.00  0.00     0.134 A 
ATOM     45  F   UNL A   1      46.553  28.948  35.047  1.00  0.00    -0.206 F 
ATOM     46  C   UNL A   1      47.743  28.304  36.919  1.00  0.00     0.040 A 
ATOM     47  C   UNL A   1      47.379  26.167  37.931  1.00  0.00     0.040 A 
ATOM     48  F   UNL A   1      45.942  24.608  36.953  1.00  0.00    -0.206 F 
ATOM     49  C   UNL A   1      47.996  27.413  37.951  1.00  0.00     0.006 A 
ENDBRANCH  28  42
BRANCH  29  50
ATOM     50  C   UNL A   1      44.707  32.561  29.732  1.00  0.00     0.057 A 
ATOM     51  C   UNL A   1      44.003  33.635  29.159  1.00  0.00     0.134 A 
ATOM     52  C   UNL A   1      46.079  32.503  29.453  1.00  0.00     0.134 A 
ATOM     53  F   UNL A   1      42.675  33.752  29.302  1.00  0.00    -0.206 F 
ATOM     54  C   UNL A   1      44.620  34.580  28.335  1.00  0.00     0.040 A 
ATOM     55  C   UNL A   1      46.709  33.438  28.622  1.00  0.00     0.040 A 
ATOM     56  F   UNL A   1      46.827  31.494  29.925  1.00  0.00    -0.206 F 
ATOM     57  C   UNL A   1      45.976  34.473  28.049  1.00  0.00     0.006 A 
ENDBRANCH  29  50
BRANCH  41  58
ATOM     58  C   UNL A   1      40.465  29.366  33.218  1.00  0.00     0.057 A 
ATOM     59  C   UNL A   1      39.436  30.033  33.895  1.00  0.00     0.134 A 
ATOM     60  C   UNL A   1      40.095  28.577  32.119  1.00  0.00     0.134 A 
ATOM     61  F   UNL A   1      39.709  30.761  34.989  1.00  0.00    -0.206 F 
ATOM     62  C   UNL A   1      38.101  29.913  33.507  1.00  0.00     0.040 A 
ATOM     63  C   UNL A   1      38.764  28.474  31.701  1.00  0.00     0.040 A 
ATOM     64  F   UNL A   1      40.995  27.830  31.468  1.00  0.00    -0.206 F 
ATOM     65  C   UNL A   1      37.760  29.133  32.405  1.00  0.00     0.006 A 
ENDBRANCH  41  58
ENDBRANCH  15  16
ENDBRANCH   8  10
ENDBRANCH   7   8
ENDBRANCH   6   7
ENDBRANCH   5   6
ENDBRANCH   4   5
ENDBRANCH   3   4
ENDBRANCH   2   3
ENDBRANCH   1   2
BRANCH   1  66
ATOM     66  C   UNL A   1      34.043  21.492  25.286  1.00  0.00     0.188 C 
BRANCH  66  67
ATOM     67  C   UNL A   1      33.023  22.643  25.405  1.00  0.00     0.188 C 
BRANCH  67  68
ATOM     68  O   UNL A   1      33.414  23.947  25.818  1.00  0.00    -0.376 OA
BRANCH  68  69
ATOM     69  C   UNL A   1      32.958  25.103  25.133  1.00  0.00     0.202 C 
BRANCH  69  70
ATOM     70  C   UNL A   1      31.959  26.050  25.812  1.00  0.00     0.261 C 
BRANCH  70  71
ATOM     71  O   UNL A   1      32.347  27.429  25.847  1.00  0.00    -0.458 OA
BRANCH  71  72
ATOM     72  C   UNL A   1      32.225  28.053  27.053  1.00  0.00     0.358 C 
ATOM     73  O   UNL A   1      31.423  27.741  27.928  1.00  0.00    -0.244 OA
BRANCH  72  74
ATOM     74  C   UNL A   1      33.202  29.137  27.217  1.00  0.00     0.170 A 
ATOM     75  C   UNL A   1      32.920  30.524  27.248  1.00  0.00     0.058 A 
ATOM     76  N   UNL A   1      34.530  28.910  27.354  1.00  0.00    -0.159 NA
ATOM     77  C   UNL A   1      34.107  31.117  27.600  1.00  0.00     0.118 A 
ATOM     78  N   UNL A   1      35.048  30.120  27.664  1.00  0.00    -0.222 N 
BRANCH  78  79
ATOM     79  C   UNL A   1      36.384  30.276  28.112  1.00  0.00     0.158 A 
ATOM     80  C   UNL A   1      36.706  31.342  28.930  1.00  0.00     0.078 A 
ATOM     81  N   UNL A   1      37.257  29.313  27.755  1.00  0.00    -0.209 NA
ATOM     82  C   UNL A   1      38.002  31.345  29.414  1.00  0.00     0.077 A 
ATOM     83  C   UNL A   1      38.514  29.472  28.187  1.00  0.00     0.165 A 
ATOM     84  N   UNL A   1      38.926  30.447  29.010  1.00  0.00    -0.228 NA
BRANCH  82  85
ATOM     85  C   UNL A   1      38.474  32.258  30.466  1.00  0.00     0.003 A 
ATOM     86  C   UNL A   1      39.801  32.706  30.498  1.00  0.00     0.030 A 
ATOM     87  C   UNL A   1      37.586  32.791  31.408  1.00  0.00     0.030 A 
ATOM     88  C   UNL A   1      40.174  33.641  31.453  1.00  0.00     0.111 A 
ATOM     89  C   UNL A   1      38.055  33.715  32.331  1.00  0.00     0.111 A 
ATOM     90  N   UNL A   1      39.333  34.143  32.379  1.00  0.00    -0.265 NA
ENDBRANCH  82  85
BRANCH  83  91
ATOM     91  C   UNL A   1      39.514  28.566  27.650  1.00  0.00     0.055 A 
ATOM     92  C   UNL A   1      40.335  28.955  26.575  1.00  0.00     0.015 A 
ATOM     93  C   UNL A   1      39.677  27.281  28.172  1.00  0.00     0.134 A 
ATOM     94  C   UNL A   1      41.288  28.079  26.049  1.00  0.00     0.001 A 
ATOM     95  C   UNL A   1      40.621  26.400  27.648  1.00  0.00     0.040 A 
ATOM     96  F   UNL A   1      38.901  26.857  29.181  1.00  0.00    -0.206 F 
ATOM     97  C   UNL A   1      41.431  26.801  26.586  1.00  0.00     0.003 A 
ENDBRANCH  83  91
ENDBRANCH  78  79
ENDBRANCH  72  74
ENDBRANCH  71  72
ENDBRANCH  70  71
ENDBRANCH  69  70
ENDBRANCH  68  69
ENDBRANCH  67  68
ENDBRANCH  66  67
ENDBRANCH   1  66
TORSDOF 23
ENDMDL
MODEL 3
REMARK VINA RESULT:      -9.6      1.371      3.074
REMARK SMILES O=C(OCCOCCOCCOCCOC(=O)c1ccn(-c2cc(-c3ccncc3)nc(-c3ccccc3F)n2)n1)c1ccc(-c2c3nc(c(-c4c(F)cccc4F)c4ccc([nH]4)c(-c4c(F)cccc4F)c4nc(c(-c5c(F)cccc5F)c5ccc2[nH]5)C=C4)C=C3)cc1
REMARK SMILES IDX 9 1 8 2 7 3 6 4 5 5 4 6 3 7 2 8 1 9 42 10 43 11 95 12 44 13
REMARK SMILES IDX 94 14 45 15 46 16 47 17 88 18 48 19 93 20 87 21 89 22 49 23
REMARK SMILES IDX 92 24 86 25 85 26 50 28 76 29 59 30 75 31 60 32 63 33 74 34
REMARK SMILES IDX 90 35 61 36 62 37 73 39 91 40 64 41 51 42 52 43 57 44 53 45
REMARK SMILES IDX 54 46 56 47 58 48 55 49 77 50 78 51 83 52 79 53 80 54 82 55
REMARK SMILES IDX 84 56 81 57 65 58 66 59 71 60 67 61 68 62 70 63 72 64 69 65
REMARK SMILES IDX 10 66 11 67 12 68 13 69 14 70 15 71 16 72 17 73 18 74 19 75
REMARK SMILES IDX 41 76 20 77 21 78 22 79 23 80 40 81 24 82 32 83 31 84 25 85
REMARK SMILES IDX 26 86 30 87 27 88 29 89 28 90 33 91 34 92 38 93 35 94 37 95
REMARK SMILES IDX 39 96 36 97
REMARK H PARENT 89 27 63 38
REMARK Flexibility Score: inf
ROOT
ATOM      1  O   UNL A   1      33.891  23.372  24.408  1.00  0.00    -0.377 OA
ENDROOT
BRANCH   1   2
ATOM      2  C   UNL A   1      34.848  23.206  23.379  1.00  0.00     0.188 C 
BRANCH   2   3
ATOM      3  C   UNL A   1      36.153  22.494  23.770  1.00  0.00     0.188 C 
BRANCH   3   4
ATOM      4  O   UNL A   1      36.269  21.404  24.671  1.00  0.00    -0.376 OA
BRANCH   4   5
ATOM      5  C   UNL A   1      37.302  20.452  24.771  1.00  0.00     0.202 C 
BRANCH   5   6
ATOM      6  C   UNL A   1      38.504  20.582  25.703  1.00  0.00     0.261 C 
BRANCH   6   7
ATOM      7  O   UNL A   1      39.217  21.812  25.670  1.00  0.00    -0.460 OA
BRANCH   7   8
ATOM      8  C   UNL A   1      39.118  22.898  26.460  1.00  0.00     0.338 C 
ATOM      9  O   UNL A   1      38.078  23.556  26.407  1.00  0.00    -0.246 OA
BRANCH   8  10
ATOM     10  C   UNL A   1      40.211  23.416  27.327  1.00  0.00     0.060 A 
ATOM     11  C   UNL A   1      40.316  24.709  27.837  1.00  0.00     0.016 A 
ATOM     12  C   UNL A   1      41.252  22.501  27.587  1.00  0.00     0.016 A 
ATOM     13  C   UNL A   1      41.493  25.125  28.436  1.00  0.00     0.010 A 
ATOM     14  C   UNL A   1      42.421  22.905  28.212  1.00  0.00     0.010 A 
ATOM     15  C   UNL A   1      42.565  24.242  28.551  1.00  0.00    -0.014 A 
BRANCH  15  16
ATOM     16  C   UNL A   1      43.834  24.809  28.974  1.00  0.00     0.031 A 
ATOM     17  C   UNL A   1      44.103  24.806  30.436  1.00  0.00     0.074 A 
ATOM     18  C   UNL A   1      44.705  25.337  28.094  1.00  0.00     0.049 A 
ATOM     19  N   UNL A   1      44.227  25.822  31.229  1.00  0.00    -0.248 NA
ATOM     20  C   UNL A   1      44.155  23.503  31.110  1.00  0.00     0.031 C 
ATOM     21  C   UNL A   1      44.725  25.221  26.633  1.00  0.00     0.029 A 
ATOM     22  N   UNL A   1      45.825  26.060  28.361  1.00  0.00    -0.354 N 
ATOM     23  C   UNL A   1      44.528  25.295  32.482  1.00  0.00     0.074 A 
ATOM     24  C   UNL A   1      44.376  23.865  32.374  1.00  0.00     0.031 C 
ATOM     25  C   UNL A   1      45.915  25.662  26.168  1.00  0.00     0.029 A 
ATOM     26  C   UNL A   1      46.663  26.234  27.273  1.00  0.00     0.049 A 
ATOM     27  H   UNL A   1      46.023  26.428  29.252  1.00  0.00     0.167 HD
ATOM     28  C   UNL A   1      45.039  26.053  33.489  1.00  0.00     0.037 A 
ATOM     29  C   UNL A   1      47.911  26.759  27.304  1.00  0.00     0.037 A 
ATOM     30  C   UNL A   1      44.803  27.455  33.285  1.00  0.00     0.049 A 
ATOM     31  C   UNL A   1      48.020  27.575  28.538  1.00  0.00     0.074 A 
ATOM     32  C   UNL A   1      43.672  28.242  33.208  1.00  0.00     0.029 A 
ATOM     33  N   UNL A   1      45.825  28.225  32.791  1.00  0.00    -0.354 N 
ATOM     34  N   UNL A   1      47.374  28.689  28.740  1.00  0.00    -0.248 NA
ATOM     35  C   UNL A   1      48.542  26.930  29.733  1.00  0.00     0.031 C 
ATOM     36  C   UNL A   1      43.977  29.231  32.230  1.00  0.00     0.029 A 
ATOM     37  C   UNL A   1      45.286  29.007  31.802  1.00  0.00     0.049 A 
ATOM     38  H   UNL A   1      46.763  28.218  33.089  1.00  0.00     0.167 HD
ATOM     39  C   UNL A   1      47.057  28.678  30.089  1.00  0.00     0.074 A 
ATOM     40  C   UNL A   1      47.881  27.619  30.665  1.00  0.00     0.031 C 
ATOM     41  C   UNL A   1      45.967  29.341  30.570  1.00  0.00     0.037 A 
BRANCH  28  42
ATOM     42  C   UNL A   1      45.994  25.534  34.526  1.00  0.00     0.057 A 
ATOM     43  C   UNL A   1      45.599  25.211  35.840  1.00  0.00     0.134 A 
ATOM     44  C   UNL A   1      47.275  25.087  34.155  1.00  0.00     0.134 A 
ATOM     45  F   UNL A   1      44.364  25.469  36.290  1.00  0.00    -0.206 F 
ATOM     46  C   UNL A   1      46.422  24.516  36.729  1.00  0.00     0.040 A 
ATOM     47  C   UNL A   1      48.089  24.348  35.021  1.00  0.00     0.040 A 
ATOM     48  F   UNL A   1      47.746  25.299  32.916  1.00  0.00    -0.206 F 
ATOM     49  C   UNL A   1      47.664  24.061  36.314  1.00  0.00     0.006 A 
ENDBRANCH  28  42
BRANCH  29  50
ATOM     50  C   UNL A   1      49.097  26.299  26.550  1.00  0.00     0.057 A 
ATOM     51  C   UNL A   1      49.950  25.300  27.054  1.00  0.00     0.134 A 
ATOM     52  C   UNL A   1      49.583  27.032  25.460  1.00  0.00     0.134 A 
ATOM     53  F   UNL A   1      49.617  24.583  28.137  1.00  0.00    -0.206 F 
ATOM     54  C   UNL A   1      51.221  25.063  26.524  1.00  0.00     0.040 A 
ATOM     55  C   UNL A   1      50.858  26.812  24.923  1.00  0.00     0.040 A 
ATOM     56  F   UNL A   1      48.857  28.030  24.934  1.00  0.00    -0.206 F 
ATOM     57  C   UNL A   1      51.687  25.833  25.466  1.00  0.00     0.006 A 
ENDBRANCH  29  50
BRANCH  41  58
ATOM     58  C   UNL A   1      45.243  30.284  29.650  1.00  0.00     0.057 A 
ATOM     59  C   UNL A   1      44.225  29.779  28.832  1.00  0.00     0.134 A 
ATOM     60  C   UNL A   1      45.658  31.602  29.406  1.00  0.00     0.134 A 
ATOM     61  F   UNL A   1      43.816  28.508  28.971  1.00  0.00    -0.206 F 
ATOM     62  C   UNL A   1      43.653  30.541  27.812  1.00  0.00     0.040 A 
ATOM     63  C   UNL A   1      45.070  32.387  28.409  1.00  0.00     0.040 A 
ATOM     64  F   UNL A   1      46.686  32.140  30.074  1.00  0.00    -0.206 F 
ATOM     65  C   UNL A   1      44.073  31.851  27.598  1.00  0.00     0.006 A 
ENDBRANCH  41  58
ENDBRANCH  15  16
ENDBRANCH   8  10
ENDBRANCH   7   8
ENDBRANCH   6   7
ENDBRANCH   5   6
ENDBRANCH   4   5
ENDBRANCH   3   4
ENDBRANCH   2   3
ENDBRANCH   1   2
BRANCH   1  66
ATOM     66  C   UNL A   1      32.554  23.333  23.965  1.00  0.00     0.188 C 
BRANCH  66  67
ATOM     67  C   UNL A   1      31.910  24.721  23.768  1.00  0.00     0.188 C 
BRANCH  67  68
ATOM     68  O   UNL A   1      32.380  25.629  22.779  1.00  0.00    -0.376 OA
BRANCH  68  69
ATOM     69  C   UNL A   1      31.483  26.301  21.910  1.00  0.00     0.202 C 
BRANCH  69  70
ATOM     70  C   UNL A   1      30.715  27.533  22.408  1.00  0.00     0.261 C 
BRANCH  70  71
ATOM     71  O   UNL A   1      31.529  28.613  22.882  1.00  0.00    -0.458 OA
BRANCH  71  72
ATOM     72  C   UNL A   1      31.049  29.294  23.962  1.00  0.00     0.358 C 
ATOM     73  O   UNL A   1      30.062  30.023  23.950  1.00  0.00    -0.244 OA
BRANCH  72  74
ATOM     74  C   UNL A   1      31.829  29.027  25.177  1.00  0.00     0.170 A 
ATOM     75  C   UNL A   1      32.054  27.761  25.768  1.00  0.00     0.058 A 
ATOM     76  N   UNL A   1      32.433  30.008  25.887  1.00  0.00    -0.159 NA
ATOM     77  C   UNL A   1      32.976  27.993  26.759  1.00  0.00     0.118 A 
ATOM     78  N   UNL A   1      33.187  29.348  26.796  1.00  0.00    -0.222 N 
BRANCH  78  79
ATOM     79  C   UNL A   1      34.157  30.008  27.593  1.00  0.00     0.158 A 
ATOM     80  C   UNL A   1      35.373  29.396  27.830  1.00  0.00     0.078 A 
ATOM     81  N   UNL A   1      33.845  31.248  28.021  1.00  0.00    -0.209 NA
ATOM     82  C   UNL A   1      36.299  30.164  28.513  1.00  0.00     0.077 A 
ATOM     83  C   UNL A   1      34.771  31.861  28.769  1.00  0.00     0.165 A 
ATOM     84  N   UNL A   1      35.992  31.373  29.031  1.00  0.00    -0.228 NA
BRANCH  82  85
ATOM     85  C   UNL A   1      37.712  29.787  28.669  1.00  0.00     0.003 A 
ATOM     86  C   UNL A   1      38.268  29.558  29.934  1.00  0.00     0.030 A 
ATOM     87  C   UNL A   1      38.518  29.541  27.551  1.00  0.00     0.030 A 
ATOM     88  C   UNL A   1      39.579  29.111  30.023  1.00  0.00     0.111 A 
ATOM     89  C   UNL A   1      39.821  29.104  27.741  1.00  0.00     0.111 A 
ATOM     90  N   UNL A   1      40.371  28.893  28.954  1.00  0.00    -0.265 NA
ENDBRANCH  82  85
BRANCH  83  91
ATOM     91  C   UNL A   1      34.382  33.104  29.410  1.00  0.00     0.055 A 
ATOM     92  C   UNL A   1      34.742  33.369  30.745  1.00  0.00     0.015 A 
ATOM     93  C   UNL A   1      33.627  34.061  28.729  1.00  0.00     0.134 A 
ATOM     94  C   UNL A   1      34.357  34.559  31.367  1.00  0.00     0.001 A 
ATOM     95  C   UNL A   1      33.233  35.247  29.346  1.00  0.00     0.040 A 
ATOM     96  F   UNL A   1      33.240  33.841  27.464  1.00  0.00    -0.206 F 
ATOM     97  C   UNL A   1      33.601  35.498  30.667  1.00  0.00     0.003 A 
ENDBRANCH  83  91
ENDBRANCH  78  79
ENDBRANCH  72  74
ENDBRANCH  71  72
ENDBRANCH  70  71
ENDBRANCH  69  70
ENDBRANCH  68  69
ENDBRANCH  67  68
ENDBRANCH  66  67
ENDBRANCH   1  66
TORSDOF 23
ENDMDL
