MODEL 1
REMARK VINA RESULT:      -9.4      0.000      0.000
REMARK SMILES C[NH2+][C@]1(C(=O)OCCOCCOCCOCCOC(=O)c2ccc(-c3c4nc(c(-c5c(F)cccc5F)c5ccc([nH]5)c(-c5c(F)cccc5F)c5nc(c(-c6c(F)cccc6F)c6ccc3[nH]6)C=C5)C=C4)cc2)CCC[C@@H]1CCn1cc(C)cn1
REMARK SMILES IDX 11 1 10 2 9 3 8 4 7 5 6 6 4 7 5 8 3 9 75 10 78 11 76 12
REMARK SMILES IDX 77 13 2 14 1 15 79 18 80 19 81 20 82 21 86 22 83 23 85 24
REMARK SMILES IDX 84 25 12 26 13 27 14 28 15 29 16 30 17 31 18 32 19 33 20 34
REMARK SMILES IDX 21 35 22 36 74 37 23 38 73 39 24 40 25 41 26 42 67 43 27 44
REMARK SMILES IDX 72 45 66 46 68 47 28 48 71 49 65 50 64 51 29 53 55 54 38 55
REMARK SMILES IDX 54 56 39 57 42 58 53 59 69 60 40 61 41 62 52 64 70 65 43 66
REMARK SMILES IDX 30 67 31 68 36 69 32 70 33 71 35 72 37 73 34 74 56 75 57 76
REMARK SMILES IDX 62 77 58 78 59 79 61 80 63 81 60 82 44 83 45 84 50 85 46 86
REMARK SMILES IDX 47 87 49 88 51 89 48 90
REMARK H PARENT 2 16 2 17 68 52 42 63
REMARK Flexibility Score: inf
ROOT
ATOM      1  C   UNL A   1      29.118  29.056  22.383  1.00  0.00     0.188 C 
ENDROOT
BRANCH   1   2
ATOM      2  C   UNL A   1      30.455  28.469  22.842  1.00  0.00     0.188 C 
BRANCH   2   3
ATOM      3  O   UNL A   1      30.482  27.620  23.977  1.00  0.00    -0.376 OA
BRANCH   3   4
ATOM      4  C   UNL A   1      31.347  26.496  24.062  1.00  0.00     0.202 C 
BRANCH   4   5
ATOM      5  C   UNL A   1      31.515  25.410  22.976  1.00  0.00     0.261 C 
BRANCH   5   6
ATOM      6  O   UNL A   1      32.338  24.281  23.289  1.00  0.00    -0.459 OA
BRANCH   6   7
ATOM      7  C   UNL A   1      31.889  23.476  24.279  1.00  0.00     0.368 C 
ATOM      8  O   UNL A   1      30.712  23.141  24.380  1.00  0.00    -0.245 OA
BRANCH   7   9
ATOM      9  C   UNL A   1      33.016  23.108  25.306  1.00  0.00     0.197 C 
ATOM     10  C   UNL A   1      32.789  23.452  26.795  1.00  0.00     0.081 C 
ATOM     11  C   UNL A   1      32.970  21.568  25.438  1.00  0.00     0.064 C 
ATOM     12  C   UNL A   1      33.624  22.461  27.603  1.00  0.00     0.008 C 
ATOM     13  C   UNL A   1      33.730  21.220  26.726  1.00  0.00     0.011 C 
BRANCH   9  14
ATOM     14  N   UNL A   1      34.364  23.655  24.982  1.00  0.00    -0.334 N 
ATOM     15  C   UNL A   1      34.737  24.929  25.575  1.00  0.00     0.331 C 
ATOM     16  H   UNL A   1      35.052  22.965  25.282  1.00  0.00     0.347 HD
ATOM     17  H   UNL A   1      34.333  23.838  23.979  1.00  0.00     0.347 HD
ENDBRANCH   9  14
BRANCH  11  18
ATOM     18  C   UNL A   1      33.447  20.800  24.201  1.00  0.00     0.034 C 
BRANCH  18  19
ATOM     19  C   UNL A   1      32.382  19.848  23.658  1.00  0.00     0.144 C 
BRANCH  19  20
ATOM     20  N   UNL A   1      32.677  18.447  23.913  1.00  0.00    -0.272 N 
ATOM     21  C   UNL A   1      32.496  17.764  25.082  1.00  0.00     0.112 A 
ATOM     22  N   UNL A   1      33.227  17.695  22.941  1.00  0.00    -0.181 NA
ATOM     23  C   UNL A   1      32.933  16.476  24.854  1.00  0.00    -0.013 A 
ATOM     24  C   UNL A   1      33.394  16.504  23.518  1.00  0.00     0.138 A 
ATOM     25  C   UNL A   1      32.924  15.320  25.777  1.00  0.00     0.048 C 
ENDBRANCH  19  20
ENDBRANCH  18  19
ENDBRANCH  11  18
ENDBRANCH   7   9
ENDBRANCH   6   7
ENDBRANCH   5   6
ENDBRANCH   4   5
ENDBRANCH   3   4
ENDBRANCH   2   3
ENDBRANCH   1   2
BRANCH   1  26
ATOM     26  O   UNL A   1      29.242  30.301  21.733  1.00  0.00    -0.377 OA
BRANCH  26  27
ATOM     27  C   UNL A   1      28.484  31.358  22.289  1.00  0.00     0.188 C 
BRANCH  27  28
ATOM     28  C   UNL A   1      29.144  32.246  23.366  1.00  0.00     0.188 C 
BRANCH  28  29
ATOM     29  O   UNL A   1      29.290  31.638  24.645  1.00  0.00    -0.376 OA
BRANCH  29  30
ATOM     30  C   UNL A   1      30.589  31.371  25.153  1.00  0.00     0.202 C 
BRANCH  30  31
ATOM     31  C   UNL A   1      31.087  32.183  26.363  1.00  0.00     0.261 C 
BRANCH  31  32
ATOM     32  O   UNL A   1      32.500  32.167  26.608  1.00  0.00    -0.460 OA
BRANCH  32  33
ATOM     33  C   UNL A   1      32.993  33.060  27.490  1.00  0.00     0.338 C 
ATOM     34  O   UNL A   1      32.425  34.042  27.939  1.00  0.00    -0.246 OA
BRANCH  33  35
ATOM     35  C   UNL A   1      34.276  32.531  28.002  1.00  0.00     0.060 A 
ATOM     36  C   UNL A   1      34.350  31.177  28.355  1.00  0.00     0.016 A 
ATOM     37  C   UNL A   1      35.407  33.347  28.093  1.00  0.00     0.016 A 
ATOM     38  C   UNL A   1      35.543  30.642  28.836  1.00  0.00     0.010 A 
ATOM     39  C   UNL A   1      36.594  32.819  28.609  1.00  0.00     0.010 A 
ATOM     40  C   UNL A   1      36.654  31.474  29.017  1.00  0.00    -0.014 A 
BRANCH  40  41
ATOM     41  C   UNL A   1      37.779  31.003  29.859  1.00  0.00     0.031 A 
ATOM     42  C   UNL A   1      38.772  30.059  29.236  1.00  0.00     0.074 A 
ATOM     43  C   UNL A   1      37.945  31.424  31.124  1.00  0.00     0.049 A 
ATOM     44  N   UNL A   1      39.812  29.472  29.769  1.00  0.00    -0.248 NA
ATOM     45  C   UNL A   1      38.557  29.734  27.816  1.00  0.00     0.031 C 
ATOM     46  C   UNL A   1      37.086  32.376  31.821  1.00  0.00     0.029 A 
ATOM     47  N   UNL A   1      38.902  31.089  32.051  1.00  0.00    -0.354 N 
ATOM     48  C   UNL A   1      40.369  28.705  28.753  1.00  0.00     0.074 A 
ATOM     49  C   UNL A   1      39.535  28.875  27.583  1.00  0.00     0.031 C 
ATOM     50  C   UNL A   1      37.545  32.538  33.075  1.00  0.00     0.029 A 
ATOM     51  C   UNL A   1      38.708  31.676  33.277  1.00  0.00     0.049 A 
ATOM     52  H   UNL A   1      39.655  30.485  31.854  1.00  0.00     0.167 HD
ATOM     53  C   UNL A   1      41.479  27.933  28.788  1.00  0.00     0.037 A 
ATOM     54  C   UNL A   1      39.382  31.510  34.433  1.00  0.00     0.037 A 
ATOM     55  C   UNL A   1      42.302  27.760  29.955  1.00  0.00     0.049 A 
ATOM     56  C   UNL A   1      40.564  30.574  34.474  1.00  0.00     0.074 A 
ATOM     57  C   UNL A   1      43.453  27.006  30.093  1.00  0.00     0.029 A 
ATOM     58  N   UNL A   1      42.052  28.340  31.189  1.00  0.00    -0.354 N 
ATOM     59  N   UNL A   1      41.097  29.869  33.505  1.00  0.00    -0.248 NA
ATOM     60  C   UNL A   1      41.240  30.414  35.770  1.00  0.00     0.031 C 
ATOM     61  C   UNL A   1      43.867  27.083  31.426  1.00  0.00     0.029 A 
ATOM     62  C   UNL A   1      43.010  27.938  32.103  1.00  0.00     0.049 A 
ATOM     63  H   UNL A   1      41.303  28.948  31.387  1.00  0.00     0.167 HD
ATOM     64  C   UNL A   1      42.187  29.210  34.065  1.00  0.00     0.074 A 
ATOM     65  C   UNL A   1      42.246  29.610  35.455  1.00  0.00     0.031 C 
ATOM     66  C   UNL A   1      43.062  28.354  33.481  1.00  0.00     0.037 A 
BRANCH  53  67
ATOM     67  C   UNL A   1      41.844  27.190  27.536  1.00  0.00     0.057 A 
ATOM     68  C   UNL A   1      42.568  27.792  26.497  1.00  0.00     0.134 A 
ATOM     69  C   UNL A   1      41.481  25.847  27.376  1.00  0.00     0.134 A 
ATOM     70  F   UNL A   1      42.930  29.081  26.579  1.00  0.00    -0.206 F 
ATOM     71  C   UNL A   1      42.897  27.091  25.335  1.00  0.00     0.040 A 
ATOM     72  C   UNL A   1      41.830  25.128  26.232  1.00  0.00     0.040 A 
ATOM     73  F   UNL A   1      40.788  25.210  28.331  1.00  0.00    -0.206 F 
ATOM     74  C   UNL A   1      42.534  25.752  25.204  1.00  0.00     0.006 A 
ENDBRANCH  53  67
BRANCH  54  75
ATOM     75  C   UNL A   1      38.946  32.226  35.661  1.00  0.00     0.057 A 
ATOM     76  C   UNL A   1      39.312  33.557  35.896  1.00  0.00     0.134 A 
ATOM     77  C   UNL A   1      38.183  31.586  36.645  1.00  0.00     0.134 A 
ATOM     78  F   UNL A   1      40.065  34.218  35.005  1.00  0.00    -0.206 F 
ATOM     79  C   UNL A   1      38.954  34.217  37.074  1.00  0.00     0.040 A 
ATOM     80  C   UNL A   1      37.793  32.243  37.814  1.00  0.00     0.040 A 
ATOM     81  F   UNL A   1      37.801  30.310  36.484  1.00  0.00    -0.206 F 
ATOM     82  C   UNL A   1      38.187  33.561  38.034  1.00  0.00     0.006 A 
ENDBRANCH  54  75
BRANCH  66  83
ATOM     83  C   UNL A   1      44.187  27.827  34.327  1.00  0.00     0.057 A 
ATOM     84  C   UNL A   1      44.088  26.622  35.034  1.00  0.00     0.134 A 
ATOM     85  C   UNL A   1      45.406  28.516  34.395  1.00  0.00     0.134 A 
ATOM     86  F   UNL A   1      42.946  25.917  35.020  1.00  0.00    -0.206 F 
ATOM     87  C   UNL A   1      45.150  26.134  35.798  1.00  0.00     0.040 A 
ATOM     88  C   UNL A   1      46.486  28.022  35.129  1.00  0.00     0.040 A 
ATOM     89  F   UNL A   1      45.575  29.670  33.732  1.00  0.00    -0.206 F 
ATOM     90  C   UNL A   1      46.356  26.831  35.840  1.00  0.00     0.006 A 
ENDBRANCH  66  83
ENDBRANCH  40  41
ENDBRANCH  33  35
ENDBRANCH  32  33
ENDBRANCH  31  32
ENDBRANCH  30  31
ENDBRANCH  29  30
ENDBRANCH  28  29
ENDBRANCH  27  28
ENDBRANCH  26  27
ENDBRANCH   1  26
TORSDOF 24
ENDMDL
MODEL 2
REMARK VINA RESULT:      -9.4      1.659      2.457
REMARK SMILES C[NH2+][C@]1(C(=O)OCCOCCOCCOCCOC(=O)c2ccc(-c3c4nc(c(-c5c(F)cccc5F)c5ccc([nH]5)c(-c5c(F)cccc5F)c5nc(c(-c6c(F)cccc6F)c6ccc3[nH]6)C=C5)C=C4)cc2)CCC[C@@H]1CCn1cc(C)cn1
REMARK SMILES IDX 11 1 10 2 9 3 8 4 7 5 6 6 4 7 5 8 3 9 75 10 78 11 76 12
REMARK SMILES IDX 77 13 2 14 1 15 79 18 80 19 81 20 82 21 86 22 83 23 85 24
REMARK SMILES IDX 84 25 12 26 13 27 14 28 15 29 16 30 17 31 18 32 19 33 20 34
REMARK SMILES IDX 21 35 22 36 74 37 23 38 73 39 24 40 25 41 26 42 67 43 27 44
REMARK SMILES IDX 72 45 66 46 68 47 28 48 71 49 65 50 64 51 29 53 55 54 38 55
REMARK SMILES IDX 54 56 39 57 42 58 53 59 69 60 40 61 41 62 52 64 70 65 43 66
REMARK SMILES IDX 30 67 31 68 36 69 32 70 33 71 35 72 37 73 34 74 56 75 57 76
REMARK SMILES IDX 62 77 58 78 59 79 61 80 63 81 60 82 44 83 45 84 50 85 46 86
REMARK SMILES IDX 47 87 49 88 51 89 48 90
REMARK H PARENT 2 16 2 17 68 52 42 63
REMARK Flexibility Score: inf
ROOT
ATOM      1  C   UNL A   1      31.242  27.257  26.325  1.00  0.00     0.188 C 
ENDROOT
BRANCH   1   2
ATOM      2  C   UNL A   1      30.891  27.726  24.911  1.00  0.00     0.188 C 
BRANCH   2   3
ATOM      3  O   UNL A   1      31.807  27.485  23.857  1.00  0.00    -0.376 OA
BRANCH   3   4
ATOM      4  C   UNL A   1      31.415  26.866  22.640  1.00  0.00     0.202 C 
BRANCH   4   5
ATOM      5  C   UNL A   1      32.161  25.707  21.941  1.00  0.00     0.261 C 
BRANCH   5   6
ATOM      6  O   UNL A   1      33.516  25.461  22.329  1.00  0.00    -0.459 OA
BRANCH   6   7
ATOM      7  C   UNL A   1      33.845  24.168  22.551  1.00  0.00     0.368 C 
ATOM      8  O   UNL A   1      33.880  23.328  21.656  1.00  0.00    -0.245 OA
BRANCH   7   9
ATOM      9  C   UNL A   1      34.083  23.865  24.072  1.00  0.00     0.197 C 
ATOM     10  C   UNL A   1      34.037  25.045  25.068  1.00  0.00     0.081 C 
ATOM     11  C   UNL A   1      32.809  23.134  24.555  1.00  0.00     0.064 C 
ATOM     12  C   UNL A   1      33.634  24.458  26.420  1.00  0.00     0.008 C 
ATOM     13  C   UNL A   1      32.815  23.218  26.087  1.00  0.00     0.011 C 
BRANCH   9  14
ATOM     14  N   UNL A   1      35.353  23.148  24.378  1.00  0.00    -0.334 N 
ATOM     15  C   UNL A   1      36.297  22.950  23.289  1.00  0.00     0.331 C 
ATOM     16  H   UNL A   1      35.834  23.676  25.105  1.00  0.00     0.347 HD
ATOM     17  H   UNL A   1      35.060  22.206  24.638  1.00  0.00     0.347 HD
ENDBRANCH   9  14
BRANCH  11  18
ATOM     18  C   UNL A   1      32.631  21.716  24.004  1.00  0.00     0.034 C 
BRANCH  18  19
ATOM     19  C   UNL A   1      32.194  20.722  25.080  1.00  0.00     0.144 C 
BRANCH  19  20
ATOM     20  N   UNL A   1      32.600  19.354  24.800  1.00  0.00    -0.272 N 
ATOM     21  C   UNL A   1      33.347  18.912  23.745  1.00  0.00     0.112 A 
ATOM     22  N   UNL A   1      32.194  18.360  25.614  1.00  0.00    -0.181 NA
ATOM     23  C   UNL A   1      33.458  17.545  23.890  1.00  0.00    -0.013 A 
ATOM     24  C   UNL A   1      32.704  17.262  25.051  1.00  0.00     0.138 A 
ATOM     25  C   UNL A   1      34.195  16.583  23.041  1.00  0.00     0.048 C 
ENDBRANCH  19  20
ENDBRANCH  18  19
ENDBRANCH  11  18
ENDBRANCH   7   9
ENDBRANCH   6   7
ENDBRANCH   5   6
ENDBRANCH   4   5
ENDBRANCH   3   4
ENDBRANCH   2   3
ENDBRANCH   1   2
BRANCH   1  26
ATOM     26  O   UNL A   1      31.870  28.246  27.109  1.00  0.00    -0.377 OA
BRANCH  26  27
ATOM     27  C   UNL A   1      33.271  28.355  26.948  1.00  0.00     0.188 C 
BRANCH  27  28
ATOM     28  C   UNL A   1      33.927  29.738  27.151  1.00  0.00     0.188 C 
BRANCH  28  29
ATOM     29  O   UNL A   1      33.058  30.753  27.642  1.00  0.00    -0.376 OA
BRANCH  29  30
ATOM     30  C   UNL A   1      32.645  31.804  26.781  1.00  0.00     0.202 C 
BRANCH  30  31
ATOM     31  C   UNL A   1      32.128  33.111  27.410  1.00  0.00     0.261 C 
BRANCH  31  32
ATOM     32  O   UNL A   1      33.089  34.161  27.586  1.00  0.00    -0.460 OA
BRANCH  32  33
ATOM     33  C   UNL A   1      33.416  34.505  28.848  1.00  0.00     0.338 C 
ATOM     34  O   UNL A   1      32.761  35.189  29.617  1.00  0.00    -0.246 OA
BRANCH  33  35
ATOM     35  C   UNL A   1      34.614  33.729  29.235  1.00  0.00     0.060 A 
ATOM     36  C   UNL A   1      34.446  32.589  30.034  1.00  0.00     0.016 A 
ATOM     37  C   UNL A   1      35.885  34.092  28.781  1.00  0.00     0.016 A 
ATOM     38  C   UNL A   1      35.551  31.830  30.414  1.00  0.00     0.010 A 
ATOM     39  C   UNL A   1      36.997  33.350  29.192  1.00  0.00     0.010 A 
ATOM     40  C   UNL A   1      36.836  32.240  30.040  1.00  0.00    -0.014 A 
BRANCH  40  41
ATOM     41  C   UNL A   1      38.009  31.662  30.739  1.00  0.00     0.031 A 
ATOM     42  C   UNL A   1      38.790  30.591  30.026  1.00  0.00     0.074 A 
ATOM     43  C   UNL A   1      38.399  32.094  31.949  1.00  0.00     0.049 A 
ATOM     44  N   UNL A   1      39.822  29.900  30.435  1.00  0.00    -0.248 NA
ATOM     45  C   UNL A   1      38.340  30.255  28.665  1.00  0.00     0.031 C 
ATOM     46  C   UNL A   1      37.761  33.160  32.716  1.00  0.00     0.029 A 
ATOM     47  N   UNL A   1      39.434  31.675  32.749  1.00  0.00    -0.354 N 
ATOM     48  C   UNL A   1      40.139  29.045  29.386  1.00  0.00     0.074 A 
ATOM     49  C   UNL A   1      39.172  29.281  28.337  1.00  0.00     0.031 C 
ATOM     50  C   UNL A   1      38.409  33.301  33.887  1.00  0.00     0.029 A 
ATOM     51  C   UNL A   1      39.484  32.313  33.964  1.00  0.00     0.049 A 
ATOM     52  H   UNL A   1      40.078  30.981  32.477  1.00  0.00     0.167 HD
ATOM     53  C   UNL A   1      41.149  28.149  29.302  1.00  0.00     0.037 A 
ATOM     54  C   UNL A   1      40.291  32.101  35.022  1.00  0.00     0.037 A 
ATOM     55  C   UNL A   1      42.104  27.912  30.350  1.00  0.00     0.049 A 
ATOM     56  C   UNL A   1      41.354  31.033  34.940  1.00  0.00     0.074 A 
ATOM     57  C   UNL A   1      43.170  27.032  30.361  1.00  0.00     0.029 A 
ATOM     58  N   UNL A   1      42.098  28.551  31.581  1.00  0.00    -0.354 N 
ATOM     59  N   UNL A   1      41.661  30.244  33.938  1.00  0.00    -0.248 NA
ATOM     60  C   UNL A   1      42.184  30.829  36.136  1.00  0.00     0.031 C 
ATOM     61  C   UNL A   1      43.775  27.096  31.620  1.00  0.00     0.029 A 
ATOM     62  C   UNL A   1      43.125  28.063  32.370  1.00  0.00     0.049 A 
ATOM     63  H   UNL A   1      41.459  29.248  31.853  1.00  0.00     0.167 HD
ATOM     64  C   UNL A   1      42.738  29.476  34.371  1.00  0.00     0.074 A 
ATOM     65  C   UNL A   1      43.038  29.904  35.721  1.00  0.00     0.031 C 
ATOM     66  C   UNL A   1      43.419  28.508  33.709  1.00  0.00     0.037 A 
BRANCH  53  67
ATOM     67  C   UNL A   1      41.246  27.335  28.045  1.00  0.00     0.057 A 
ATOM     68  C   UNL A   1      40.540  26.135  27.878  1.00  0.00     0.134 A 
ATOM     69  C   UNL A   1      42.043  27.768  26.978  1.00  0.00     0.134 A 
ATOM     70  F   UNL A   1      39.774  25.654  28.869  1.00  0.00    -0.206 F 
ATOM     71  C   UNL A   1      40.644  25.385  26.706  1.00  0.00     0.040 A 
ATOM     72  C   UNL A   1      42.131  27.042  25.790  1.00  0.00     0.040 A 
ATOM     73  F   UNL A   1      42.744  28.908  27.070  1.00  0.00    -0.206 F 
ATOM     74  C   UNL A   1      41.435  25.842  25.653  1.00  0.00     0.006 A 
ENDBRANCH  53  67
BRANCH  54  75
ATOM     75  C   UNL A   1      40.118  32.896  36.266  1.00  0.00     0.057 A 
ATOM     76  C   UNL A   1      39.156  32.551  37.222  1.00  0.00     0.134 A 
ATOM     77  C   UNL A   1      40.885  34.041  36.510  1.00  0.00     0.134 A 
ATOM     78  F   UNL A   1      38.370  31.481  37.034  1.00  0.00    -0.206 F 
ATOM     79  C   UNL A   1      38.949  33.326  38.365  1.00  0.00     0.040 A 
ATOM     80  C   UNL A   1      40.710  34.809  37.662  1.00  0.00     0.040 A 
ATOM     81  F   UNL A   1      41.823  34.430  35.633  1.00  0.00    -0.206 F 
ATOM     82  C   UNL A   1      39.732  34.456  38.590  1.00  0.00     0.006 A 
ENDBRANCH  54  75
BRANCH  66  83
ATOM     83  C   UNL A   1      44.586  27.874  34.414  1.00  0.00     0.057 A 
ATOM     84  C   UNL A   1      44.465  26.676  35.129  1.00  0.00     0.134 A 
ATOM     85  C   UNL A   1      45.860  28.452  34.334  1.00  0.00     0.134 A 
ATOM     86  F   UNL A   1      43.272  26.075  35.253  1.00  0.00    -0.206 F 
ATOM     87  C   UNL A   1      45.564  26.089  35.760  1.00  0.00     0.040 A 
ATOM     88  C   UNL A   1      46.972  27.857  34.933  1.00  0.00     0.040 A 
ATOM     89  F   UNL A   1      46.051  29.593  33.654  1.00  0.00    -0.206 F 
ATOM     90  C   UNL A   1      46.823  26.676  35.656  1.00  0.00     0.006 A 
ENDBRANCH  66  83
ENDBRANCH  40  41
ENDBRANCH  33  35
ENDBRANCH  32  33
ENDBRANCH  31  32
ENDBRANCH  30  31
ENDBRANCH  29  30
ENDBRANCH  28  29
ENDBRANCH  27  28
ENDBRANCH  26  27
ENDBRANCH   1  26
TORSDOF 24
ENDMDL
MODEL 3
REMARK VINA RESULT:      -9.3      1.554      6.227
REMARK SMILES C[NH2+][C@]1(C(=O)OCCOCCOCCOCCOC(=O)c2ccc(-c3c4nc(c(-c5c(F)cccc5F)c5ccc([nH]5)c(-c5c(F)cccc5F)c5nc(c(-c6c(F)cccc6F)c6ccc3[nH]6)C=C5)C=C4)cc2)CCC[C@@H]1CCn1cc(C)cn1
REMARK SMILES IDX 11 1 10 2 9 3 8 4 7 5 6 6 4 7 5 8 3 9 75 10 78 11 76 12
REMARK SMILES IDX 77 13 2 14 1 15 79 18 80 19 81 20 82 21 86 22 83 23 85 24
REMARK SMILES IDX 84 25 12 26 13 27 14 28 15 29 16 30 17 31 18 32 19 33 20 34
REMARK SMILES IDX 21 35 22 36 74 37 23 38 73 39 24 40 25 41 26 42 67 43 27 44
REMARK SMILES IDX 72 45 66 46 68 47 28 48 71 49 65 50 64 51 29 53 55 54 38 55
REMARK SMILES IDX 54 56 39 57 42 58 53 59 69 60 40 61 41 62 52 64 70 65 43 66
REMARK SMILES IDX 30 67 31 68 36 69 32 70 33 71 35 72 37 73 34 74 56 75 57 76
REMARK SMILES IDX 62 77 58 78 59 79 61 80 63 81 60 82 44 83 45 84 50 85 46 86
REMARK SMILES IDX 47 87 49 88 51 89 48 90
REMARK H PARENT 2 16 2 17 68 52 42 63
REMARK Flexibility Score: inf
ROOT
ATOM      1  C   UNL A   1      31.224  27.746  25.819  1.00  0.00     0.188 C 
ENDROOT
BRANCH   1   2
ATOM      2  C   UNL A   1      31.169  28.038  24.317  1.00  0.00     0.188 C 
BRANCH   2   3
ATOM      3  O   UNL A   1      32.101  27.405  23.457  1.00  0.00    -0.376 OA
BRANCH   3   4
ATOM      4  C   UNL A   1      31.753  26.977  22.148  1.00  0.00     0.202 C 
BRANCH   4   5
ATOM      5  C   UNL A   1      32.381  25.780  21.399  1.00  0.00     0.261 C 
BRANCH   5   6
ATOM      6  O   UNL A   1      33.646  25.297  21.862  1.00  0.00    -0.459 OA
BRANCH   6   7
ATOM      7  C   UNL A   1      33.708  23.976  22.148  1.00  0.00     0.368 C 
ATOM      8  O   UNL A   1      33.480  23.104  21.315  1.00  0.00    -0.245 OA
BRANCH   7   9
ATOM      9  C   UNL A   1      34.013  23.707  23.663  1.00  0.00     0.197 C 
ATOM     10  C   UNL A   1      34.252  24.922  24.588  1.00  0.00     0.081 C 
ATOM     11  C   UNL A   1      32.675  23.237  24.280  1.00  0.00     0.064 C 
ATOM     12  C   UNL A   1      33.865  24.479  25.998  1.00  0.00     0.008 C 
ATOM     13  C   UNL A   1      32.820  23.389  25.800  1.00  0.00     0.011 C 
BRANCH   9  14
ATOM     14  N   UNL A   1      35.161  22.791  23.920  1.00  0.00    -0.334 N 
ATOM     15  C   UNL A   1      36.496  23.366  23.925  1.00  0.00     0.331 C 
ATOM     16  H   UNL A   1      35.010  22.363  24.832  1.00  0.00     0.347 HD
ATOM     17  H   UNL A   1      35.160  22.151  23.126  1.00  0.00     0.347 HD
ENDBRANCH   9  14
BRANCH  11  18
ATOM     18  C   UNL A   1      32.211  21.847  23.829  1.00  0.00     0.034 C 
BRANCH  18  19
ATOM     19  C   UNL A   1      32.152  20.849  24.985  1.00  0.00     0.144 C 
BRANCH  19  20
ATOM     20  N   UNL A   1      32.425  19.479  24.577  1.00  0.00    -0.272 N 
ATOM     21  C   UNL A   1      32.846  18.450  25.370  1.00  0.00     0.112 A 
ATOM     22  N   UNL A   1      32.305  19.134  23.281  1.00  0.00    -0.181 NA
ATOM     23  C   UNL A   1      32.988  17.354  24.544  1.00  0.00    -0.013 A 
ATOM     24  C   UNL A   1      32.660  17.848  23.262  1.00  0.00     0.138 A 
ATOM     25  C   UNL A   1      33.383  15.973  24.901  1.00  0.00     0.048 C 
ENDBRANCH  19  20
ENDBRANCH  18  19
ENDBRANCH  11  18
ENDBRANCH   7   9
ENDBRANCH   6   7
ENDBRANCH   5   6
ENDBRANCH   4   5
ENDBRANCH   3   4
ENDBRANCH   2   3
ENDBRANCH   1   2
BRANCH   1  26
ATOM     26  O   UNL A   1      31.813  28.780  26.575  1.00  0.00    -0.377 OA
BRANCH  26  27
ATOM     27  C   UNL A   1      33.227  28.783  26.608  1.00  0.00     0.188 C 
BRANCH  27  28
ATOM     28  C   UNL A   1      33.947  30.077  27.044  1.00  0.00     0.188 C 
BRANCH  28  29
ATOM     29  O   UNL A   1      33.110  31.066  27.634  1.00  0.00    -0.376 OA
BRANCH  29  30
ATOM     30  C   UNL A   1      32.737  32.212  26.883  1.00  0.00     0.202 C 
BRANCH  30  31
ATOM     31  C   UNL A   1      32.278  33.471  27.641  1.00  0.00     0.261 C 
BRANCH  31  32
ATOM     32  O   UNL A   1      33.248  34.516  27.794  1.00  0.00    -0.460 OA
BRANCH  32  33
ATOM     33  C   UNL A   1      33.712  34.764  29.036  1.00  0.00     0.338 C 
ATOM     34  O   UNL A   1      33.216  35.497  29.874  1.00  0.00    -0.246 OA
BRANCH  33  35
ATOM     35  C   UNL A   1      34.819  33.820  29.303  1.00  0.00     0.060 A 
ATOM     36  C   UNL A   1      34.559  32.685  30.083  1.00  0.00     0.016 A 
ATOM     37  C   UNL A   1      36.089  34.024  28.755  1.00  0.00     0.016 A 
ATOM     38  C   UNL A   1      35.576  31.770  30.351  1.00  0.00     0.010 A 
ATOM     39  C   UNL A   1      37.117  33.126  29.054  1.00  0.00     0.010 A 
ATOM     40  C   UNL A   1      36.872  32.017  29.884  1.00  0.00    -0.014 A 
BRANCH  40  41
ATOM     41  C   UNL A   1      38.006  31.262  30.469  1.00  0.00     0.031 A 
ATOM     42  C   UNL A   1      38.377  31.550  31.899  1.00  0.00     0.074 A 
ATOM     43  C   UNL A   1      38.666  30.320  29.774  1.00  0.00     0.049 A 
ATOM     44  N   UNL A   1      39.348  31.060  32.623  1.00  0.00    -0.248 NA
ATOM     45  C   UNL A   1      37.532  32.528  32.604  1.00  0.00     0.031 C 
ATOM     46  C   UNL A   1      38.368  29.911  28.404  1.00  0.00     0.029 A 
ATOM     47  N   UNL A   1      39.737  29.540  30.135  1.00  0.00    -0.354 N 
ATOM     48  C   UNL A   1      39.236  31.676  33.864  1.00  0.00     0.074 A 
ATOM     49  C   UNL A   1      38.123  32.596  33.785  1.00  0.00     0.031 C 
ATOM     50  C   UNL A   1      39.249  28.964  28.032  1.00  0.00     0.029 A 
ATOM     51  C   UNL A   1      40.191  28.727  29.125  1.00  0.00     0.049 A 
ATOM     52  H   UNL A   1      40.142  29.563  31.033  1.00  0.00     0.167 HD
ATOM     53  C   UNL A   1      39.987  31.486  34.973  1.00  0.00     0.037 A 
ATOM     54  C   UNL A   1      41.260  27.908  29.086  1.00  0.00     0.037 A 
ATOM     55  C   UNL A   1      41.098  30.575  35.046  1.00  0.00     0.049 A 
ATOM     56  C   UNL A   1      42.139  27.779  30.306  1.00  0.00     0.074 A 
ATOM     57  C   UNL A   1      41.919  30.303  36.125  1.00  0.00     0.029 A 
ATOM     58  N   UNL A   1      41.551  29.797  33.990  1.00  0.00    -0.354 N 
ATOM     59  N   UNL A   1      42.014  28.347  31.482  1.00  0.00    -0.248 NA
ATOM     60  C   UNL A   1      43.306  26.892  30.193  1.00  0.00     0.031 C 
ATOM     61  C   UNL A   1      42.904  29.404  35.706  1.00  0.00     0.029 A 
ATOM     62  C   UNL A   1      42.658  29.066  34.384  1.00  0.00     0.049 A 
ATOM     63  H   UNL A   1      41.144  29.769  33.094  1.00  0.00     0.167 HD
ATOM     64  C   UNL A   1      43.063  27.862  32.256  1.00  0.00     0.074 A 
ATOM     65  C   UNL A   1      43.807  26.943  31.419  1.00  0.00     0.031 C 
ATOM     66  C   UNL A   1      43.381  28.147  33.543  1.00  0.00     0.037 A 
BRANCH  53  67
ATOM     67  C   UNL A   1      39.652  32.307  36.183  1.00  0.00     0.057 A 
ATOM     68  C   UNL A   1      40.314  33.508  36.474  1.00  0.00     0.134 A 
ATOM     69  C   UNL A   1      38.639  31.900  37.060  1.00  0.00     0.134 A 
ATOM     70  F   UNL A   1      41.307  33.946  35.686  1.00  0.00    -0.206 F 
ATOM     71  C   UNL A   1      39.996  34.261  37.606  1.00  0.00     0.040 A 
ATOM     72  C   UNL A   1      38.292  32.658  38.179  1.00  0.00     0.040 A 
ATOM     73  F   UNL A   1      37.966  30.761  36.841  1.00  0.00    -0.206 F 
ATOM     74  C   UNL A   1      38.976  33.840  38.458  1.00  0.00     0.006 A 
ENDBRANCH  53  67
BRANCH  54  75
ATOM     75  C   UNL A   1      41.582  27.158  27.844  1.00  0.00     0.057 A 
ATOM     76  C   UNL A   1      42.329  27.742  26.814  1.00  0.00     0.134 A 
ATOM     77  C   UNL A   1      41.119  25.852  27.642  1.00  0.00     0.134 A 
ATOM     78  F   UNL A   1      42.778  29.000  26.935  1.00  0.00    -0.206 F 
ATOM     79  C   UNL A   1      42.587  27.063  25.621  1.00  0.00     0.040 A 
ATOM     80  C   UNL A   1      41.394  25.151  26.466  1.00  0.00     0.040 A 
ATOM     81  F   UNL A   1      40.395  25.235  28.587  1.00  0.00    -0.206 F 
ATOM     82  C   UNL A   1      42.123  25.761  25.448  1.00  0.00     0.006 A 
ENDBRANCH  54  75
BRANCH  66  83
ATOM     83  C   UNL A   1      44.555  27.427  34.145  1.00  0.00     0.057 A 
ATOM     84  C   UNL A   1      44.430  26.168  34.746  1.00  0.00     0.134 A 
ATOM     85  C   UNL A   1      45.839  27.984  34.077  1.00  0.00     0.134 A 
ATOM     86  F   UNL A   1      43.227  25.582  34.853  1.00  0.00    -0.206 F 
ATOM     87  C   UNL A   1      45.533  25.502  35.282  1.00  0.00     0.040 A 
ATOM     88  C   UNL A   1      46.955  27.313  34.580  1.00  0.00     0.040 A 
ATOM     89  F   UNL A   1      46.035  29.180  33.503  1.00  0.00    -0.206 F 
ATOM     90  C   UNL A   1      46.802  26.071  35.192  1.00  0.00     0.006 A 
ENDBRANCH  66  83
ENDBRANCH  40  41
ENDBRANCH  33  35
ENDBRANCH  32  33
ENDBRANCH  31  32
ENDBRANCH  30  31
ENDBRANCH  29  30
ENDBRANCH  28  29
ENDBRANCH  27  28
ENDBRANCH  26  27
ENDBRANCH   1  26
TORSDOF 24
ENDMDL
