MODEL 1
REMARK VINA RESULT:      -9.9      0.000      0.000
REMARK SMILES CCC[C@@](C)(NC(=O)N1CCN(C)C(=O)C1(C)C)C(=O)OCCOCCOCCOCCOC(=O)c1ccc(-c2c3nc(c(-c4c(F)cccc4F)c4ccc([nH]4)c(-c4c(F)cccc4F)c4nc(c(-c5c(F)cccc5F)c5ccc2[nH]5)C=C4)C=C3)cc1
REMARK SMILES IDX 27 1 26 2 25 3 24 4 23 5 22 6 21 7 19 8 20 9 4 10 5 11 3 12
REMARK SMILES IDX 2 13 1 14 6 15 7 16 8 18 9 19 10 20 16 21 11 22 14 23 17 24
REMARK SMILES IDX 18 25 12 26 15 27 13 28 28 29 29 30 30 31 31 32 32 33 33 34
REMARK SMILES IDX 34 35 35 36 36 37 37 38 89 39 38 40 88 41 39 42 40 43 41 44
REMARK SMILES IDX 82 45 42 46 87 47 81 48 83 49 43 50 86 51 80 52 79 53 44 55
REMARK SMILES IDX 70 56 53 57 69 58 54 59 57 60 68 61 84 62 55 63 56 64 67 66
REMARK SMILES IDX 85 67 58 68 45 69 46 70 51 71 47 72 48 73 50 74 52 75 49 76
REMARK SMILES IDX 71 77 72 78 77 79 73 80 74 81 76 82 78 83 75 84 59 85 60 86
REMARK SMILES IDX 65 87 61 88 62 89 64 90 66 91 63 92
REMARK H PARENT 6 17 83 54 57 65
REMARK Flexibility Score: inf
ROOT
ATOM      1  O   UNL A   1      33.219  34.871  31.595  1.00  0.00    -0.377 OA
ENDROOT
BRANCH   1   2
ATOM      2  C   UNL A   1      33.902  34.722  32.861  1.00  0.00     0.188 C 
BRANCH   2   3
ATOM      3  C   UNL A   1      34.900  33.544  33.581  1.00  0.00     0.188 C 
BRANCH   3   4
ATOM      4  O   UNL A   1      35.781  33.482  34.953  1.00  0.00    -0.376 OA
BRANCH   4   5
ATOM      5  C   UNL A   1      37.541  33.232  35.811  1.00  0.00     0.202 C 
BRANCH   5   6
ATOM      6  C   UNL A   1      37.930  31.427  36.339  1.00  0.00     0.261 C 
BRANCH   6   7
ATOM      7  O   UNL A   1      39.627  30.901  36.402  1.00  0.00    -0.462 OA
BRANCH   7   8
ATOM      8  C   UNL A   1      40.635  30.058  35.681  1.00  0.00     0.331 C 
ATOM      9  O   UNL A   1      41.264  29.245  36.372  1.00  0.00    -0.249 OA
BRANCH   8  10
ATOM     10  C   UNL A   1      41.096  30.189  33.927  1.00  0.00     0.136 C 
ATOM     11  C   UNL A   1      39.645  30.385  33.290  1.00  0.00     0.047 C 
BRANCH  10  12
ATOM     12  C   UNL A   1      41.822  31.518  33.492  1.00  0.00     0.040 C 
BRANCH  12  13
ATOM     13  C   UNL A   1      41.082  32.851  33.335  1.00  0.00    -0.000 C 
ATOM     14  C   UNL A   1      41.825  33.988  34.017  1.00  0.00     0.004 C 
ENDBRANCH  12  13
ENDBRANCH  10  12
BRANCH  10  15
ATOM     15  N   UNL A   1      41.734  29.062  32.882  1.00  0.00    -0.322 N 
ATOM     16  C   UNL A   1      42.530  27.906  32.855  1.00  0.00     0.319 C 
ATOM     17  H   UNL A   1      41.457  29.283  31.963  1.00  0.00     0.166 HD
ATOM     18  O   UNL A   1      42.844  27.442  31.762  1.00  0.00    -0.249 OA
BRANCH  16  19
ATOM     19  N   UNL A   1      42.785  27.261  34.065  1.00  0.00    -0.309 N 
ATOM     20  C   UNL A   1      41.825  26.103  35.212  1.00  0.00     0.144 C 
ATOM     21  C   UNL A   1      44.340  27.015  34.011  1.00  0.00     0.118 C 
ATOM     22  C   UNL A   1      42.250  24.233  35.331  1.00  0.00     0.140 C 
ATOM     23  C   UNL A   1      44.773  24.932  33.777  1.00  0.00     0.247 C 
ATOM     24  C   UNL A   1      45.223  28.381  33.382  1.00  0.00     0.045 C 
ATOM     25  C   UNL A   1      44.408  28.166  35.475  1.00  0.00     0.045 C 
ATOM     26  N   UNL A   1      43.815  23.784  34.723  1.00  0.00    -0.342 N 
ATOM     27  O   UNL A   1      45.732  24.293  33.364  1.00  0.00    -0.272 OA
ATOM     28  C   UNL A   1      44.514  22.757  35.517  1.00  0.00     0.146 C 
ENDBRANCH  16  19
ENDBRANCH  10  15
ENDBRANCH   8  10
ENDBRANCH   7   8
ENDBRANCH   6   7
ENDBRANCH   5   6
ENDBRANCH   4   5
ENDBRANCH   3   4
ENDBRANCH   2   3
ENDBRANCH   1   2
BRANCH   1  29
ATOM     29  C   UNL A   1      32.860  36.035  30.838  1.00  0.00     0.188 C 
BRANCH  29  30
ATOM     30  C   UNL A   1      33.293  35.946  29.325  1.00  0.00     0.188 C 
BRANCH  30  31
ATOM     31  O   UNL A   1      32.579  35.108  28.447  1.00  0.00    -0.376 OA
BRANCH  31  32
ATOM     32  C   UNL A   1      33.207  33.889  28.099  1.00  0.00     0.202 C 
BRANCH  32  33
ATOM     33  C   UNL A   1      34.752  33.741  28.129  1.00  0.00     0.261 C 
BRANCH  33  34
ATOM     34  O   UNL A   1      35.358  32.430  28.229  1.00  0.00    -0.460 OA
BRANCH  34  35
ATOM     35  C   UNL A   1      35.724  31.943  29.444  1.00  0.00     0.338 C 
ATOM     36  O   UNL A   1      35.078  32.020  30.473  1.00  0.00    -0.246 OA
BRANCH  35  37
ATOM     37  C   UNL A   1      36.861  30.969  29.219  1.00  0.00     0.060 A 
ATOM     38  C   UNL A   1      37.285  30.178  30.313  1.00  0.00     0.016 A 
ATOM     39  C   UNL A   1      37.351  30.676  27.942  1.00  0.00     0.016 A 
ATOM     40  C   UNL A   1      38.220  29.153  30.145  1.00  0.00     0.010 A 
ATOM     41  C   UNL A   1      38.351  29.704  27.784  1.00  0.00     0.010 A 
ATOM     42  C   UNL A   1      38.831  28.985  28.898  1.00  0.00    -0.014 A 
BRANCH  42  43
ATOM     43  C   UNL A   1      40.227  28.472  28.882  1.00  0.00     0.031 A 
ATOM     44  C   UNL A   1      41.286  29.468  29.293  1.00  0.00     0.074 A 
ATOM     45  C   UNL A   1      40.562  27.206  28.581  1.00  0.00     0.049 A 
ATOM     46  N   UNL A   1      42.587  29.357  29.308  1.00  0.00    -0.248 NA
ATOM     47  C   UNL A   1      40.796  30.781  29.755  1.00  0.00     0.031 C 
ATOM     48  C   UNL A   1      39.634  26.125  28.258  1.00  0.00     0.029 A 
ATOM     49  N   UNL A   1      41.803  26.619  28.495  1.00  0.00    -0.354 N 
ATOM     50  C   UNL A   1      43.058  30.583  29.768  1.00  0.00     0.074 A 
ATOM     51  C   UNL A   1      41.917  31.431  30.001  1.00  0.00     0.031 C 
ATOM     52  C   UNL A   1      40.339  25.011  27.985  1.00  0.00     0.029 A 
ATOM     53  C   UNL A   1      41.769  25.312  28.074  1.00  0.00     0.049 A 
ATOM     54  H   UNL A   1      42.638  27.092  28.715  1.00  0.00     0.167 HD
ATOM     55  C   UNL A   1      44.332  30.977  29.981  1.00  0.00     0.037 A 
ATOM     56  C   UNL A   1      42.783  24.477  27.764  1.00  0.00     0.037 A 
ATOM     57  C   UNL A   1      45.467  30.140  29.727  1.00  0.00     0.049 A 
ATOM     58  C   UNL A   1      44.205  24.972  27.896  1.00  0.00     0.074 A 
ATOM     59  C   UNL A   1      46.808  30.436  29.882  1.00  0.00     0.029 A 
ATOM     60  N   UNL A   1      45.389  28.840  29.248  1.00  0.00    -0.354 N 
ATOM     61  N   UNL A   1      44.645  26.134  28.323  1.00  0.00    -0.248 NA
ATOM     62  C   UNL A   1      45.272  24.042  27.499  1.00  0.00     0.031 C 
ATOM     63  C   UNL A   1      47.544  29.334  29.440  1.00  0.00     0.029 A 
ATOM     64  C   UNL A   1      46.661  28.328  29.077  1.00  0.00     0.049 A 
ATOM     65  H   UNL A   1      44.553  28.357  29.059  1.00  0.00     0.167 HD
ATOM     66  C   UNL A   1      46.033  26.060  28.278  1.00  0.00     0.074 A 
ATOM     67  C   UNL A   1      46.362  24.735  27.796  1.00  0.00     0.031 C 
ATOM     68  C   UNL A   1      46.956  26.999  28.607  1.00  0.00     0.037 A 
BRANCH  55  69
ATOM     69  C   UNL A   1      44.547  32.384  30.452  1.00  0.00     0.057 A 
ATOM     70  C   UNL A   1      44.507  33.480  29.577  1.00  0.00     0.134 A 
ATOM     71  C   UNL A   1      44.816  32.645  31.801  1.00  0.00     0.134 A 
ATOM     72  F   UNL A   1      44.291  33.295  28.266  1.00  0.00    -0.206 F 
ATOM     73  C   UNL A   1      44.748  34.780  30.025  1.00  0.00     0.040 A 
ATOM     74  C   UNL A   1      45.026  33.944  32.265  1.00  0.00     0.040 A 
ATOM     75  F   UNL A   1      44.882  31.642  32.689  1.00  0.00    -0.206 F 
ATOM     76  C   UNL A   1      44.999  35.015  31.375  1.00  0.00     0.006 A 
ENDBRANCH  55  69
BRANCH  56  77
ATOM     77  C   UNL A   1      42.508  23.102  27.262  1.00  0.00     0.057 A 
ATOM     78  C   UNL A   1      42.142  22.065  28.131  1.00  0.00     0.134 A 
ATOM     79  C   UNL A   1      42.653  22.778  25.907  1.00  0.00     0.134 A 
ATOM     80  F   UNL A   1      42.015  22.298  29.445  1.00  0.00    -0.206 F 
ATOM     81  C   UNL A   1      41.950  20.757  27.675  1.00  0.00     0.040 A 
ATOM     82  C   UNL A   1      42.435  21.482  25.432  1.00  0.00     0.040 A 
ATOM     83  F   UNL A   1      43.010  23.718  25.020  1.00  0.00    -0.206 F 
ATOM     84  C   UNL A   1      42.091  20.465  26.320  1.00  0.00     0.006 A 
ENDBRANCH  56  77
BRANCH  68  85
ATOM     85  C   UNL A   1      48.404  26.613  28.507  1.00  0.00     0.057 A 
ATOM     86  C   UNL A   1      49.082  25.986  29.559  1.00  0.00     0.134 A 
ATOM     87  C   UNL A   1      49.110  26.820  27.314  1.00  0.00     0.134 A 
ATOM     88  F   UNL A   1      48.465  25.764  30.729  1.00  0.00    -0.206 F 
ATOM     89  C   UNL A   1      50.419  25.606  29.439  1.00  0.00     0.040 A 
ATOM     90  C   UNL A   1      50.437  26.412  27.169  1.00  0.00     0.040 A 
ATOM     91  F   UNL A   1      48.513  27.398  26.260  1.00  0.00    -0.206 F 
ATOM     92  C   UNL A   1      51.098  25.811  28.238  1.00  0.00     0.006 A 
ENDBRANCH  68  85
ENDBRANCH  42  43
ENDBRANCH  35  37
ENDBRANCH  34  35
ENDBRANCH  33  34
ENDBRANCH  32  33
ENDBRANCH  31  32
ENDBRANCH  30  31
ENDBRANCH  29  30
ENDBRANCH   1  29
TORSDOF 24
ENDMDL
MODEL 2
REMARK VINA RESULT:      -9.6      4.194      9.265
REMARK SMILES CCC[C@@](C)(NC(=O)N1CCN(C)C(=O)C1(C)C)C(=O)OCCOCCOCCOCCOC(=O)c1ccc(-c2c3nc(c(-c4c(F)cccc4F)c4ccc([nH]4)c(-c4c(F)cccc4F)c4nc(c(-c5c(F)cccc5F)c5ccc2[nH]5)C=C4)C=C3)cc1
REMARK SMILES IDX 27 1 26 2 25 3 24 4 23 5 22 6 21 7 19 8 20 9 4 10 5 11 3 12
REMARK SMILES IDX 2 13 1 14 6 15 7 16 8 18 9 19 10 20 16 21 11 22 14 23 17 24
REMARK SMILES IDX 18 25 12 26 15 27 13 28 28 29 29 30 30 31 31 32 32 33 33 34
REMARK SMILES IDX 34 35 35 36 36 37 37 38 89 39 38 40 88 41 39 42 40 43 41 44
REMARK SMILES IDX 82 45 42 46 87 47 81 48 83 49 43 50 86 51 80 52 79 53 44 55
REMARK SMILES IDX 70 56 53 57 69 58 54 59 57 60 68 61 84 62 55 63 56 64 67 66
REMARK SMILES IDX 85 67 58 68 45 69 46 70 51 71 47 72 48 73 50 74 52 75 49 76
REMARK SMILES IDX 71 77 72 78 77 79 73 80 74 81 76 82 78 83 75 84 59 85 60 86
REMARK SMILES IDX 65 87 61 88 62 89 64 90 66 91 63 92
REMARK H PARENT 6 17 83 54 57 65
REMARK Flexibility Score: inf
ROOT
ATOM      1  O   UNL A   1      33.474  35.961  29.885  1.00  0.00    -0.377 OA
ENDROOT
BRANCH   1   2
ATOM      2  C   UNL A   1      32.852  35.162  28.851  1.00  0.00     0.188 C 
BRANCH   2   3
ATOM      3  C   UNL A   1      33.272  33.772  27.961  1.00  0.00     0.188 C 
BRANCH   3   4
ATOM      4  O   UNL A   1      34.278  32.514  28.220  1.00  0.00    -0.376 OA
BRANCH   4   5
ATOM      5  C   UNL A   1      36.125  31.856  28.445  1.00  0.00     0.202 C 
BRANCH   5   6
ATOM      6  C   UNL A   1      36.332  29.956  28.253  1.00  0.00     0.261 C 
BRANCH   6   7
ATOM      7  O   UNL A   1      35.124  29.053  27.313  1.00  0.00    -0.462 OA
BRANCH   7   8
ATOM      8  C   UNL A   1      33.779  29.190  26.668  1.00  0.00     0.331 C 
ATOM      9  O   UNL A   1      33.225  30.292  26.783  1.00  0.00    -0.249 OA
BRANCH   8  10
ATOM     10  C   UNL A   1      32.842  27.874  25.831  1.00  0.00     0.136 C 
ATOM     11  C   UNL A   1      31.580  28.722  25.344  1.00  0.00     0.047 C 
BRANCH  10  12
ATOM     12  C   UNL A   1      33.432  27.357  24.465  1.00  0.00     0.040 C 
BRANCH  12  13
ATOM     13  C   UNL A   1      34.107  28.287  23.452  1.00  0.00    -0.000 C 
ATOM     14  C   UNL A   1      33.678  27.969  22.028  1.00  0.00     0.004 C 
ENDBRANCH  12  13
ENDBRANCH  10  12
BRANCH  10  15
ATOM     15  N   UNL A   1      32.082  26.524  26.440  1.00  0.00    -0.322 N 
ATOM     16  C   UNL A   1      32.002  25.132  26.275  1.00  0.00     0.319 C 
ATOM     17  H   UNL A   1      31.478  26.797  27.168  1.00  0.00     0.166 HD
ATOM     18  O   UNL A   1      31.164  24.517  26.929  1.00  0.00    -0.249 OA
BRANCH  16  19
ATOM     19  N   UNL A   1      32.981  24.510  25.501  1.00  0.00    -0.309 N 
ATOM     20  C   UNL A   1      34.800  24.046  25.733  1.00  0.00     0.144 C 
ATOM     21  C   UNL A   1      32.143  23.520  24.606  1.00  0.00     0.118 C 
ATOM     22  C   UNL A   1      35.341  22.222  26.000  1.00  0.00     0.140 C 
ATOM     23  C   UNL A   1      32.502  21.489  25.180  1.00  0.00     0.247 C 
ATOM     24  C   UNL A   1      30.669  24.229  24.003  1.00  0.00     0.045 C 
ATOM     25  C   UNL A   1      32.745  24.558  23.181  1.00  0.00     0.045 C 
ATOM     26  N   UNL A   1      34.169  21.021  25.544  1.00  0.00    -0.342 N 
ATOM     27  O   UNL A   1      31.890  20.437  25.051  1.00  0.00    -0.272 OA
ATOM     28  C   UNL A   1      34.732  19.826  24.892  1.00  0.00     0.146 C 
ENDBRANCH  16  19
ENDBRANCH  10  15
ENDBRANCH   8  10
ENDBRANCH   7   8
ENDBRANCH   6   7
ENDBRANCH   5   6
ENDBRANCH   4   5
ENDBRANCH   3   4
ENDBRANCH   2   3
ENDBRANCH   1   2
BRANCH   1  29
ATOM     29  C   UNL A   1      33.008  36.375  31.176  1.00  0.00     0.188 C 
BRANCH  29  30
ATOM     30  C   UNL A   1      33.782  35.684  32.363  1.00  0.00     0.188 C 
BRANCH  30  31
ATOM     31  O   UNL A   1      33.383  34.407  32.802  1.00  0.00    -0.376 OA
BRANCH  31  32
ATOM     32  C   UNL A   1      34.265  33.341  32.504  1.00  0.00     0.202 C 
BRANCH  32  33
ATOM     33  C   UNL A   1      35.255  32.794  33.567  1.00  0.00     0.261 C 
BRANCH  33  34
ATOM     34  O   UNL A   1      36.683  32.953  33.384  1.00  0.00    -0.460 OA
BRANCH  34  35
ATOM     35  C   UNL A   1      37.545  32.112  34.013  1.00  0.00     0.338 C 
ATOM     36  O   UNL A   1      37.457  31.721  35.163  1.00  0.00    -0.246 OA
BRANCH  35  37
ATOM     37  C   UNL A   1      38.392  31.449  32.948  1.00  0.00     0.060 A 
ATOM     38  C   UNL A   1      39.390  30.537  33.364  1.00  0.00     0.016 A 
ATOM     39  C   UNL A   1      38.085  31.542  31.586  1.00  0.00     0.016 A 
ATOM     40  C   UNL A   1      40.105  29.774  32.436  1.00  0.00     0.010 A 
ATOM     41  C   UNL A   1      38.858  30.841  30.647  1.00  0.00     0.010 A 
ATOM     42  C   UNL A   1      39.910  30.003  31.070  1.00  0.00    -0.014 A 
BRANCH  42  43
ATOM     43  C   UNL A   1      41.071  29.787  30.166  1.00  0.00     0.031 A 
ATOM     44  C   UNL A   1      41.125  28.433  29.496  1.00  0.00     0.074 A 
ATOM     45  C   UNL A   1      42.000  30.719  29.894  1.00  0.00     0.049 A 
ATOM     46  N   UNL A   1      42.038  27.911  28.723  1.00  0.00    -0.248 NA
ATOM     47  C   UNL A   1      39.973  27.544  29.740  1.00  0.00     0.031 C 
ATOM     48  C   UNL A   1      42.015  32.089  30.399  1.00  0.00     0.029 A 
ATOM     49  N   UNL A   1      43.130  30.637  29.114  1.00  0.00    -0.354 N 
ATOM     50  C   UNL A   1      41.571  26.639  28.405  1.00  0.00     0.074 A 
ATOM     51  C   UNL A   1      40.312  26.454  29.079  1.00  0.00     0.031 C 
ATOM     52  C   UNL A   1      43.114  32.714  29.935  1.00  0.00     0.029 A 
ATOM     53  C   UNL A   1      43.901  31.774  29.135  1.00  0.00     0.049 A 
ATOM     54  H   UNL A   1      43.364  29.837  28.590  1.00  0.00     0.167 HD
ATOM     55  C   UNL A   1      42.138  25.700  27.618  1.00  0.00     0.037 A 
ATOM     56  C   UNL A   1      45.116  32.003  28.596  1.00  0.00     0.037 A 
ATOM     57  C   UNL A   1      43.402  25.877  26.966  1.00  0.00     0.049 A 
ATOM     58  C   UNL A   1      45.791  30.899  27.815  1.00  0.00     0.074 A 
ATOM     59  C   UNL A   1      44.089  24.987  26.163  1.00  0.00     0.029 A 
ATOM     60  N   UNL A   1      44.175  27.025  27.060  1.00  0.00    -0.354 N 
ATOM     61  N   UNL A   1      45.350  29.696  27.525  1.00  0.00    -0.248 NA
ATOM     62  C   UNL A   1      47.136  31.182  27.291  1.00  0.00     0.031 C 
ATOM     63  C   UNL A   1      45.309  25.576  25.818  1.00  0.00     0.029 A 
ATOM     64  C   UNL A   1      45.348  26.857  26.348  1.00  0.00     0.049 A 
ATOM     65  H   UNL A   1      43.926  27.836  27.558  1.00  0.00     0.167 HD
ATOM     66  C   UNL A   1      46.344  29.096  26.758  1.00  0.00     0.074 A 
ATOM     67  C   UNL A   1      47.405  30.072  26.618  1.00  0.00     0.031 C 
ATOM     68  C   UNL A   1      46.380  27.853  26.216  1.00  0.00     0.037 A 
BRANCH  55  69
ATOM     69  C   UNL A   1      41.418  24.392  27.481  1.00  0.00     0.057 A 
ATOM     70  C   UNL A   1      40.300  24.237  26.648  1.00  0.00     0.134 A 
ATOM     71  C   UNL A   1      41.840  23.272  28.208  1.00  0.00     0.134 A 
ATOM     72  F   UNL A   1      39.821  25.280  25.953  1.00  0.00    -0.206 F 
ATOM     73  C   UNL A   1      39.616  23.023  26.562  1.00  0.00     0.040 A 
ATOM     74  C   UNL A   1      41.185  22.045  28.104  1.00  0.00     0.040 A 
ATOM     75  F   UNL A   1      42.894  23.353  29.034  1.00  0.00    -0.206 F 
ATOM     76  C   UNL A   1      40.065  21.920  27.285  1.00  0.00     0.006 A 
ENDBRANCH  55  69
BRANCH  56  77
ATOM     77  C   UNL A   1      45.802  33.309  28.799  1.00  0.00     0.057 A 
ATOM     78  C   UNL A   1      46.746  33.491  29.819  1.00  0.00     0.134 A 
ATOM     79  C   UNL A   1      45.493  34.426  28.010  1.00  0.00     0.134 A 
ATOM     80  F   UNL A   1      47.066  32.472  30.631  1.00  0.00    -0.206 F 
ATOM     81  C   UNL A   1      47.342  34.732  30.057  1.00  0.00     0.040 A 
ATOM     82  C   UNL A   1      46.103  35.666  28.218  1.00  0.00     0.040 A 
ATOM     83  F   UNL A   1      44.592  34.328  27.022  1.00  0.00    -0.206 F 
ATOM     84  C   UNL A   1      47.024  35.823  29.251  1.00  0.00     0.006 A 
ENDBRANCH  56  77
BRANCH  68  85
ATOM     85  C   UNL A   1      47.575  27.495  25.381  1.00  0.00     0.057 A 
ATOM     86  C   UNL A   1      48.721  26.910  25.933  1.00  0.00     0.134 A 
ATOM     87  C   UNL A   1      47.549  27.683  23.992  1.00  0.00     0.134 A 
ATOM     88  F   UNL A   1      48.812  26.707  27.255  1.00  0.00    -0.206 F 
ATOM     89  C   UNL A   1      49.811  26.553  25.138  1.00  0.00     0.040 A 
ATOM     90  C   UNL A   1      48.619  27.299  23.182  1.00  0.00     0.040 A 
ATOM     91  F   UNL A   1      46.474  28.221  23.397  1.00  0.00    -0.206 F 
ATOM     92  C   UNL A   1      49.758  26.740  23.757  1.00  0.00     0.006 A 
ENDBRANCH  68  85
ENDBRANCH  42  43
ENDBRANCH  35  37
ENDBRANCH  34  35
ENDBRANCH  33  34
ENDBRANCH  32  33
ENDBRANCH  31  32
ENDBRANCH  30  31
ENDBRANCH  29  30
ENDBRANCH   1  29
TORSDOF 24
ENDMDL
MODEL 3
REMARK VINA RESULT:      -9.1      4.546      9.690
REMARK SMILES CCC[C@@](C)(NC(=O)N1CCN(C)C(=O)C1(C)C)C(=O)OCCOCCOCCOCCOC(=O)c1ccc(-c2c3nc(c(-c4c(F)cccc4F)c4ccc([nH]4)c(-c4c(F)cccc4F)c4nc(c(-c5c(F)cccc5F)c5ccc2[nH]5)C=C4)C=C3)cc1
REMARK SMILES IDX 27 1 26 2 25 3 24 4 23 5 22 6 21 7 19 8 20 9 4 10 5 11 3 12
REMARK SMILES IDX 2 13 1 14 6 15 7 16 8 18 9 19 10 20 16 21 11 22 14 23 17 24
REMARK SMILES IDX 18 25 12 26 15 27 13 28 28 29 29 30 30 31 31 32 32 33 33 34
REMARK SMILES IDX 34 35 35 36 36 37 37 38 89 39 38 40 88 41 39 42 40 43 41 44
REMARK SMILES IDX 82 45 42 46 87 47 81 48 83 49 43 50 86 51 80 52 79 53 44 55
REMARK SMILES IDX 70 56 53 57 69 58 54 59 57 60 68 61 84 62 55 63 56 64 67 66
REMARK SMILES IDX 85 67 58 68 45 69 46 70 51 71 47 72 48 73 50 74 52 75 49 76
REMARK SMILES IDX 71 77 72 78 77 79 73 80 74 81 76 82 78 83 75 84 59 85 60 86
REMARK SMILES IDX 65 87 61 88 62 89 64 90 66 91 63 92
REMARK H PARENT 6 17 83 54 57 65
REMARK Flexibility Score: inf
ROOT
ATOM      1  O   UNL A   1      33.692  35.445  30.965  1.00  0.00    -0.377 OA
ENDROOT
BRANCH   1   2
ATOM      2  C   UNL A   1      33.332  34.902  29.673  1.00  0.00     0.188 C 
BRANCH   2   3
ATOM      3  C   UNL A   1      34.122  34.006  28.459  1.00  0.00     0.188 C 
BRANCH   3   4
ATOM      4  O   UNL A   1      34.397  32.417  28.213  1.00  0.00    -0.376 OA
BRANCH   4   5
ATOM      5  C   UNL A   1      35.538  30.839  28.534  1.00  0.00     0.202 C 
BRANCH   5   6
ATOM      6  C   UNL A   1      35.614  29.590  27.077  1.00  0.00     0.261 C 
BRANCH   6   7
ATOM      7  O   UNL A   1      34.094  28.940  26.426  1.00  0.00    -0.462 OA
BRANCH   7   8
ATOM      8  C   UNL A   1      33.441  28.500  25.151  1.00  0.00     0.331 C 
ATOM      9  O   UNL A   1      34.173  28.440  24.153  1.00  0.00    -0.249 OA
BRANCH   8  10
ATOM     10  C   UNL A   1      31.673  28.153  24.906  1.00  0.00     0.136 C 
ATOM     11  C   UNL A   1      31.239  27.926  26.425  1.00  0.00     0.047 C 
BRANCH  10  12
ATOM     12  C   UNL A   1      30.771  29.377  24.491  1.00  0.00     0.040 C 
BRANCH  12  13
ATOM     13  C   UNL A   1      29.731  29.293  23.368  1.00  0.00    -0.000 C 
ATOM     14  C   UNL A   1      30.318  29.708  22.029  1.00  0.00     0.004 C 
ENDBRANCH  12  13
ENDBRANCH  10  12
BRANCH  10  15
ATOM     15  N   UNL A   1      30.906  26.867  24.178  1.00  0.00    -0.322 N 
ATOM     16  C   UNL A   1      31.059  25.498  23.908  1.00  0.00     0.319 C 
ATOM     17  H   UNL A   1      30.047  27.174  23.809  1.00  0.00     0.166 HD
ATOM     18  O   UNL A   1      30.222  24.949  23.198  1.00  0.00    -0.249 OA
BRANCH  16  19
ATOM     19  N   UNL A   1      32.061  24.807  24.590  1.00  0.00    -0.309 N 
ATOM     20  C   UNL A   1      32.297  24.145  26.346  1.00  0.00     0.144 C 
ATOM     21  C   UNL A   1      32.730  23.947  23.452  1.00  0.00     0.118 C 
ATOM     22  C   UNL A   1      32.196  22.265  26.728  1.00  0.00     0.140 C 
ATOM     23  C   UNL A   1      32.288  21.868  23.711  1.00  0.00     0.247 C 
ATOM     24  C   UNL A   1      32.937  24.831  21.963  1.00  0.00     0.045 C 
ATOM     25  C   UNL A   1      34.248  24.971  23.795  1.00  0.00     0.045 C 
ATOM     26  N   UNL A   1      32.358  21.213  25.353  1.00  0.00    -0.342 N 
ATOM     27  O   UNL A   1      32.273  20.892  22.972  1.00  0.00    -0.272 OA
ATOM     28  C   UNL A   1      33.144  19.992  25.600  1.00  0.00     0.146 C 
ENDBRANCH  16  19
ENDBRANCH  10  15
ENDBRANCH   8  10
ENDBRANCH   7   8
ENDBRANCH   6   7
ENDBRANCH   5   6
ENDBRANCH   4   5
ENDBRANCH   3   4
ENDBRANCH   2   3
ENDBRANCH   1   2
BRANCH   1  29
ATOM     29  C   UNL A   1      34.551  34.948  31.999  1.00  0.00     0.188 C 
BRANCH  29  30
ATOM     30  C   UNL A   1      33.957  33.691  32.744  1.00  0.00     0.188 C 
BRANCH  30  31
ATOM     31  O   UNL A   1      34.598  33.202  33.899  1.00  0.00    -0.376 OA
BRANCH  31  32
ATOM     32  C   UNL A   1      36.010  33.288  33.914  1.00  0.00     0.202 C 
BRANCH  32  33
ATOM     33  C   UNL A   1      36.896  32.052  33.604  1.00  0.00     0.261 C 
BRANCH  33  34
ATOM     34  O   UNL A   1      38.009  32.163  32.684  1.00  0.00    -0.460 OA
BRANCH  34  35
ATOM     35  C   UNL A   1      37.786  32.136  31.344  1.00  0.00     0.338 C 
ATOM     36  O   UNL A   1      37.050  32.881  30.723  1.00  0.00    -0.246 OA
BRANCH  35  37
ATOM     37  C   UNL A   1      38.882  31.300  30.718  1.00  0.00     0.060 A 
ATOM     38  C   UNL A   1      39.851  30.726  31.574  1.00  0.00     0.016 A 
ATOM     39  C   UNL A   1      38.847  30.906  29.376  1.00  0.00     0.016 A 
ATOM     40  C   UNL A   1      40.799  29.821  31.090  1.00  0.00     0.010 A 
ATOM     41  C   UNL A   1      39.848  30.063  28.870  1.00  0.00     0.010 A 
ATOM     42  C   UNL A   1      40.862  29.570  29.715  1.00  0.00    -0.014 A 
BRANCH  42  43
ATOM     43  C   UNL A   1      42.195  29.249  29.137  1.00  0.00     0.031 A 
ATOM     44  C   UNL A   1      42.365  27.826  28.657  1.00  0.00     0.074 A 
ATOM     45  C   UNL A   1      43.186  30.143  28.984  1.00  0.00     0.049 A 
ATOM     46  N   UNL A   1      43.418  27.218  28.182  1.00  0.00    -0.248 NA
ATOM     47  C   UNL A   1      41.164  26.972  28.725  1.00  0.00     0.031 C 
ATOM     48  C   UNL A   1      43.121  31.563  29.320  1.00  0.00     0.029 A 
ATOM     49  N   UNL A   1      44.463  29.970  28.504  1.00  0.00    -0.354 N 
ATOM     50  C   UNL A   1      43.002  25.917  27.911  1.00  0.00     0.074 A 
ATOM     51  C   UNL A   1      41.617  25.812  28.290  1.00  0.00     0.031 C 
ATOM     52  C   UNL A   1      44.315  32.129  29.057  1.00  0.00     0.029 A 
ATOM     53  C   UNL A   1      45.239  31.102  28.574  1.00  0.00     0.049 A 
ATOM     54  H   UNL A   1      44.790  29.114  28.143  1.00  0.00     0.167 HD
ATOM     55  C   UNL A   1      43.711  24.892  27.390  1.00  0.00     0.037 A 
ATOM     56  C   UNL A   1      46.552  31.267  28.310  1.00  0.00     0.037 A 
ATOM     57  C   UNL A   1      45.095  24.992  27.034  1.00  0.00     0.049 A 
ATOM     58  C   UNL A   1      47.359  30.079  27.839  1.00  0.00     0.074 A 
ATOM     59  C   UNL A   1      45.925  24.014  26.520  1.00  0.00     0.029 A 
ATOM     60  N   UNL A   1      45.856  26.143  27.174  1.00  0.00    -0.354 N 
ATOM     61  N   UNL A   1      46.964  28.851  27.592  1.00  0.00    -0.248 NA
ATOM     62  C   UNL A   1      48.795  30.299  27.614  1.00  0.00     0.031 C 
ATOM     63  C   UNL A   1      47.207  24.559  26.403  1.00  0.00     0.029 A 
ATOM     64  C   UNL A   1      47.157  25.893  26.779  1.00  0.00     0.049 A 
ATOM     65  H   UNL A   1      45.521  27.006  27.505  1.00  0.00     0.167 HD
ATOM     66  C   UNL A   1      48.092  28.165  27.152  1.00  0.00     0.074 A 
ATOM     67  C   UNL A   1      49.182  29.118  27.152  1.00  0.00     0.031 C 
ATOM     68  C   UNL A   1      48.219  26.867  26.778  1.00  0.00     0.037 A 
BRANCH  55  69
ATOM     69  C   UNL A   1      43.006  23.577  27.239  1.00  0.00     0.057 A 
ATOM     70  C   UNL A   1      42.512  23.131  26.004  1.00  0.00     0.134 A 
ATOM     71  C   UNL A   1      42.804  22.751  28.351  1.00  0.00     0.134 A 
ATOM     72  F   UNL A   1      42.639  23.891  24.906  1.00  0.00    -0.206 F 
ATOM     73  C   UNL A   1      41.824  21.922  25.888  1.00  0.00     0.040 A 
ATOM     74  C   UNL A   1      42.146  21.525  28.240  1.00  0.00     0.040 A 
ATOM     75  F   UNL A   1      43.239  23.123  29.564  1.00  0.00    -0.206 F 
ATOM     76  C   UNL A   1      41.648  21.111  27.007  1.00  0.00     0.006 A 
ENDBRANCH  55  69
BRANCH  56  77
ATOM     77  C   UNL A   1      47.207  32.588  28.517  1.00  0.00     0.057 A 
ATOM     78  C   UNL A   1      47.415  33.478  27.455  1.00  0.00     0.134 A 
ATOM     79  C   UNL A   1      47.689  32.974  29.775  1.00  0.00     0.134 A 
ATOM     80  F   UNL A   1      47.006  33.158  26.218  1.00  0.00    -0.206 F 
ATOM     81  C   UNL A   1      48.090  34.689  27.630  1.00  0.00     0.040 A 
ATOM     82  C   UNL A   1      48.340  34.194  29.972  1.00  0.00     0.040 A 
ATOM     83  F   UNL A   1      47.534  32.168  30.836  1.00  0.00    -0.206 F 
ATOM     84  C   UNL A   1      48.550  35.052  28.894  1.00  0.00     0.006 A 
ENDBRANCH  56  77
BRANCH  68  85
ATOM     85  C   UNL A   1      49.564  26.413  26.291  1.00  0.00     0.057 A 
ATOM     86  C   UNL A   1      50.030  26.711  25.004  1.00  0.00     0.134 A 
ATOM     87  C   UNL A   1      50.430  25.720  27.148  1.00  0.00     0.134 A 
ATOM     88  F   UNL A   1      49.249  27.368  24.133  1.00  0.00    -0.206 F 
ATOM     89  C   UNL A   1      51.296  26.310  24.577  1.00  0.00     0.040 A 
ATOM     90  C   UNL A   1      51.711  25.343  26.744  1.00  0.00     0.040 A 
ATOM     91  F   UNL A   1      50.053  25.419  28.400  1.00  0.00    -0.206 F 
ATOM     92  C   UNL A   1      52.144  25.631  25.452  1.00  0.00     0.006 A 
ENDBRANCH  68  85
ENDBRANCH  42  43
ENDBRANCH  35  37
ENDBRANCH  34  35
ENDBRANCH  33  34
ENDBRANCH  32  33
ENDBRANCH  31  32
ENDBRANCH  30  31
ENDBRANCH  29  30
ENDBRANCH   1  29
TORSDOF 24
ENDMDL
