MODEL 1
REMARK VINA RESULT:      -8.8      0.000      0.000
REMARK SMILES C=CCN(CC(=O)OCCOCCOCCOCCOC(=O)c1ccc(-c2c3nc(c(-c4c(F)cccc4F)c4ccc([nH]4)c(-c4c(F)cccc4F)c4nc(c(-c5c(F)cccc5F)c5ccc2[nH]5)C=C4)C=C3)cc1)C(=O)/C=C/c1ccc(OC)cc1
REMARK SMILES IDX 12 1 11 2 10 3 9 4 8 5 6 6 7 7 5 8 4 9 3 10 2 11 1 12 77 13
REMARK SMILES IDX 78 14 79 15 80 16 81 17 82 18 88 19 83 20 87 21 84 22 85 23
REMARK SMILES IDX 86 24 13 25 14 26 15 27 16 28 17 29 18 30 19 31 20 32 21 33
REMARK SMILES IDX 22 34 23 35 24 36 76 37 25 38 75 39 26 40 27 41 28 42 69 43
REMARK SMILES IDX 29 44 74 45 68 46 70 47 30 48 73 49 67 50 66 51 31 53 57 54
REMARK SMILES IDX 40 55 56 56 41 57 44 58 55 59 71 60 42 61 43 62 54 64 72 65
REMARK SMILES IDX 45 66 32 67 33 68 38 69 34 70 35 71 37 72 39 73 36 74 58 75
REMARK SMILES IDX 59 76 64 77 60 78 61 79 63 80 65 81 62 82 46 83 47 84 52 85
REMARK SMILES IDX 48 86 49 87 51 88 53 89 50 90
REMARK H PARENT 70 52 44 63
REMARK Flexibility Score: inf
ROOT
ATOM      1  C   UNL A   1      34.108  23.707  25.993  1.00  0.00     0.188 C 
ENDROOT
BRANCH   1   2
ATOM      2  O   UNL A   1      32.714  23.941  26.120  1.00  0.00    -0.376 OA
BRANCH   2   3
ATOM      3  C   UNL A   1      32.143  24.812  25.157  1.00  0.00     0.202 C 
BRANCH   3   4
ATOM      4  C   UNL A   1      33.151  25.697  24.411  1.00  0.00     0.261 C 
BRANCH   4   5
ATOM      5  O   UNL A   1      32.724  27.063  24.182  1.00  0.00    -0.462 OA
BRANCH   5   6
ATOM      6  C   UNL A   1      33.634  28.055  24.338  1.00  0.00     0.325 C 
ATOM      7  O   UNL A   1      34.109  28.692  23.404  1.00  0.00    -0.250 OA
BRANCH   6   8
ATOM      8  C   UNL A   1      34.116  28.209  25.796  1.00  0.00     0.242 C 
BRANCH   8   9
ATOM      9  N   UNL A   1      33.799  29.417  26.581  1.00  0.00    -0.324 N 
BRANCH   9  10
ATOM     10  C   UNL A   1      32.378  29.753  26.714  1.00  0.00     0.147 C 
BRANCH  10  11
ATOM     11  C   UNL A   1      31.679  28.758  27.599  1.00  0.00    -0.014 C 
ATOM     12  C   UNL A   1      31.035  27.677  27.130  1.00  0.00     0.006 C 
ENDBRANCH  10  11
ENDBRANCH   9  10
BRANCH   9  13
ATOM     13  C   UNL A   1      34.694  30.281  27.197  1.00  0.00     0.247 C 
ATOM     14  O   UNL A   1      35.903  30.035  27.261  1.00  0.00    -0.270 OA
BRANCH  13  15
ATOM     15  C   UNL A   1      34.278  31.462  28.007  1.00  0.00     0.072 C 
ATOM     16  C   UNL A   1      34.893  32.280  28.869  1.00  0.00     0.014 C 
BRANCH  16  17
ATOM     17  C   UNL A   1      34.269  33.538  29.313  1.00  0.00    -0.025 A 
ATOM     18  C   UNL A   1      34.426  33.900  30.656  1.00  0.00     0.012 A 
ATOM     19  C   UNL A   1      33.563  34.401  28.464  1.00  0.00     0.012 A 
ATOM     20  C   UNL A   1      33.896  35.097  31.137  1.00  0.00     0.047 A 
ATOM     21  C   UNL A   1      33.026  35.601  28.950  1.00  0.00     0.047 A 
ATOM     22  C   UNL A   1      33.178  35.943  30.293  1.00  0.00     0.118 A 
BRANCH  22  23
ATOM     23  O   UNL A   1      32.693  37.072  30.892  1.00  0.00    -0.497 OA
ATOM     24  C   UNL A   1      33.441  37.568  31.997  1.00  0.00     0.278 C 
ENDBRANCH  22  23
ENDBRANCH  16  17
ENDBRANCH  13  15
ENDBRANCH   9  13
ENDBRANCH   8   9
ENDBRANCH   6   8
ENDBRANCH   5   6
ENDBRANCH   4   5
ENDBRANCH   3   4
ENDBRANCH   2   3
ENDBRANCH   1   2
BRANCH   1  25
ATOM     25  C   UNL A   1      34.636  22.639  26.977  1.00  0.00     0.188 C 
BRANCH  25  26
ATOM     26  O   UNL A   1      34.296  21.262  26.867  1.00  0.00    -0.377 OA
BRANCH  26  27
ATOM     27  C   UNL A   1      34.055  20.740  25.577  1.00  0.00     0.188 C 
BRANCH  27  28
ATOM     28  C   UNL A   1      35.308  20.585  24.703  1.00  0.00     0.188 C 
BRANCH  28  29
ATOM     29  O   UNL A   1      36.474  20.287  25.456  1.00  0.00    -0.376 OA
BRANCH  29  30
ATOM     30  C   UNL A   1      37.717  20.203  24.778  1.00  0.00     0.202 C 
BRANCH  30  31
ATOM     31  C   UNL A   1      38.842  19.327  25.358  1.00  0.00     0.261 C 
BRANCH  31  32
ATOM     32  O   UNL A   1      39.555  19.847  26.485  1.00  0.00    -0.460 OA
BRANCH  32  33
ATOM     33  C   UNL A   1      40.898  19.902  26.429  1.00  0.00     0.338 C 
ATOM     34  O   UNL A   1      41.662  19.041  26.030  1.00  0.00    -0.246 OA
BRANCH  33  35
ATOM     35  C   UNL A   1      41.268  21.300  26.740  1.00  0.00     0.060 A 
ATOM     36  C   UNL A   1      41.147  22.266  25.732  1.00  0.00     0.016 A 
ATOM     37  C   UNL A   1      41.639  21.672  28.037  1.00  0.00     0.016 A 
ATOM     38  C   UNL A   1      41.377  23.609  26.026  1.00  0.00     0.010 A 
ATOM     39  C   UNL A   1      41.920  23.009  28.318  1.00  0.00     0.010 A 
ATOM     40  C   UNL A   1      41.806  23.979  27.308  1.00  0.00    -0.014 A 
BRANCH  40  41
ATOM     41  C   UNL A   1      42.390  25.323  27.504  1.00  0.00     0.031 A 
ATOM     42  C   UNL A   1      41.566  26.322  28.267  1.00  0.00     0.074 A 
ATOM     43  C   UNL A   1      43.613  25.644  27.051  1.00  0.00     0.049 A 
ATOM     44  N   UNL A   1      41.840  27.558  28.587  1.00  0.00    -0.248 NA
ATOM     45  C   UNL A   1      40.252  25.853  28.741  1.00  0.00     0.031 C 
ATOM     46  C   UNL A   1      44.517  24.747  26.334  1.00  0.00     0.029 A 
ATOM     47  N   UNL A   1      44.305  26.826  27.132  1.00  0.00    -0.354 N 
ATOM     48  C   UNL A   1      40.742  28.007  29.308  1.00  0.00     0.074 A 
ATOM     49  C   UNL A   1      39.784  26.926  29.353  1.00  0.00     0.031 C 
ATOM     50  C   UNL A   1      45.643  25.418  26.028  1.00  0.00     0.029 A 
ATOM     51  C   UNL A   1      45.527  26.795  26.506  1.00  0.00     0.049 A 
ATOM     52  H   UNL A   1      43.958  27.623  27.594  1.00  0.00     0.167 HD
ATOM     53  C   UNL A   1      40.550  29.213  29.889  1.00  0.00     0.037 A 
ATOM     54  C   UNL A   1      46.433  27.778  26.331  1.00  0.00     0.037 A 
ATOM     55  C   UNL A   1      41.488  30.297  29.811  1.00  0.00     0.049 A 
ATOM     56  C   UNL A   1      46.154  29.145  26.903  1.00  0.00     0.074 A 
ATOM     57  C   UNL A   1      41.389  31.566  30.351  1.00  0.00     0.029 A 
ATOM     58  N   UNL A   1      42.697  30.241  29.131  1.00  0.00    -0.354 N 
ATOM     59  N   UNL A   1      45.128  29.553  27.612  1.00  0.00    -0.248 NA
ATOM     60  C   UNL A   1      47.159  30.187  26.652  1.00  0.00     0.031 C 
ATOM     61  C   UNL A   1      42.516  32.293  29.956  1.00  0.00     0.029 A 
ATOM     62  C   UNL A   1      43.341  31.462  29.216  1.00  0.00     0.049 A 
ATOM     63  H   UNL A   1      43.043  29.450  28.657  1.00  0.00     0.167 HD
ATOM     64  C   UNL A   1      45.379  30.885  27.918  1.00  0.00     0.074 A 
ATOM     65  C   UNL A   1      46.659  31.214  27.325  1.00  0.00     0.031 C 
ATOM     66  C   UNL A   1      44.622  31.760  28.627  1.00  0.00     0.037 A 
BRANCH  53  67
ATOM     67  C   UNL A   1      39.259  29.420  30.621  1.00  0.00     0.057 A 
ATOM     68  C   UNL A   1      38.188  30.117  30.045  1.00  0.00     0.134 A 
ATOM     69  C   UNL A   1      39.086  28.922  31.917  1.00  0.00     0.134 A 
ATOM     70  F   UNL A   1      38.301  30.641  28.815  1.00  0.00    -0.206 F 
ATOM     71  C   UNL A   1      36.998  30.330  30.742  1.00  0.00     0.040 A 
ATOM     72  C   UNL A   1      37.892  29.106  32.615  1.00  0.00     0.040 A 
ATOM     73  F   UNL A   1      40.075  28.251  32.527  1.00  0.00    -0.206 F 
ATOM     74  C   UNL A   1      36.846  29.818  32.029  1.00  0.00     0.006 A 
ENDBRANCH  53  67
BRANCH  54  75
ATOM     75  C   UNL A   1      47.683  27.522  25.570  1.00  0.00     0.057 A 
ATOM     76  C   UNL A   1      47.722  27.631  24.174  1.00  0.00     0.134 A 
ATOM     77  C   UNL A   1      48.860  27.121  26.214  1.00  0.00     0.134 A 
ATOM     78  F   UNL A   1      46.622  27.984  23.494  1.00  0.00    -0.206 F 
ATOM     79  C   UNL A   1      48.876  27.330  23.447  1.00  0.00     0.040 A 
ATOM     80  C   UNL A   1      50.028  26.842  25.503  1.00  0.00     0.040 A 
ATOM     81  F   UNL A   1      48.891  26.993  27.549  1.00  0.00    -0.206 F 
ATOM     82  C   UNL A   1      50.036  26.938  24.113  1.00  0.00     0.006 A 
ENDBRANCH  54  75
BRANCH  66  83
ATOM     83  C   UNL A   1      45.174  33.140  28.836  1.00  0.00     0.057 A 
ATOM     84  C   UNL A   1      44.941  34.178  27.926  1.00  0.00     0.134 A 
ATOM     85  C   UNL A   1      45.902  33.444  29.993  1.00  0.00     0.134 A 
ATOM     86  F   UNL A   1      44.259  33.950  26.793  1.00  0.00    -0.206 F 
ATOM     87  C   UNL A   1      45.431  35.466  28.150  1.00  0.00     0.040 A 
ATOM     88  C   UNL A   1      46.374  34.733  30.242  1.00  0.00     0.040 A 
ATOM     89  F   UNL A   1      46.150  32.498  30.912  1.00  0.00    -0.206 F 
ATOM     90  C   UNL A   1      46.143  35.748  29.315  1.00  0.00     0.006 A 
ENDBRANCH  66  83
ENDBRANCH  40  41
ENDBRANCH  33  35
ENDBRANCH  32  33
ENDBRANCH  31  32
ENDBRANCH  30  31
ENDBRANCH  29  30
ENDBRANCH  28  29
ENDBRANCH  27  28
ENDBRANCH  26  27
ENDBRANCH  25  26
ENDBRANCH   1  25
TORSDOF 27
ENDMDL
MODEL 2
REMARK VINA RESULT:      -8.5      0.666      6.075
REMARK SMILES C=CCN(CC(=O)OCCOCCOCCOCCOC(=O)c1ccc(-c2c3nc(c(-c4c(F)cccc4F)c4ccc([nH]4)c(-c4c(F)cccc4F)c4nc(c(-c5c(F)cccc5F)c5ccc2[nH]5)C=C4)C=C3)cc1)C(=O)/C=C/c1ccc(OC)cc1
REMARK SMILES IDX 12 1 11 2 10 3 9 4 8 5 6 6 7 7 5 8 4 9 3 10 2 11 1 12 77 13
REMARK SMILES IDX 78 14 79 15 80 16 81 17 82 18 88 19 83 20 87 21 84 22 85 23
REMARK SMILES IDX 86 24 13 25 14 26 15 27 16 28 17 29 18 30 19 31 20 32 21 33
REMARK SMILES IDX 22 34 23 35 24 36 76 37 25 38 75 39 26 40 27 41 28 42 69 43
REMARK SMILES IDX 29 44 74 45 68 46 70 47 30 48 73 49 67 50 66 51 31 53 57 54
REMARK SMILES IDX 40 55 56 56 41 57 44 58 55 59 71 60 42 61 43 62 54 64 72 65
REMARK SMILES IDX 45 66 32 67 33 68 38 69 34 70 35 71 37 72 39 73 36 74 58 75
REMARK SMILES IDX 59 76 64 77 60 78 61 79 63 80 65 81 62 82 46 83 47 84 52 85
REMARK SMILES IDX 48 86 49 87 51 88 53 89 50 90
REMARK H PARENT 70 52 44 63
REMARK Flexibility Score: inf
ROOT
ATOM      1  C   UNL A   1      34.089  23.833  26.093  1.00  0.00     0.188 C 
ENDROOT
BRANCH   1   2
ATOM      2  O   UNL A   1      32.747  24.117  26.456  1.00  0.00    -0.376 OA
BRANCH   2   3
ATOM      3  C   UNL A   1      32.069  25.051  25.631  1.00  0.00     0.202 C 
BRANCH   3   4
ATOM      4  C   UNL A   1      32.972  26.100  24.967  1.00  0.00     0.261 C 
BRANCH   4   5
ATOM      5  O   UNL A   1      32.371  27.405  24.780  1.00  0.00    -0.462 OA
BRANCH   5   6
ATOM      6  C   UNL A   1      33.187  28.484  24.698  1.00  0.00     0.325 C 
ATOM      7  O   UNL A   1      33.376  29.113  23.663  1.00  0.00    -0.250 OA
BRANCH   6   8
ATOM      8  C   UNL A   1      33.964  28.754  26.004  1.00  0.00     0.242 C 
BRANCH   8   9
ATOM      9  N   UNL A   1      33.656  29.925  26.846  1.00  0.00    -0.324 N 
BRANCH   9  10
ATOM     10  C   UNL A   1      32.251  30.100  27.229  1.00  0.00     0.147 C 
BRANCH  10  11
ATOM     11  C   UNL A   1      31.537  30.977  26.236  1.00  0.00    -0.014 C 
ATOM     12  C   UNL A   1      31.168  32.240  26.499  1.00  0.00     0.006 C 
ENDBRANCH  10  11
ENDBRANCH   9  10
BRANCH   9  13
ATOM     13  C   UNL A   1      34.542  30.889  27.307  1.00  0.00     0.247 C 
ATOM     14  O   UNL A   1      35.764  30.775  27.167  1.00  0.00    -0.270 OA
BRANCH  13  15
ATOM     15  C   UNL A   1      34.141  32.031  28.179  1.00  0.00     0.072 C 
ATOM     16  C   UNL A   1      34.377  32.376  29.450  1.00  0.00     0.014 C 
BRANCH  16  17
ATOM     17  C   UNL A   1      34.052  33.721  29.953  1.00  0.00    -0.025 A 
ATOM     18  C   UNL A   1      33.294  34.557  29.124  1.00  0.00     0.012 A 
ATOM     19  C   UNL A   1      34.429  34.193  31.218  1.00  0.00     0.012 A 
ATOM     20  C   UNL A   1      32.916  35.830  29.552  1.00  0.00     0.047 A 
ATOM     21  C   UNL A   1      34.052  35.475  31.643  1.00  0.00     0.047 A 
ATOM     22  C   UNL A   1      33.309  36.302  30.803  1.00  0.00     0.118 A 
BRANCH  22  23
ATOM     23  O   UNL A   1      32.892  37.572  31.092  1.00  0.00    -0.497 OA
ATOM     24  C   UNL A   1      33.448  38.165  32.259  1.00  0.00     0.278 C 
ENDBRANCH  22  23
ENDBRANCH  16  17
ENDBRANCH  13  15
ENDBRANCH   9  13
ENDBRANCH   8   9
ENDBRANCH   6   8
ENDBRANCH   5   6
ENDBRANCH   4   5
ENDBRANCH   3   4
ENDBRANCH   2   3
ENDBRANCH   1   2
BRANCH   1  25
ATOM     25  C   UNL A   1      34.747  22.763  26.994  1.00  0.00     0.188 C 
BRANCH  25  26
ATOM     26  O   UNL A   1      34.311  21.409  27.017  1.00  0.00    -0.377 OA
BRANCH  26  27
ATOM     27  C   UNL A   1      33.872  20.834  25.804  1.00  0.00     0.188 C 
BRANCH  27  28
ATOM     28  C   UNL A   1      34.993  20.513  24.804  1.00  0.00     0.188 C 
BRANCH  28  29
ATOM     29  O   UNL A   1      36.241  20.263  25.433  1.00  0.00    -0.376 OA
BRANCH  29  30
ATOM     30  C   UNL A   1      37.398  20.142  24.621  1.00  0.00     0.202 C 
BRANCH  30  31
ATOM     31  C   UNL A   1      38.603  19.332  25.132  1.00  0.00     0.261 C 
BRANCH  31  32
ATOM     32  O   UNL A   1      39.362  19.903  26.203  1.00  0.00    -0.460 OA
BRANCH  32  33
ATOM     33  C   UNL A   1      40.703  19.793  26.174  1.00  0.00     0.338 C 
ATOM     34  O   UNL A   1      41.363  18.838  25.803  1.00  0.00    -0.246 OA
BRANCH  33  35
ATOM     35  C   UNL A   1      41.236  21.140  26.473  1.00  0.00     0.060 A 
ATOM     36  C   UNL A   1      41.504  21.474  27.808  1.00  0.00     0.016 A 
ATOM     37  C   UNL A   1      41.558  22.028  25.441  1.00  0.00     0.016 A 
ATOM     38  C   UNL A   1      42.114  22.690  28.110  1.00  0.00     0.010 A 
ATOM     39  C   UNL A   1      42.120  23.267  25.748  1.00  0.00     0.010 A 
ATOM     40  C   UNL A   1      42.384  23.608  27.085  1.00  0.00    -0.014 A 
BRANCH  40  41
ATOM     41  C   UNL A   1      42.682  25.011  27.445  1.00  0.00     0.031 A 
ATOM     42  C   UNL A   1      44.049  25.531  27.098  1.00  0.00     0.074 A 
ATOM     43  C   UNL A   1      41.773  25.808  28.031  1.00  0.00     0.049 A 
ATOM     44  N   UNL A   1      44.565  26.714  27.292  1.00  0.00    -0.248 NA
ATOM     45  C   UNL A   1      44.956  24.578  26.432  1.00  0.00     0.031 C 
ATOM     46  C   UNL A   1      40.405  25.425  28.378  1.00  0.00     0.029 A 
ATOM     47  N   UNL A   1      41.873  27.113  28.439  1.00  0.00    -0.354 N 
ATOM     48  C   UNL A   1      45.847  26.652  26.761  1.00  0.00     0.074 A 
ATOM     49  C   UNL A   1      46.044  25.308  26.266  1.00  0.00     0.031 C 
ATOM     50  C   UNL A   1      39.796  26.475  28.961  1.00  0.00     0.029 A 
ATOM     51  C   UNL A   1      40.737  27.590  29.048  1.00  0.00     0.049 A 
ATOM     52  H   UNL A   1      42.682  27.659  28.309  1.00  0.00     0.167 HD
ATOM     53  C   UNL A   1      46.777  27.630  26.685  1.00  0.00     0.037 A 
ATOM     54  C   UNL A   1      40.503  28.787  29.623  1.00  0.00     0.037 A 
ATOM     55  C   UNL A   1      46.591  28.953  27.210  1.00  0.00     0.049 A 
ATOM     56  C   UNL A   1      41.591  29.832  29.614  1.00  0.00     0.074 A 
ATOM     57  C   UNL A   1      47.472  30.018  27.199  1.00  0.00     0.029 A 
ATOM     58  N   UNL A   1      45.443  29.385  27.859  1.00  0.00    -0.354 N 
ATOM     59  N   UNL A   1      42.789  29.777  29.081  1.00  0.00    -0.248 NA
ATOM     60  C   UNL A   1      41.294  31.105  30.285  1.00  0.00     0.031 C 
ATOM     61  C   UNL A   1      46.875  31.081  27.886  1.00  0.00     0.029 A 
ATOM     62  C   UNL A   1      45.603  30.694  28.276  1.00  0.00     0.049 A 
ATOM     63  H   UNL A   1      44.635  28.840  28.002  1.00  0.00     0.167 HD
ATOM     64  C   UNL A   1      43.373  31.014  29.323  1.00  0.00     0.074 A 
ATOM     65  C   UNL A   1      42.395  31.802  30.043  1.00  0.00     0.031 C 
ATOM     66  C   UNL A   1      44.608  31.461  28.981  1.00  0.00     0.037 A 
BRANCH  53  67
ATOM     67  C   UNL A   1      48.085  27.280  26.043  1.00  0.00     0.057 A 
ATOM     68  C   UNL A   1      49.155  26.761  26.786  1.00  0.00     0.134 A 
ATOM     69  C   UNL A   1      48.279  27.466  24.670  1.00  0.00     0.134 A 
ATOM     70  F   UNL A   1      49.041  26.583  28.111  1.00  0.00    -0.206 F 
ATOM     71  C   UNL A   1      50.380  26.463  26.187  1.00  0.00     0.040 A 
ATOM     72  C   UNL A   1      49.490  27.148  24.056  1.00  0.00     0.040 A 
ATOM     73  F   UNL A   1      47.296  27.965  23.905  1.00  0.00    -0.206 F 
ATOM     74  C   UNL A   1      50.548  26.650  24.816  1.00  0.00     0.006 A 
ENDBRANCH  53  67
BRANCH  54  75
ATOM     75  C   UNL A   1      39.196  29.067  30.271  1.00  0.00     0.057 A 
ATOM     76  C   UNL A   1      38.176  29.747  29.593  1.00  0.00     0.134 A 
ATOM     77  C   UNL A   1      38.947  28.700  31.599  1.00  0.00     0.134 A 
ATOM     78  F   UNL A   1      38.361  30.151  28.327  1.00  0.00    -0.206 F 
ATOM     79  C   UNL A   1      36.970  30.070  30.216  1.00  0.00     0.040 A 
ATOM     80  C   UNL A   1      37.736  28.993  32.228  1.00  0.00     0.040 A 
ATOM     81  F   UNL A   1      39.882  28.050  32.308  1.00  0.00    -0.206 F 
ATOM     82  C   UNL A   1      36.745  29.688  31.538  1.00  0.00     0.006 A 
ENDBRANCH  54  75
BRANCH  66  83
ATOM     83  C   UNL A   1      44.954  32.876  29.342  1.00  0.00     0.057 A 
ATOM     84  C   UNL A   1      45.607  33.198  30.538  1.00  0.00     0.134 A 
ATOM     85  C   UNL A   1      44.678  33.923  28.452  1.00  0.00     0.134 A 
ATOM     86  F   UNL A   1      45.890  32.244  31.437  1.00  0.00    -0.206 F 
ATOM     87  C   UNL A   1      45.954  34.515  30.846  1.00  0.00     0.040 A 
ATOM     88  C   UNL A   1      45.045  35.239  28.736  1.00  0.00     0.040 A 
ATOM     89  F   UNL A   1      44.065  33.681  27.284  1.00  0.00    -0.206 F 
ATOM     90  C   UNL A   1      45.681  35.538  29.939  1.00  0.00     0.006 A 
ENDBRANCH  66  83
ENDBRANCH  40  41
ENDBRANCH  33  35
ENDBRANCH  32  33
ENDBRANCH  31  32
ENDBRANCH  30  31
ENDBRANCH  29  30
ENDBRANCH  28  29
ENDBRANCH  27  28
ENDBRANCH  26  27
ENDBRANCH  25  26
ENDBRANCH   1  25
TORSDOF 27
ENDMDL
MODEL 3
REMARK VINA RESULT:      -8.0      3.580      9.390
REMARK SMILES C=CCN(CC(=O)OCCOCCOCCOCCOC(=O)c1ccc(-c2c3nc(c(-c4c(F)cccc4F)c4ccc([nH]4)c(-c4c(F)cccc4F)c4nc(c(-c5c(F)cccc5F)c5ccc2[nH]5)C=C4)C=C3)cc1)C(=O)/C=C/c1ccc(OC)cc1
REMARK SMILES IDX 12 1 11 2 10 3 9 4 8 5 6 6 7 7 5 8 4 9 3 10 2 11 1 12 77 13
REMARK SMILES IDX 78 14 79 15 80 16 81 17 82 18 88 19 83 20 87 21 84 22 85 23
REMARK SMILES IDX 86 24 13 25 14 26 15 27 16 28 17 29 18 30 19 31 20 32 21 33
REMARK SMILES IDX 22 34 23 35 24 36 76 37 25 38 75 39 26 40 27 41 28 42 69 43
REMARK SMILES IDX 29 44 74 45 68 46 70 47 30 48 73 49 67 50 66 51 31 53 57 54
REMARK SMILES IDX 40 55 56 56 41 57 44 58 55 59 71 60 42 61 43 62 54 64 72 65
REMARK SMILES IDX 45 66 32 67 33 68 38 69 34 70 35 71 37 72 39 73 36 74 58 75
REMARK SMILES IDX 59 76 64 77 60 78 61 79 63 80 65 81 62 82 46 83 47 84 52 85
REMARK SMILES IDX 48 86 49 87 51 88 53 89 50 90
REMARK H PARENT 70 52 44 63
REMARK Flexibility Score: inf
ROOT
ATOM      1  C   UNL A   1      33.222  37.358  31.663  1.00  0.00     0.188 C 
ENDROOT
BRANCH   1   2
ATOM      2  O   UNL A   1      33.662  36.908  30.391  1.00  0.00    -0.376 OA
BRANCH   2   3
ATOM      3  C   UNL A   1      32.755  36.081  29.681  1.00  0.00     0.202 C 
BRANCH   3   4
ATOM      4  C   UNL A   1      33.398  34.892  28.954  1.00  0.00     0.261 C 
BRANCH   4   5
ATOM      5  O   UNL A   1      34.712  34.513  29.429  1.00  0.00    -0.462 OA
BRANCH   5   6
ATOM      6  C   UNL A   1      35.443  33.650  28.681  1.00  0.00     0.325 C 
ATOM      7  O   UNL A   1      35.227  33.432  27.494  1.00  0.00    -0.250 OA
BRANCH   6   8
ATOM      8  C   UNL A   1      36.482  32.864  29.508  1.00  0.00     0.242 C 
BRANCH   8   9
ATOM      9  N   UNL A   1      36.519  31.390  29.484  1.00  0.00    -0.324 N 
BRANCH   9  10
ATOM     10  C   UNL A   1      36.240  30.710  30.754  1.00  0.00     0.147 C 
BRANCH  10  11
ATOM     11  C   UNL A   1      37.092  29.479  30.892  1.00  0.00    -0.014 C 
ATOM     12  C   UNL A   1      37.496  28.990  32.076  1.00  0.00     0.006 C 
ENDBRANCH  10  11
ENDBRANCH   9  10
BRANCH   9  13
ATOM     13  C   UNL A   1      36.801  30.571  28.399  1.00  0.00     0.247 C 
ATOM     14  O   UNL A   1      37.948  30.441  27.958  1.00  0.00    -0.270 OA
BRANCH  13  15
ATOM     15  C   UNL A   1      35.754  29.940  27.544  1.00  0.00     0.072 C 
ATOM     16  C   UNL A   1      34.868  28.953  27.712  1.00  0.00     0.014 C 
BRANCH  16  17
ATOM     17  C   UNL A   1      33.771  28.735  26.753  1.00  0.00    -0.025 A 
ATOM     18  C   UNL A   1      33.170  29.867  26.189  1.00  0.00     0.012 A 
ATOM     19  C   UNL A   1      33.324  27.468  26.354  1.00  0.00     0.012 A 
ATOM     20  C   UNL A   1      32.152  29.735  25.244  1.00  0.00     0.047 A 
ATOM     21  C   UNL A   1      32.297  27.338  25.408  1.00  0.00     0.047 A 
ATOM     22  C   UNL A   1      31.698  28.473  24.863  1.00  0.00     0.118 A 
BRANCH  22  23
ATOM     23  O   UNL A   1      30.683  28.482  23.948  1.00  0.00    -0.497 OA
ATOM     24  C   UNL A   1      29.891  27.303  23.876  1.00  0.00     0.278 C 
ENDBRANCH  22  23
ENDBRANCH  16  17
ENDBRANCH  13  15
ENDBRANCH   9  13
ENDBRANCH   8   9
ENDBRANCH   6   8
ENDBRANCH   5   6
ENDBRANCH   4   5
ENDBRANCH   3   4
ENDBRANCH   2   3
ENDBRANCH   1   2
BRANCH   1  25
ATOM     25  C   UNL A   1      33.589  36.388  32.809  1.00  0.00     0.188 C 
BRANCH  25  26
ATOM     26  O   UNL A   1      33.168  35.029  32.825  1.00  0.00    -0.377 OA
BRANCH  26  27
ATOM     27  C   UNL A   1      34.143  34.031  32.605  1.00  0.00     0.188 C 
BRANCH  27  28
ATOM     28  C   UNL A   1      34.795  33.480  33.883  1.00  0.00     0.188 C 
BRANCH  28  29
ATOM     29  O   UNL A   1      36.214  33.494  33.830  1.00  0.00    -0.376 OA
BRANCH  29  30
ATOM     30  C   UNL A   1      36.854  34.463  33.016  1.00  0.00     0.202 C 
BRANCH  30  31
ATOM     31  C   UNL A   1      38.303  34.231  32.555  1.00  0.00     0.261 C 
BRANCH  31  32
ATOM     32  O   UNL A   1      38.632  32.923  32.077  1.00  0.00    -0.460 OA
BRANCH  32  33
ATOM     33  C   UNL A   1      39.211  32.052  32.924  1.00  0.00     0.338 C 
ATOM     34  O   UNL A   1      38.862  31.773  34.057  1.00  0.00    -0.246 OA
BRANCH  33  35
ATOM     35  C   UNL A   1      40.234  31.327  32.138  1.00  0.00     0.060 A 
ATOM     36  C   UNL A   1      41.016  30.361  32.785  1.00  0.00     0.016 A 
ATOM     37  C   UNL A   1      40.354  31.530  30.759  1.00  0.00     0.016 A 
ATOM     38  C   UNL A   1      41.906  29.581  32.048  1.00  0.00     0.010 A 
ATOM     39  C   UNL A   1      41.283  30.785  30.030  1.00  0.00     0.010 A 
ATOM     40  C   UNL A   1      42.073  29.821  30.677  1.00  0.00    -0.014 A 
BRANCH  40  41
ATOM     41  C   UNL A   1      43.257  29.256  29.994  1.00  0.00     0.031 A 
ATOM     42  C   UNL A   1      44.528  30.056  30.055  1.00  0.00     0.074 A 
ATOM     43  C   UNL A   1      43.222  28.069  29.367  1.00  0.00     0.049 A 
ATOM     44  N   UNL A   1      45.704  29.791  29.555  1.00  0.00    -0.248 NA
ATOM     45  C   UNL A   1      44.458  31.330  30.793  1.00  0.00     0.031 C 
ATOM     46  C   UNL A   1      42.058  27.189  29.277  1.00  0.00     0.029 A 
ATOM     47  N   UNL A   1      44.205  27.400  28.683  1.00  0.00    -0.354 N 
ATOM     48  C   UNL A   1      46.514  30.856  29.927  1.00  0.00     0.074 A 
ATOM     49  C   UNL A   1      45.692  31.785  30.668  1.00  0.00     0.031 C 
ATOM     50  C   UNL A   1      42.394  26.098  28.564  1.00  0.00     0.029 A 
ATOM     51  C   UNL A   1      43.784  26.216  28.129  1.00  0.00     0.049 A 
ATOM     52  H   UNL A   1      45.126  27.737  28.596  1.00  0.00     0.167 HD
ATOM     53  C   UNL A   1      47.831  31.040  29.682  1.00  0.00     0.037 A 
ATOM     54  C   UNL A   1      44.451  25.343  27.347  1.00  0.00     0.037 A 
ATOM     55  C   UNL A   1      48.636  30.132  28.915  1.00  0.00     0.049 A 
ATOM     56  C   UNL A   1      45.893  25.619  27.002  1.00  0.00     0.074 A 
ATOM     57  C   UNL A   1      49.978  30.228  28.593  1.00  0.00     0.029 A 
ATOM     58  N   UNL A   1      48.164  28.964  28.333  1.00  0.00    -0.354 N 
ATOM     59  N   UNL A   1      46.662  26.610  27.386  1.00  0.00    -0.248 NA
ATOM     60  C   UNL A   1      46.561  24.653  26.118  1.00  0.00     0.031 C 
ATOM     61  C   UNL A   1      50.305  29.142  27.775  1.00  0.00     0.029 A 
ATOM     62  C   UNL A   1      49.181  28.343  27.632  1.00  0.00     0.049 A 
ATOM     63  H   UNL A   1      47.241  28.629  28.407  1.00  0.00     0.167 HD
ATOM     64  C   UNL A   1      47.908  26.372  26.819  1.00  0.00     0.074 A 
ATOM     65  C   UNL A   1      47.795  25.136  26.072  1.00  0.00     0.031 C 
ATOM     66  C   UNL A   1      49.046  27.106  26.907  1.00  0.00     0.037 A 
BRANCH  53  67
ATOM     67  C   UNL A   1      48.457  32.290  30.220  1.00  0.00     0.057 A 
ATOM     68  C   UNL A   1      48.491  33.477  29.475  1.00  0.00     0.134 A 
ATOM     69  C   UNL A   1      49.036  32.308  31.494  1.00  0.00     0.134 A 
ATOM     70  F   UNL A   1      47.977  33.519  28.237  1.00  0.00    -0.206 F 
ATOM     71  C   UNL A   1      49.101  34.632  29.971  1.00  0.00     0.040 A 
ATOM     72  C   UNL A   1      49.625  33.462  32.010  1.00  0.00     0.040 A 
ATOM     73  F   UNL A   1      49.042  31.203  32.255  1.00  0.00    -0.206 F 
ATOM     74  C   UNL A   1      49.664  34.627  31.245  1.00  0.00     0.006 A 
ENDBRANCH  53  67
BRANCH  54  75
ATOM     75  C   UNL A   1      43.769  24.134  26.817  1.00  0.00     0.057 A 
ATOM     76  C   UNL A   1      43.666  22.963  27.578  1.00  0.00     0.134 A 
ATOM     77  C   UNL A   1      43.240  24.106  25.521  1.00  0.00     0.134 A 
ATOM     78  F   UNL A   1      44.177  22.916  28.817  1.00  0.00    -0.206 F 
ATOM     79  C   UNL A   1      43.083  21.803  27.063  1.00  0.00     0.040 A 
ATOM     80  C   UNL A   1      42.631  22.962  25.002  1.00  0.00     0.040 A 
ATOM     81  F   UNL A   1      43.308  25.192  24.737  1.00  0.00    -0.206 F 
ATOM     82  C   UNL A   1      42.559  21.802  25.771  1.00  0.00     0.006 A 
ENDBRANCH  54  75
BRANCH  66  83
ATOM     83  C   UNL A   1      50.267  26.573  26.215  1.00  0.00     0.057 A 
ATOM     84  C   UNL A   1      50.623  26.976  24.923  1.00  0.00     0.134 A 
ATOM     85  C   UNL A   1      51.126  25.685  26.877  1.00  0.00     0.134 A 
ATOM     86  F   UNL A   1      49.837  27.816  24.231  1.00  0.00    -0.206 F 
ATOM     87  C   UNL A   1      51.780  26.499  24.304  1.00  0.00     0.040 A 
ATOM     88  C   UNL A   1      52.299  25.223  26.280  1.00  0.00     0.040 A 
ATOM     89  F   UNL A   1      50.849  25.269  28.122  1.00  0.00    -0.206 F 
ATOM     90  C   UNL A   1      52.626  25.626  24.987  1.00  0.00     0.006 A 
ENDBRANCH  66  83
ENDBRANCH  40  41
ENDBRANCH  33  35
ENDBRANCH  32  33
ENDBRANCH  31  32
ENDBRANCH  30  31
ENDBRANCH  29  30
ENDBRANCH  28  29
ENDBRANCH  27  28
ENDBRANCH  26  27
ENDBRANCH  25  26
ENDBRANCH   1  25
TORSDOF 27
ENDMDL
