MODEL 1
REMARK VINA RESULT:     -10.8      0.000      0.000
REMARK SMILES O=C(OCCOCCOCCOCCOC(=O)[C@H]1CC=CC[C@@H]1c1nc2cc(Cl)ccc2o1)c1ccc(-c2c3nc(c(-c4c(F)cccc4F)c4ccc([nH]4)c(-c4c(F)cccc4F)c4nc(c(-c5c(F)cccc5F)c5ccc2[nH]5)C=C4)C=C3)cc1
REMARK SMILES IDX 8 1 7 2 6 3 5 4 4 5 3 6 2 7 1 8 34 9 35 10 87 11 36 12 86 13
REMARK SMILES IDX 37 14 38 15 39 16 80 17 40 18 85 19 79 20 81 21 41 22 84 23
REMARK SMILES IDX 78 24 77 25 42 27 68 28 51 29 67 30 52 31 55 32 66 33 82 34
REMARK SMILES IDX 53 35 54 36 65 38 83 39 56 40 43 41 44 42 49 43 45 44 46 45
REMARK SMILES IDX 48 46 50 47 47 48 69 49 70 50 75 51 71 52 72 53 74 54 76 55
REMARK SMILES IDX 73 56 57 57 58 58 63 59 59 60 60 61 62 62 64 63 61 64 9 65
REMARK SMILES IDX 10 66 11 67 12 68 13 69 14 70 15 71 16 72 17 73 18 74 19 75
REMARK SMILES IDX 23 76 20 77 22 78 21 79 24 80 25 81 33 82 26 83 32 84 27 85
REMARK SMILES IDX 31 86 28 87 30 88 29 89
REMARK H PARENT 81 26 55 37
REMARK Flexibility Score: inf
ROOT
ATOM      1  C   UNL A   1      41.670  21.551  27.527  1.00  0.00     0.188 C 
ENDROOT
BRANCH   1   2
ATOM      2  C   UNL A   1      41.328  20.090  27.219  1.00  0.00     0.188 C 
BRANCH   2   3
ATOM      3  O   UNL A   1      42.489  19.262  27.246  1.00  0.00    -0.376 OA
BRANCH   3   4
ATOM      4  C   UNL A   1      42.668  18.455  26.084  1.00  0.00     0.202 C 
BRANCH   4   5
ATOM      5  C   UNL A   1      43.909  18.848  25.276  1.00  0.00     0.261 C 
BRANCH   5   6
ATOM      6  O   UNL A   1      43.798  20.150  24.670  1.00  0.00    -0.460 OA
BRANCH   6   7
ATOM      7  C   UNL A   1      44.925  20.904  24.740  1.00  0.00     0.338 C 
ATOM      8  O   UNL A   1      46.038  20.532  24.398  1.00  0.00    -0.246 OA
BRANCH   7   9
ATOM      9  C   UNL A   1      44.608  22.194  25.405  1.00  0.00     0.060 A 
ATOM     10  C   UNL A   1      43.694  23.059  24.800  1.00  0.00     0.016 A 
ATOM     11  C   UNL A   1      45.359  22.617  26.516  1.00  0.00     0.016 A 
ATOM     12  C   UNL A   1      43.568  24.356  25.289  1.00  0.00     0.010 A 
ATOM     13  C   UNL A   1      45.295  23.931  26.947  1.00  0.00     0.010 A 
ATOM     14  C   UNL A   1      44.389  24.797  26.342  1.00  0.00    -0.014 A 
BRANCH  14  15
ATOM     15  C   UNL A   1      44.024  26.034  27.029  1.00  0.00     0.031 A 
ATOM     16  C   UNL A   1      45.026  27.089  26.771  1.00  0.00     0.074 A 
ATOM     17  C   UNL A   1      42.870  26.350  27.651  1.00  0.00     0.049 A 
ATOM     18  N   UNL A   1      45.843  27.621  27.615  1.00  0.00    -0.248 NA
ATOM     19  C   UNL A   1      45.226  27.513  25.372  1.00  0.00     0.031 C 
ATOM     20  C   UNL A   1      41.636  25.573  27.626  1.00  0.00     0.029 A 
ATOM     21  N   UNL A   1      42.525  27.472  28.371  1.00  0.00    -0.354 N 
ATOM     22  C   UNL A   1      46.461  28.636  26.899  1.00  0.00     0.074 A 
ATOM     23  C   UNL A   1      46.216  28.392  25.503  1.00  0.00     0.031 C 
ATOM     24  C   UNL A   1      40.643  26.284  28.194  1.00  0.00     0.029 A 
ATOM     25  C   UNL A   1      41.176  27.541  28.691  1.00  0.00     0.049 A 
ATOM     26  H   UNL A   1      43.175  28.163  28.634  1.00  0.00     0.167 HD
ATOM     27  C   UNL A   1      46.760  29.802  27.519  1.00  0.00     0.037 A 
ATOM     28  C   UNL A   1      40.479  28.530  29.298  1.00  0.00     0.037 A 
ATOM     29  C   UNL A   1      46.820  29.661  28.947  1.00  0.00     0.049 A 
ATOM     30  C   UNL A   1      41.390  29.408  30.057  1.00  0.00     0.074 A 
ATOM     31  C   UNL A   1      47.654  29.043  29.853  1.00  0.00     0.029 A 
ATOM     32  N   UNL A   1      45.649  29.936  29.595  1.00  0.00    -0.354 N 
ATOM     33  N   UNL A   1      42.004  29.041  31.144  1.00  0.00    -0.248 NA
ATOM     34  C   UNL A   1      41.865  30.656  29.464  1.00  0.00     0.031 C 
ATOM     35  C   UNL A   1      46.892  28.848  31.043  1.00  0.00     0.029 A 
ATOM     36  C   UNL A   1      45.612  29.351  30.835  1.00  0.00     0.049 A 
ATOM     37  H   UNL A   1      44.923  30.485  29.219  1.00  0.00     0.167 HD
ATOM     38  C   UNL A   1      43.193  29.735  31.104  1.00  0.00     0.074 A 
ATOM     39  C   UNL A   1      42.973  30.840  30.187  1.00  0.00     0.031 C 
ATOM     40  C   UNL A   1      44.350  29.140  31.506  1.00  0.00     0.037 A 
BRANCH  27  41
ATOM     41  C   UNL A   1      46.471  31.129  26.871  1.00  0.00     0.057 A 
ATOM     42  C   UNL A   1      45.165  31.588  26.582  1.00  0.00     0.134 A 
ATOM     43  C   UNL A   1      47.481  32.094  26.806  1.00  0.00     0.134 A 
ATOM     44  F   UNL A   1      44.083  30.820  26.764  1.00  0.00    -0.206 F 
ATOM     45  C   UNL A   1      44.893  32.900  26.195  1.00  0.00     0.040 A 
ATOM     46  C   UNL A   1      47.210  33.428  26.479  1.00  0.00     0.040 A 
ATOM     47  F   UNL A   1      48.745  31.783  27.130  1.00  0.00    -0.206 F 
ATOM     48  C   UNL A   1      45.916  33.832  26.163  1.00  0.00     0.006 A 
ENDBRANCH  27  41
BRANCH  28  49
ATOM     49  C   UNL A   1      39.033  28.805  29.182  1.00  0.00     0.057 A 
ATOM     50  C   UNL A   1      38.507  29.334  27.990  1.00  0.00     0.134 A 
ATOM     51  C   UNL A   1      38.162  28.752  30.277  1.00  0.00     0.134 A 
ATOM     52  F   UNL A   1      39.281  29.482  26.904  1.00  0.00    -0.206 F 
ATOM     53  C   UNL A   1      37.191  29.788  27.891  1.00  0.00     0.040 A 
ATOM     54  C   UNL A   1      36.837  29.199  30.188  1.00  0.00     0.040 A 
ATOM     55  F   UNL A   1      38.587  28.305  31.466  1.00  0.00    -0.206 F 
ATOM     56  C   UNL A   1      36.351  29.726  28.995  1.00  0.00     0.006 A 
ENDBRANCH  28  49
BRANCH  40  57
ATOM     57  C   UNL A   1      44.242  28.078  32.552  1.00  0.00     0.057 A 
ATOM     58  C   UNL A   1      44.319  28.465  33.895  1.00  0.00     0.134 A 
ATOM     59  C   UNL A   1      44.092  26.711  32.285  1.00  0.00     0.134 A 
ATOM     60  F   UNL A   1      44.498  29.757  34.217  1.00  0.00    -0.206 F 
ATOM     61  C   UNL A   1      44.235  27.540  34.934  1.00  0.00     0.040 A 
ATOM     62  C   UNL A   1      43.968  25.778  33.320  1.00  0.00     0.040 A 
ATOM     63  F   UNL A   1      44.086  26.244  31.028  1.00  0.00    -0.206 F 
ATOM     64  C   UNL A   1      44.044  26.191  34.649  1.00  0.00     0.006 A 
ENDBRANCH  40  57
ENDBRANCH  14  15
ENDBRANCH   7   9
ENDBRANCH   6   7
ENDBRANCH   5   6
ENDBRANCH   4   5
ENDBRANCH   3   4
ENDBRANCH   2   3
ENDBRANCH   1   2
BRANCH   1  65
ATOM     65  O   UNL A   1      40.557  22.424  27.735  1.00  0.00    -0.377 OA
BRANCH  65  66
ATOM     66  C   UNL A   1      39.489  22.332  26.802  1.00  0.00     0.188 C 
BRANCH  66  67
ATOM     67  C   UNL A   1      38.598  23.558  26.548  1.00  0.00     0.188 C 
BRANCH  67  68
ATOM     68  O   UNL A   1      38.308  23.867  25.192  1.00  0.00    -0.376 OA
BRANCH  68  69
ATOM     69  C   UNL A   1      36.997  23.501  24.760  1.00  0.00     0.202 C 
BRANCH  69  70
ATOM     70  C   UNL A   1      35.953  23.875  25.814  1.00  0.00     0.261 C 
BRANCH  70  71
ATOM     71  O   UNL A   1      35.021  24.818  25.249  1.00  0.00    -0.463 OA
BRANCH  71  72
ATOM     72  C   UNL A   1      33.716  24.674  25.589  1.00  0.00     0.310 C 
ATOM     73  O   UNL A   1      32.866  25.535  25.411  1.00  0.00    -0.252 OA
BRANCH  72  74
ATOM     74  C   UNL A   1      33.422  23.237  26.027  1.00  0.00     0.115 C 
ATOM     75  C   UNL A   1      32.469  23.139  27.235  1.00  0.00     0.043 C 
ATOM     76  C   UNL A   1      32.946  22.427  24.810  1.00  0.00     0.094 C 
ATOM     77  C   UNL A   1      31.029  22.901  26.914  1.00  0.00    -0.030 C 
ATOM     78  C   UNL A   1      31.479  22.758  24.471  1.00  0.00     0.041 C 
ATOM     79  C   UNL A   1      30.573  22.749  25.666  1.00  0.00    -0.030 C 
BRANCH  76  80
ATOM     80  C   UNL A   1      33.136  20.940  24.927  1.00  0.00     0.199 A 
ATOM     81  N   UNL A   1      32.205  20.060  25.246  1.00  0.00    -0.213 NA
ATOM     82  O   UNL A   1      34.346  20.383  24.577  1.00  0.00    -0.440 OA
ATOM     83  C   UNL A   1      32.824  18.851  25.113  1.00  0.00     0.111 A 
ATOM     84  C   UNL A   1      34.133  19.037  24.697  1.00  0.00     0.154 A 
ATOM     85  C   UNL A   1      32.336  17.557  25.310  1.00  0.00     0.053 A 
ATOM     86  C   UNL A   1      35.026  18.002  24.443  1.00  0.00     0.051 A 
ATOM     87  C   UNL A   1      33.207  16.492  25.067  1.00  0.00     0.043 A 
ATOM     88  C   UNL A   1      34.525  16.705  24.640  1.00  0.00     0.024 A 
ATOM     89  Cl  UNL A   1      32.630  14.880  25.261  1.00  0.00    -0.084 Cl
ENDBRANCH  76  80
ENDBRANCH  72  74
ENDBRANCH  71  72
ENDBRANCH  70  71
ENDBRANCH  69  70
ENDBRANCH  68  69
ENDBRANCH  67  68
ENDBRANCH  66  67
ENDBRANCH  65  66
ENDBRANCH   1  65
TORSDOF 21
ENDMDL
MODEL 2
REMARK VINA RESULT:     -10.6      2.831      4.378
REMARK SMILES O=C(OCCOCCOCCOCCOC(=O)[C@H]1CC=CC[C@@H]1c1nc2cc(Cl)ccc2o1)c1ccc(-c2c3nc(c(-c4c(F)cccc4F)c4ccc([nH]4)c(-c4c(F)cccc4F)c4nc(c(-c5c(F)cccc5F)c5ccc2[nH]5)C=C4)C=C3)cc1
REMARK SMILES IDX 8 1 7 2 6 3 5 4 4 5 3 6 2 7 1 8 34 9 35 10 87 11 36 12 86 13
REMARK SMILES IDX 37 14 38 15 39 16 80 17 40 18 85 19 79 20 81 21 41 22 84 23
REMARK SMILES IDX 78 24 77 25 42 27 68 28 51 29 67 30 52 31 55 32 66 33 82 34
REMARK SMILES IDX 53 35 54 36 65 38 83 39 56 40 43 41 44 42 49 43 45 44 46 45
REMARK SMILES IDX 48 46 50 47 47 48 69 49 70 50 75 51 71 52 72 53 74 54 76 55
REMARK SMILES IDX 73 56 57 57 58 58 63 59 59 60 60 61 62 62 64 63 61 64 9 65
REMARK SMILES IDX 10 66 11 67 12 68 13 69 14 70 15 71 16 72 17 73 18 74 19 75
REMARK SMILES IDX 23 76 20 77 22 78 21 79 24 80 25 81 33 82 26 83 32 84 27 85
REMARK SMILES IDX 31 86 28 87 30 88 29 89
REMARK H PARENT 81 26 55 37
REMARK Flexibility Score: inf
ROOT
ATOM      1  C   UNL A   1      40.181  21.396  25.944  1.00  0.00     0.188 C 
ENDROOT
BRANCH   1   2
ATOM      2  C   UNL A   1      40.859  20.228  26.668  1.00  0.00     0.188 C 
BRANCH   2   3
ATOM      3  O   UNL A   1      41.493  19.339  25.751  1.00  0.00    -0.376 OA
BRANCH   3   4
ATOM      4  C   UNL A   1      42.801  18.922  26.137  1.00  0.00     0.202 C 
BRANCH   4   5
ATOM      5  C   UNL A   1      43.824  19.058  25.005  1.00  0.00     0.261 C 
BRANCH   5   6
ATOM      6  O   UNL A   1      44.016  20.421  24.578  1.00  0.00    -0.460 OA
BRANCH   6   7
ATOM      7  C   UNL A   1      45.127  21.018  25.079  1.00  0.00     0.338 C 
ATOM      8  O   UNL A   1      46.239  20.513  25.112  1.00  0.00    -0.246 OA
BRANCH   7   9
ATOM      9  C   UNL A   1      44.748  22.323  25.681  1.00  0.00     0.060 A 
ATOM     10  C   UNL A   1      45.454  22.785  26.794  1.00  0.00     0.016 A 
ATOM     11  C   UNL A   1      43.579  22.981  25.258  1.00  0.00     0.016 A 
ATOM     12  C   UNL A   1      44.961  23.878  27.499  1.00  0.00     0.010 A 
ATOM     13  C   UNL A   1      43.044  24.014  26.009  1.00  0.00     0.010 A 
ATOM     14  C   UNL A   1      43.744  24.472  27.122  1.00  0.00    -0.014 A 
BRANCH  14  15
ATOM     15  C   UNL A   1      43.418  25.786  27.672  1.00  0.00     0.031 A 
ATOM     16  C   UNL A   1      44.476  26.765  27.347  1.00  0.00     0.074 A 
ATOM     17  C   UNL A   1      42.262  26.213  28.219  1.00  0.00     0.049 A 
ATOM     18  N   UNL A   1      45.291  27.341  28.162  1.00  0.00    -0.248 NA
ATOM     19  C   UNL A   1      44.738  27.038  25.921  1.00  0.00     0.031 C 
ATOM     20  C   UNL A   1      40.994  25.493  28.227  1.00  0.00     0.029 A 
ATOM     21  N   UNL A   1      41.949  27.415  28.814  1.00  0.00    -0.354 N 
ATOM     22  C   UNL A   1      45.978  28.252  27.373  1.00  0.00     0.074 A 
ATOM     23  C   UNL A   1      45.764  27.882  26.000  1.00  0.00     0.031 C 
ATOM     24  C   UNL A   1      40.018  26.300  28.688  1.00  0.00     0.029 A 
ATOM     25  C   UNL A   1      40.595  27.574  29.078  1.00  0.00     0.049 A 
ATOM     26  H   UNL A   1      42.622  28.099  29.031  1.00  0.00     0.167 HD
ATOM     27  C   UNL A   1      46.314  29.459  27.886  1.00  0.00     0.037 A 
ATOM     28  C   UNL A   1      39.928  28.649  29.562  1.00  0.00     0.037 A 
ATOM     29  C   UNL A   1      46.324  29.457  29.323  1.00  0.00     0.049 A 
ATOM     30  C   UNL A   1      40.857  29.556  30.262  1.00  0.00     0.074 A 
ATOM     31  C   UNL A   1      47.100  28.896  30.313  1.00  0.00     0.029 A 
ATOM     32  N   UNL A   1      45.148  29.847  29.900  1.00  0.00    -0.354 N 
ATOM     33  N   UNL A   1      41.419  29.272  31.401  1.00  0.00    -0.248 NA
ATOM     34  C   UNL A   1      41.408  30.717  29.568  1.00  0.00     0.031 C 
ATOM     35  C   UNL A   1      46.294  28.854  31.489  1.00  0.00     0.029 A 
ATOM     36  C   UNL A   1      45.046  29.390  31.188  1.00  0.00     0.049 A 
ATOM     37  H   UNL A   1      44.460  30.388  29.447  1.00  0.00     0.167 HD
ATOM     38  C   UNL A   1      42.641  29.905  31.334  1.00  0.00     0.074 A 
ATOM     39  C   UNL A   1      42.501  30.924  30.307  1.00  0.00     0.031 C 
ATOM     40  C   UNL A   1      43.756  29.303  31.832  1.00  0.00     0.037 A 
BRANCH  27  41
ATOM     41  C   UNL A   1      46.107  30.727  27.103  1.00  0.00     0.057 A 
ATOM     42  C   UNL A   1      44.834  31.223  26.741  1.00  0.00     0.134 A 
ATOM     43  C   UNL A   1      47.170  31.625  26.961  1.00  0.00     0.134 A 
ATOM     44  F   UNL A   1      43.708  30.536  26.977  1.00  0.00    -0.206 F 
ATOM     45  C   UNL A   1      44.640  32.501  26.219  1.00  0.00     0.040 A 
ATOM     46  C   UNL A   1      46.977  32.932  26.496  1.00  0.00     0.040 A 
ATOM     47  F   UNL A   1      48.410  31.282  27.341  1.00  0.00    -0.206 F 
ATOM     48  C   UNL A   1      45.712  33.369  26.115  1.00  0.00     0.006 A 
ENDBRANCH  27  41
BRANCH  28  49
ATOM     49  C   UNL A   1      38.501  28.976  29.369  1.00  0.00     0.057 A 
ATOM     50  C   UNL A   1      38.047  29.456  28.129  1.00  0.00     0.134 A 
ATOM     51  C   UNL A   1      37.585  29.020  30.427  1.00  0.00     0.134 A 
ATOM     52  F   UNL A   1      38.869  29.510  27.070  1.00  0.00    -0.206 F 
ATOM     53  C   UNL A   1      36.756  29.956  27.948  1.00  0.00     0.040 A 
ATOM     54  C   UNL A   1      36.285  29.514  30.257  1.00  0.00     0.040 A 
ATOM     55  F   UNL A   1      37.943  28.625  31.656  1.00  0.00    -0.206 F 
ATOM     56  C   UNL A   1      35.871  29.991  29.017  1.00  0.00     0.006 A 
ENDBRANCH  28  49
BRANCH  40  57
ATOM     57  C   UNL A   1      43.566  28.355  32.973  1.00  0.00     0.057 A 
ATOM     58  C   UNL A   1      43.546  26.984  32.694  1.00  0.00     0.134 A 
ATOM     59  C   UNL A   1      43.382  28.742  34.307  1.00  0.00     0.134 A 
ATOM     60  F   UNL A   1      43.683  26.548  31.430  1.00  0.00    -0.206 F 
ATOM     61  C   UNL A   1      43.368  26.030  33.696  1.00  0.00     0.040 A 
ATOM     62  C   UNL A   1      43.239  27.794  35.325  1.00  0.00     0.040 A 
ATOM     63  F   UNL A   1      43.310  30.036  34.652  1.00  0.00    -0.206 F 
ATOM     64  C   UNL A   1      43.228  26.434  35.020  1.00  0.00     0.006 A 
ENDBRANCH  40  57
ENDBRANCH  14  15
ENDBRANCH   7   9
ENDBRANCH   6   7
ENDBRANCH   5   6
ENDBRANCH   4   5
ENDBRANCH   3   4
ENDBRANCH   2   3
ENDBRANCH   1   2
BRANCH   1  65
ATOM     65  O   UNL A   1      38.753  21.359  25.899  1.00  0.00    -0.377 OA
BRANCH  65  66
ATOM     66  C   UNL A   1      38.079  22.609  25.913  1.00  0.00     0.188 C 
BRANCH  66  67
ATOM     67  C   UNL A   1      36.557  22.651  25.704  1.00  0.00     0.188 C 
BRANCH  67  68
ATOM     68  O   UNL A   1      35.839  21.460  25.994  1.00  0.00    -0.376 OA
BRANCH  68  69
ATOM     69  C   UNL A   1      34.507  21.421  25.477  1.00  0.00     0.202 C 
BRANCH  69  70
ATOM     70  C   UNL A   1      34.495  21.736  23.981  1.00  0.00     0.261 C 
BRANCH  70  71
ATOM     71  O   UNL A   1      33.194  22.232  23.608  1.00  0.00    -0.463 OA
BRANCH  71  72
ATOM     72  C   UNL A   1      33.158  23.326  22.808  1.00  0.00     0.310 C 
ATOM     73  O   UNL A   1      33.618  23.357  21.675  1.00  0.00    -0.252 OA
BRANCH  72  74
ATOM     74  C   UNL A   1      32.296  24.428  23.428  1.00  0.00     0.115 C 
ATOM     75  C   UNL A   1      31.501  23.971  24.668  1.00  0.00     0.043 C 
ATOM     76  C   UNL A   1      33.171  25.665  23.688  1.00  0.00     0.094 C 
ATOM     77  C   UNL A   1      32.123  24.279  25.992  1.00  0.00    -0.030 C 
ATOM     78  C   UNL A   1      34.043  25.466  24.944  1.00  0.00     0.041 C 
ATOM     79  C   UNL A   1      33.280  24.935  26.122  1.00  0.00    -0.030 C 
BRANCH  76  80
ATOM     80  C   UNL A   1      32.420  26.965  23.771  1.00  0.00     0.199 A 
ATOM     81  N   UNL A   1      31.391  27.316  23.023  1.00  0.00    -0.213 NA
ATOM     82  O   UNL A   1      32.725  27.861  24.771  1.00  0.00    -0.440 OA
ATOM     83  C   UNL A   1      30.990  28.514  23.541  1.00  0.00     0.111 A 
ATOM     84  C   UNL A   1      31.796  28.853  24.616  1.00  0.00     0.154 A 
ATOM     85  C   UNL A   1      29.944  29.359  23.164  1.00  0.00     0.053 A 
ATOM     86  C   UNL A   1      31.634  30.003  25.381  1.00  0.00     0.051 A 
ATOM     87  C   UNL A   1      29.753  30.526  23.909  1.00  0.00     0.043 A 
ATOM     88  C   UNL A   1      30.578  30.845  24.996  1.00  0.00     0.024 A 
ATOM     89  Cl  UNL A   1      28.449  31.575  23.499  1.00  0.00    -0.084 Cl
ENDBRANCH  76  80
ENDBRANCH  72  74
ENDBRANCH  71  72
ENDBRANCH  70  71
ENDBRANCH  69  70
ENDBRANCH  68  69
ENDBRANCH  67  68
ENDBRANCH  66  67
ENDBRANCH  65  66
ENDBRANCH   1  65
TORSDOF 21
ENDMDL
MODEL 3
REMARK VINA RESULT:     -10.2      3.693      7.341
REMARK SMILES O=C(OCCOCCOCCOCCOC(=O)[C@H]1CC=CC[C@@H]1c1nc2cc(Cl)ccc2o1)c1ccc(-c2c3nc(c(-c4c(F)cccc4F)c4ccc([nH]4)c(-c4c(F)cccc4F)c4nc(c(-c5c(F)cccc5F)c5ccc2[nH]5)C=C4)C=C3)cc1
REMARK SMILES IDX 8 1 7 2 6 3 5 4 4 5 3 6 2 7 1 8 34 9 35 10 87 11 36 12 86 13
REMARK SMILES IDX 37 14 38 15 39 16 80 17 40 18 85 19 79 20 81 21 41 22 84 23
REMARK SMILES IDX 78 24 77 25 42 27 68 28 51 29 67 30 52 31 55 32 66 33 82 34
REMARK SMILES IDX 53 35 54 36 65 38 83 39 56 40 43 41 44 42 49 43 45 44 46 45
REMARK SMILES IDX 48 46 50 47 47 48 69 49 70 50 75 51 71 52 72 53 74 54 76 55
REMARK SMILES IDX 73 56 57 57 58 58 63 59 59 60 60 61 62 62 64 63 61 64 9 65
REMARK SMILES IDX 10 66 11 67 12 68 13 69 14 70 15 71 16 72 17 73 18 74 19 75
REMARK SMILES IDX 23 76 20 77 22 78 21 79 24 80 25 81 33 82 26 83 32 84 27 85
REMARK SMILES IDX 31 86 28 87 30 88 29 89
REMARK H PARENT 81 26 55 37
REMARK Flexibility Score: inf
ROOT
ATOM      1  C   UNL A   1      36.078  22.730  24.791  1.00  0.00     0.188 C 
ENDROOT
BRANCH   1   2
ATOM      2  C   UNL A   1      37.276  21.870  25.204  1.00  0.00     0.188 C 
BRANCH   2   3
ATOM      3  O   UNL A   1      37.296  20.627  24.504  1.00  0.00    -0.376 OA
BRANCH   3   4
ATOM      4  C   UNL A   1      38.166  19.645  25.064  1.00  0.00     0.202 C 
BRANCH   4   5
ATOM      5  C   UNL A   1      39.465  20.247  25.609  1.00  0.00     0.261 C 
BRANCH   5   6
ATOM      6  O   UNL A   1      40.499  19.266  25.817  1.00  0.00    -0.460 OA
BRANCH   6   7
ATOM      7  C   UNL A   1      41.763  19.740  25.682  1.00  0.00     0.338 C 
ATOM      8  O   UNL A   1      42.675  19.153  25.120  1.00  0.00    -0.246 OA
BRANCH   7   9
ATOM      9  C   UNL A   1      41.884  21.022  26.425  1.00  0.00     0.060 A 
ATOM     10  C   UNL A   1      42.382  22.145  25.759  1.00  0.00     0.016 A 
ATOM     11  C   UNL A   1      41.686  21.050  27.817  1.00  0.00     0.016 A 
ATOM     12  C   UNL A   1      42.715  23.274  26.500  1.00  0.00     0.010 A 
ATOM     13  C   UNL A   1      42.097  22.143  28.562  1.00  0.00     0.010 A 
ATOM     14  C   UNL A   1      42.598  23.261  27.901  1.00  0.00    -0.014 A 
BRANCH  14  15
ATOM     15  C   UNL A   1      42.652  24.537  28.610  1.00  0.00     0.031 A 
ATOM     16  C   UNL A   1      41.544  25.417  28.186  1.00  0.00     0.074 A 
ATOM     17  C   UNL A   1      43.416  24.890  29.664  1.00  0.00     0.049 A 
ATOM     18  N   UNL A   1      41.625  26.519  27.521  1.00  0.00    -0.248 NA
ATOM     19  C   UNL A   1      40.167  24.944  28.424  1.00  0.00     0.031 C 
ATOM     20  C   UNL A   1      44.253  23.998  30.460  1.00  0.00     0.029 A 
ATOM     21  N   UNL A   1      43.546  26.103  30.304  1.00  0.00    -0.354 N 
ATOM     22  C   UNL A   1      40.326  27.005  27.505  1.00  0.00     0.074 A 
ATOM     23  C   UNL A   1      39.454  25.921  27.870  1.00  0.00     0.031 C 
ATOM     24  C   UNL A   1      44.716  24.657  31.540  1.00  0.00     0.029 A 
ATOM     25  C   UNL A   1      44.272  26.039  31.485  1.00  0.00     0.049 A 
ATOM     26  H   UNL A   1      43.159  26.938  29.955  1.00  0.00     0.167 HD
ATOM     27  C   UNL A   1      40.112  28.339  27.601  1.00  0.00     0.037 A 
ATOM     28  C   UNL A   1      44.514  27.002  32.405  1.00  0.00     0.037 A 
ATOM     29  C   UNL A   1      41.272  29.105  27.240  1.00  0.00     0.049 A 
ATOM     30  C   UNL A   1      44.320  28.339  31.812  1.00  0.00     0.074 A 
ATOM     31  C   UNL A   1      41.970  29.369  26.082  1.00  0.00     0.029 A 
ATOM     32  N   UNL A   1      42.083  29.439  28.288  1.00  0.00    -0.354 N 
ATOM     33  N   UNL A   1      45.118  28.854  30.921  1.00  0.00    -0.248 NA
ATOM     34  C   UNL A   1      43.055  29.045  31.997  1.00  0.00     0.031 C 
ATOM     35  C   UNL A   1      43.283  29.764  26.477  1.00  0.00     0.029 A 
ATOM     36  C   UNL A   1      43.354  29.730  27.866  1.00  0.00     0.049 A 
ATOM     37  H   UNL A   1      41.791  29.466  29.228  1.00  0.00     0.167 HD
ATOM     38  C   UNL A   1      44.288  29.632  30.144  1.00  0.00     0.074 A 
ATOM     39  C   UNL A   1      43.105  29.875  30.951  1.00  0.00     0.031 C 
ATOM     40  C   UNL A   1      44.460  29.684  28.794  1.00  0.00     0.037 A 
BRANCH  27  41
ATOM     41  C   UNL A   1      39.054  28.897  28.514  1.00  0.00     0.057 A 
ATOM     42  C   UNL A   1      37.869  29.513  28.050  1.00  0.00     0.134 A 
ATOM     43  C   UNL A   1      39.068  28.554  29.869  1.00  0.00     0.134 A 
ATOM     44  F   UNL A   1      37.648  29.746  26.749  1.00  0.00    -0.206 F 
ATOM     45  C   UNL A   1      36.797  29.820  28.888  1.00  0.00     0.040 A 
ATOM     46  C   UNL A   1      37.974  28.802  30.707  1.00  0.00     0.040 A 
ATOM     47  F   UNL A   1      40.115  27.903  30.398  1.00  0.00    -0.206 F 
ATOM     48  C   UNL A   1      36.839  29.444  30.219  1.00  0.00     0.006 A 
ENDBRANCH  27  41
BRANCH  28  49
ATOM     49  C   UNL A   1      44.834  26.813  33.834  1.00  0.00     0.057 A 
ATOM     50  C   UNL A   1      46.166  26.888  34.277  1.00  0.00     0.134 A 
ATOM     51  C   UNL A   1      43.892  26.362  34.767  1.00  0.00     0.134 A 
ATOM     52  F   UNL A   1      47.149  27.252  33.439  1.00  0.00    -0.206 F 
ATOM     53  C   UNL A   1      46.544  26.533  35.573  1.00  0.00     0.040 A 
ATOM     54  C   UNL A   1      44.258  26.008  36.072  1.00  0.00     0.040 A 
ATOM     55  F   UNL A   1      42.606  26.215  34.422  1.00  0.00    -0.206 F 
ATOM     56  C   UNL A   1      45.589  26.084  36.475  1.00  0.00     0.006 A 
ENDBRANCH  28  49
BRANCH  40  57
ATOM     57  C   UNL A   1      45.847  29.478  28.276  1.00  0.00     0.057 A 
ATOM     58  C   UNL A   1      46.219  28.186  27.887  1.00  0.00     0.134 A 
ATOM     59  C   UNL A   1      46.816  30.484  28.172  1.00  0.00     0.134 A 
ATOM     60  F   UNL A   1      45.347  27.169  27.994  1.00  0.00    -0.206 F 
ATOM     61  C   UNL A   1      47.494  27.902  27.398  1.00  0.00     0.040 A 
ATOM     62  C   UNL A   1      48.086  30.219  27.649  1.00  0.00     0.040 A 
ATOM     63  F   UNL A   1      46.570  31.733  28.594  1.00  0.00    -0.206 F 
ATOM     64  C   UNL A   1      48.429  28.924  27.264  1.00  0.00     0.006 A 
ENDBRANCH  40  57
ENDBRANCH  14  15
ENDBRANCH   7   9
ENDBRANCH   6   7
ENDBRANCH   5   6
ENDBRANCH   4   5
ENDBRANCH   3   4
ENDBRANCH   2   3
ENDBRANCH   1   2
BRANCH   1  65
ATOM     65  O   UNL A   1      35.081  22.937  25.794  1.00  0.00    -0.377 OA
BRANCH  65  66
ATOM     66  C   UNL A   1      34.541  21.777  26.409  1.00  0.00     0.188 C 
BRANCH  66  67
ATOM     67  C   UNL A   1      33.712  20.790  25.570  1.00  0.00     0.188 C 
BRANCH  67  68
ATOM     68  O   UNL A   1      32.496  21.281  25.025  1.00  0.00    -0.376 OA
BRANCH  68  69
ATOM     69  C   UNL A   1      32.307  21.008  23.635  1.00  0.00     0.202 C 
BRANCH  69  70
ATOM     70  C   UNL A   1      32.590  22.253  22.793  1.00  0.00     0.261 C 
BRANCH  70  71
ATOM     71  O   UNL A   1      32.421  23.430  23.609  1.00  0.00    -0.463 OA
BRANCH  71  72
ATOM     72  C   UNL A   1      32.795  24.615  23.065  1.00  0.00     0.310 C 
ATOM     73  O   UNL A   1      33.867  24.799  22.505  1.00  0.00    -0.252 OA
BRANCH  72  74
ATOM     74  C   UNL A   1      31.632  25.608  23.067  1.00  0.00     0.115 C 
ATOM     75  C   UNL A   1      30.337  25.048  23.689  1.00  0.00     0.043 C 
ATOM     76  C   UNL A   1      32.095  26.925  23.711  1.00  0.00     0.094 C 
ATOM     77  C   UNL A   1      30.098  25.394  25.123  1.00  0.00    -0.030 C 
ATOM     78  C   UNL A   1      32.150  26.795  25.246  1.00  0.00     0.041 C 
ATOM     79  C   UNL A   1      30.924  26.166  25.837  1.00  0.00    -0.030 C 
BRANCH  76  80
ATOM     80  C   UNL A   1      31.298  28.137  23.315  1.00  0.00     0.199 A 
ATOM     81  N   UNL A   1      30.872  28.424  22.099  1.00  0.00    -0.213 NA
ATOM     82  O   UNL A   1      30.856  29.004  24.289  1.00  0.00    -0.440 OA
ATOM     83  C   UNL A   1      30.113  29.546  22.263  1.00  0.00     0.111 A 
ATOM     84  C   UNL A   1      30.090  29.906  23.601  1.00  0.00     0.154 A 
ATOM     85  C   UNL A   1      29.400  30.301  21.328  1.00  0.00     0.053 A 
ATOM     86  C   UNL A   1      29.383  30.992  24.105  1.00  0.00     0.051 A 
ATOM     87  C   UNL A   1      28.680  31.403  21.800  1.00  0.00     0.043 A 
ATOM     88  C   UNL A   1      28.667  31.744  23.159  1.00  0.00     0.024 A 
ATOM     89  Cl  UNL A   1      27.757  32.336  20.684  1.00  0.00    -0.084 Cl
ENDBRANCH  76  80
ENDBRANCH  72  74
ENDBRANCH  71  72
ENDBRANCH  70  71
ENDBRANCH  69  70
ENDBRANCH  68  69
ENDBRANCH  67  68
ENDBRANCH  66  67
ENDBRANCH  65  66
ENDBRANCH   1  65
TORSDOF 21
ENDMDL
