MODEL 1
REMARK VINA RESULT:     -10.2      0.000      0.000
REMARK SMILES O=C(OCCOCCOCCOCCOC(=O)[C@H]1[C@@H](c2ccccc2)[C@@H](C(=O)N2CCCCC2)[C@@H]1c1ccccc1)c1ccc(-c2c3nc(c(-c4c(F)cccc4F)c4ccc([nH]4)c(-c4c(F)cccc4F)c4nc(c(-c5c(F)cccc5F)c5ccc2[nH]5)C=C4)C=C3)cc1
REMARK SMILES IDX 8 1 7 2 6 3 5 4 4 5 3 6 2 7 1 8 42 9 43 10 95 11 44 12 94 13
REMARK SMILES IDX 45 14 46 15 47 16 88 17 48 18 93 19 87 20 89 21 49 22 92 23
REMARK SMILES IDX 86 24 85 25 50 27 76 28 59 29 75 30 60 31 63 32 74 33 90 34
REMARK SMILES IDX 61 35 62 36 73 38 91 39 64 40 51 41 52 42 57 43 53 44 54 45
REMARK SMILES IDX 56 46 58 47 55 48 77 49 78 50 83 51 79 52 80 53 82 54 84 55
REMARK SMILES IDX 81 56 65 57 66 58 71 59 67 60 68 61 70 62 72 63 69 64 9 65
REMARK SMILES IDX 10 66 11 67 12 68 13 69 14 70 15 71 16 72 17 73 18 74 19 75
REMARK SMILES IDX 35 76 26 77 20 78 21 79 25 80 22 81 24 82 23 83 36 84 37 85
REMARK SMILES IDX 41 86 38 87 40 88 39 89 27 90 28 91 29 92 30 93 34 94 31 95
REMARK SMILES IDX 33 96 32 97
REMARK H PARENT 89 26 63 37
REMARK Flexibility Score: inf
ROOT
ATOM      1  C   UNL A   1      39.075  19.612  25.080  1.00  0.00     0.188 C 
ENDROOT
BRANCH   1   2
ATOM      2  C   UNL A   1      40.177  19.391  26.101  1.00  0.00     0.188 C 
BRANCH   2   3
ATOM      3  O   UNL A   1      40.586  20.634  26.677  1.00  0.00    -0.376 OA
BRANCH   3   4
ATOM      4  C   UNL A   1      41.991  20.779  26.862  1.00  0.00     0.202 C 
BRANCH   4   5
ATOM      5  C   UNL A   1      42.734  21.441  25.693  1.00  0.00     0.261 C 
BRANCH   5   6
ATOM      6  O   UNL A   1      43.523  22.571  26.131  1.00  0.00    -0.460 OA
BRANCH   6   7
ATOM      7  C   UNL A   1      43.309  23.881  25.834  1.00  0.00     0.338 C 
ATOM      8  O   UNL A   1      43.389  24.269  24.674  1.00  0.00    -0.246 OA
BRANCH   7   9
ATOM      9  C   UNL A   1      43.035  24.886  26.903  1.00  0.00     0.060 A 
ATOM     10  C   UNL A   1      42.313  24.574  28.049  1.00  0.00     0.016 A 
ATOM     11  C   UNL A   1      43.586  26.167  26.808  1.00  0.00     0.016 A 
ATOM     12  C   UNL A   1      42.050  25.487  29.039  1.00  0.00     0.010 A 
ATOM     13  C   UNL A   1      43.354  27.110  27.819  1.00  0.00     0.010 A 
ATOM     14  C   UNL A   1      42.565  26.765  28.927  1.00  0.00    -0.014 A 
BRANCH  14  15
ATOM     15  C   UNL A   1      42.085  27.731  29.919  1.00  0.00     0.031 A 
ATOM     16  C   UNL A   1      42.937  27.959  31.124  1.00  0.00     0.074 A 
ATOM     17  C   UNL A   1      41.045  28.530  29.622  1.00  0.00     0.049 A 
ATOM     18  N   UNL A   1      42.678  28.647  32.198  1.00  0.00    -0.248 NA
ATOM     19  C   UNL A   1      44.277  27.340  31.108  1.00  0.00     0.031 C 
ATOM     20  C   UNL A   1      40.307  28.525  28.353  1.00  0.00     0.029 A 
ATOM     21  N   UNL A   1      40.455  29.529  30.344  1.00  0.00    -0.354 N 
ATOM     22  C   UNL A   1      43.785  28.482  33.016  1.00  0.00     0.074 A 
ATOM     23  C   UNL A   1      44.744  27.674  32.301  1.00  0.00     0.031 C 
ATOM     24  C   UNL A   1      39.369  29.483  28.388  1.00  0.00     0.029 A 
ATOM     25  C   UNL A   1      39.372  30.089  29.712  1.00  0.00     0.049 A 
ATOM     26  H   UNL A   1      40.774  29.817  31.229  1.00  0.00     0.167 HD
ATOM     27  C   UNL A   1      43.948  28.943  34.275  1.00  0.00     0.037 A 
ATOM     28  C   UNL A   1      38.448  30.939  30.197  1.00  0.00     0.037 A 
ATOM     29  C   UNL A   1      42.968  29.766  34.927  1.00  0.00     0.049 A 
ATOM     30  C   UNL A   1      38.589  31.353  31.637  1.00  0.00     0.074 A 
ATOM     31  C   UNL A   1      42.948  30.236  36.223  1.00  0.00     0.029 A 
ATOM     32  N   UNL A   1      41.825  30.246  34.299  1.00  0.00    -0.354 N 
ATOM     33  N   UNL A   1      39.561  31.085  32.480  1.00  0.00    -0.248 NA
ATOM     34  C   UNL A   1      37.493  32.141  32.209  1.00  0.00     0.031 C 
ATOM     35  C   UNL A   1      41.769  30.973  36.390  1.00  0.00     0.029 A 
ATOM     36  C   UNL A   1      41.075  30.990  35.187  1.00  0.00     0.049 A 
ATOM     37  H   UNL A   1      41.585  30.080  33.359  1.00  0.00     0.167 HD
ATOM     38  C   UNL A   1      39.190  31.658  33.686  1.00  0.00     0.074 A 
ATOM     39  C   UNL A   1      37.920  32.323  33.452  1.00  0.00     0.031 C 
ATOM     40  C   UNL A   1      39.820  31.630  34.886  1.00  0.00     0.037 A 
BRANCH  27  41
ATOM     41  C   UNL A   1      45.149  28.460  35.025  1.00  0.00     0.057 A 
ATOM     42  C   UNL A   1      45.150  27.275  35.769  1.00  0.00     0.134 A 
ATOM     43  C   UNL A   1      46.314  29.238  35.042  1.00  0.00     0.134 A 
ATOM     44  F   UNL A   1      44.052  26.508  35.829  1.00  0.00    -0.206 F 
ATOM     45  C   UNL A   1      46.266  26.888  36.517  1.00  0.00     0.040 A 
ATOM     46  C   UNL A   1      47.440  28.853  35.771  1.00  0.00     0.040 A 
ATOM     47  F   UNL A   1      46.369  30.395  34.366  1.00  0.00    -0.206 F 
ATOM     48  C   UNL A   1      47.416  27.676  36.516  1.00  0.00     0.006 A 
ENDBRANCH  27  41
BRANCH  28  49
ATOM     49  C   UNL A   1      37.268  31.327  29.381  1.00  0.00     0.057 A 
ATOM     50  C   UNL A   1      36.199  30.450  29.169  1.00  0.00     0.134 A 
ATOM     51  C   UNL A   1      37.193  32.584  28.761  1.00  0.00     0.134 A 
ATOM     52  F   UNL A   1      36.214  29.223  29.711  1.00  0.00    -0.206 F 
ATOM     53  C   UNL A   1      35.112  30.799  28.363  1.00  0.00     0.040 A 
ATOM     54  C   UNL A   1      36.100  32.958  27.978  1.00  0.00     0.040 A 
ATOM     55  F   UNL A   1      38.185  33.475  28.911  1.00  0.00    -0.206 F 
ATOM     56  C   UNL A   1      35.058  32.060  27.770  1.00  0.00     0.006 A 
ENDBRANCH  28  49
BRANCH  40  57
ATOM     57  C   UNL A   1      39.137  32.336  36.011  1.00  0.00     0.057 A 
ATOM     58  C   UNL A   1      38.234  31.667  36.846  1.00  0.00     0.134 A 
ATOM     59  C   UNL A   1      39.431  33.673  36.295  1.00  0.00     0.134 A 
ATOM     60  F   UNL A   1      37.906  30.388  36.608  1.00  0.00    -0.206 F 
ATOM     61  C   UNL A   1      37.636  32.314  37.926  1.00  0.00     0.040 A 
ATOM     62  C   UNL A   1      38.857  34.323  37.385  1.00  0.00     0.040 A 
ATOM     63  F   UNL A   1      40.295  34.357  35.530  1.00  0.00    -0.206 F 
ATOM     64  C   UNL A   1      37.955  33.643  38.202  1.00  0.00     0.006 A 
ENDBRANCH  40  57
ENDBRANCH  14  15
ENDBRANCH   7   9
ENDBRANCH   6   7
ENDBRANCH   5   6
ENDBRANCH   4   5
ENDBRANCH   3   4
ENDBRANCH   2   3
ENDBRANCH   1   2
BRANCH   1  65
ATOM     65  O   UNL A   1      37.985  18.730  25.316  1.00  0.00    -0.377 OA
BRANCH  65  66
ATOM     66  C   UNL A   1      36.713  19.195  24.897  1.00  0.00     0.188 C 
BRANCH  66  67
ATOM     67  C   UNL A   1      35.656  18.095  24.778  1.00  0.00     0.188 C 
BRANCH  67  68
ATOM     68  O   UNL A   1      34.320  18.576  24.598  1.00  0.00    -0.376 OA
BRANCH  68  69
ATOM     69  C   UNL A   1      34.164  19.984  24.742  1.00  0.00     0.202 C 
BRANCH  69  70
ATOM     70  C   UNL A   1      32.997  20.591  23.927  1.00  0.00     0.261 C 
BRANCH  70  71
ATOM     71  O   UNL A   1      32.568  21.953  24.181  1.00  0.00    -0.463 OA
BRANCH  71  72
ATOM     72  C   UNL A   1      32.220  22.707  23.107  1.00  0.00     0.310 C 
ATOM     73  O   UNL A   1      31.393  22.315  22.276  1.00  0.00    -0.252 OA
BRANCH  72  74
ATOM     74  C   UNL A   1      32.939  24.037  22.924  1.00  0.00     0.116 C 
ATOM     75  C   UNL A   1      32.429  25.427  22.494  1.00  0.00     0.047 C 
ATOM     76  C   UNL A   1      33.692  24.713  24.117  1.00  0.00     0.047 C 
ATOM     77  C   UNL A   1      33.728  25.991  23.219  1.00  0.00     0.095 C 
BRANCH  75  78
ATOM     78  C   UNL A   1      31.082  26.211  22.859  1.00  0.00    -0.043 A 
ATOM     79  C   UNL A   1      30.193  25.885  23.898  1.00  0.00     0.004 A 
ATOM     80  C   UNL A   1      30.785  27.409  22.155  1.00  0.00     0.004 A 
ATOM     81  C   UNL A   1      29.131  26.731  24.264  1.00  0.00     0.000 A 
ATOM     82  C   UNL A   1      29.721  28.253  22.501  1.00  0.00     0.000 A 
ATOM     83  C   UNL A   1      28.898  27.919  23.571  1.00  0.00     0.000 A 
ENDBRANCH  75  78
BRANCH  76  84
ATOM     84  C   UNL A   1      35.119  24.074  24.510  1.00  0.00    -0.043 A 
ATOM     85  C   UNL A   1      35.809  23.225  23.625  1.00  0.00     0.004 A 
ATOM     86  C   UNL A   1      35.731  24.274  25.768  1.00  0.00     0.004 A 
ATOM     87  C   UNL A   1      37.013  22.605  23.978  1.00  0.00     0.000 A 
ATOM     88  C   UNL A   1      36.930  23.655  26.132  1.00  0.00     0.000 A 
ATOM     89  C   UNL A   1      37.570  22.816  25.235  1.00  0.00     0.000 A 
ENDBRANCH  76  84
BRANCH  77  90
ATOM     90  C   UNL A   1      33.724  27.482  23.590  1.00  0.00     0.226 C 
ATOM     91  O   UNL A   1      34.089  28.287  22.709  1.00  0.00    -0.275 OA
ATOM     92  N   UNL A   1      33.226  28.005  24.799  1.00  0.00    -0.342 N 
ATOM     93  C   UNL A   1      32.444  29.238  24.646  1.00  0.00     0.119 C 
ATOM     94  C   UNL A   1      33.065  27.248  26.033  1.00  0.00     0.119 C 
ATOM     95  C   UNL A   1      32.247  30.067  25.902  1.00  0.00     0.022 C 
ATOM     96  C   UNL A   1      32.884  28.114  27.279  1.00  0.00     0.022 C 
ATOM     97  C   UNL A   1      31.828  29.191  27.069  1.00  0.00     0.004 C 
ENDBRANCH  77  90
ENDBRANCH  72  74
ENDBRANCH  71  72
ENDBRANCH  70  71
ENDBRANCH  69  70
ENDBRANCH  68  69
ENDBRANCH  67  68
ENDBRANCH  66  67
ENDBRANCH  65  66
ENDBRANCH   1  65
TORSDOF 23
ENDMDL
MODEL 2
REMARK VINA RESULT:     -10.2      4.697     10.475
REMARK SMILES O=C(OCCOCCOCCOCCOC(=O)[C@H]1[C@@H](c2ccccc2)[C@@H](C(=O)N2CCCCC2)[C@@H]1c1ccccc1)c1ccc(-c2c3nc(c(-c4c(F)cccc4F)c4ccc([nH]4)c(-c4c(F)cccc4F)c4nc(c(-c5c(F)cccc5F)c5ccc2[nH]5)C=C4)C=C3)cc1
REMARK SMILES IDX 8 1 7 2 6 3 5 4 4 5 3 6 2 7 1 8 42 9 43 10 95 11 44 12 94 13
REMARK SMILES IDX 45 14 46 15 47 16 88 17 48 18 93 19 87 20 89 21 49 22 92 23
REMARK SMILES IDX 86 24 85 25 50 27 76 28 59 29 75 30 60 31 63 32 74 33 90 34
REMARK SMILES IDX 61 35 62 36 73 38 91 39 64 40 51 41 52 42 57 43 53 44 54 45
REMARK SMILES IDX 56 46 58 47 55 48 77 49 78 50 83 51 79 52 80 53 82 54 84 55
REMARK SMILES IDX 81 56 65 57 66 58 71 59 67 60 68 61 70 62 72 63 69 64 9 65
REMARK SMILES IDX 10 66 11 67 12 68 13 69 14 70 15 71 16 72 17 73 18 74 19 75
REMARK SMILES IDX 35 76 26 77 20 78 21 79 25 80 22 81 24 82 23 83 36 84 37 85
REMARK SMILES IDX 41 86 38 87 40 88 39 89 27 90 28 91 29 92 30 93 34 94 31 95
REMARK SMILES IDX 33 96 32 97
REMARK H PARENT 89 26 63 37
REMARK Flexibility Score: inf
ROOT
ATOM      1  C   UNL A   1      34.635  33.579  30.219  1.00  0.00     0.188 C 
ENDROOT
BRANCH   1   2
ATOM      2  C   UNL A   1      36.003  32.979  30.494  1.00  0.00     0.188 C 
BRANCH   2   3
ATOM      3  O   UNL A   1      36.541  33.491  31.715  1.00  0.00    -0.376 OA
BRANCH   3   4
ATOM      4  C   UNL A   1      37.938  33.275  31.895  1.00  0.00     0.202 C 
BRANCH   4   5
ATOM      5  C   UNL A   1      38.307  32.373  33.082  1.00  0.00     0.261 C 
BRANCH   5   6
ATOM      6  O   UNL A   1      37.481  31.187  33.132  1.00  0.00    -0.460 OA
BRANCH   6   7
ATOM      7  C   UNL A   1      37.351  30.242  32.164  1.00  0.00     0.338 C 
ATOM      8  O   UNL A   1      36.263  29.715  31.961  1.00  0.00    -0.246 OA
BRANCH   7   9
ATOM      9  C   UNL A   1      38.526  29.776  31.370  1.00  0.00     0.060 A 
ATOM     10  C   UNL A   1      39.624  29.161  31.959  1.00  0.00     0.016 A 
ATOM     11  C   UNL A   1      38.504  29.875  29.975  1.00  0.00     0.016 A 
ATOM     12  C   UNL A   1      40.714  28.730  31.243  1.00  0.00     0.010 A 
ATOM     13  C   UNL A   1      39.593  29.419  29.220  1.00  0.00     0.010 A 
ATOM     14  C   UNL A   1      40.707  28.862  29.867  1.00  0.00    -0.014 A 
BRANCH  14  15
ATOM     15  C   UNL A   1      41.974  28.559  29.196  1.00  0.00     0.031 A 
ATOM     16  C   UNL A   1      42.119  27.206  28.581  1.00  0.00     0.074 A 
ATOM     17  C   UNL A   1      42.853  29.548  28.955  1.00  0.00     0.049 A 
ATOM     18  N   UNL A   1      43.172  26.648  28.057  1.00  0.00    -0.248 NA
ATOM     19  C   UNL A   1      40.903  26.372  28.535  1.00  0.00     0.031 C 
ATOM     20  C   UNL A   1      42.665  30.957  29.320  1.00  0.00     0.029 A 
ATOM     21  N   UNL A   1      44.057  29.530  28.310  1.00  0.00    -0.354 N 
ATOM     22  C   UNL A   1      42.768  25.374  27.690  1.00  0.00     0.074 A 
ATOM     23  C   UNL A   1      41.363  25.252  28.000  1.00  0.00     0.031 C 
ATOM     24  C   UNL A   1      43.717  31.667  28.883  1.00  0.00     0.029 A 
ATOM     25  C   UNL A   1      44.691  30.750  28.309  1.00  0.00     0.049 A 
ATOM     26  H   UNL A   1      44.433  28.725  27.888  1.00  0.00     0.167 HD
ATOM     27  C   UNL A   1      43.535  24.389  27.175  1.00  0.00     0.037 A 
ATOM     28  C   UNL A   1      45.952  31.053  27.952  1.00  0.00     0.037 A 
ATOM     29  C   UNL A   1      44.924  24.577  26.863  1.00  0.00     0.049 A 
ATOM     30  C   UNL A   1      46.823  29.919  27.485  1.00  0.00     0.074 A 
ATOM     31  C   UNL A   1      45.851  23.657  26.422  1.00  0.00     0.029 A 
ATOM     32  N   UNL A   1      45.576  25.801  26.961  1.00  0.00    -0.354 N 
ATOM     33  N   UNL A   1      46.496  28.664  27.269  1.00  0.00    -0.248 NA
ATOM     34  C   UNL A   1      48.240  30.221  27.259  1.00  0.00     0.031 C 
ATOM     35  C   UNL A   1      47.077  24.320  26.287  1.00  0.00     0.029 A 
ATOM     36  C   UNL A   1      46.903  25.659  26.611  1.00  0.00     0.049 A 
ATOM     37  H   UNL A   1      45.153  26.646  27.239  1.00  0.00     0.167 HD
ATOM     38  C   UNL A   1      47.667  28.024  26.894  1.00  0.00     0.074 A 
ATOM     39  C   UNL A   1      48.704  29.040  26.875  1.00  0.00     0.031 C 
ATOM     40  C   UNL A   1      47.882  26.716  26.609  1.00  0.00     0.037 A 
BRANCH  27  41
ATOM     41  C   UNL A   1      42.910  23.036  27.051  1.00  0.00     0.057 A 
ATOM     42  C   UNL A   1      42.494  22.505  25.825  1.00  0.00     0.134 A 
ATOM     43  C   UNL A   1      42.672  22.273  28.201  1.00  0.00     0.134 A 
ATOM     44  F   UNL A   1      42.655  23.203  24.691  1.00  0.00    -0.206 F 
ATOM     45  C   UNL A   1      41.849  21.267  25.750  1.00  0.00     0.040 A 
ATOM     46  C   UNL A   1      42.043  21.029  28.137  1.00  0.00     0.040 A 
ATOM     47  F   UNL A   1      43.027  22.736  29.409  1.00  0.00    -0.206 F 
ATOM     48  C   UNL A   1      41.625  20.525  26.909  1.00  0.00     0.006 A 
ENDBRANCH  27  41
BRANCH  28  49
ATOM     49  C   UNL A   1      46.491  32.425  28.153  1.00  0.00     0.057 A 
ATOM     50  C   UNL A   1      47.071  32.816  29.364  1.00  0.00     0.134 A 
ATOM     51  C   UNL A   1      46.409  33.394  27.142  1.00  0.00     0.134 A 
ATOM     52  F   UNL A   1      47.160  31.949  30.383  1.00  0.00    -0.206 F 
ATOM     53  C   UNL A   1      47.534  34.120  29.568  1.00  0.00     0.040 A 
ATOM     54  C   UNL A   1      46.896  34.690  27.320  1.00  0.00     0.040 A 
ATOM     55  F   UNL A   1      45.858  33.094  25.957  1.00  0.00    -0.206 F 
ATOM     56  C   UNL A   1      47.452  35.059  28.540  1.00  0.00     0.006 A 
ENDBRANCH  28  49
BRANCH  40  57
ATOM     57  C   UNL A   1      49.283  26.335  26.258  1.00  0.00     0.057 A 
ATOM     58  C   UNL A   1      49.772  26.488  24.955  1.00  0.00     0.134 A 
ATOM     59  C   UNL A   1      50.162  25.871  27.242  1.00  0.00     0.134 A 
ATOM     60  F   UNL A   1      48.966  26.916  23.971  1.00  0.00    -0.206 F 
ATOM     61  C   UNL A   1      51.095  26.180  24.641  1.00  0.00     0.040 A 
ATOM     62  C   UNL A   1      51.492  25.581  26.944  1.00  0.00     0.040 A 
ATOM     63  F   UNL A   1      49.746  25.713  28.507  1.00  0.00    -0.206 F 
ATOM     64  C   UNL A   1      51.959  25.734  25.639  1.00  0.00     0.006 A 
ENDBRANCH  40  57
ENDBRANCH  14  15
ENDBRANCH   7   9
ENDBRANCH   6   7
ENDBRANCH   5   6
ENDBRANCH   4   5
ENDBRANCH   3   4
ENDBRANCH   2   3
ENDBRANCH   1   2
BRANCH   1  65
ATOM     65  O   UNL A   1      34.334  33.530  28.830  1.00  0.00    -0.377 OA
BRANCH  65  66
ATOM     66  C   UNL A   1      33.321  34.418  28.386  1.00  0.00     0.188 C 
BRANCH  66  67
ATOM     67  C   UNL A   1      32.419  33.839  27.294  1.00  0.00     0.188 C 
BRANCH  67  68
ATOM     68  O   UNL A   1      31.822  32.582  27.626  1.00  0.00    -0.376 OA
BRANCH  68  69
ATOM     69  C   UNL A   1      31.740  31.652  26.551  1.00  0.00     0.202 C 
BRANCH  69  70
ATOM     70  C   UNL A   1      32.682  30.431  26.679  1.00  0.00     0.261 C 
BRANCH  70  71
ATOM     71  O   UNL A   1      32.309  29.316  27.528  1.00  0.00    -0.463 OA
BRANCH  71  72
ATOM     72  C   UNL A   1      31.791  28.217  26.921  1.00  0.00     0.310 C 
ATOM     73  O   UNL A   1      31.028  27.444  27.513  1.00  0.00    -0.252 OA
BRANCH  72  74
ATOM     74  C   UNL A   1      32.241  27.929  25.495  1.00  0.00     0.116 C 
ATOM     75  C   UNL A   1      33.357  27.025  24.935  1.00  0.00     0.047 C 
ATOM     76  C   UNL A   1      31.253  27.308  24.453  1.00  0.00     0.047 C 
ATOM     77  C   UNL A   1      32.523  27.043  23.581  1.00  0.00     0.095 C 
BRANCH  75  78
ATOM     78  C   UNL A   1      33.852  25.569  25.381  1.00  0.00    -0.043 A 
ATOM     79  C   UNL A   1      35.128  25.027  25.154  1.00  0.00     0.004 A 
ATOM     80  C   UNL A   1      32.980  24.770  26.169  1.00  0.00     0.004 A 
ATOM     81  C   UNL A   1      35.538  23.813  25.736  1.00  0.00     0.000 A 
ATOM     82  C   UNL A   1      33.372  23.554  26.743  1.00  0.00     0.000 A 
ATOM     83  C   UNL A   1      34.663  23.080  26.537  1.00  0.00     0.000 A 
ENDBRANCH  75  78
BRANCH  76  84
ATOM     84  C   UNL A   1      30.155  28.310  23.831  1.00  0.00    -0.043 A 
ATOM     85  C   UNL A   1      30.317  29.706  23.894  1.00  0.00     0.004 A 
ATOM     86  C   UNL A   1      28.950  27.861  23.243  1.00  0.00     0.004 A 
ATOM     87  C   UNL A   1      29.340  30.590  23.424  1.00  0.00     0.000 A 
ATOM     88  C   UNL A   1      27.965  28.735  22.776  1.00  0.00     0.000 A 
ATOM     89  C   UNL A   1      28.160  30.104  22.870  1.00  0.00     0.000 A 
ENDBRANCH  76  84
BRANCH  77  90
ATOM     90  C   UNL A   1      32.830  25.936  22.561  1.00  0.00     0.226 C 
ATOM     91  O   UNL A   1      33.608  26.224  21.629  1.00  0.00    -0.275 OA
ATOM     92  N   UNL A   1      32.398  24.601  22.674  1.00  0.00    -0.342 N 
ATOM     93  C   UNL A   1      33.414  23.605  22.311  1.00  0.00     0.119 C 
ATOM     94  C   UNL A   1      31.265  24.154  23.474  1.00  0.00     0.119 C 
ATOM     95  C   UNL A   1      32.904  22.209  22.003  1.00  0.00     0.022 C 
ATOM     96  C   UNL A   1      30.769  22.752  23.127  1.00  0.00     0.022 C 
ATOM     97  C   UNL A   1      31.913  21.750  23.058  1.00  0.00     0.004 C 
ENDBRANCH  77  90
ENDBRANCH  72  74
ENDBRANCH  71  72
ENDBRANCH  70  71
ENDBRANCH  69  70
ENDBRANCH  68  69
ENDBRANCH  67  68
ENDBRANCH  66  67
ENDBRANCH  65  66
ENDBRANCH   1  65
TORSDOF 23
ENDMDL
MODEL 3
REMARK VINA RESULT:     -10.0      4.810     10.273
REMARK SMILES O=C(OCCOCCOCCOCCOC(=O)[C@H]1[C@@H](c2ccccc2)[C@@H](C(=O)N2CCCCC2)[C@@H]1c1ccccc1)c1ccc(-c2c3nc(c(-c4c(F)cccc4F)c4ccc([nH]4)c(-c4c(F)cccc4F)c4nc(c(-c5c(F)cccc5F)c5ccc2[nH]5)C=C4)C=C3)cc1
REMARK SMILES IDX 8 1 7 2 6 3 5 4 4 5 3 6 2 7 1 8 42 9 43 10 95 11 44 12 94 13
REMARK SMILES IDX 45 14 46 15 47 16 88 17 48 18 93 19 87 20 89 21 49 22 92 23
REMARK SMILES IDX 86 24 85 25 50 27 76 28 59 29 75 30 60 31 63 32 74 33 90 34
REMARK SMILES IDX 61 35 62 36 73 38 91 39 64 40 51 41 52 42 57 43 53 44 54 45
REMARK SMILES IDX 56 46 58 47 55 48 77 49 78 50 83 51 79 52 80 53 82 54 84 55
REMARK SMILES IDX 81 56 65 57 66 58 71 59 67 60 68 61 70 62 72 63 69 64 9 65
REMARK SMILES IDX 10 66 11 67 12 68 13 69 14 70 15 71 16 72 17 73 18 74 19 75
REMARK SMILES IDX 35 76 26 77 20 78 21 79 25 80 22 81 24 82 23 83 36 84 37 85
REMARK SMILES IDX 41 86 38 87 40 88 39 89 27 90 28 91 29 92 30 93 34 94 31 95
REMARK SMILES IDX 33 96 32 97
REMARK H PARENT 89 26 63 37
REMARK Flexibility Score: inf
ROOT
ATOM      1  C   UNL A   1      33.723  37.663  32.361  1.00  0.00     0.188 C 
ENDROOT
BRANCH   1   2
ATOM      2  C   UNL A   1      33.701  36.621  33.465  1.00  0.00     0.188 C 
BRANCH   2   3
ATOM      3  O   UNL A   1      35.004  36.065  33.659  1.00  0.00    -0.376 OA
BRANCH   3   4
ATOM      4  C   UNL A   1      35.272  34.883  32.910  1.00  0.00     0.202 C 
BRANCH   4   5
ATOM      5  C   UNL A   1      35.107  33.570  33.690  1.00  0.00     0.261 C 
BRANCH   5   6
ATOM      6  O   UNL A   1      36.043  32.561  33.244  1.00  0.00    -0.460 OA
BRANCH   6   7
ATOM      7  C   UNL A   1      37.330  32.404  33.654  1.00  0.00     0.338 C 
ATOM      8  O   UNL A   1      37.685  32.837  34.744  1.00  0.00    -0.246 OA
BRANCH   7   9
ATOM      9  C   UNL A   1      38.353  31.765  32.775  1.00  0.00     0.060 A 
ATOM     10  C   UNL A   1      38.931  30.538  33.079  1.00  0.00     0.016 A 
ATOM     11  C   UNL A   1      38.694  32.363  31.559  1.00  0.00     0.016 A 
ATOM     12  C   UNL A   1      39.876  29.938  32.284  1.00  0.00     0.010 A 
ATOM     13  C   UNL A   1      39.637  31.757  30.717  1.00  0.00     0.010 A 
ATOM     14  C   UNL A   1      40.239  30.549  31.098  1.00  0.00    -0.014 A 
BRANCH  14  15
ATOM     15  C   UNL A   1      41.384  29.952  30.403  1.00  0.00     0.031 A 
ATOM     16  C   UNL A   1      42.682  30.686  30.464  1.00  0.00     0.074 A 
ATOM     17  C   UNL A   1      41.300  28.691  29.943  1.00  0.00     0.049 A 
ATOM     18  N   UNL A   1      43.794  30.447  29.830  1.00  0.00    -0.248 NA
ATOM     19  C   UNL A   1      42.743  31.841  31.380  1.00  0.00     0.031 C 
ATOM     20  C   UNL A   1      40.124  27.821  30.065  1.00  0.00     0.029 A 
ATOM     21  N   UNL A   1      42.230  27.908  29.320  1.00  0.00    -0.354 N 
ATOM     22  C   UNL A   1      44.659  31.462  30.210  1.00  0.00     0.074 A 
ATOM     23  C   UNL A   1      43.969  32.292  31.167  1.00  0.00     0.031 C 
ATOM     24  C   UNL A   1      40.412  26.620  29.539  1.00  0.00     0.029 A 
ATOM     25  C   UNL A   1      41.744  26.676  28.953  1.00  0.00     0.049 A 
ATOM     26  H   UNL A   1      43.155  28.197  29.151  1.00  0.00     0.167 HD
ATOM     27  C   UNL A   1      45.910  31.685  29.750  1.00  0.00     0.037 A 
ATOM     28  C   UNL A   1      42.302  25.742  28.161  1.00  0.00     0.037 A 
ATOM     29  C   UNL A   1      46.555  30.808  28.815  1.00  0.00     0.049 A 
ATOM     30  C   UNL A   1      43.649  26.061  27.573  1.00  0.00     0.074 A 
ATOM     31  C   UNL A   1      47.778  30.945  28.192  1.00  0.00     0.029 A 
ATOM     32  N   UNL A   1      46.005  29.609  28.378  1.00  0.00    -0.354 N 
ATOM     33  N   UNL A   1      44.427  27.094  27.807  1.00  0.00    -0.248 NA
ATOM     34  C   UNL A   1      44.177  25.120  26.580  1.00  0.00     0.031 C 
ATOM     35  C   UNL A   1      47.951  29.842  27.348  1.00  0.00     0.029 A 
ATOM     36  C   UNL A   1      46.852  29.002  27.473  1.00  0.00     0.049 A 
ATOM     37  H   UNL A   1      45.138  29.245  28.671  1.00  0.00     0.167 HD
ATOM     38  C   UNL A   1      45.530  26.936  26.982  1.00  0.00     0.074 A 
ATOM     39  C   UNL A   1      45.336  25.686  26.271  1.00  0.00     0.031 C 
ATOM     40  C   UNL A   1      46.599  27.751  26.805  1.00  0.00     0.037 A 
BRANCH  27  41
ATOM     41  C   UNL A   1      46.567  32.964  30.164  1.00  0.00     0.057 A 
ATOM     42  C   UNL A   1      47.336  33.077  31.328  1.00  0.00     0.134 A 
ATOM     43  C   UNL A   1      46.374  34.121  29.399  1.00  0.00     0.134 A 
ATOM     44  F   UNL A   1      47.523  32.015  32.126  1.00  0.00    -0.206 F 
ATOM     45  C   UNL A   1      47.878  34.302  31.724  1.00  0.00     0.040 A 
ATOM     46  C   UNL A   1      46.924  35.347  29.777  1.00  0.00     0.040 A 
ATOM     47  F   UNL A   1      45.630  34.084  28.285  1.00  0.00    -0.206 F 
ATOM     48  C   UNL A   1      47.675  35.441  30.946  1.00  0.00     0.006 A 
ENDBRANCH  27  41
BRANCH  28  49
ATOM     49  C   UNL A   1      41.547  24.520  27.778  1.00  0.00     0.057 A 
ATOM     50  C   UNL A   1      41.803  23.281  28.374  1.00  0.00     0.134 A 
ATOM     51  C   UNL A   1      40.565  24.556  26.776  1.00  0.00     0.134 A 
ATOM     52  F   UNL A   1      42.744  23.168  29.321  1.00  0.00    -0.206 F 
ATOM     53  C   UNL A   1      41.125  22.123  27.978  1.00  0.00     0.040 A 
ATOM     54  C   UNL A   1      39.859  23.414  26.393  1.00  0.00     0.040 A 
ATOM     55  F   UNL A   1      40.272  25.707  26.153  1.00  0.00    -0.206 F 
ATOM     56  C   UNL A   1      40.145  22.191  26.989  1.00  0.00     0.006 A 
ENDBRANCH  28  49
BRANCH  40  57
ATOM     57  C   UNL A   1      47.619  27.300  25.811  1.00  0.00     0.057 A 
ATOM     58  C   UNL A   1      48.703  26.501  26.194  1.00  0.00     0.134 A 
ATOM     59  C   UNL A   1      47.481  27.618  24.456  1.00  0.00     0.134 A 
ATOM     60  F   UNL A   1      48.889  26.180  27.484  1.00  0.00    -0.206 F 
ATOM     61  C   UNL A   1      49.626  26.040  25.257  1.00  0.00     0.040 A 
ATOM     62  C   UNL A   1      48.384  27.144  23.507  1.00  0.00     0.040 A 
ATOM     63  F   UNL A   1      46.456  28.375  24.035  1.00  0.00    -0.206 F 
ATOM     64  C   UNL A   1      49.461  26.355  23.909  1.00  0.00     0.006 A 
ENDBRANCH  40  57
ENDBRANCH  14  15
ENDBRANCH   7   9
ENDBRANCH   6   7
ENDBRANCH   5   6
ENDBRANCH   4   5
ENDBRANCH   3   4
ENDBRANCH   2   3
ENDBRANCH   1   2
BRANCH   1  65
ATOM     65  O   UNL A   1      32.800  37.326  31.333  1.00  0.00    -0.377 OA
BRANCH  65  66
ATOM     66  C   UNL A   1      33.339  37.236  30.024  1.00  0.00     0.188 C 
BRANCH  66  67
ATOM     67  C   UNL A   1      32.918  35.977  29.263  1.00  0.00     0.188 C 
BRANCH  67  68
ATOM     68  O   UNL A   1      33.237  34.751  29.927  1.00  0.00    -0.376 OA
BRANCH  68  69
ATOM     69  C   UNL A   1      33.848  33.762  29.103  1.00  0.00     0.202 C 
BRANCH  69  70
ATOM     70  C   UNL A   1      32.965  33.259  27.936  1.00  0.00     0.261 C 
BRANCH  70  71
ATOM     71  O   UNL A   1      33.343  32.064  27.207  1.00  0.00    -0.463 OA
BRANCH  71  72
ATOM     72  C   UNL A   1      32.355  31.185  26.896  1.00  0.00     0.310 C 
ATOM     73  O   UNL A   1      31.214  31.563  26.608  1.00  0.00    -0.252 OA
BRANCH  72  74
ATOM     74  C   UNL A   1      32.687  29.701  26.980  1.00  0.00     0.116 C 
ATOM     75  C   UNL A   1      31.998  28.461  26.377  1.00  0.00     0.047 C 
ATOM     76  C   UNL A   1      34.059  29.155  26.463  1.00  0.00     0.047 C 
ATOM     77  C   UNL A   1      33.404  27.741  26.566  1.00  0.00     0.095 C 
BRANCH  75  78
ATOM     78  C   UNL A   1      31.327  28.225  24.942  1.00  0.00    -0.043 A 
ATOM     79  C   UNL A   1      30.445  27.185  24.605  1.00  0.00     0.004 A 
ATOM     80  C   UNL A   1      31.542  29.197  23.928  1.00  0.00     0.004 A 
ATOM     81  C   UNL A   1      29.761  27.155  23.376  1.00  0.00     0.000 A 
ATOM     82  C   UNL A   1      30.877  29.171  22.695  1.00  0.00     0.000 A 
ATOM     83  C   UNL A   1      29.971  28.152  22.423  1.00  0.00     0.000 A 
ENDBRANCH  75  78
BRANCH  76  84
ATOM     84  C   UNL A   1      35.334  29.424  27.412  1.00  0.00    -0.043 A 
ATOM     85  C   UNL A   1      36.587  29.768  26.874  1.00  0.00     0.004 A 
ATOM     86  C   UNL A   1      35.291  29.278  28.817  1.00  0.00     0.004 A 
ATOM     87  C   UNL A   1      37.721  29.935  27.678  1.00  0.00     0.000 A 
ATOM     88  C   UNL A   1      36.418  29.435  29.628  1.00  0.00     0.000 A 
ATOM     89  C   UNL A   1      37.637  29.762  29.055  1.00  0.00     0.000 A 
ENDBRANCH  76  84
BRANCH  77  90
ATOM     90  C   UNL A   1      33.642  26.459  25.752  1.00  0.00     0.226 C 
ATOM     91  O   UNL A   1      34.424  26.540  24.783  1.00  0.00    -0.275 OA
ATOM     92  N   UNL A   1      33.142  25.189  26.094  1.00  0.00    -0.342 N 
ATOM     93  C   UNL A   1      34.101  24.092  25.907  1.00  0.00     0.119 C 
ATOM     94  C   UNL A   1      31.997  24.948  26.962  1.00  0.00     0.119 C 
ATOM     95  C   UNL A   1      33.515  22.693  25.846  1.00  0.00     0.022 C 
ATOM     96  C   UNL A   1      31.424  23.535  26.863  1.00  0.00     0.022 C 
ATOM     97  C   UNL A   1      32.513  22.476  26.966  1.00  0.00     0.004 C 
ENDBRANCH  77  90
ENDBRANCH  72  74
ENDBRANCH  71  72
ENDBRANCH  70  71
ENDBRANCH  69  70
ENDBRANCH  68  69
ENDBRANCH  67  68
ENDBRANCH  66  67
ENDBRANCH  65  66
ENDBRANCH   1  65
TORSDOF 23
ENDMDL
