MODEL 1
REMARK VINA RESULT:     -12.3      0.000      0.000
REMARK SMILES CCc1cccc(C)c1Nc1ccccc1CC(=O)OCCOCCOCCOCCOC(=O)c1ccc(-c2c3nc(c(-c4c(F)cccc4F)c4ccc([nH]4)c(-c4c(F)cccc4F)c4nc(c(-c5c(F)cccc5F)c5ccc2[nH]5)C=C4)C=C3)cc1
REMARK SMILES IDX 25 1 24 2 23 3 22 4 21 5 20 6 18 7 19 8 17 9 16 10 11 11
REMARK SMILES IDX 12 12 13 13 15 14 14 15 10 16 9 18 3 19 4 20 5 21 7 22 6 23
REMARK SMILES IDX 8 24 2 25 1 26 26 27 27 28 28 29 29 30 30 31 31 32 32 33
REMARK SMILES IDX 33 34 34 35 35 36 36 37 88 38 37 39 87 40 38 41 39 42 40 43
REMARK SMILES IDX 81 44 41 45 86 46 80 47 82 48 42 49 85 50 79 51 78 52 43 54
REMARK SMILES IDX 69 55 52 56 68 57 53 58 56 59 67 60 83 61 54 62 55 63 66 65
REMARK SMILES IDX 84 66 57 67 44 68 45 69 50 70 46 71 47 72 49 73 51 74 48 75
REMARK SMILES IDX 70 76 71 77 76 78 72 79 73 80 75 81 77 82 74 83 58 84 59 85
REMARK SMILES IDX 64 86 60 87 61 88 63 89 65 90 62 91
REMARK H PARENT 10 17 82 53 56 64
REMARK Flexibility Score: inf
ROOT
ATOM      1  C   UNL A   1      38.236  29.628  28.335  1.00  0.00     0.188 C 
ENDROOT
BRANCH   1   2
ATOM      2  C   UNL A   1      39.976  29.012  27.326  1.00  0.00     0.188 C 
BRANCH   2   3
ATOM      3  O   UNL A   1      41.428  28.280  28.623  1.00  0.00    -0.376 OA
BRANCH   3   4
ATOM      4  C   UNL A   1      42.143  26.481  28.781  1.00  0.00     0.202 C 
BRANCH   4   5
ATOM      5  C   UNL A   1      41.404  24.673  27.964  1.00  0.00     0.261 C 
BRANCH   5   6
ATOM      6  O   UNL A   1      39.732  24.951  26.902  1.00  0.00    -0.463 OA
BRANCH   6   7
ATOM      7  C   UNL A   1      38.394  23.805  26.427  1.00  0.00     0.310 C 
ATOM      8  O   UNL A   1      38.679  22.594  26.383  1.00  0.00    -0.252 OA
BRANCH   7   9
ATOM      9  C   UNL A   1      36.473  23.869  25.963  1.00  0.00     0.160 C 
BRANCH   9  10
ATOM     10  C   UNL A   1      35.047  24.378  24.773  1.00  0.00    -0.013 A 
ATOM     11  C   UNL A   1      34.292  23.723  23.324  1.00  0.00     0.042 A 
ATOM     12  C   UNL A   1      33.388  24.606  22.655  1.00  0.00     0.026 A 
ATOM     13  C   UNL A   1      32.880  25.719  23.383  1.00  0.00     0.002 A 
ATOM     14  C   UNL A   1      34.483  25.570  25.288  1.00  0.00     0.006 A 
ATOM     15  C   UNL A   1      33.371  26.149  24.649  1.00  0.00     0.000 A 
BRANCH  11  16
ATOM     16  N   UNL A   1      33.389  22.109  23.104  1.00  0.00    -0.355 N 
ATOM     17  H   UNL A   1      33.765  21.498  22.430  1.00  0.00     0.167 HD
BRANCH  16  18
ATOM     18  C   UNL A   1      31.791  21.466  24.036  1.00  0.00     0.045 A 
ATOM     19  C   UNL A   1      32.689  19.989  24.445  1.00  0.00    -0.024 A 
ATOM     20  C   UNL A   1      33.643  19.978  25.736  1.00  0.00     0.006 A 
ATOM     21  C   UNL A   1      33.816  21.311  26.649  1.00  0.00     0.001 A 
ATOM     22  C   UNL A   1      31.421  22.831  25.408  1.00  0.00    -0.027 A 
ATOM     23  C   UNL A   1      32.751  22.871  26.594  1.00  0.00     0.005 A 
ATOM     24  C   UNL A   1      30.916  24.365  25.594  1.00  0.00     0.046 C 
BRANCH  19  25
ATOM     25  C   UNL A   1      33.220  18.906  23.497  1.00  0.00     0.034 C 
ATOM     26  C   UNL A   1      32.159  18.094  22.756  1.00  0.00     0.009 C 
ENDBRANCH  19  25
ENDBRANCH  16  18
ENDBRANCH  11  16
ENDBRANCH   9  10
ENDBRANCH   7   9
ENDBRANCH   6   7
ENDBRANCH   5   6
ENDBRANCH   4   5
ENDBRANCH   3   4
ENDBRANCH   2   3
ENDBRANCH   1   2
BRANCH   1  27
ATOM     27  O   UNL A   1      36.763  29.831  27.503  1.00  0.00    -0.377 OA
BRANCH  27  28
ATOM     28  C   UNL A   1      35.389  30.123  27.999  1.00  0.00     0.188 C 
BRANCH  28  29
ATOM     29  C   UNL A   1      34.535  31.363  27.608  1.00  0.00     0.188 C 
BRANCH  29  30
ATOM     30  O   UNL A   1      34.925  32.609  28.127  1.00  0.00    -0.376 OA
BRANCH  30  31
ATOM     31  C   UNL A   1      34.147  33.178  29.153  1.00  0.00     0.202 C 
BRANCH  31  32
ATOM     32  C   UNL A   1      35.168  33.740  30.101  1.00  0.00     0.261 C 
BRANCH  32  33
ATOM     33  O   UNL A   1      36.124  32.626  30.322  1.00  0.00    -0.460 OA
BRANCH  33  34
ATOM     34  C   UNL A   1      37.107  32.790  31.280  1.00  0.00     0.338 C 
ATOM     35  O   UNL A   1      36.840  33.091  32.439  1.00  0.00    -0.246 OA
BRANCH  34  36
ATOM     36  C   UNL A   1      38.573  32.738  30.770  1.00  0.00     0.060 A 
ATOM     37  C   UNL A   1      39.520  31.822  31.269  1.00  0.00     0.016 A 
ATOM     38  C   UNL A   1      39.129  33.704  29.953  1.00  0.00     0.016 A 
ATOM     39  C   UNL A   1      40.974  32.056  31.187  1.00  0.00     0.010 A 
ATOM     40  C   UNL A   1      40.551  33.953  29.939  1.00  0.00     0.010 A 
ATOM     41  C   UNL A   1      41.517  33.337  30.783  1.00  0.00    -0.014 A 
BRANCH  41  42
ATOM     42  C   UNL A   1      42.963  34.333  31.523  1.00  0.00     0.031 A 
ATOM     43  C   UNL A   1      41.972  34.846  32.852  1.00  0.00     0.074 A 
ATOM     44  C   UNL A   1      44.515  35.046  30.847  1.00  0.00     0.049 A 
ATOM     45  N   UNL A   1      41.952  36.006  33.447  1.00  0.00    -0.248 NA
ATOM     46  C   UNL A   1      40.795  34.103  33.366  1.00  0.00     0.031 C 
ATOM     47  C   UNL A   1      45.843  36.073  31.321  1.00  0.00     0.029 A 
ATOM     48  N   UNL A   1      45.027  35.327  29.363  1.00  0.00    -0.354 N 
ATOM     49  C   UNL A   1      41.509  35.758  34.725  1.00  0.00     0.074 A 
ATOM     50  C   UNL A   1      40.526  34.746  34.506  1.00  0.00     0.031 C 
ATOM     51  C   UNL A   1      46.643  36.538  30.364  1.00  0.00     0.029 A 
ATOM     52  C   UNL A   1      45.931  36.382  29.169  1.00  0.00     0.049 A 
ATOM     53  H   UNL A   1      44.717  34.777  28.607  1.00  0.00     0.167 HD
ATOM     54  C   UNL A   1      42.241  36.206  35.798  1.00  0.00     0.037 A 
ATOM     55  C   UNL A   1      45.658  37.420  28.341  1.00  0.00     0.037 A 
ATOM     56  C   UNL A   1      43.347  37.176  35.380  1.00  0.00     0.049 A 
ATOM     57  C   UNL A   1      45.207  38.534  29.327  1.00  0.00     0.074 A 
ATOM     58  C   UNL A   1      44.713  37.292  35.660  1.00  0.00     0.029 A 
ATOM     59  N   UNL A   1      43.194  37.942  34.200  1.00  0.00    -0.354 N 
ATOM     60  N   UNL A   1      44.502  38.343  30.435  1.00  0.00    -0.248 NA
ATOM     61  C   UNL A   1      45.923  39.814  29.361  1.00  0.00     0.031 C 
ATOM     62  C   UNL A   1      45.358  38.013  34.585  1.00  0.00     0.029 A 
ATOM     63  C   UNL A   1      44.389  38.435  33.678  1.00  0.00     0.049 A 
ATOM     64  H   UNL A   1      42.319  38.111  33.782  1.00  0.00     0.167 HD
ATOM     65  C   UNL A   1      44.745  39.366  31.342  1.00  0.00     0.074 A 
ATOM     66  C   UNL A   1      45.647  40.251  30.602  1.00  0.00     0.031 C 
ATOM     67  C   UNL A   1      44.362  39.505  32.665  1.00  0.00     0.037 A 
BRANCH  54  68
ATOM     68  C   UNL A   1      42.136  35.524  37.191  1.00  0.00     0.057 A 
ATOM     69  C   UNL A   1      41.060  35.812  38.053  1.00  0.00     0.134 A 
ATOM     70  C   UNL A   1      43.058  34.609  37.771  1.00  0.00     0.134 A 
ATOM     71  F   UNL A   1      40.097  36.676  37.713  1.00  0.00    -0.206 F 
ATOM     72  C   UNL A   1      40.892  35.221  39.324  1.00  0.00     0.040 A 
ATOM     73  C   UNL A   1      42.869  33.965  39.010  1.00  0.00     0.040 A 
ATOM     74  F   UNL A   1      44.234  34.296  37.221  1.00  0.00    -0.206 F 
ATOM     75  C   UNL A   1      41.777  34.266  39.795  1.00  0.00     0.006 A 
ENDBRANCH  54  68
BRANCH  55  76
ATOM     76  C   UNL A   1      45.223  36.771  27.052  1.00  0.00     0.057 A 
ATOM     77  C   UNL A   1      46.270  36.069  26.363  1.00  0.00     0.134 A 
ATOM     78  C   UNL A   1      43.932  36.308  26.806  1.00  0.00     0.134 A 
ATOM     79  F   UNL A   1      47.555  36.416  26.568  1.00  0.00    -0.206 F 
ATOM     80  C   UNL A   1      46.061  34.855  25.694  1.00  0.00     0.040 A 
ATOM     81  C   UNL A   1      43.715  35.089  26.126  1.00  0.00     0.040 A 
ATOM     82  F   UNL A   1      42.877  36.917  27.358  1.00  0.00    -0.206 F 
ATOM     83  C   UNL A   1      44.779  34.333  25.623  1.00  0.00     0.006 A 
ENDBRANCH  55  76
BRANCH  67  84
ATOM     84  C   UNL A   1      43.885  40.854  33.201  1.00  0.00     0.057 A 
ATOM     85  C   UNL A   1      42.704  41.477  32.789  1.00  0.00     0.134 A 
ATOM     86  C   UNL A   1      44.521  41.487  34.306  1.00  0.00     0.134 A 
ATOM     87  F   UNL A   1      41.894  40.942  31.867  1.00  0.00    -0.206 F 
ATOM     88  C   UNL A   1      42.256  42.678  33.346  1.00  0.00     0.040 A 
ATOM     89  C   UNL A   1      44.028  42.626  34.932  1.00  0.00     0.040 A 
ATOM     90  F   UNL A   1      45.646  41.038  34.874  1.00  0.00    -0.206 F 
ATOM     91  C   UNL A   1      42.910  43.251  34.426  1.00  0.00     0.006 A 
ENDBRANCH  67  84
ENDBRANCH  41  42
ENDBRANCH  34  36
ENDBRANCH  33  34
ENDBRANCH  32  33
ENDBRANCH  31  32
ENDBRANCH  30  31
ENDBRANCH  29  30
ENDBRANCH  28  29
ENDBRANCH  27  28
ENDBRANCH   1  27
TORSDOF 24
ENDMDL
MODEL 2
REMARK VINA RESULT:     -12.2      3.905      7.291
REMARK SMILES CCc1cccc(C)c1Nc1ccccc1CC(=O)OCCOCCOCCOCCOC(=O)c1ccc(-c2c3nc(c(-c4c(F)cccc4F)c4ccc([nH]4)c(-c4c(F)cccc4F)c4nc(c(-c5c(F)cccc5F)c5ccc2[nH]5)C=C4)C=C3)cc1
REMARK SMILES IDX 25 1 24 2 23 3 22 4 21 5 20 6 18 7 19 8 17 9 16 10 11 11
REMARK SMILES IDX 12 12 13 13 15 14 14 15 10 16 9 18 3 19 4 20 5 21 7 22 6 23
REMARK SMILES IDX 8 24 2 25 1 26 26 27 27 28 28 29 29 30 30 31 31 32 32 33
REMARK SMILES IDX 33 34 34 35 35 36 36 37 88 38 37 39 87 40 38 41 39 42 40 43
REMARK SMILES IDX 81 44 41 45 86 46 80 47 82 48 42 49 85 50 79 51 78 52 43 54
REMARK SMILES IDX 69 55 52 56 68 57 53 58 56 59 67 60 83 61 54 62 55 63 66 65
REMARK SMILES IDX 84 66 57 67 44 68 45 69 50 70 46 71 47 72 49 73 51 74 48 75
REMARK SMILES IDX 70 76 71 77 76 78 72 79 73 80 75 81 77 82 74 83 58 84 59 85
REMARK SMILES IDX 64 86 60 87 61 88 63 89 65 90 62 91
REMARK H PARENT 10 17 82 53 56 64
REMARK Flexibility Score: inf
ROOT
ATOM      1  C   UNL A   1      39.364  27.801  29.460  1.00  0.00     0.188 C 
ENDROOT
BRANCH   1   2
ATOM      2  C   UNL A   1      41.382  27.892  30.046  1.00  0.00     0.188 C 
BRANCH   2   3
ATOM      3  O   UNL A   1      42.544  26.435  29.122  1.00  0.00    -0.376 OA
BRANCH   3   4
ATOM      4  C   UNL A   1      42.165  25.385  27.533  1.00  0.00     0.202 C 
BRANCH   4   5
ATOM      5  C   UNL A   1      40.641  25.651  26.087  1.00  0.00     0.261 C 
BRANCH   5   6
ATOM      6  O   UNL A   1      38.953  24.703  26.585  1.00  0.00    -0.463 OA
BRANCH   6   7
ATOM      7  C   UNL A   1      38.258  23.104  26.048  1.00  0.00     0.310 C 
ATOM      8  O   UNL A   1      39.040  22.136  26.004  1.00  0.00    -0.252 OA
BRANCH   7   9
ATOM      9  C   UNL A   1      36.515  22.343  25.508  1.00  0.00     0.160 C 
BRANCH   9  10
ATOM     10  C   UNL A   1      34.596  22.457  25.383  1.00  0.00    -0.013 A 
ATOM     11  C   UNL A   1      33.357  23.649  25.757  1.00  0.00     0.042 A 
ATOM     12  C   UNL A   1      32.011  23.170  25.695  1.00  0.00     0.026 A 
ATOM     13  C   UNL A   1      31.763  21.962  24.983  1.00  0.00     0.002 A 
ATOM     14  C   UNL A   1      34.147  21.253  24.790  1.00  0.00     0.006 A 
ATOM     15  C   UNL A   1      32.777  21.076  24.518  1.00  0.00     0.000 A 
BRANCH  11  16
ATOM     16  N   UNL A   1      33.125  25.356  25.046  1.00  0.00    -0.355 N 
ATOM     17  H   UNL A   1      33.875  25.979  25.178  1.00  0.00     0.167 HD
BRANCH  16  18
ATOM     18  C   UNL A   1      31.585  26.074  24.072  1.00  0.00     0.045 A 
ATOM     19  C   UNL A   1      31.553  27.424  25.226  1.00  0.00    -0.024 A 
ATOM     20  C   UNL A   1      32.504  28.694  24.981  1.00  0.00     0.006 A 
ATOM     21  C   UNL A   1      33.513  28.739  23.708  1.00  0.00     0.001 A 
ATOM     22  C   UNL A   1      32.230  26.341  22.230  1.00  0.00    -0.027 A 
ATOM     23  C   UNL A   1      33.503  27.587  22.210  1.00  0.00     0.005 A 
ATOM     24  C   UNL A   1      32.696  25.530  20.900  1.00  0.00     0.046 C 
BRANCH  19  25
ATOM     25  C   UNL A   1      31.255  27.383  26.730  1.00  0.00     0.034 C 
ATOM     26  C   UNL A   1      32.053  28.360  27.592  1.00  0.00     0.009 C 
ENDBRANCH  19  25
ENDBRANCH  16  18
ENDBRANCH  11  16
ENDBRANCH   9  10
ENDBRANCH   7   9
ENDBRANCH   6   7
ENDBRANCH   5   6
ENDBRANCH   4   5
ENDBRANCH   3   4
ENDBRANCH   2   3
ENDBRANCH   1   2
BRANCH   1  27
ATOM     27  O   UNL A   1      38.380  29.191  29.479  1.00  0.00    -0.377 OA
BRANCH  27  28
ATOM     28  C   UNL A   1      36.920  29.362  29.233  1.00  0.00     0.188 C 
BRANCH  28  29
ATOM     29  C   UNL A   1      36.272  30.533  28.439  1.00  0.00     0.188 C 
BRANCH  29  30
ATOM     30  O   UNL A   1      36.297  31.809  29.029  1.00  0.00    -0.376 OA
BRANCH  30  31
ATOM     31  C   UNL A   1      35.106  32.310  29.587  1.00  0.00     0.202 C 
BRANCH  31  32
ATOM     32  C   UNL A   1      35.288  32.095  31.063  1.00  0.00     0.261 C 
BRANCH  32  33
ATOM     33  O   UNL A   1      36.738  32.313  31.294  1.00  0.00    -0.460 OA
BRANCH  33  34
ATOM     34  C   UNL A   1      37.115  33.260  32.227  1.00  0.00     0.338 C 
ATOM     35  O   UNL A   1      37.594  34.340  31.898  1.00  0.00    -0.246 OA
BRANCH  34  36
ATOM     36  C   UNL A   1      37.058  32.815  33.715  1.00  0.00     0.060 A 
ATOM     37  C   UNL A   1      36.587  33.655  34.742  1.00  0.00     0.016 A 
ATOM     38  C   UNL A   1      37.651  31.658  34.185  1.00  0.00     0.016 A 
ATOM     39  C   UNL A   1      36.966  33.473  36.156  1.00  0.00     0.010 A 
ATOM     40  C   UNL A   1      38.068  31.532  35.562  1.00  0.00     0.010 A 
ATOM     41  C   UNL A   1      38.015  32.555  36.550  1.00  0.00    -0.014 A 
BRANCH  41  42
ATOM     42  C   UNL A   1      39.425  32.786  37.811  1.00  0.00     0.031 A 
ATOM     43  C   UNL A   1      38.282  32.982  39.102  1.00  0.00     0.074 A 
ATOM     44  C   UNL A   1      41.189  33.284  37.692  1.00  0.00     0.049 A 
ATOM     45  N   UNL A   1      38.346  33.788  40.125  1.00  0.00    -0.248 NA
ATOM     46  C   UNL A   1      36.907  32.425  39.107  1.00  0.00     0.031 C 
ATOM     47  C   UNL A   1      42.549  33.674  38.713  1.00  0.00     0.029 A 
ATOM     48  N   UNL A   1      42.050  33.973  36.541  1.00  0.00    -0.354 N 
ATOM     49  C   UNL A   1      37.602  33.188  41.114  1.00  0.00     0.074 A 
ATOM     50  C   UNL A   1      36.521  32.625  40.371  1.00  0.00     0.031 C 
ATOM     51  C   UNL A   1      43.607  34.251  38.147  1.00  0.00     0.029 A 
ATOM     52  C   UNL A   1      43.151  34.754  36.923  1.00  0.00     0.049 A 
ATOM     53  H   UNL A   1      41.815  33.856  35.593  1.00  0.00     0.167 HD
ATOM     54  C   UNL A   1      38.156  32.986  42.355  1.00  0.00     0.037 A 
ATOM     55  C   UNL A   1      43.257  36.063  36.587  1.00  0.00     0.037 A 
ATOM     56  C   UNL A   1      39.484  33.726  42.524  1.00  0.00     0.049 A 
ATOM     57  C   UNL A   1      42.815  36.787  37.889  1.00  0.00     0.074 A 
ATOM     58  C   UNL A   1      40.756  33.374  42.990  1.00  0.00     0.029 A 
ATOM     59  N   UNL A   1      39.729  34.899  41.771  1.00  0.00    -0.354 N 
ATOM     60  N   UNL A   1      41.866  36.370  38.719  1.00  0.00    -0.248 NA
ATOM     61  C   UNL A   1      43.728  37.727  38.550  1.00  0.00     0.031 C 
ATOM     62  C   UNL A   1      41.737  34.263  42.407  1.00  0.00     0.029 A 
ATOM     63  C   UNL A   1      41.079  35.233  41.656  1.00  0.00     0.049 A 
ATOM     64  H   UNL A   1      39.010  35.433  41.362  1.00  0.00     0.167 HD
ATOM     65  C   UNL A   1      42.091  36.867  39.996  1.00  0.00     0.074 A 
ATOM     66  C   UNL A   1      43.276  37.708  39.815  1.00  0.00     0.031 C 
ATOM     67  C   UNL A   1      41.464  36.579  41.197  1.00  0.00     0.037 A 
BRANCH  54  68
ATOM     68  C   UNL A   1      37.632  31.873  43.304  1.00  0.00     0.057 A 
ATOM     69  C   UNL A   1      38.246  30.606  43.335  1.00  0.00     0.134 A 
ATOM     70  C   UNL A   1      36.518  31.949  44.185  1.00  0.00     0.134 A 
ATOM     71  F   UNL A   1      39.293  30.312  42.556  1.00  0.00    -0.206 F 
ATOM     72  C   UNL A   1      37.834  29.553  44.180  1.00  0.00     0.040 A 
ATOM     73  C   UNL A   1      36.135  30.928  45.078  1.00  0.00     0.040 A 
ATOM     74  F   UNL A   1      35.678  32.987  44.227  1.00  0.00    -0.206 F 
ATOM     75  C   UNL A   1      36.799  29.720  45.083  1.00  0.00     0.006 A 
ENDBRANCH  54  68
BRANCH  55  76
ATOM     76  C   UNL A   1      42.998  36.095  35.102  1.00  0.00     0.057 A 
ATOM     77  C   UNL A   1      44.106  35.654  34.302  1.00  0.00     0.134 A 
ATOM     78  C   UNL A   1      41.741  35.930  34.524  1.00  0.00     0.134 A 
ATOM     79  F   UNL A   1      45.358  35.733  34.791  1.00  0.00    -0.206 F 
ATOM     80  C   UNL A   1      43.949  34.885  33.140  1.00  0.00     0.040 A 
ATOM     81  C   UNL A   1      41.577  35.162  33.350  1.00  0.00     0.040 A 
ATOM     82  F   UNL A   1      40.642  36.348  35.160  1.00  0.00    -0.206 F 
ATOM     83  C   UNL A   1      42.671  34.590  32.692  1.00  0.00     0.006 A 
ENDBRANCH  55  76
BRANCH  67  84
ATOM     84  C   UNL A   1      41.138  37.691  42.192  1.00  0.00     0.057 A 
ATOM     85  C   UNL A   1      41.908  37.966  43.326  1.00  0.00     0.134 A 
ATOM     86  C   UNL A   1      40.125  38.656  41.930  1.00  0.00     0.134 A 
ATOM     87  F   UNL A   1      42.998  37.254  43.643  1.00  0.00    -0.206 F 
ATOM     88  C   UNL A   1      41.627  39.033  44.182  1.00  0.00     0.040 A 
ATOM     89  C   UNL A   1      39.903  39.776  42.722  1.00  0.00     0.040 A 
ATOM     90  F   UNL A   1      39.296  38.598  40.882  1.00  0.00    -0.206 F 
ATOM     91  C   UNL A   1      40.631  39.949  43.878  1.00  0.00     0.006 A 
ENDBRANCH  67  84
ENDBRANCH  41  42
ENDBRANCH  34  36
ENDBRANCH  33  34
ENDBRANCH  32  33
ENDBRANCH  31  32
ENDBRANCH  30  31
ENDBRANCH  29  30
ENDBRANCH  28  29
ENDBRANCH  27  28
ENDBRANCH   1  27
TORSDOF 24
ENDMDL
MODEL 3
REMARK VINA RESULT:     -12.1      4.235      8.893
REMARK SMILES CCc1cccc(C)c1Nc1ccccc1CC(=O)OCCOCCOCCOCCOC(=O)c1ccc(-c2c3nc(c(-c4c(F)cccc4F)c4ccc([nH]4)c(-c4c(F)cccc4F)c4nc(c(-c5c(F)cccc5F)c5ccc2[nH]5)C=C4)C=C3)cc1
REMARK SMILES IDX 25 1 24 2 23 3 22 4 21 5 20 6 18 7 19 8 17 9 16 10 11 11
REMARK SMILES IDX 12 12 13 13 15 14 14 15 10 16 9 18 3 19 4 20 5 21 7 22 6 23
REMARK SMILES IDX 8 24 2 25 1 26 26 27 27 28 28 29 29 30 30 31 31 32 32 33
REMARK SMILES IDX 33 34 34 35 35 36 36 37 88 38 37 39 87 40 38 41 39 42 40 43
REMARK SMILES IDX 81 44 41 45 86 46 80 47 82 48 42 49 85 50 79 51 78 52 43 54
REMARK SMILES IDX 69 55 52 56 68 57 53 58 56 59 67 60 83 61 54 62 55 63 66 65
REMARK SMILES IDX 84 66 57 67 44 68 45 69 50 70 46 71 47 72 49 73 51 74 48 75
REMARK SMILES IDX 70 76 71 77 76 78 72 79 73 80 75 81 77 82 74 83 58 84 59 85
REMARK SMILES IDX 64 86 60 87 61 88 63 89 65 90 62 91
REMARK H PARENT 10 17 82 53 56 64
REMARK Flexibility Score: inf
ROOT
ATOM      1  C   UNL A   1      39.230  29.130  29.236  1.00  0.00     0.188 C 
ENDROOT
BRANCH   1   2
ATOM      2  C   UNL A   1      40.696  29.089  27.729  1.00  0.00     0.188 C 
BRANCH   2   3
ATOM      3  O   UNL A   1      42.348  27.942  28.259  1.00  0.00    -0.376 OA
BRANCH   3   4
ATOM      4  C   UNL A   1      42.592  26.017  28.164  1.00  0.00     0.202 C 
BRANCH   4   5
ATOM      5  C   UNL A   1      41.604  24.605  26.934  1.00  0.00     0.261 C 
BRANCH   5   6
ATOM      6  O   UNL A   1      39.614  24.738  27.077  1.00  0.00    -0.463 OA
BRANCH   6   7
ATOM      7  C   UNL A   1      38.277  23.733  26.348  1.00  0.00     0.310 C 
ATOM      8  O   UNL A   1      38.563  22.566  26.022  1.00  0.00    -0.252 OA
BRANCH   7   9
ATOM      9  C   UNL A   1      36.356  23.900  25.912  1.00  0.00     0.160 C 
BRANCH   9  10
ATOM     10  C   UNL A   1      34.941  24.488  24.744  1.00  0.00    -0.013 A 
ATOM     11  C   UNL A   1      34.106  23.860  23.328  1.00  0.00     0.042 A 
ATOM     12  C   UNL A   1      33.252  24.793  22.660  1.00  0.00     0.026 A 
ATOM     13  C   UNL A   1      32.845  25.956  23.374  1.00  0.00     0.002 A 
ATOM     14  C   UNL A   1      34.480  25.729  25.244  1.00  0.00     0.006 A 
ATOM     15  C   UNL A   1      33.398  26.375  24.618  1.00  0.00     0.000 A 
BRANCH  11  16
ATOM     16  N   UNL A   1      33.081  22.313  23.166  1.00  0.00    -0.355 N 
ATOM     17  H   UNL A   1      33.327  21.713  22.425  1.00  0.00     0.167 HD
BRANCH  16  18
ATOM     18  C   UNL A   1      31.579  21.720  24.275  1.00  0.00     0.045 A 
ATOM     19  C   UNL A   1      32.281  20.089  24.260  1.00  0.00    -0.024 A 
ATOM     20  C   UNL A   1      33.424  19.712  25.324  1.00  0.00     0.006 A 
ATOM     21  C   UNL A   1      33.961  20.817  26.387  1.00  0.00     0.001 A 
ATOM     22  C   UNL A   1      31.671  22.840  25.893  1.00  0.00    -0.027 A 
ATOM     23  C   UNL A   1      33.169  22.485  26.790  1.00  0.00     0.005 A 
ATOM     24  C   UNL A   1      31.459  24.365  26.416  1.00  0.00     0.046 C 
BRANCH  19  25
ATOM     25  C   UNL A   1      32.464  19.143  23.067  1.00  0.00     0.034 C 
ATOM     26  C   UNL A   1      32.940  17.731  23.406  1.00  0.00     0.009 C 
ENDBRANCH  19  25
ENDBRANCH  16  18
ENDBRANCH  11  16
ENDBRANCH   9  10
ENDBRANCH   7   9
ENDBRANCH   6   7
ENDBRANCH   5   6
ENDBRANCH   4   5
ENDBRANCH   3   4
ENDBRANCH   2   3
ENDBRANCH   1   2
BRANCH   1  27
ATOM     27  O   UNL A   1      38.104  30.405  29.333  1.00  0.00    -0.377 OA
BRANCH  27  28
ATOM     28  C   UNL A   1      36.808  30.516  30.059  1.00  0.00     0.188 C 
BRANCH  28  29
ATOM     29  C   UNL A   1      35.861  31.750  30.029  1.00  0.00     0.188 C 
BRANCH  29  30
ATOM     30  O   UNL A   1      35.974  32.680  31.076  1.00  0.00    -0.376 OA
BRANCH  30  31
ATOM     31  C   UNL A   1      35.265  32.434  32.266  1.00  0.00     0.202 C 
BRANCH  31  32
ATOM     32  C   UNL A   1      36.341  32.358  33.312  1.00  0.00     0.261 C 
BRANCH  32  33
ATOM     33  O   UNL A   1      37.337  33.378  32.895  1.00  0.00    -0.460 OA
BRANCH  33  34
ATOM     34  C   UNL A   1      38.626  33.268  33.379  1.00  0.00     0.338 C 
ATOM     35  O   UNL A   1      38.858  33.056  34.565  1.00  0.00    -0.246 OA
BRANCH  34  36
ATOM     36  C   UNL A   1      39.765  33.596  32.374  1.00  0.00     0.060 A 
ATOM     37  C   UNL A   1      39.897  32.938  31.135  1.00  0.00     0.016 A 
ATOM     38  C   UNL A   1      40.849  34.392  32.688  1.00  0.00     0.016 A 
ATOM     39  C   UNL A   1      41.180  32.859  30.410  1.00  0.00     0.010 A 
ATOM     40  C   UNL A   1      42.112  34.250  32.001  1.00  0.00     0.010 A 
ATOM     41  C   UNL A   1      42.427  33.264  31.024  1.00  0.00    -0.014 A 
BRANCH  41  42
ATOM     42  C   UNL A   1      44.132  32.413  30.993  1.00  0.00     0.031 A 
ATOM     43  C   UNL A   1      44.475  33.083  29.429  1.00  0.00     0.074 A 
ATOM     44  C   UNL A   1      44.867  30.970  31.861  1.00  0.00     0.049 A 
ATOM     45  N   UNL A   1      45.098  32.526  28.429  1.00  0.00    -0.248 NA
ATOM     46  C   UNL A   1      43.879  34.333  28.896  1.00  0.00     0.031 C 
ATOM     47  C   UNL A   1      46.310  29.991  31.859  1.00  0.00     0.029 A 
ATOM     48  N   UNL A   1      44.237  29.771  32.702  1.00  0.00    -0.354 N 
ATOM     49  C   UNL A   1      45.637  33.565  27.706  1.00  0.00     0.074 A 
ATOM     50  C   UNL A   1      44.613  34.555  27.801  1.00  0.00     0.031 C 
ATOM     51  C   UNL A   1      46.283  28.840  32.528  1.00  0.00     0.029 A 
ATOM     52  C   UNL A   1      44.927  28.549  32.722  1.00  0.00     0.049 A 
ATOM     53  H   UNL A   1      43.391  29.884  33.192  1.00  0.00     0.167 HD
ATOM     54  C   UNL A   1      46.977  33.558  27.402  1.00  0.00     0.037 A 
ATOM     55  C   UNL A   1      44.360  27.396  32.294  1.00  0.00     0.037 A 
ATOM     56  C   UNL A   1      47.633  32.211  27.707  1.00  0.00     0.049 A 
ATOM     57  C   UNL A   1      44.949  27.234  30.865  1.00  0.00     0.074 A 
ATOM     58  C   UNL A   1      48.794  31.810  28.379  1.00  0.00     0.029 A 
ATOM     59  N   UNL A   1      46.850  31.033  27.685  1.00  0.00    -0.354 N 
ATOM     60  N   UNL A   1      45.201  28.225  30.019  1.00  0.00    -0.248 NA
ATOM     61  C   UNL A   1      45.713  26.029  30.520  1.00  0.00     0.031 C 
ATOM     62  C   UNL A   1      48.626  30.452  28.846  1.00  0.00     0.029 A 
ATOM     63  C   UNL A   1      47.405  29.963  28.388  1.00  0.00     0.049 A 
ATOM     64  H   UNL A   1      45.987  30.973  27.216  1.00  0.00     0.167 HD
ATOM     65  C   UNL A   1      46.197  27.854  29.125  1.00  0.00     0.074 A 
ATOM     66  C   UNL A   1      46.471  26.466  29.501  1.00  0.00     0.031 C 
ATOM     67  C   UNL A   1      46.883  28.601  28.182  1.00  0.00     0.037 A 
BRANCH  54  68
ATOM     68  C   UNL A   1      47.747  34.876  27.109  1.00  0.00     0.057 A 
ATOM     69  C   UNL A   1      47.655  35.497  25.848  1.00  0.00     0.134 A 
ATOM     70  C   UNL A   1      48.618  35.576  27.989  1.00  0.00     0.134 A 
ATOM     71  F   UNL A   1      46.913  34.981  24.862  1.00  0.00    -0.206 F 
ATOM     72  C   UNL A   1      48.314  36.700  25.515  1.00  0.00     0.040 A 
ATOM     73  C   UNL A   1      49.230  36.810  27.690  1.00  0.00     0.040 A 
ATOM     74  F   UNL A   1      48.992  35.111  29.184  1.00  0.00    -0.206 F 
ATOM     75  C   UNL A   1      49.076  37.384  26.447  1.00  0.00     0.006 A 
ENDBRANCH  54  68
BRANCH  55  76
ATOM     76  C   UNL A   1      43.035  27.336  33.011  1.00  0.00     0.057 A 
ATOM     77  C   UNL A   1      43.139  27.068  34.418  1.00  0.00     0.134 A 
ATOM     78  C   UNL A   1      41.902  28.048  32.622  1.00  0.00     0.134 A 
ATOM     79  F   UNL A   1      44.219  26.423  34.898  1.00  0.00    -0.206 F 
ATOM     80  C   UNL A   1      42.315  27.679  35.374  1.00  0.00     0.040 A 
ATOM     81  C   UNL A   1      41.064  28.659  33.580  1.00  0.00     0.040 A 
ATOM     82  F   UNL A   1      41.679  28.313  31.330  1.00  0.00    -0.206 F 
ATOM     83  C   UNL A   1      41.303  28.526  34.951  1.00  0.00     0.006 A 
ENDBRANCH  55  76
BRANCH  67  84
ATOM     84  C   UNL A   1      47.187  28.022  26.801  1.00  0.00     0.057 A 
ATOM     85  C   UNL A   1      46.263  27.997  25.752  1.00  0.00     0.134 A 
ATOM     86  C   UNL A   1      48.504  27.636  26.424  1.00  0.00     0.134 A 
ATOM     87  F   UNL A   1      45.017  28.469  25.882  1.00  0.00    -0.206 F 
ATOM     88  C   UNL A   1      46.589  27.526  24.478  1.00  0.00     0.040 A 
ATOM     89  C   UNL A   1      48.860  27.261  25.134  1.00  0.00     0.040 A 
ATOM     90  F   UNL A   1      49.543  27.617  27.267  1.00  0.00    -0.206 F 
ATOM     91  C   UNL A   1      47.890  27.166  24.161  1.00  0.00     0.006 A 
ENDBRANCH  67  84
ENDBRANCH  41  42
ENDBRANCH  34  36
ENDBRANCH  33  34
ENDBRANCH  32  33
ENDBRANCH  31  32
ENDBRANCH  30  31
ENDBRANCH  29  30
ENDBRANCH  28  29
ENDBRANCH  27  28
ENDBRANCH   1  27
TORSDOF 24
ENDMDL
