MODEL 1
REMARK VINA RESULT:      -8.1      0.000      0.000
REMARK SMILES COc1ccccc1[C@@H]1CN(C(=O)c2cc(C(C)C)nc(N)n2)C[C@H]1C(=O)OCCOCCOCCOCCOC(=O)c1ccc(-c2c3nc(c(-c4c(F)cccc4F)c4ccc([nH]4)c(-c4c(F)cccc4F)c4nc(c(-c5c(F)cccc5F)c5ccc2[nH]5)C=C4)C=C3)cc1
REMARK SMILES IDX 33 1 32 2 31 3 30 4 29 5 28 6 26 7 27 8 25 9 9 10 10 11
REMARK SMILES IDX 11 12 24 13 8 14 3 15 4 16 5 17 7 18 6 19 2 20 1 21 12 22
REMARK SMILES IDX 13 23 14 24 15 25 23 26 16 27 21 28 20 29 17 30 18 31 19 32
REMARK SMILES IDX 22 33 34 36 35 37 36 38 37 39 38 40 39 41 40 42 41 43 42 44
REMARK SMILES IDX 43 45 44 46 96 47 45 48 95 49 46 50 47 51 48 52 89 53 49 54
REMARK SMILES IDX 94 55 88 56 90 57 50 58 93 59 87 60 86 61 51 63 77 64 60 65
REMARK SMILES IDX 76 66 61 67 64 68 75 69 91 70 62 71 63 72 74 74 92 75 65 76
REMARK SMILES IDX 52 77 53 78 58 79 54 80 55 81 57 82 59 83 56 84 78 85 79 86
REMARK SMILES IDX 84 87 80 88 81 89 83 90 85 91 82 92 66 93 67 94 72 95 68 96
REMARK SMILES IDX 69 97 71 98 73 99 70 100
REMARK H PARENT 22 34 22 35 90 62 64 73
REMARK Flexibility Score: inf
ROOT
ATOM      1  C   UNL A   1      48.200  29.552  30.130  1.00  0.00     0.188 C 
ENDROOT
BRANCH   1   2
ATOM      2  C   UNL A   1      46.692  29.310  30.227  1.00  0.00     0.188 C 
BRANCH   2   3
ATOM      3  O   UNL A   1      45.933  29.128  29.053  1.00  0.00    -0.376 OA
BRANCH   3   4
ATOM      4  C   UNL A   1      44.997  30.103  28.625  1.00  0.00     0.202 C 
BRANCH   4   5
ATOM      5  C   UNL A   1      44.447  30.225  27.187  1.00  0.00     0.261 C 
BRANCH   5   6
ATOM      6  O   UNL A   1      44.544  29.080  26.311  1.00  0.00    -0.463 OA
BRANCH   6   7
ATOM      7  C   UNL A   1      45.656  29.035  25.554  1.00  0.00     0.311 C 
ATOM      8  O   UNL A   1      46.348  30.025  25.313  1.00  0.00    -0.252 OA
BRANCH   7   9
ATOM      9  C   UNL A   1      46.034  27.702  24.936  1.00  0.00     0.128 C 
ATOM     10  C   UNL A   1      47.441  27.047  24.792  1.00  0.00     0.058 C 
ATOM     11  C   UNL A   1      47.141  25.555  24.945  1.00  0.00     0.129 C 
ATOM     12  N   UNL A   1      46.046  25.524  25.888  1.00  0.00    -0.336 N 
ATOM     13  C   UNL A   1      45.209  26.687  25.726  1.00  0.00     0.136 C 
BRANCH  10  14
ATOM     14  C   UNL A   1      48.299  27.212  23.532  1.00  0.00    -0.000 A 
ATOM     15  C   UNL A   1      49.644  26.827  23.377  1.00  0.00     0.122 A 
ATOM     16  C   UNL A   1      50.269  26.889  22.118  1.00  0.00     0.047 A 
ATOM     17  C   UNL A   1      49.617  27.468  21.029  1.00  0.00     0.004 A 
ATOM     18  C   UNL A   1      47.701  27.878  22.437  1.00  0.00     0.008 A 
ATOM     19  C   UNL A   1      48.362  28.030  21.214  1.00  0.00     0.001 A 
BRANCH  15  20
ATOM     20  O   UNL A   1      50.500  26.792  24.449  1.00  0.00    -0.496 OA
ATOM     21  C   UNL A   1      51.867  27.062  24.188  1.00  0.00     0.278 C 
ENDBRANCH  15  20
ENDBRANCH  10  14
BRANCH  12  22
ATOM     22  C   UNL A   1      45.674  24.509  26.749  1.00  0.00     0.272 C 
ATOM     23  O   UNL A   1      46.008  24.487  27.931  1.00  0.00    -0.267 OA
BRANCH  22  24
ATOM     24  C   UNL A   1      44.871  23.394  26.197  1.00  0.00     0.134 A 
ATOM     25  C   UNL A   1      45.514  22.292  25.681  1.00  0.00     0.058 A 
ATOM     26  N   UNL A   1      43.536  23.559  26.228  1.00  0.00    -0.208 NA
ATOM     27  C   UNL A   1      44.698  21.350  25.103  1.00  0.00     0.049 A 
ATOM     28  C   UNL A   1      42.831  22.572  25.694  1.00  0.00     0.220 A 
ATOM     29  N   UNL A   1      43.353  21.482  25.115  1.00  0.00    -0.218 NA
BRANCH  27  30
ATOM     30  C   UNL A   1      45.267  20.143  24.384  1.00  0.00     0.032 C 
ATOM     31  C   UNL A   1      46.790  20.084  24.532  1.00  0.00     0.014 C 
ATOM     32  C   UNL A   1      44.624  18.838  24.856  1.00  0.00     0.014 C 
ENDBRANCH  27  30
BRANCH  28  33
ATOM     33  N   UNL A   1      41.474  22.679  25.754  1.00  0.00    -0.368 N 
ATOM     34  H   UNL A   1      41.046  23.076  26.547  1.00  0.00     0.159 HD
ATOM     35  H   UNL A   1      40.920  22.362  25.004  1.00  0.00     0.159 HD
ENDBRANCH  28  33
ENDBRANCH  22  24
ENDBRANCH  12  22
ENDBRANCH   7   9
ENDBRANCH   6   7
ENDBRANCH   5   6
ENDBRANCH   4   5
ENDBRANCH   3   4
ENDBRANCH   2   3
ENDBRANCH   1   2
BRANCH   1  36
ATOM     36  O   UNL A   1      48.857  30.066  31.270  1.00  0.00    -0.377 OA
BRANCH  36  37
ATOM     37  C   UNL A   1      48.209  31.048  32.061  1.00  0.00     0.188 C 
BRANCH  37  38
ATOM     38  C   UNL A   1      49.028  31.911  33.034  1.00  0.00     0.188 C 
BRANCH  38  39
ATOM     39  O   UNL A   1      48.428  32.096  34.307  1.00  0.00    -0.376 OA
BRANCH  39  40
ATOM     40  C   UNL A   1      49.022  31.477  35.438  1.00  0.00     0.202 C 
BRANCH  40  41
ATOM     41  C   UNL A   1      48.906  29.950  35.555  1.00  0.00     0.261 C 
BRANCH  41  42
ATOM     42  O   UNL A   1      48.207  29.430  36.694  1.00  0.00    -0.460 OA
BRANCH  42  43
ATOM     43  C   UNL A   1      47.604  28.228  36.577  1.00  0.00     0.338 C 
ATOM     44  O   UNL A   1      47.894  27.195  37.137  1.00  0.00    -0.246 OA
BRANCH  43  45
ATOM     45  C   UNL A   1      46.375  28.445  35.783  1.00  0.00     0.060 A 
ATOM     46  C   UNL A   1      46.501  28.776  34.429  1.00  0.00     0.016 A 
ATOM     47  C   UNL A   1      45.116  28.303  36.370  1.00  0.00     0.016 A 
ATOM     48  C   UNL A   1      45.361  29.013  33.664  1.00  0.00     0.010 A 
ATOM     49  C   UNL A   1      43.974  28.560  35.609  1.00  0.00     0.010 A 
ATOM     50  C   UNL A   1      44.096  28.957  34.265  1.00  0.00    -0.014 A 
BRANCH  50  51
ATOM     51  C   UNL A   1      42.933  29.532  33.553  1.00  0.00     0.031 A 
ATOM     52  C   UNL A   1      42.281  30.754  34.140  1.00  0.00     0.074 A 
ATOM     53  C   UNL A   1      42.488  29.007  32.399  1.00  0.00     0.049 A 
ATOM     54  N   UNL A   1      41.240  31.425  33.722  1.00  0.00    -0.248 NA
ATOM     55  C   UNL A   1      42.890  31.289  35.369  1.00  0.00     0.031 C 
ATOM     56  C   UNL A   1      43.065  27.850  31.717  1.00  0.00     0.029 A 
ATOM     57  N   UNL A   1      41.438  29.382  31.601  1.00  0.00    -0.354 N 
ATOM     58  C   UNL A   1      41.066  32.454  34.638  1.00  0.00     0.074 A 
ATOM     59  C   UNL A   1      42.083  32.299  35.654  1.00  0.00     0.031 C 
ATOM     60  C   UNL A   1      42.351  27.602  30.605  1.00  0.00     0.029 A 
ATOM     61  C   UNL A   1      41.251  28.561  30.517  1.00  0.00     0.049 A 
ATOM     62  H   UNL A   1      40.871  30.165  31.788  1.00  0.00     0.167 HD
ATOM     63  C   UNL A   1      40.147  33.448  34.627  1.00  0.00     0.037 A 
ATOM     64  C   UNL A   1      40.285  28.572  29.577  1.00  0.00     0.037 A 
ATOM     65  C   UNL A   1      39.134  33.590  33.616  1.00  0.00     0.049 A 
ATOM     66  C   UNL A   1      39.225  29.643  29.626  1.00  0.00     0.074 A 
ATOM     67  C   UNL A   1      38.163  34.568  33.501  1.00  0.00     0.029 A 
ATOM     68  N   UNL A   1      38.957  32.721  32.550  1.00  0.00    -0.354 N 
ATOM     69  N   UNL A   1      39.085  30.631  30.479  1.00  0.00    -0.248 NA
ATOM     70  C   UNL A   1      38.193  29.604  28.581  1.00  0.00     0.031 C 
ATOM     71  C   UNL A   1      37.357  34.253  32.401  1.00  0.00     0.029 A 
ATOM     72  C   UNL A   1      37.870  33.120  31.791  1.00  0.00     0.049 A 
ATOM     73  H   UNL A   1      39.521  31.935  32.361  1.00  0.00     0.167 HD
ATOM     74  C   UNL A   1      37.970  31.347  30.056  1.00  0.00     0.074 A 
ATOM     75  C   UNL A   1      37.482  30.687  28.863  1.00  0.00     0.031 C 
ATOM     76  C   UNL A   1      37.403  32.451  30.602  1.00  0.00     0.037 A 
BRANCH  63  77
ATOM     77  C   UNL A   1      40.178  34.430  35.763  1.00  0.00     0.057 A 
ATOM     78  C   UNL A   1      39.371  34.285  36.899  1.00  0.00     0.134 A 
ATOM     79  C   UNL A   1      41.041  35.533  35.723  1.00  0.00     0.134 A 
ATOM     80  F   UNL A   1      38.508  33.261  36.993  1.00  0.00    -0.206 F 
ATOM     81  C   UNL A   1      39.398  35.215  37.939  1.00  0.00     0.040 A 
ATOM     82  C   UNL A   1      41.099  36.454  36.772  1.00  0.00     0.040 A 
ATOM     83  F   UNL A   1      41.842  35.735  34.667  1.00  0.00    -0.206 F 
ATOM     84  C   UNL A   1      40.270  36.300  37.880  1.00  0.00     0.006 A 
ENDBRANCH  63  77
BRANCH  64  85
ATOM     85  C   UNL A   1      40.262  27.528  28.520  1.00  0.00     0.057 A 
ATOM     86  C   UNL A   1      40.895  27.723  27.287  1.00  0.00     0.134 A 
ATOM     87  C   UNL A   1      39.589  26.316  28.711  1.00  0.00     0.134 A 
ATOM     88  F   UNL A   1      41.539  28.872  27.032  1.00  0.00    -0.206 F 
ATOM     89  C   UNL A   1      40.843  26.760  26.276  1.00  0.00     0.040 A 
ATOM     90  C   UNL A   1      39.552  25.332  27.722  1.00  0.00     0.040 A 
ATOM     91  F   UNL A   1      38.963  26.064  29.871  1.00  0.00    -0.206 F 
ATOM     92  C   UNL A   1      40.174  25.557  26.496  1.00  0.00     0.006 A 
ENDBRANCH  64  85
BRANCH  76  93
ATOM     93  C   UNL A   1      36.216  33.041  29.894  1.00  0.00     0.057 A 
ATOM     94  C   UNL A   1      36.350  33.834  28.748  1.00  0.00     0.134 A 
ATOM     95  C   UNL A   1      34.916  32.770  30.343  1.00  0.00     0.134 A 
ATOM     96  F   UNL A   1      37.566  34.139  28.270  1.00  0.00    -0.206 F 
ATOM     97  C   UNL A   1      35.236  34.358  28.090  1.00  0.00     0.040 A 
ATOM     98  C   UNL A   1      33.794  33.262  29.674  1.00  0.00     0.040 A 
ATOM     99  F   UNL A   1      34.714  32.007  31.427  1.00  0.00    -0.206 F 
ATOM    100  C   UNL A   1      33.953  34.065  28.548  1.00  0.00     0.006 A 
ENDBRANCH  76  93
ENDBRANCH  50  51
ENDBRANCH  43  45
ENDBRANCH  42  43
ENDBRANCH  41  42
ENDBRANCH  40  41
ENDBRANCH  39  40
ENDBRANCH  38  39
ENDBRANCH  37  38
ENDBRANCH  36  37
ENDBRANCH   1  36
TORSDOF 26
ENDMDL
MODEL 2
REMARK VINA RESULT:      -8.0      6.209     13.218
REMARK SMILES COc1ccccc1[C@@H]1CN(C(=O)c2cc(C(C)C)nc(N)n2)C[C@H]1C(=O)OCCOCCOCCOCCOC(=O)c1ccc(-c2c3nc(c(-c4c(F)cccc4F)c4ccc([nH]4)c(-c4c(F)cccc4F)c4nc(c(-c5c(F)cccc5F)c5ccc2[nH]5)C=C4)C=C3)cc1
REMARK SMILES IDX 33 1 32 2 31 3 30 4 29 5 28 6 26 7 27 8 25 9 9 10 10 11
REMARK SMILES IDX 11 12 24 13 8 14 3 15 4 16 5 17 7 18 6 19 2 20 1 21 12 22
REMARK SMILES IDX 13 23 14 24 15 25 23 26 16 27 21 28 20 29 17 30 18 31 19 32
REMARK SMILES IDX 22 33 34 36 35 37 36 38 37 39 38 40 39 41 40 42 41 43 42 44
REMARK SMILES IDX 43 45 44 46 96 47 45 48 95 49 46 50 47 51 48 52 89 53 49 54
REMARK SMILES IDX 94 55 88 56 90 57 50 58 93 59 87 60 86 61 51 63 77 64 60 65
REMARK SMILES IDX 76 66 61 67 64 68 75 69 91 70 62 71 63 72 74 74 92 75 65 76
REMARK SMILES IDX 52 77 53 78 58 79 54 80 55 81 57 82 59 83 56 84 78 85 79 86
REMARK SMILES IDX 84 87 80 88 81 89 83 90 85 91 82 92 66 93 67 94 72 95 68 96
REMARK SMILES IDX 69 97 71 98 73 99 70 100
REMARK H PARENT 22 34 22 35 90 62 64 73
REMARK Flexibility Score: inf
ROOT
ATOM      1  C   UNL A   1      37.010  32.475  34.152  1.00  0.00     0.188 C 
ENDROOT
BRANCH   1   2
ATOM      2  C   UNL A   1      36.435  33.836  34.550  1.00  0.00     0.188 C 
BRANCH   2   3
ATOM      3  O   UNL A   1      35.129  34.190  34.157  1.00  0.00    -0.376 OA
BRANCH   3   4
ATOM      4  C   UNL A   1      34.433  33.451  33.167  1.00  0.00     0.202 C 
BRANCH   4   5
ATOM      5  C   UNL A   1      34.504  33.726  31.649  1.00  0.00     0.261 C 
BRANCH   5   6
ATOM      6  O   UNL A   1      35.366  32.900  30.837  1.00  0.00    -0.463 OA
BRANCH   6   7
ATOM      7  C   UNL A   1      35.316  33.150  29.515  1.00  0.00     0.311 C 
ATOM      8  O   UNL A   1      35.127  34.275  29.049  1.00  0.00    -0.252 OA
BRANCH   7   9
ATOM      9  C   UNL A   1      35.452  31.973  28.568  1.00  0.00     0.128 C 
ATOM     10  C   UNL A   1      35.521  30.450  28.892  1.00  0.00     0.058 C 
ATOM     11  C   UNL A   1      34.803  29.813  27.702  1.00  0.00     0.129 C 
ATOM     12  N   UNL A   1      33.785  30.781  27.362  1.00  0.00    -0.336 N 
ATOM     13  C   UNL A   1      34.252  32.119  27.632  1.00  0.00     0.136 C 
BRANCH  10  14
ATOM     14  C   UNL A   1      36.852  29.709  29.072  1.00  0.00    -0.000 A 
ATOM     15  C   UNL A   1      37.315  29.091  30.249  1.00  0.00     0.122 A 
ATOM     16  C   UNL A   1      38.482  28.306  30.236  1.00  0.00     0.047 A 
ATOM     17  C   UNL A   1      39.283  28.242  29.097  1.00  0.00     0.004 A 
ATOM     18  C   UNL A   1      37.732  29.702  27.965  1.00  0.00     0.008 A 
ATOM     19  C   UNL A   1      38.944  29.004  27.988  1.00  0.00     0.001 A 
BRANCH  15  20
ATOM     20  O   UNL A   1      36.933  29.546  31.486  1.00  0.00    -0.496 OA
ATOM     21  C   UNL A   1      37.551  28.942  32.611  1.00  0.00     0.278 C 
ENDBRANCH  15  20
ENDBRANCH  10  14
BRANCH  12  22
ATOM     22  C   UNL A   1      32.577  30.578  26.723  1.00  0.00     0.272 C 
ATOM     23  O   UNL A   1      31.630  31.354  26.834  1.00  0.00    -0.267 OA
BRANCH  22  24
ATOM     24  C   UNL A   1      32.424  29.352  25.906  1.00  0.00     0.134 A 
ATOM     25  C   UNL A   1      31.478  29.324  24.906  1.00  0.00     0.058 A 
ATOM     26  N   UNL A   1      33.231  28.326  26.227  1.00  0.00    -0.208 NA
ATOM     27  C   UNL A   1      31.336  28.119  24.262  1.00  0.00     0.049 A 
ATOM     28  C   UNL A   1      33.055  27.222  25.515  1.00  0.00     0.220 A 
ATOM     29  N   UNL A   1      32.129  27.066  24.559  1.00  0.00    -0.218 NA
BRANCH  27  30
ATOM     30  C   UNL A   1      30.254  27.898  23.226  1.00  0.00     0.032 C 
ATOM     31  C   UNL A   1      29.268  26.818  23.682  1.00  0.00     0.014 C 
ATOM     32  C   UNL A   1      29.518  29.193  22.878  1.00  0.00     0.014 C 
ENDBRANCH  27  30
BRANCH  28  33
ATOM     33  N   UNL A   1      33.891  26.178  25.776  1.00  0.00    -0.368 N 
ATOM     34  H   UNL A   1      34.786  26.346  26.151  1.00  0.00     0.159 HD
ATOM     35  H   UNL A   1      33.600  25.255  25.592  1.00  0.00     0.159 HD
ENDBRANCH  28  33
ENDBRANCH  22  24
ENDBRANCH  12  22
ENDBRANCH   7   9
ENDBRANCH   6   7
ENDBRANCH   5   6
ENDBRANCH   4   5
ENDBRANCH   3   4
ENDBRANCH   2   3
ENDBRANCH   1   2
BRANCH   1  36
ATOM     36  O   UNL A   1      38.008  32.449  33.153  1.00  0.00    -0.377 OA
BRANCH  36  37
ATOM     37  C   UNL A   1      39.320  32.031  33.493  1.00  0.00     0.188 C 
BRANCH  37  38
ATOM     38  C   UNL A   1      40.517  32.508  32.656  1.00  0.00     0.188 C 
BRANCH  38  39
ATOM     39  O   UNL A   1      41.137  31.494  31.880  1.00  0.00    -0.376 OA
BRANCH  39  40
ATOM     40  C   UNL A   1      41.294  31.703  30.485  1.00  0.00     0.202 C 
BRANCH  40  41
ATOM     41  C   UNL A   1      42.084  32.940  30.036  1.00  0.00     0.261 C 
BRANCH  41  42
ATOM     42  O   UNL A   1      42.974  32.782  28.923  1.00  0.00    -0.460 OA
BRANCH  42  43
ATOM     43  C   UNL A   1      44.241  33.231  29.051  1.00  0.00     0.338 C 
ATOM     44  O   UNL A   1      44.640  34.368  28.944  1.00  0.00    -0.246 OA
BRANCH  43  45
ATOM     45  C   UNL A   1      45.044  32.096  29.558  1.00  0.00     0.060 A 
ATOM     46  C   UNL A   1      44.880  30.840  28.964  1.00  0.00     0.016 A 
ATOM     47  C   UNL A   1      45.960  32.282  30.596  1.00  0.00     0.016 A 
ATOM     48  C   UNL A   1      45.602  29.748  29.440  1.00  0.00     0.010 A 
ATOM     49  C   UNL A   1      46.669  31.184  31.086  1.00  0.00     0.010 A 
ATOM     50  C   UNL A   1      46.460  29.906  30.536  1.00  0.00    -0.014 A 
BRANCH  50  51
ATOM     51  C   UNL A   1      46.955  28.704  31.245  1.00  0.00     0.031 A 
ATOM     52  C   UNL A   1      48.349  28.229  30.940  1.00  0.00     0.074 A 
ATOM     53  C   UNL A   1      46.203  28.073  32.162  1.00  0.00     0.049 A 
ATOM     54  N   UNL A   1      48.997  27.194  31.407  1.00  0.00    -0.248 NA
ATOM     55  C   UNL A   1      49.113  29.033  29.972  1.00  0.00     0.031 C 
ATOM     56  C   UNL A   1      44.855  28.466  32.567  1.00  0.00     0.029 A 
ATOM     57  N   UNL A   1      46.470  26.957  32.913  1.00  0.00    -0.354 N 
ATOM     58  C   UNL A   1      50.240  27.220  30.786  1.00  0.00     0.074 A 
ATOM     59  C   UNL A   1      50.243  28.349  29.882  1.00  0.00     0.031 C 
ATOM     60  C   UNL A   1      44.407  27.596  33.489  1.00  0.00     0.029 A 
ATOM     61  C   UNL A   1      45.423  26.567  33.711  1.00  0.00     0.049 A 
ATOM     62  H   UNL A   1      47.331  26.480  32.882  1.00  0.00     0.167 HD
ATOM     63  C   UNL A   1      51.290  26.385  30.963  1.00  0.00     0.037 A 
ATOM     64  C   UNL A   1      45.296  25.490  34.509  1.00  0.00     0.037 A 
ATOM     65  C   UNL A   1      51.275  25.260  31.860  1.00  0.00     0.049 A 
ATOM     66  C   UNL A   1      46.451  24.529  34.634  1.00  0.00     0.074 A 
ATOM     67  C   UNL A   1      52.289  24.358  32.127  1.00  0.00     0.029 A 
ATOM     68  N   UNL A   1      50.186  24.879  32.629  1.00  0.00    -0.354 N 
ATOM     69  N   UNL A   1      47.633  24.576  34.067  1.00  0.00    -0.248 NA
ATOM     70  C   UNL A   1      46.256  23.367  35.513  1.00  0.00     0.031 C 
ATOM     71  C   UNL A   1      51.790  23.393  33.008  1.00  0.00     0.029 A 
ATOM     72  C   UNL A   1      50.490  23.735  33.345  1.00  0.00     0.049 A 
ATOM     73  H   UNL A   1      49.322  25.353  32.661  1.00  0.00     0.167 HD
ATOM     74  C   UNL A   1      48.332  23.472  34.543  1.00  0.00     0.074 A 
ATOM     75  C   UNL A   1      47.444  22.782  35.456  1.00  0.00     0.031 C 
ATOM     76  C   UNL A   1      49.593  23.065  34.255  1.00  0.00     0.037 A 
BRANCH  63  77
ATOM     77  C   UNL A   1      52.521  26.640  30.142  1.00  0.00     0.057 A 
ATOM     78  C   UNL A   1      52.621  26.240  28.803  1.00  0.00     0.134 A 
ATOM     79  C   UNL A   1      53.620  27.307  30.699  1.00  0.00     0.134 A 
ATOM     80  F   UNL A   1      51.613  25.579  28.213  1.00  0.00    -0.206 F 
ATOM     81  C   UNL A   1      53.779  26.468  28.056  1.00  0.00     0.040 A 
ATOM     82  C   UNL A   1      54.771  27.568  29.953  1.00  0.00     0.040 A 
ATOM     83  F   UNL A   1      53.593  27.718  31.975  1.00  0.00    -0.206 F 
ATOM     84  C   UNL A   1      54.855  27.141  28.630  1.00  0.00     0.006 A 
ENDBRANCH  63  77
BRANCH  64  85
ATOM     85  C   UNL A   1      44.025  25.249  35.240  1.00  0.00     0.057 A 
ATOM     86  C   UNL A   1      43.722  25.932  36.424  1.00  0.00     0.134 A 
ATOM     87  C   UNL A   1      43.089  24.315  34.781  1.00  0.00     0.134 A 
ATOM     88  F   UNL A   1      44.587  26.824  36.930  1.00  0.00    -0.206 F 
ATOM     89  C   UNL A   1      42.546  25.680  37.135  1.00  0.00     0.040 A 
ATOM     90  C   UNL A   1      41.896  24.074  35.463  1.00  0.00     0.040 A 
ATOM     91  F   UNL A   1      43.316  23.627  33.651  1.00  0.00    -0.206 F 
ATOM     92  C   UNL A   1      41.626  24.752  36.650  1.00  0.00     0.006 A 
ENDBRANCH  64  85
BRANCH  76  93
ATOM     93  C   UNL A   1      50.105  21.842  34.962  1.00  0.00     0.057 A 
ATOM     94  C   UNL A   1      49.980  20.559  34.415  1.00  0.00     0.134 A 
ATOM     95  C   UNL A   1      50.774  21.960  36.188  1.00  0.00     0.134 A 
ATOM     96  F   UNL A   1      49.343  20.375  33.249  1.00  0.00    -0.206 F 
ATOM     97  C   UNL A   1      50.478  19.434  35.075  1.00  0.00     0.040 A 
ATOM     98  C   UNL A   1      51.305  20.846  36.841  1.00  0.00     0.040 A 
ATOM     99  F   UNL A   1      50.940  23.161  36.761  1.00  0.00    -0.206 F 
ATOM    100  C   UNL A   1      51.150  19.578  36.288  1.00  0.00     0.006 A 
ENDBRANCH  76  93
ENDBRANCH  50  51
ENDBRANCH  43  45
ENDBRANCH  42  43
ENDBRANCH  41  42
ENDBRANCH  40  41
ENDBRANCH  39  40
ENDBRANCH  38  39
ENDBRANCH  37  38
ENDBRANCH  36  37
ENDBRANCH   1  36
TORSDOF 26
ENDMDL
MODEL 3
REMARK VINA RESULT:      -7.9      6.654     12.610
REMARK SMILES COc1ccccc1[C@@H]1CN(C(=O)c2cc(C(C)C)nc(N)n2)C[C@H]1C(=O)OCCOCCOCCOCCOC(=O)c1ccc(-c2c3nc(c(-c4c(F)cccc4F)c4ccc([nH]4)c(-c4c(F)cccc4F)c4nc(c(-c5c(F)cccc5F)c5ccc2[nH]5)C=C4)C=C3)cc1
REMARK SMILES IDX 33 1 32 2 31 3 30 4 29 5 28 6 26 7 27 8 25 9 9 10 10 11
REMARK SMILES IDX 11 12 24 13 8 14 3 15 4 16 5 17 7 18 6 19 2 20 1 21 12 22
REMARK SMILES IDX 13 23 14 24 15 25 23 26 16 27 21 28 20 29 17 30 18 31 19 32
REMARK SMILES IDX 22 33 34 36 35 37 36 38 37 39 38 40 39 41 40 42 41 43 42 44
REMARK SMILES IDX 43 45 44 46 96 47 45 48 95 49 46 50 47 51 48 52 89 53 49 54
REMARK SMILES IDX 94 55 88 56 90 57 50 58 93 59 87 60 86 61 51 63 77 64 60 65
REMARK SMILES IDX 76 66 61 67 64 68 75 69 91 70 62 71 63 72 74 74 92 75 65 76
REMARK SMILES IDX 52 77 53 78 58 79 54 80 55 81 57 82 59 83 56 84 78 85 79 86
REMARK SMILES IDX 84 87 80 88 81 89 83 90 85 91 82 92 66 93 67 94 72 95 68 96
REMARK SMILES IDX 69 97 71 98 73 99 70 100
REMARK H PARENT 22 34 22 35 90 62 64 73
REMARK Flexibility Score: inf
ROOT
ATOM      1  C   UNL A   1      49.615  28.968  38.904  1.00  0.00     0.188 C 
ENDROOT
BRANCH   1   2
ATOM      2  C   UNL A   1      50.135  27.535  38.775  1.00  0.00     0.188 C 
BRANCH   2   3
ATOM      3  O   UNL A   1      49.239  26.484  38.493  1.00  0.00    -0.376 OA
BRANCH   3   4
ATOM      4  C   UNL A   1      49.419  25.194  39.053  1.00  0.00     0.202 C 
BRANCH   4   5
ATOM      5  C   UNL A   1      49.723  23.916  38.241  1.00  0.00     0.261 C 
BRANCH   5   6
ATOM      6  O   UNL A   1      49.928  24.036  36.816  1.00  0.00    -0.463 OA
BRANCH   6   7
ATOM      7  C   UNL A   1      48.818  23.901  36.067  1.00  0.00     0.311 C 
ATOM      8  O   UNL A   1      47.889  24.711  36.087  1.00  0.00    -0.252 OA
BRANCH   7   9
ATOM      9  C   UNL A   1      48.698  22.663  35.199  1.00  0.00     0.128 C 
ATOM     10  C   UNL A   1      49.535  21.349  35.236  1.00  0.00     0.058 C 
ATOM     11  C   UNL A   1      48.511  20.280  34.852  1.00  0.00     0.129 C 
ATOM     12  N   UNL A   1      47.278  20.770  35.424  1.00  0.00    -0.336 N 
ATOM     13  C   UNL A   1      47.252  22.212  35.406  1.00  0.00     0.136 C 
BRANCH  10  14
ATOM     14  C   UNL A   1      50.769  21.137  34.351  1.00  0.00    -0.000 A 
ATOM     15  C   UNL A   1      51.259  22.017  33.368  1.00  0.00     0.122 A 
ATOM     16  C   UNL A   1      52.493  21.776  32.738  1.00  0.00     0.047 A 
ATOM     17  C   UNL A   1      53.187  20.589  32.966  1.00  0.00     0.004 A 
ATOM     18  C   UNL A   1      51.447  19.903  34.489  1.00  0.00     0.008 A 
ATOM     19  C   UNL A   1      52.622  19.622  33.784  1.00  0.00     0.001 A 
BRANCH  15  20
ATOM     20  O   UNL A   1      50.416  22.864  32.692  1.00  0.00    -0.496 OA
ATOM     21  C   UNL A   1      51.009  23.980  32.048  1.00  0.00     0.278 C 
ENDBRANCH  15  20
ENDBRANCH  10  14
BRANCH  12  22
ATOM     22  C   UNL A   1      46.161  20.056  35.813  1.00  0.00     0.272 C 
ATOM     23  O   UNL A   1      45.124  20.037  35.153  1.00  0.00    -0.267 OA
BRANCH  22  24
ATOM     24  C   UNL A   1      46.222  19.319  37.096  1.00  0.00     0.134 A 
ATOM     25  C   UNL A   1      47.234  19.600  37.986  1.00  0.00     0.058 A 
ATOM     26  N   UNL A   1      45.267  18.392  37.289  1.00  0.00    -0.208 NA
ATOM     27  C   UNL A   1      47.273  18.804  39.106  1.00  0.00     0.049 A 
ATOM     28  C   UNL A   1      45.358  17.711  38.422  1.00  0.00     0.220 A 
ATOM     29  N   UNL A   1      46.330  17.863  39.332  1.00  0.00    -0.218 NA
BRANCH  27  30
ATOM     30  C   UNL A   1      48.397  18.912  40.115  1.00  0.00     0.032 C 
ATOM     31  C   UNL A   1      48.336  17.766  41.130  1.00  0.00     0.014 C 
ATOM     32  C   UNL A   1      49.770  18.968  39.441  1.00  0.00     0.014 C 
ENDBRANCH  27  30
BRANCH  28  33
ATOM     33  N   UNL A   1      44.378  16.799  38.676  1.00  0.00    -0.368 N 
ATOM     34  H   UNL A   1      43.459  17.103  38.861  1.00  0.00     0.159 HD
ATOM     35  H   UNL A   1      44.586  15.837  38.673  1.00  0.00     0.159 HD
ENDBRANCH  28  33
ENDBRANCH  22  24
ENDBRANCH  12  22
ENDBRANCH   7   9
ENDBRANCH   6   7
ENDBRANCH   5   6
ENDBRANCH   4   5
ENDBRANCH   3   4
ENDBRANCH   2   3
ENDBRANCH   1   2
BRANCH   1  36
ATOM     36  O   UNL A   1      48.322  29.246  38.407  1.00  0.00    -0.377 OA
BRANCH  36  37
ATOM     37  C   UNL A   1      47.199  29.046  39.249  1.00  0.00     0.188 C 
BRANCH  37  38
ATOM     38  C   UNL A   1      45.809  28.822  38.631  1.00  0.00     0.188 C 
BRANCH  38  39
ATOM     39  O   UNL A   1      44.884  28.164  39.481  1.00  0.00    -0.376 OA
BRANCH  39  40
ATOM     40  C   UNL A   1      45.039  26.772  39.711  1.00  0.00     0.202 C 
BRANCH  40  41
ATOM     41  C   UNL A   1      45.256  25.869  38.489  1.00  0.00     0.261 C 
BRANCH  41  42
ATOM     42  O   UNL A   1      44.114  25.171  37.977  1.00  0.00    -0.460 OA
BRANCH  42  43
ATOM     43  C   UNL A   1      43.270  25.840  37.162  1.00  0.00     0.338 C 
ATOM     44  O   UNL A   1      42.245  26.408  37.461  1.00  0.00    -0.246 OA
BRANCH  43  45
ATOM     45  C   UNL A   1      43.936  25.933  35.845  1.00  0.00     0.060 A 
ATOM     46  C   UNL A   1      44.520  24.782  35.305  1.00  0.00     0.016 A 
ATOM     47  C   UNL A   1      43.964  27.143  35.147  1.00  0.00     0.016 A 
ATOM     48  C   UNL A   1      45.179  24.847  34.079  1.00  0.00     0.010 A 
ATOM     49  C   UNL A   1      44.641  27.213  33.928  1.00  0.00     0.010 A 
ATOM     50  C   UNL A   1      45.286  26.074  33.412  1.00  0.00    -0.014 A 
BRANCH  50  51
ATOM     51  C   UNL A   1      46.259  26.211  32.304  1.00  0.00     0.031 A 
ATOM     52  C   UNL A   1      45.844  25.739  30.938  1.00  0.00     0.074 A 
ATOM     53  C   UNL A   1      47.464  26.773  32.497  1.00  0.00     0.049 A 
ATOM     54  N   UNL A   1      46.520  25.727  29.819  1.00  0.00    -0.248 NA
ATOM     55  C   UNL A   1      44.477  25.203  30.822  1.00  0.00     0.031 C 
ATOM     56  C   UNL A   1      47.958  27.302  33.766  1.00  0.00     0.029 A 
ATOM     57  N   UNL A   1      48.495  26.984  31.618  1.00  0.00    -0.354 N 
ATOM     58  C   UNL A   1      45.666  25.180  28.871  1.00  0.00     0.074 A 
ATOM     59  C   UNL A   1      44.437  24.836  29.551  1.00  0.00     0.031 C 
ATOM     60  C   UNL A   1      49.206  27.769  33.586  1.00  0.00     0.029 A 
ATOM     61  C   UNL A   1      49.608  27.540  32.198  1.00  0.00     0.049 A 
ATOM     62  H   UNL A   1      48.442  26.758  30.661  1.00  0.00     0.167 HD
ATOM     63  C   UNL A   1      45.882  24.991  27.549  1.00  0.00     0.037 A 
ATOM     64  C   UNL A   1      50.818  27.808  31.671  1.00  0.00     0.037 A 
ATOM     65  C   UNL A   1      47.111  25.330  26.882  1.00  0.00     0.049 A 
ATOM     66  C   UNL A   1      51.064  27.520  30.212  1.00  0.00     0.074 A 
ATOM     67  C   UNL A   1      47.431  25.194  25.543  1.00  0.00     0.029 A 
ATOM     68  N   UNL A   1      48.227  25.862  27.510  1.00  0.00    -0.354 N 
ATOM     69  N   UNL A   1      50.241  27.029  29.315  1.00  0.00    -0.248 NA
ATOM     70  C   UNL A   1      52.403  27.825  29.690  1.00  0.00     0.031 C 
ATOM     71  C   UNL A   1      48.763  25.584  25.374  1.00  0.00     0.029 A 
ATOM     72  C   UNL A   1      49.250  26.030  26.593  1.00  0.00     0.049 A 
ATOM     73  H   UNL A   1      48.284  26.088  28.467  1.00  0.00     0.167 HD
ATOM     74  C   UNL A   1      50.951  26.997  28.120  1.00  0.00     0.074 A 
ATOM     75  C   UNL A   1      52.267  27.531  28.405  1.00  0.00     0.031 C 
ATOM     76  C   UNL A   1      50.553  26.568  26.896  1.00  0.00     0.037 A 
BRANCH  63  77
ATOM     77  C   UNL A   1      44.778  24.358  26.752  1.00  0.00     0.057 A 
ATOM     78  C   UNL A   1      44.804  23.007  26.381  1.00  0.00     0.134 A 
ATOM     79  C   UNL A   1      43.664  25.112  26.360  1.00  0.00     0.134 A 
ATOM     80  F   UNL A   1      45.851  22.233  26.707  1.00  0.00    -0.206 F 
ATOM     81  C   UNL A   1      43.778  22.436  25.625  1.00  0.00     0.040 A 
ATOM     82  C   UNL A   1      42.617  24.544  25.630  1.00  0.00     0.040 A 
ATOM     83  F   UNL A   1      43.572  26.411  26.680  1.00  0.00    -0.206 F 
ATOM     84  C   UNL A   1      42.677  23.204  25.254  1.00  0.00     0.006 A 
ENDBRANCH  63  77
BRANCH  64  85
ATOM     85  C   UNL A   1      51.897  28.365  32.527  1.00  0.00     0.057 A 
ATOM     86  C   UNL A   1      52.820  27.533  33.173  1.00  0.00     0.134 A 
ATOM     87  C   UNL A   1      52.021  29.744  32.735  1.00  0.00     0.134 A 
ATOM     88  F   UNL A   1      52.743  26.202  33.033  1.00  0.00    -0.206 F 
ATOM     89  C   UNL A   1      53.813  28.051  34.010  1.00  0.00     0.040 A 
ATOM     90  C   UNL A   1      53.025  30.278  33.544  1.00  0.00     0.040 A 
ATOM     91  F   UNL A   1      51.170  30.597  32.144  1.00  0.00    -0.206 F 
ATOM     92  C   UNL A   1      53.919  29.428  34.192  1.00  0.00     0.006 A 
ENDBRANCH  64  85
BRANCH  76  93
ATOM     93  C   UNL A   1      51.534  26.695  25.765  1.00  0.00     0.057 A 
ATOM     94  C   UNL A   1      51.600  27.840  24.962  1.00  0.00     0.134 A 
ATOM     95  C   UNL A   1      52.456  25.671  25.508  1.00  0.00     0.134 A 
ATOM     96  F   UNL A   1      50.740  28.852  25.147  1.00  0.00    -0.206 F 
ATOM     97  C   UNL A   1      52.530  27.950  23.926  1.00  0.00     0.040 A 
ATOM     98  C   UNL A   1      53.412  25.785  24.498  1.00  0.00     0.040 A 
ATOM     99  F   UNL A   1      52.457  24.553  26.249  1.00  0.00    -0.206 F 
ATOM    100  C   UNL A   1      53.446  26.924  23.698  1.00  0.00     0.006 A 
ENDBRANCH  76  93
ENDBRANCH  50  51
ENDBRANCH  43  45
ENDBRANCH  42  43
ENDBRANCH  41  42
ENDBRANCH  40  41
ENDBRANCH  39  40
ENDBRANCH  38  39
ENDBRANCH  37  38
ENDBRANCH  36  37
ENDBRANCH   1  36
TORSDOF 26
ENDMDL
