MODEL 1
REMARK VINA RESULT:     -10.5      0.000      0.000
REMARK SMILES Cc1cc(OC(F)(F)F)cc2c1O[C@H](C(F)(F)F)C(C(=O)OCCOCCOCCOCCOC(=O)c1ccc(-c3c4nc(c(-c5c(F)cccc5F)c5ccc([nH]5)c(-c5c(F)cccc5F)c5nc(c(-c6c(F)cccc6F)c6ccc3[nH]6)C=C5)C=C4)cc1)=C2
REMARK SMILES IDX 28 1 27 2 26 3 25 4 24 5 23 6 22 7 20 8 21 9 19 10 1 11 2 12
REMARK SMILES IDX 3 13 12 14 4 15 11 16 13 17 10 18 91 19 14 20 5 21 6 22 7 23
REMARK SMILES IDX 8 24 9 25 15 26 16 27 17 28 18 29 29 30 30 31 31 32 32 33
REMARK SMILES IDX 33 34 34 35 35 36 36 37 37 38 38 39 90 40 39 41 89 42 40 43
REMARK SMILES IDX 41 44 42 45 83 46 43 47 88 48 82 49 84 50 44 51 87 52 81 53
REMARK SMILES IDX 80 54 45 56 71 57 54 58 70 59 55 60 58 61 69 62 85 63 56 64
REMARK SMILES IDX 57 65 68 67 86 68 59 69 46 70 47 71 52 72 48 73 49 74 51 75
REMARK SMILES IDX 53 76 50 77 72 78 73 79 78 80 74 81 75 82 77 83 79 84 76 85
REMARK SMILES IDX 60 86 61 87 66 88 62 89 63 90 65 91 67 92 64 93
REMARK H PARENT 84 55 58 66
REMARK Flexibility Score: inf
ROOT
ATOM      1  O   UNL A   1      42.524  19.545  25.094  1.00  0.00    -0.377 OA
ENDROOT
BRANCH   1   2
ATOM      2  C   UNL A   1      41.681  19.645  26.232  1.00  0.00     0.188 C 
BRANCH   2   3
ATOM      3  C   UNL A   1      40.969  21.010  26.337  1.00  0.00     0.188 C 
BRANCH   3   4
ATOM      4  O   UNL A   1      39.584  20.932  26.041  1.00  0.00    -0.376 OA
BRANCH   4   5
ATOM      5  C   UNL A   1      38.797  22.109  25.965  1.00  0.00     0.202 C 
BRANCH   5   6
ATOM      6  C   UNL A   1      37.320  22.099  25.529  1.00  0.00     0.261 C 
BRANCH   6   7
ATOM      7  O   UNL A   1      36.475  23.123  26.061  1.00  0.00    -0.460 OA
BRANCH   7   8
ATOM      8  C   UNL A   1      35.185  22.822  26.285  1.00  0.00     0.338 C 
ATOM      9  O   UNL A   1      34.752  22.016  27.090  1.00  0.00    -0.246 OA
BRANCH   8  10
ATOM     10  C   UNL A   1      34.361  23.768  25.498  1.00  0.00     0.087 C 
ATOM     11  C   UNL A   1      31.412  26.081  21.975  1.00  0.00     0.048 C 
ATOM     12  C   UNL A   1      31.895  26.387  23.368  1.00  0.00    -0.005 A 
ATOM     13  C   UNL A   1      31.361  27.506  24.034  1.00  0.00     0.054 A 
ATOM     14  C   UNL A   1      32.786  25.542  24.048  1.00  0.00     0.131 A 
ATOM     15  C   UNL A   1      31.738  27.804  25.343  1.00  0.00     0.130 A 
ATOM     16  C   UNL A   1      33.135  25.817  25.372  1.00  0.00     0.021 A 
ATOM     17  O   UNL A   1      33.265  24.463  23.364  1.00  0.00    -0.475 OA
ATOM     18  C   UNL A   1      32.640  26.965  25.999  1.00  0.00     0.058 A 
ATOM     19  C   UNL A   1      33.946  24.875  26.124  1.00  0.00     0.027 C 
ATOM     20  C   UNL A   1      34.107  23.490  24.039  1.00  0.00     0.316 C 
BRANCH  15  21
ATOM     21  O   UNL A   1      31.298  28.856  26.094  1.00  0.00    -0.406 OA
BRANCH  21  22
ATOM     22  C   UNL A   1      31.941  30.107  25.914  1.00  0.00     0.573 C 
ATOM     23  F   UNL A   1      31.970  30.807  27.068  1.00  0.00    -0.132 F 
ATOM     24  F   UNL A   1      33.199  29.948  25.451  1.00  0.00    -0.132 F 
ATOM     25  F   UNL A   1      31.246  30.825  25.005  1.00  0.00    -0.132 F 
ENDBRANCH  21  22
ENDBRANCH  15  21
BRANCH  20  26
ATOM     26  C   UNL A   1      33.493  22.103  23.811  1.00  0.00     0.430 C 
ATOM     27  F   UNL A   1      32.559  21.816  24.751  1.00  0.00    -0.167 F 
ATOM     28  F   UNL A   1      32.875  22.008  22.612  1.00  0.00    -0.167 F 
ATOM     29  F   UNL A   1      34.429  21.126  23.861  1.00  0.00    -0.167 F 
ENDBRANCH  20  26
ENDBRANCH   8  10
ENDBRANCH   7   8
ENDBRANCH   6   7
ENDBRANCH   5   6
ENDBRANCH   4   5
ENDBRANCH   3   4
ENDBRANCH   2   3
ENDBRANCH   1   2
BRANCH   1  30
ATOM     30  C   UNL A   1      43.796  18.916  25.259  1.00  0.00     0.188 C 
BRANCH  30  31
ATOM     31  C   UNL A   1      45.075  19.430  24.548  1.00  0.00     0.188 C 
BRANCH  31  32
ATOM     32  O   UNL A   1      45.899  20.257  25.360  1.00  0.00    -0.376 OA
BRANCH  32  33
ATOM     33  C   UNL A   1      45.774  21.661  25.218  1.00  0.00     0.202 C 
BRANCH  33  34
ATOM     34  C   UNL A   1      45.018  22.381  26.342  1.00  0.00     0.261 C 
BRANCH  34  35
ATOM     35  O   UNL A   1      44.970  23.812  26.246  1.00  0.00    -0.460 OA
BRANCH  35  36
ATOM     36  C   UNL A   1      43.914  24.366  25.615  1.00  0.00     0.338 C 
ATOM     37  O   UNL A   1      43.474  24.081  24.516  1.00  0.00    -0.246 OA
BRANCH  36  38
ATOM     38  C   UNL A   1      43.263  25.272  26.581  1.00  0.00     0.060 A 
ATOM     39  C   UNL A   1      43.754  26.574  26.744  1.00  0.00     0.016 A 
ATOM     40  C   UNL A   1      42.154  24.835  27.307  1.00  0.00     0.016 A 
ATOM     41  C   UNL A   1      43.143  27.440  27.651  1.00  0.00     0.010 A 
ATOM     42  C   UNL A   1      41.565  25.689  28.243  1.00  0.00     0.010 A 
ATOM     43  C   UNL A   1      42.079  26.983  28.440  1.00  0.00    -0.014 A 
BRANCH  43  44
ATOM     44  C   UNL A   1      41.693  27.747  29.648  1.00  0.00     0.031 A 
ATOM     45  C   UNL A   1      40.524  28.687  29.529  1.00  0.00     0.074 A 
ATOM     46  C   UNL A   1      42.339  27.609  30.817  1.00  0.00     0.049 A 
ATOM     47  N   UNL A   1      40.001  29.487  30.420  1.00  0.00    -0.248 NA
ATOM     48  C   UNL A   1      39.853  28.724  28.217  1.00  0.00     0.031 C 
ATOM     49  C   UNL A   1      43.452  26.698  31.073  1.00  0.00     0.029 A 
ATOM     50  N   UNL A   1      42.144  28.253  32.014  1.00  0.00    -0.354 N 
ATOM     51  C   UNL A   1      38.937  30.111  29.783  1.00  0.00     0.074 A 
ATOM     52  C   UNL A   1      38.912  29.629  28.420  1.00  0.00     0.031 C 
ATOM     53  C   UNL A   1      43.853  26.853  32.349  1.00  0.00     0.029 A 
ATOM     54  C   UNL A   1      43.043  27.891  32.986  1.00  0.00     0.049 A 
ATOM     55  H   UNL A   1      41.427  28.911  32.162  1.00  0.00     0.167 HD
ATOM     56  C   UNL A   1      38.050  31.000  30.288  1.00  0.00     0.037 A 
ATOM     57  C   UNL A   1      43.199  28.364  34.238  1.00  0.00     0.037 A 
ATOM     58  C   UNL A   1      38.101  31.513  31.629  1.00  0.00     0.049 A 
ATOM     59  C   UNL A   1      42.276  29.448  34.738  1.00  0.00     0.074 A 
ATOM     60  C   UNL A   1      37.262  32.430  32.236  1.00  0.00     0.029 A 
ATOM     61  N   UNL A   1      39.061  31.166  32.567  1.00  0.00    -0.354 N 
ATOM     62  N   UNL A   1      41.254  30.013  34.141  1.00  0.00    -0.248 NA
ATOM     63  C   UNL A   1      42.531  29.957  36.094  1.00  0.00     0.031 C 
ATOM     64  C   UNL A   1      37.749  32.680  33.524  1.00  0.00     0.029 A 
ATOM     65  C   UNL A   1      38.853  31.871  33.741  1.00  0.00     0.049 A 
ATOM     66  H   UNL A   1      39.784  30.513  32.420  1.00  0.00     0.167 HD
ATOM     67  C   UNL A   1      40.723  30.912  35.059  1.00  0.00     0.074 A 
ATOM     68  C   UNL A   1      41.528  30.809  36.257  1.00  0.00     0.031 C 
ATOM     69  C   UNL A   1      39.663  31.750  34.927  1.00  0.00     0.037 A 
BRANCH  56  70
ATOM     70  C   UNL A   1      36.981  31.496  29.359  1.00  0.00     0.057 A 
ATOM     71  C   UNL A   1      35.884  30.688  29.037  1.00  0.00     0.134 A 
ATOM     72  C   UNL A   1      37.028  32.778  28.794  1.00  0.00     0.134 A 
ATOM     73  F   UNL A   1      35.776  29.451  29.544  1.00  0.00    -0.206 F 
ATOM     74  C   UNL A   1      34.871  31.138  28.189  1.00  0.00     0.040 A 
ATOM     75  C   UNL A   1      36.006  33.251  27.969  1.00  0.00     0.040 A 
ATOM     76  F   UNL A   1      38.040  33.611  29.081  1.00  0.00    -0.206 F 
ATOM     77  C   UNL A   1      34.925  32.428  27.661  1.00  0.00     0.006 A 
ENDBRANCH  56  70
BRANCH  57  78
ATOM     78  C   UNL A   1      44.280  27.844  35.116  1.00  0.00     0.057 A 
ATOM     79  C   UNL A   1      45.564  28.402  35.103  1.00  0.00     0.134 A 
ATOM     80  C   UNL A   1      44.032  26.822  36.041  1.00  0.00     0.134 A 
ATOM     81  F   UNL A   1      45.866  29.386  34.245  1.00  0.00    -0.206 F 
ATOM     82  C   UNL A   1      46.561  27.964  35.977  1.00  0.00     0.040 A 
ATOM     83  C   UNL A   1      45.011  26.395  36.941  1.00  0.00     0.040 A 
ATOM     84  F   UNL A   1      42.815  26.266  36.123  1.00  0.00    -0.206 F 
ATOM     85  C   UNL A   1      46.282  26.967  36.908  1.00  0.00     0.006 A 
ENDBRANCH  57  78
BRANCH  69  86
ATOM     86  C   UNL A   1      39.286  32.577  36.123  1.00  0.00     0.057 A 
ATOM     87  C   UNL A   1      38.345  32.102  37.047  1.00  0.00     0.134 A 
ATOM     88  C   UNL A   1      39.830  33.846  36.355  1.00  0.00     0.134 A 
ATOM     89  F   UNL A   1      37.772  30.900  36.880  1.00  0.00    -0.206 F 
ATOM     90  C   UNL A   1      37.963  32.857  38.157  1.00  0.00     0.040 A 
ATOM     91  C   UNL A   1      39.481  34.597  37.479  1.00  0.00     0.040 A 
ATOM     92  F   UNL A   1      40.745  34.358  35.516  1.00  0.00    -0.206 F 
ATOM     93  C   UNL A   1      38.540  34.104  38.382  1.00  0.00     0.006 A 
ENDBRANCH  69  86
ENDBRANCH  43  44
ENDBRANCH  36  38
ENDBRANCH  35  36
ENDBRANCH  34  35
ENDBRANCH  33  34
ENDBRANCH  32  33
ENDBRANCH  31  32
ENDBRANCH  30  31
ENDBRANCH   1  30
TORSDOF 23
ENDMDL
MODEL 2
REMARK VINA RESULT:      -9.9      4.299      6.942
REMARK SMILES Cc1cc(OC(F)(F)F)cc2c1O[C@H](C(F)(F)F)C(C(=O)OCCOCCOCCOCCOC(=O)c1ccc(-c3c4nc(c(-c5c(F)cccc5F)c5ccc([nH]5)c(-c5c(F)cccc5F)c5nc(c(-c6c(F)cccc6F)c6ccc3[nH]6)C=C5)C=C4)cc1)=C2
REMARK SMILES IDX 28 1 27 2 26 3 25 4 24 5 23 6 22 7 20 8 21 9 19 10 1 11 2 12
REMARK SMILES IDX 3 13 12 14 4 15 11 16 13 17 10 18 91 19 14 20 5 21 6 22 7 23
REMARK SMILES IDX 8 24 9 25 15 26 16 27 17 28 18 29 29 30 30 31 31 32 32 33
REMARK SMILES IDX 33 34 34 35 35 36 36 37 37 38 38 39 90 40 39 41 89 42 40 43
REMARK SMILES IDX 41 44 42 45 83 46 43 47 88 48 82 49 84 50 44 51 87 52 81 53
REMARK SMILES IDX 80 54 45 56 71 57 54 58 70 59 55 60 58 61 69 62 85 63 56 64
REMARK SMILES IDX 57 65 68 67 86 68 59 69 46 70 47 71 52 72 48 73 49 74 51 75
REMARK SMILES IDX 53 76 50 77 72 78 73 79 78 80 74 81 75 82 77 83 79 84 76 85
REMARK SMILES IDX 60 86 61 87 66 88 62 89 63 90 65 91 67 92 64 93
REMARK H PARENT 84 55 58 66
REMARK Flexibility Score: inf
ROOT
ATOM      1  O   UNL A   1      34.071  20.381  25.700  1.00  0.00    -0.377 OA
ENDROOT
BRANCH   1   2
ATOM      2  C   UNL A   1      32.784  20.020  25.222  1.00  0.00     0.188 C 
BRANCH   2   3
ATOM      3  C   UNL A   1      32.416  20.716  23.896  1.00  0.00     0.188 C 
BRANCH   3   4
ATOM      4  O   UNL A   1      31.748  21.952  24.090  1.00  0.00    -0.376 OA
BRANCH   4   5
ATOM      5  C   UNL A   1      32.345  23.168  23.669  1.00  0.00     0.202 C 
BRANCH   5   6
ATOM      6  C   UNL A   1      32.911  24.205  24.656  1.00  0.00     0.261 C 
BRANCH   6   7
ATOM      7  O   UNL A   1      34.028  24.983  24.215  1.00  0.00    -0.460 OA
BRANCH   7   8
ATOM      8  C   UNL A   1      33.835  25.840  23.198  1.00  0.00     0.338 C 
ATOM      9  O   UNL A   1      33.966  25.606  22.011  1.00  0.00    -0.246 OA
BRANCH   8  10
ATOM     10  C   UNL A   1      33.265  27.084  23.764  1.00  0.00     0.087 C 
ATOM     11  C   UNL A   1      30.314  31.116  24.989  1.00  0.00     0.048 C 
ATOM     12  C   UNL A   1      31.592  30.502  25.496  1.00  0.00    -0.005 A 
ATOM     13  C   UNL A   1      32.146  30.995  26.692  1.00  0.00     0.054 A 
ATOM     14  C   UNL A   1      32.192  29.403  24.862  1.00  0.00     0.131 A 
ATOM     15  C   UNL A   1      33.301  30.429  27.231  1.00  0.00     0.130 A 
ATOM     16  C   UNL A   1      33.325  28.809  25.420  1.00  0.00     0.021 A 
ATOM     17  O   UNL A   1      31.610  28.955  23.712  1.00  0.00    -0.475 OA
ATOM     18  C   UNL A   1      33.896  29.348  26.578  1.00  0.00     0.058 A 
ATOM     19  C   UNL A   1      33.868  27.589  24.847  1.00  0.00     0.027 C 
ATOM     20  C   UNL A   1      32.113  27.756  23.062  1.00  0.00     0.316 C 
BRANCH  15  21
ATOM     21  O   UNL A   1      33.936  30.814  28.376  1.00  0.00    -0.406 OA
BRANCH  21  22
ATOM     22  C   UNL A   1      34.482  32.121  28.417  1.00  0.00     0.573 C 
ATOM     23  F   UNL A   1      34.830  32.462  29.677  1.00  0.00    -0.132 F 
ATOM     24  F   UNL A   1      35.557  32.228  27.608  1.00  0.00    -0.132 F 
ATOM     25  F   UNL A   1      33.545  32.996  27.990  1.00  0.00    -0.132 F 
ENDBRANCH  21  22
ENDBRANCH  15  21
BRANCH  20  26
ATOM     26  C   UNL A   1      30.928  26.805  22.851  1.00  0.00     0.430 C 
ATOM     27  F   UNL A   1      30.637  26.121  23.984  1.00  0.00    -0.167 F 
ATOM     28  F   UNL A   1      29.801  27.464  22.498  1.00  0.00    -0.167 F 
ATOM     29  F   UNL A   1      31.182  25.894  21.883  1.00  0.00    -0.167 F 
ENDBRANCH  20  26
ENDBRANCH   8  10
ENDBRANCH   7   8
ENDBRANCH   6   7
ENDBRANCH   5   6
ENDBRANCH   4   5
ENDBRANCH   3   4
ENDBRANCH   2   3
ENDBRANCH   1   2
BRANCH   1  30
ATOM     30  C   UNL A   1      35.197  20.090  24.870  1.00  0.00     0.188 C 
BRANCH  30  31
ATOM     31  C   UNL A   1      36.584  20.746  25.094  1.00  0.00     0.188 C 
BRANCH  31  32
ATOM     32  O   UNL A   1      37.681  19.855  24.933  1.00  0.00    -0.376 OA
BRANCH  32  33
ATOM     33  C   UNL A   1      38.956  20.286  25.374  1.00  0.00     0.202 C 
BRANCH  33  34
ATOM     34  C   UNL A   1      39.825  19.218  26.050  1.00  0.00     0.261 C 
BRANCH  34  35
ATOM     35  O   UNL A   1      41.074  18.927  25.405  1.00  0.00    -0.460 OA
BRANCH  35  36
ATOM     36  C   UNL A   1      42.201  19.027  26.140  1.00  0.00     0.338 C 
ATOM     37  O   UNL A   1      43.013  18.151  26.376  1.00  0.00    -0.246 OA
BRANCH  36  38
ATOM     38  C   UNL A   1      42.375  20.457  26.465  1.00  0.00     0.060 A 
ATOM     39  C   UNL A   1      42.594  21.377  25.431  1.00  0.00     0.016 A 
ATOM     40  C   UNL A   1      42.297  20.883  27.791  1.00  0.00     0.016 A 
ATOM     41  C   UNL A   1      42.755  22.731  25.727  1.00  0.00     0.010 A 
ATOM     42  C   UNL A   1      42.496  22.233  28.091  1.00  0.00     0.010 A 
ATOM     43  C   UNL A   1      42.757  23.155  27.063  1.00  0.00    -0.014 A 
BRANCH  43  44
ATOM     44  C   UNL A   1      43.305  24.489  27.397  1.00  0.00     0.031 A 
ATOM     45  C   UNL A   1      42.329  25.550  27.828  1.00  0.00     0.074 A 
ATOM     46  C   UNL A   1      44.620  24.757  27.340  1.00  0.00     0.049 A 
ATOM     47  N   UNL A   1      42.540  26.799  28.149  1.00  0.00    -0.248 NA
ATOM     48  C   UNL A   1      40.917  25.137  27.909  1.00  0.00     0.031 C 
ATOM     49  C   UNL A   1      45.668  23.804  26.984  1.00  0.00     0.029 A 
ATOM     50  N   UNL A   1      45.292  25.930  27.576  1.00  0.00    -0.354 N 
ATOM     51  C   UNL A   1      41.295  27.316  28.480  1.00  0.00     0.074 A 
ATOM     52  C   UNL A   1      40.327  26.260  28.283  1.00  0.00     0.031 C 
ATOM     53  C   UNL A   1      46.856  24.437  27.013  1.00  0.00     0.029 A 
ATOM     54  C   UNL A   1      46.645  25.842  27.361  1.00  0.00     0.049 A 
ATOM     55  H   UNL A   1      44.847  26.756  27.874  1.00  0.00     0.167 HD
ATOM     56  C   UNL A   1      40.981  28.558  28.919  1.00  0.00     0.037 A 
ATOM     57  C   UNL A   1      47.593  26.797  27.419  1.00  0.00     0.037 A 
ATOM     58  C   UNL A   1      41.936  29.621  29.073  1.00  0.00     0.049 A 
ATOM     59  C   UNL A   1      47.200  28.206  27.790  1.00  0.00     0.074 A 
ATOM     60  C   UNL A   1      41.721  30.920  29.494  1.00  0.00     0.029 A 
ATOM     61  N   UNL A   1      43.288  29.509  28.789  1.00  0.00    -0.354 N 
ATOM     62  N   UNL A   1      46.026  28.681  28.130  1.00  0.00    -0.248 NA
ATOM     63  C   UNL A   1      48.273  29.212  27.787  1.00  0.00     0.031 C 
ATOM     64  C   UNL A   1      42.935  31.611  29.410  1.00  0.00     0.029 A 
ATOM     65  C   UNL A   1      43.917  30.725  28.999  1.00  0.00     0.049 A 
ATOM     66  H   UNL A   1      43.736  28.686  28.484  1.00  0.00     0.167 HD
ATOM     67  C   UNL A   1      46.226  30.028  28.417  1.00  0.00     0.074 A 
ATOM     68  C   UNL A   1      47.636  30.289  28.223  1.00  0.00     0.031 C 
ATOM     69  C   UNL A   1      45.325  30.966  28.807  1.00  0.00     0.037 A 
BRANCH  56  70
ATOM     70  C   UNL A   1      39.536  28.826  29.219  1.00  0.00     0.057 A 
ATOM     71  C   UNL A   1      39.028  28.642  30.510  1.00  0.00     0.134 A 
ATOM     72  C   UNL A   1      38.649  29.284  28.235  1.00  0.00     0.134 A 
ATOM     73  F   UNL A   1      39.823  28.209  31.500  1.00  0.00    -0.206 F 
ATOM     74  C   UNL A   1      37.692  28.905  30.813  1.00  0.00     0.040 A 
ATOM     75  C   UNL A   1      37.318  29.580  28.531  1.00  0.00     0.040 A 
ATOM     76  F   UNL A   1      39.077  29.505  26.983  1.00  0.00    -0.206 F 
ATOM     77  C   UNL A   1      36.834  29.385  29.824  1.00  0.00     0.006 A 
ENDBRANCH  56  70
BRANCH  57  78
ATOM     78  C   UNL A   1      49.011  26.479  27.105  1.00  0.00     0.057 A 
ATOM     79  C   UNL A   1      49.908  26.076  28.102  1.00  0.00     0.134 A 
ATOM     80  C   UNL A   1      49.483  26.502  25.786  1.00  0.00     0.134 A 
ATOM     81  F   UNL A   1      49.519  26.028  29.384  1.00  0.00    -0.206 F 
ATOM     82  C   UNL A   1      51.220  25.706  27.800  1.00  0.00     0.040 A 
ATOM     83  C   UNL A   1      50.783  26.107  25.467  1.00  0.00     0.040 A 
ATOM     84  F   UNL A   1      48.665  26.851  24.783  1.00  0.00    -0.206 F 
ATOM     85  C   UNL A   1      51.657  25.709  26.477  1.00  0.00     0.006 A 
ENDBRANCH  57  78
BRANCH  69  86
ATOM     86  C   UNL A   1      45.850  32.343  29.100  1.00  0.00     0.057 A 
ATOM     87  C   UNL A   1      46.296  32.675  30.386  1.00  0.00     0.134 A 
ATOM     88  C   UNL A   1      45.896  33.347  28.124  1.00  0.00     0.134 A 
ATOM     89  F   UNL A   1      46.267  31.766  31.373  1.00  0.00    -0.206 F 
ATOM     90  C   UNL A   1      46.770  33.951  30.690  1.00  0.00     0.040 A 
ATOM     91  C   UNL A   1      46.400  34.618  28.407  1.00  0.00     0.040 A 
ATOM     92  F   UNL A   1      45.495  33.095  26.868  1.00  0.00    -0.206 F 
ATOM     93  C   UNL A   1      46.834  34.924  29.696  1.00  0.00     0.006 A 
ENDBRANCH  69  86
ENDBRANCH  43  44
ENDBRANCH  36  38
ENDBRANCH  35  36
ENDBRANCH  34  35
ENDBRANCH  33  34
ENDBRANCH  32  33
ENDBRANCH  31  32
ENDBRANCH  30  31
ENDBRANCH   1  30
TORSDOF 23
ENDMDL
MODEL 3
REMARK VINA RESULT:      -9.8      4.101      6.298
REMARK SMILES Cc1cc(OC(F)(F)F)cc2c1O[C@H](C(F)(F)F)C(C(=O)OCCOCCOCCOCCOC(=O)c1ccc(-c3c4nc(c(-c5c(F)cccc5F)c5ccc([nH]5)c(-c5c(F)cccc5F)c5nc(c(-c6c(F)cccc6F)c6ccc3[nH]6)C=C5)C=C4)cc1)=C2
REMARK SMILES IDX 28 1 27 2 26 3 25 4 24 5 23 6 22 7 20 8 21 9 19 10 1 11 2 12
REMARK SMILES IDX 3 13 12 14 4 15 11 16 13 17 10 18 91 19 14 20 5 21 6 22 7 23
REMARK SMILES IDX 8 24 9 25 15 26 16 27 17 28 18 29 29 30 30 31 31 32 32 33
REMARK SMILES IDX 33 34 34 35 35 36 36 37 37 38 38 39 90 40 39 41 89 42 40 43
REMARK SMILES IDX 41 44 42 45 83 46 43 47 88 48 82 49 84 50 44 51 87 52 81 53
REMARK SMILES IDX 80 54 45 56 71 57 54 58 70 59 55 60 58 61 69 62 85 63 56 64
REMARK SMILES IDX 57 65 68 67 86 68 59 69 46 70 47 71 52 72 48 73 49 74 51 75
REMARK SMILES IDX 53 76 50 77 72 78 73 79 78 80 74 81 75 82 77 83 79 84 76 85
REMARK SMILES IDX 60 86 61 87 66 88 62 89 63 90 65 91 67 92 64 93
REMARK H PARENT 84 55 58 66
REMARK Flexibility Score: inf
ROOT
ATOM      1  O   UNL A   1      34.320  21.282  25.571  1.00  0.00    -0.377 OA
ENDROOT
BRANCH   1   2
ATOM      2  C   UNL A   1      33.044  21.897  25.467  1.00  0.00     0.188 C 
BRANCH   2   3
ATOM      3  C   UNL A   1      32.153  21.257  24.384  1.00  0.00     0.188 C 
BRANCH   3   4
ATOM      4  O   UNL A   1      32.371  21.809  23.095  1.00  0.00    -0.376 OA
BRANCH   4   5
ATOM      5  C   UNL A   1      32.300  23.210  22.890  1.00  0.00     0.202 C 
BRANCH   5   6
ATOM      6  C   UNL A   1      33.550  24.093  22.723  1.00  0.00     0.261 C 
BRANCH   6   7
ATOM      7  O   UNL A   1      33.358  25.510  22.762  1.00  0.00    -0.460 OA
BRANCH   7   8
ATOM      8  C   UNL A   1      32.932  26.056  23.914  1.00  0.00     0.338 C 
ATOM      9  O   UNL A   1      33.554  26.139  24.957  1.00  0.00    -0.246 OA
BRANCH   8  10
ATOM     10  C   UNL A   1      31.625  26.699  23.647  1.00  0.00     0.087 C 
ATOM     11  C   UNL A   1      26.700  28.182  23.653  1.00  0.00     0.048 C 
ATOM     12  C   UNL A   1      27.979  28.642  23.006  1.00  0.00    -0.005 A 
ATOM     13  C   UNL A   1      27.976  29.861  22.302  1.00  0.00     0.054 A 
ATOM     14  C   UNL A   1      29.184  27.940  23.161  1.00  0.00     0.131 A 
ATOM     15  C   UNL A   1      29.146  30.355  21.726  1.00  0.00     0.130 A 
ATOM     16  C   UNL A   1      30.365  28.452  22.619  1.00  0.00     0.021 A 
ATOM     17  O   UNL A   1      29.137  26.771  23.862  1.00  0.00    -0.475 OA
ATOM     18  C   UNL A   1      30.333  29.635  21.873  1.00  0.00     0.058 A 
ATOM     19  C   UNL A   1      31.636  27.804  22.892  1.00  0.00     0.027 C 
ATOM     20  C   UNL A   1      30.364  26.047  24.152  1.00  0.00     0.316 C 
BRANCH  15  21
ATOM     21  O   UNL A   1      29.275  31.516  21.019  1.00  0.00    -0.406 OA
BRANCH  21  22
ATOM     22  C   UNL A   1      28.104  32.068  20.443  1.00  0.00     0.573 C 
ATOM     23  F   UNL A   1      27.348  31.108  19.869  1.00  0.00    -0.132 F 
ATOM     24  F   UNL A   1      27.371  32.730  21.362  1.00  0.00    -0.132 F 
ATOM     25  F   UNL A   1      28.467  32.946  19.482  1.00  0.00    -0.132 F 
ENDBRANCH  21  22
ENDBRANCH  15  21
BRANCH  20  26
ATOM     26  C   UNL A   1      30.409  25.790  25.664  1.00  0.00     0.430 C 
ATOM     27  F   UNL A   1      29.169  25.562  26.163  1.00  0.00    -0.167 F 
ATOM     28  F   UNL A   1      31.156  24.707  25.977  1.00  0.00    -0.167 F 
ATOM     29  F   UNL A   1      30.927  26.845  26.336  1.00  0.00    -0.167 F 
ENDBRANCH  20  26
ENDBRANCH   8  10
ENDBRANCH   7   8
ENDBRANCH   6   7
ENDBRANCH   5   6
ENDBRANCH   4   5
ENDBRANCH   3   4
ENDBRANCH   2   3
ENDBRANCH   1   2
BRANCH   1  30
ATOM     30  C   UNL A   1      35.451  22.003  25.080  1.00  0.00     0.188 C 
BRANCH  30  31
ATOM     31  C   UNL A   1      36.854  21.890  25.730  1.00  0.00     0.188 C 
BRANCH  31  32
ATOM     32  O   UNL A   1      37.659  20.847  25.197  1.00  0.00    -0.376 OA
BRANCH  32  33
ATOM     33  C   UNL A   1      39.058  20.912  25.414  1.00  0.00     0.202 C 
BRANCH  33  34
ATOM     34  C   UNL A   1      39.723  19.609  25.876  1.00  0.00     0.261 C 
BRANCH  34  35
ATOM     35  O   UNL A   1      41.039  19.362  25.360  1.00  0.00    -0.460 OA
BRANCH  35  36
ATOM     36  C   UNL A   1      42.076  19.420  26.222  1.00  0.00     0.338 C 
ATOM     37  O   UNL A   1      42.871  18.537  26.487  1.00  0.00    -0.246 OA
BRANCH  36  38
ATOM     38  C   UNL A   1      42.188  20.824  26.663  1.00  0.00     0.060 A 
ATOM     39  C   UNL A   1      42.574  21.807  25.742  1.00  0.00     0.016 A 
ATOM     40  C   UNL A   1      41.887  21.166  27.983  1.00  0.00     0.016 A 
ATOM     41  C   UNL A   1      42.679  23.138  26.147  1.00  0.00     0.010 A 
ATOM     42  C   UNL A   1      42.028  22.492  28.398  1.00  0.00     0.010 A 
ATOM     43  C   UNL A   1      42.455  23.476  27.489  1.00  0.00    -0.014 A 
BRANCH  43  44
ATOM     44  C   UNL A   1      42.935  24.782  27.995  1.00  0.00     0.031 A 
ATOM     45  C   UNL A   1      41.902  25.845  28.255  1.00  0.00     0.074 A 
ATOM     46  C   UNL A   1      44.234  25.022  28.235  1.00  0.00     0.049 A 
ATOM     47  N   UNL A   1      42.055  27.075  28.672  1.00  0.00    -0.248 NA
ATOM     48  C   UNL A   1      40.501  25.462  28.010  1.00  0.00     0.031 C 
ATOM     49  C   UNL A   1      45.322  24.062  28.070  1.00  0.00     0.029 A 
ATOM     50  N   UNL A   1      44.855  26.168  28.666  1.00  0.00    -0.354 N 
ATOM     51  C   UNL A   1      40.774  27.604  28.750  1.00  0.00     0.074 A 
ATOM     52  C   UNL A   1      39.859  26.580  28.300  1.00  0.00     0.031 C 
ATOM     53  C   UNL A   1      46.484  24.666  28.384  1.00  0.00     0.029 A 
ATOM     54  C   UNL A   1      46.221  26.059  28.743  1.00  0.00     0.049 A 
ATOM     55  H   UNL A   1      44.366  26.991  28.899  1.00  0.00     0.167 HD
ATOM     56  C   UNL A   1      40.389  28.833  29.169  1.00  0.00     0.037 A 
ATOM     57  C   UNL A   1      47.146  26.989  29.049  1.00  0.00     0.037 A 
ATOM     58  C   UNL A   1      41.301  29.867  29.574  1.00  0.00     0.049 A 
ATOM     59  C   UNL A   1      46.700  28.390  29.392  1.00  0.00     0.074 A 
ATOM     60  C   UNL A   1      41.017  31.152  29.998  1.00  0.00     0.029 A 
ATOM     61  N   UNL A   1      42.682  29.737  29.583  1.00  0.00    -0.354 N 
ATOM     62  N   UNL A   1      45.486  28.876  29.492  1.00  0.00    -0.248 NA
ATOM     63  C   UNL A   1      47.761  29.370  29.667  1.00  0.00     0.031 C 
ATOM     64  C   UNL A   1      42.229  31.818  30.211  1.00  0.00     0.029 A 
ATOM     65  C   UNL A   1      43.266  30.928  29.981  1.00  0.00     0.049 A 
ATOM     66  H   UNL A   1      43.174  28.918  29.344  1.00  0.00     0.167 HD
ATOM     67  C   UNL A   1      45.636  30.204  29.878  1.00  0.00     0.074 A 
ATOM     68  C   UNL A   1      47.058  30.442  30.005  1.00  0.00     0.031 C 
ATOM     69  C   UNL A   1      44.685  31.145  30.108  1.00  0.00     0.037 A 
BRANCH  56  70
ATOM     70  C   UNL A   1      38.917  29.122  29.162  1.00  0.00     0.057 A 
ATOM     71  C   UNL A   1      38.159  28.998  30.332  1.00  0.00     0.134 A 
ATOM     72  C   UNL A   1      38.250  29.539  28.001  1.00  0.00     0.134 A 
ATOM     73  F   UNL A   1      38.736  28.605  31.479  1.00  0.00    -0.206 F 
ATOM     74  C   UNL A   1      36.793  29.280  30.351  1.00  0.00     0.040 A 
ATOM     75  C   UNL A   1      36.890  29.853  28.013  1.00  0.00     0.040 A 
ATOM     76  F   UNL A   1      38.922  29.701  26.852  1.00  0.00    -0.206 F 
ATOM     77  C   UNL A   1      36.157  29.719  29.190  1.00  0.00     0.006 A 
ENDBRANCH  56  70
BRANCH  57  78
ATOM     78  C   UNL A   1      48.594  26.653  29.033  1.00  0.00     0.057 A 
ATOM     79  C   UNL A   1      49.401  26.953  27.930  1.00  0.00     0.134 A 
ATOM     80  C   UNL A   1      49.218  26.086  30.152  1.00  0.00     0.134 A 
ATOM     81  F   UNL A   1      48.868  27.500  26.829  1.00  0.00    -0.206 F 
ATOM     82  C   UNL A   1      50.775  26.705  27.940  1.00  0.00     0.040 A 
ATOM     83  C   UNL A   1      50.595  25.860  30.186  1.00  0.00     0.040 A 
ATOM     84  F   UNL A   1      48.505  25.802  31.251  1.00  0.00    -0.206 F 
ATOM     85  C   UNL A   1      51.378  26.168  29.075  1.00  0.00     0.006 A 
ENDBRANCH  57  78
BRANCH  69  86
ATOM     86  C   UNL A   1      45.151  32.496  30.571  1.00  0.00     0.057 A 
ATOM     87  C   UNL A   1      45.373  32.743  31.932  1.00  0.00     0.134 A 
ATOM     88  C   UNL A   1      45.362  33.558  29.682  1.00  0.00     0.134 A 
ATOM     89  F   UNL A   1      45.178  31.775  32.842  1.00  0.00    -0.206 F 
ATOM     90  C   UNL A   1      45.788  33.994  32.392  1.00  0.00     0.040 A 
ATOM     91  C   UNL A   1      45.809  34.804  30.125  1.00  0.00     0.040 A 
ATOM     92  F   UNL A   1      45.179  33.388  28.363  1.00  0.00    -0.206 F 
ATOM     93  C   UNL A   1      46.019  35.026  31.485  1.00  0.00     0.006 A 
ENDBRANCH  69  86
ENDBRANCH  43  44
ENDBRANCH  36  38
ENDBRANCH  35  36
ENDBRANCH  34  35
ENDBRANCH  33  34
ENDBRANCH  32  33
ENDBRANCH  31  32
ENDBRANCH  30  31
ENDBRANCH   1  30
TORSDOF 23
ENDMDL
