MODEL 1
REMARK VINA RESULT:     -10.9      0.000      0.000
REMARK SMILES CC[C@H](NC(=O)c1nn(C)cc1C(=O)OCCOCCOCCOCCOC(=O)c1ccc(-c2c3nc(c(-c4c(F)cccc4F)c4ccc([nH]4)c(-c4c(F)cccc4F)c4nc(c(-c5c(F)cccc5F)c5ccc2[nH]5)C=C4)C=C3)cc1)c1ccccc1
REMARK SMILES IDX 20 1 19 2 18 3 17 4 16 5 15 6 13 7 14 8 12 9 7 10 8 11 9 12
REMARK SMILES IDX 11 13 10 14 5 15 4 16 6 18 3 19 2 20 1 21 84 22 85 23 89 24
REMARK SMILES IDX 86 25 88 26 87 27 21 28 22 29 23 30 24 31 25 32 26 33 27 34
REMARK SMILES IDX 28 35 29 36 30 37 31 38 83 39 32 40 82 41 33 42 34 43 35 44
REMARK SMILES IDX 76 45 36 46 81 47 75 48 77 49 37 50 80 51 74 52 73 53 38 55
REMARK SMILES IDX 64 56 47 57 63 58 48 59 51 60 62 61 78 62 49 63 50 64 61 66
REMARK SMILES IDX 79 67 52 68 39 69 40 70 45 71 41 72 42 73 44 74 46 75 43 76
REMARK SMILES IDX 65 77 66 78 71 79 67 80 68 81 70 82 72 83 69 84 53 85 54 86
REMARK SMILES IDX 59 87 55 88 56 89 58 90 60 91 57 92
REMARK H PARENT 4 17 77 54 51 65
REMARK Flexibility Score: inf
ROOT
ATOM      1  C   UNL A   1      37.824  22.933  26.056  1.00  0.00     0.188 C 
ENDROOT
BRANCH   1   2
ATOM      2  C   UNL A   1      37.358  22.899  24.597  1.00  0.00     0.188 C 
BRANCH   2   3
ATOM      3  O   UNL A   1      36.540  21.787  24.274  1.00  0.00    -0.376 OA
BRANCH   3   4
ATOM      4  C   UNL A   1      35.759  21.316  25.373  1.00  0.00     0.202 C 
BRANCH   4   5
ATOM      5  C   UNL A   1      34.332  20.981  24.963  1.00  0.00     0.261 C 
BRANCH   5   6
ATOM      6  O   UNL A   1      33.623  21.974  23.770  1.00  0.00    -0.460 OA
BRANCH   6   7
ATOM      7  C   UNL A   1      33.508  23.427  22.576  1.00  0.00     0.342 C 
ATOM      8  O   UNL A   1      33.469  23.357  21.331  1.00  0.00    -0.246 OA
BRANCH   7   9
ATOM      9  C   UNL A   1      33.594  24.903  22.997  1.00  0.00     0.111 A 
ATOM     10  C   UNL A   1      33.664  25.507  24.291  1.00  0.00     0.164 A 
ATOM     11  N   UNL A   1      33.815  26.845  24.193  1.00  0.00    -0.167 NA
ATOM     12  N   UNL A   1      33.739  27.090  22.877  1.00  0.00    -0.274 N 
ATOM     13  C   UNL A   1      33.477  25.986  22.134  1.00  0.00     0.125 A 
ATOM     14  C   UNL A   1      34.008  28.416  22.375  1.00  0.00     0.173 C 
BRANCH  10  15
ATOM     15  C   UNL A   1      33.650  24.855  25.600  1.00  0.00     0.273 C 
ATOM     16  N   UNL A   1      32.448  24.736  26.251  1.00  0.00    -0.344 N 
ATOM     17  H   UNL A   1      32.482  24.422  27.182  1.00  0.00     0.164 HD
ATOM     18  O   UNL A   1      34.656  24.390  26.136  1.00  0.00    -0.267 OA
BRANCH  16  19
ATOM     19  C   UNL A   1      31.132  25.025  25.713  1.00  0.00     0.112 C 
BRANCH  19  20
ATOM     20  C   UNL A   1      30.066  24.245  26.502  1.00  0.00     0.026 C 
ATOM     21  C   UNL A   1      30.255  22.732  26.523  1.00  0.00     0.006 C 
ENDBRANCH  19  20
BRANCH  19  22
ATOM     22  C   UNL A   1      30.951  26.540  25.717  1.00  0.00    -0.026 A 
ATOM     23  C   UNL A   1      31.647  27.505  27.092  1.00  0.00     0.006 A 
ATOM     24  C   UNL A   1      30.423  27.393  24.180  1.00  0.00     0.006 A 
ATOM     25  C   UNL A   1      31.828  29.311  26.954  1.00  0.00     0.000 A 
ATOM     26  C   UNL A   1      30.689  29.190  24.004  1.00  0.00     0.000 A 
ATOM     27  C   UNL A   1      31.402  30.147  25.375  1.00  0.00     0.000 A 
ENDBRANCH  19  22
ENDBRANCH  16  19
ENDBRANCH  10  15
ENDBRANCH   7   9
ENDBRANCH   6   7
ENDBRANCH   5   6
ENDBRANCH   4   5
ENDBRANCH   3   4
ENDBRANCH   2   3
ENDBRANCH   1   2
BRANCH   1  28
ATOM     28  O   UNL A   1      39.207  23.013  26.333  1.00  0.00    -0.377 OA
BRANCH  28  29
ATOM     29  C   UNL A   1      39.923  21.797  26.388  1.00  0.00     0.188 C 
BRANCH  29  30
ATOM     30  C   UNL A   1      40.848  21.541  27.591  1.00  0.00     0.188 C 
BRANCH  30  31
ATOM     31  O   UNL A   1      42.227  21.376  27.271  1.00  0.00    -0.376 OA
BRANCH  31  32
ATOM     32  C   UNL A   1      42.556  21.310  25.887  1.00  0.00     0.202 C 
BRANCH  32  33
ATOM     33  C   UNL A   1      43.570  22.363  25.424  1.00  0.00     0.261 C 
BRANCH  33  34
ATOM     34  O   UNL A   1      43.017  23.664  25.181  1.00  0.00    -0.460 OA
BRANCH  34  35
ATOM     35  C   UNL A   1      43.819  24.738  25.357  1.00  0.00     0.338 C 
ATOM     36  O   UNL A   1      44.726  25.122  24.645  1.00  0.00    -0.246 OA
BRANCH  35  37
ATOM     37  C   UNL A   1      43.222  25.510  26.462  1.00  0.00     0.060 A 
ATOM     38  C   UNL A   1      43.743  26.782  26.742  1.00  0.00     0.016 A 
ATOM     39  C   UNL A   1      42.072  25.047  27.106  1.00  0.00     0.016 A 
ATOM     40  C   UNL A   1      43.093  27.606  27.657  1.00  0.00     0.010 A 
ATOM     41  C   UNL A   1      41.459  25.847  28.067  1.00  0.00     0.010 A 
ATOM     42  C   UNL A   1      41.980  27.119  28.358  1.00  0.00    -0.014 A 
BRANCH  42  43
ATOM     43  C   UNL A   1      41.559  27.800  29.600  1.00  0.00     0.031 A 
ATOM     44  C   UNL A   1      40.379  28.727  29.492  1.00  0.00     0.074 A 
ATOM     45  C   UNL A   1      42.207  27.636  30.765  1.00  0.00     0.049 A 
ATOM     46  N   UNL A   1      39.823  29.473  30.408  1.00  0.00    -0.248 NA
ATOM     47  C   UNL A   1      39.737  28.818  28.168  1.00  0.00     0.031 C 
ATOM     48  C   UNL A   1      43.343  26.745  30.993  1.00  0.00     0.029 A 
ATOM     49  N   UNL A   1      42.000  28.237  31.982  1.00  0.00    -0.354 N 
ATOM     50  C   UNL A   1      38.759  30.102  29.774  1.00  0.00     0.074 A 
ATOM     51  C   UNL A   1      38.753  29.669  28.398  1.00  0.00     0.031 C 
ATOM     52  C   UNL A   1      43.750  26.878  32.270  1.00  0.00     0.029 A 
ATOM     53  C   UNL A   1      42.918  27.877  32.939  1.00  0.00     0.049 A 
ATOM     54  H   UNL A   1      41.262  28.865  32.152  1.00  0.00     0.167 HD
ATOM     55  C   UNL A   1      37.867  30.974  30.292  1.00  0.00     0.037 A 
ATOM     56  C   UNL A   1      43.072  28.332  34.197  1.00  0.00     0.037 A 
ATOM     57  C   UNL A   1      37.906  31.450  31.642  1.00  0.00     0.049 A 
ATOM     58  C   UNL A   1      42.126  29.386  34.718  1.00  0.00     0.074 A 
ATOM     59  C   UNL A   1      37.054  32.341  32.267  1.00  0.00     0.029 A 
ATOM     60  N   UNL A   1      38.874  31.093  32.568  1.00  0.00    -0.354 N 
ATOM     61  N   UNL A   1      41.091  29.937  34.129  1.00  0.00    -0.248 NA
ATOM     62  C   UNL A   1      42.377  29.890  36.078  1.00  0.00     0.031 C 
ATOM     63  C   UNL A   1      37.534  32.557  33.564  1.00  0.00     0.029 A 
ATOM     64  C   UNL A   1      38.659  31.769  33.754  1.00  0.00     0.049 A 
ATOM     65  H   UNL A   1      39.603  30.452  32.405  1.00  0.00     0.167 HD
ATOM     66  C   UNL A   1      40.555  30.828  35.050  1.00  0.00     0.074 A 
ATOM     67  C   UNL A   1      41.371  30.738  36.243  1.00  0.00     0.031 C 
ATOM     68  C   UNL A   1      39.485  31.650  34.926  1.00  0.00     0.037 A 
BRANCH  55  69
ATOM     69  C   UNL A   1      36.806  31.486  29.371  1.00  0.00     0.057 A 
ATOM     70  C   UNL A   1      35.720  30.689  28.989  1.00  0.00     0.134 A 
ATOM     71  C   UNL A   1      36.875  32.786  28.857  1.00  0.00     0.134 A 
ATOM     72  F   UNL A   1      35.619  29.424  29.423  1.00  0.00    -0.206 F 
ATOM     73  C   UNL A   1      34.740  31.166  28.118  1.00  0.00     0.040 A 
ATOM     74  C   UNL A   1      35.892  33.280  28.000  1.00  0.00     0.040 A 
ATOM     75  F   UNL A   1      37.900  33.589  29.174  1.00  0.00    -0.206 F 
ATOM     76  C   UNL A   1      34.822  32.468  27.627  1.00  0.00     0.006 A 
ENDBRANCH  55  69
BRANCH  56  77
ATOM     77  C   UNL A   1      44.178  27.835  35.055  1.00  0.00     0.057 A 
ATOM     78  C   UNL A   1      43.992  26.755  35.927  1.00  0.00     0.134 A 
ATOM     79  C   UNL A   1      45.425  28.471  35.078  1.00  0.00     0.134 A 
ATOM     80  F   UNL A   1      42.809  26.124  35.974  1.00  0.00    -0.206 F 
ATOM     81  C   UNL A   1      44.995  26.342  36.806  1.00  0.00     0.040 A 
ATOM     82  C   UNL A   1      46.445  28.053  35.936  1.00  0.00     0.040 A 
ATOM     83  F   UNL A   1      45.668  29.516  34.273  1.00  0.00    -0.206 F 
ATOM     84  C   UNL A   1      46.227  26.991  36.810  1.00  0.00     0.006 A 
ENDBRANCH  56  77
BRANCH  68  85
ATOM     85  C   UNL A   1      39.121  32.493  36.110  1.00  0.00     0.057 A 
ATOM     86  C   UNL A   1      38.286  32.014  37.127  1.00  0.00     0.134 A 
ATOM     87  C   UNL A   1      39.667  33.773  36.266  1.00  0.00     0.134 A 
ATOM     88  F   UNL A   1      37.727  30.799  37.030  1.00  0.00    -0.206 F 
ATOM     89  C   UNL A   1      37.995  32.786  38.251  1.00  0.00     0.040 A 
ATOM     90  C   UNL A   1      39.401  34.546  37.397  1.00  0.00     0.040 A 
ATOM     91  F   UNL A   1      40.485  34.283  35.333  1.00  0.00    -0.206 F 
ATOM     92  C   UNL A   1      38.560  34.053  38.393  1.00  0.00     0.006 A 
ENDBRANCH  68  85
ENDBRANCH  42  43
ENDBRANCH  35  37
ENDBRANCH  34  35
ENDBRANCH  33  34
ENDBRANCH  32  33
ENDBRANCH  31  32
ENDBRANCH  30  31
ENDBRANCH  29  30
ENDBRANCH  28  29
ENDBRANCH   1  28
TORSDOF 24
ENDMDL
MODEL 2
REMARK VINA RESULT:     -10.6      2.858      8.413
REMARK SMILES CC[C@H](NC(=O)c1nn(C)cc1C(=O)OCCOCCOCCOCCOC(=O)c1ccc(-c2c3nc(c(-c4c(F)cccc4F)c4ccc([nH]4)c(-c4c(F)cccc4F)c4nc(c(-c5c(F)cccc5F)c5ccc2[nH]5)C=C4)C=C3)cc1)c1ccccc1
REMARK SMILES IDX 20 1 19 2 18 3 17 4 16 5 15 6 13 7 14 8 12 9 7 10 8 11 9 12
REMARK SMILES IDX 11 13 10 14 5 15 4 16 6 18 3 19 2 20 1 21 84 22 85 23 89 24
REMARK SMILES IDX 86 25 88 26 87 27 21 28 22 29 23 30 24 31 25 32 26 33 27 34
REMARK SMILES IDX 28 35 29 36 30 37 31 38 83 39 32 40 82 41 33 42 34 43 35 44
REMARK SMILES IDX 76 45 36 46 81 47 75 48 77 49 37 50 80 51 74 52 73 53 38 55
REMARK SMILES IDX 64 56 47 57 63 58 48 59 51 60 62 61 78 62 49 63 50 64 61 66
REMARK SMILES IDX 79 67 52 68 39 69 40 70 45 71 41 72 42 73 44 74 46 75 43 76
REMARK SMILES IDX 65 77 66 78 71 79 67 80 68 81 70 82 72 83 69 84 53 85 54 86
REMARK SMILES IDX 59 87 55 88 56 89 58 90 60 91 57 92
REMARK H PARENT 4 17 77 54 51 65
REMARK Flexibility Score: inf
ROOT
ATOM      1  C   UNL A   1      30.751  28.646  23.451  1.00  0.00     0.188 C 
ENDROOT
BRANCH   1   2
ATOM      2  C   UNL A   1      31.836  27.829  22.741  1.00  0.00     0.188 C 
BRANCH   2   3
ATOM      3  O   UNL A   1      31.340  26.931  21.762  1.00  0.00    -0.376 OA
BRANCH   3   4
ATOM      4  C   UNL A   1      31.952  25.642  21.809  1.00  0.00     0.202 C 
BRANCH   4   5
ATOM      5  C   UNL A   1      32.902  25.500  22.990  1.00  0.00     0.261 C 
BRANCH   5   6
ATOM      6  O   UNL A   1      32.502  24.326  24.162  1.00  0.00    -0.460 OA
BRANCH   6   7
ATOM      7  C   UNL A   1      31.789  22.709  24.814  1.00  0.00     0.342 C 
ATOM      8  O   UNL A   1      30.788  22.588  25.549  1.00  0.00    -0.246 OA
BRANCH   7   9
ATOM      9  C   UNL A   1      32.451  21.333  24.631  1.00  0.00     0.111 A 
ATOM     10  C   UNL A   1      33.501  20.693  25.359  1.00  0.00     0.164 A 
ATOM     11  N   UNL A   1      33.711  19.440  24.904  1.00  0.00    -0.167 NA
ATOM     12  N   UNL A   1      32.888  19.328  23.852  1.00  0.00    -0.274 N 
ATOM     13  C   UNL A   1      32.213  20.470  23.568  1.00  0.00     0.125 A 
ATOM     14  C   UNL A   1      32.730  18.054  23.193  1.00  0.00     0.173 C 
BRANCH  10  15
ATOM     15  C   UNL A   1      34.262  21.208  26.496  1.00  0.00     0.273 C 
ATOM     16  N   UNL A   1      35.586  21.515  26.303  1.00  0.00    -0.344 N 
ATOM     17  H   UNL A   1      36.109  21.727  27.109  1.00  0.00     0.164 HD
ATOM     18  O   UNL A   1      33.772  21.398  27.609  1.00  0.00    -0.267 OA
BRANCH  16  19
ATOM     19  C   UNL A   1      36.295  21.561  25.040  1.00  0.00     0.112 C 
BRANCH  19  20
ATOM     20  C   UNL A   1      35.954  22.866  24.299  1.00  0.00     0.026 C 
ATOM     21  C   UNL A   1      35.834  24.100  25.186  1.00  0.00     0.006 C 
ENDBRANCH  19  20
BRANCH  19  22
ATOM     22  C   UNL A   1      37.780  21.363  25.333  1.00  0.00    -0.026 A 
ATOM     23  C   UNL A   1      38.666  22.632  26.287  1.00  0.00     0.006 A 
ATOM     24  C   UNL A   1      38.535  19.706  25.099  1.00  0.00     0.006 A 
ATOM     25  C   UNL A   1      40.294  22.271  27.014  1.00  0.00     0.000 A 
ATOM     26  C   UNL A   1      40.124  19.312  25.905  1.00  0.00     0.000 A 
ATOM     27  C   UNL A   1      40.997  20.580  26.873  1.00  0.00     0.000 A 
ENDBRANCH  19  22
ENDBRANCH  16  19
ENDBRANCH  10  15
ENDBRANCH   7   9
ENDBRANCH   6   7
ENDBRANCH   5   6
ENDBRANCH   4   5
ENDBRANCH   3   4
ENDBRANCH   2   3
ENDBRANCH   1   2
BRANCH   1  28
ATOM     28  O   UNL A   1      31.050  29.252  24.692  1.00  0.00    -0.377 OA
BRANCH  28  29
ATOM     29  C   UNL A   1      32.399  29.590  24.933  1.00  0.00     0.188 C 
BRANCH  29  30
ATOM     30  C   UNL A   1      32.791  30.106  26.330  1.00  0.00     0.188 C 
BRANCH  30  31
ATOM     31  O   UNL A   1      31.767  30.815  27.023  1.00  0.00    -0.376 OA
BRANCH  31  32
ATOM     32  C   UNL A   1      31.630  32.199  26.714  1.00  0.00     0.202 C 
BRANCH  32  33
ATOM     33  C   UNL A   1      32.743  33.090  27.278  1.00  0.00     0.261 C 
BRANCH  33  34
ATOM     34  O   UNL A   1      32.317  34.024  28.280  1.00  0.00    -0.460 OA
BRANCH  34  35
ATOM     35  C   UNL A   1      33.185  34.986  28.662  1.00  0.00     0.338 C 
ATOM     36  O   UNL A   1      32.991  36.183  28.742  1.00  0.00    -0.246 OA
BRANCH  35  37
ATOM     37  C   UNL A   1      34.357  34.278  29.210  1.00  0.00     0.060 A 
ATOM     38  C   UNL A   1      34.139  33.276  30.167  1.00  0.00     0.016 A 
ATOM     39  C   UNL A   1      35.628  34.498  28.676  1.00  0.00     0.016 A 
ATOM     40  C   UNL A   1      35.201  32.471  30.574  1.00  0.00     0.010 A 
ATOM     41  C   UNL A   1      36.701  33.734  29.130  1.00  0.00     0.010 A 
ATOM     42  C   UNL A   1      36.492  32.733  30.093  1.00  0.00    -0.014 A 
BRANCH  42  43
ATOM     43  C   UNL A   1      37.654  32.185  30.823  1.00  0.00     0.031 A 
ATOM     44  C   UNL A   1      38.420  31.086  30.138  1.00  0.00     0.074 A 
ATOM     45  C   UNL A   1      38.002  32.612  32.048  1.00  0.00     0.049 A 
ATOM     46  N   UNL A   1      39.452  30.406  30.559  1.00  0.00    -0.248 NA
ATOM     47  C   UNL A   1      37.958  30.708  28.790  1.00  0.00     0.031 C 
ATOM     48  C   UNL A   1      37.351  33.687  32.795  1.00  0.00     0.029 A 
ATOM     49  N   UNL A   1      38.993  32.171  32.888  1.00  0.00    -0.354 N 
ATOM     50  C   UNL A   1      39.770  29.540  29.521  1.00  0.00     0.074 A 
ATOM     51  C   UNL A   1      38.819  29.762  28.459  1.00  0.00     0.031 C 
ATOM     52  C   UNL A   1      37.947  33.804  33.996  1.00  0.00     0.029 A 
ATOM     53  C   UNL A   1      39.003  32.799  34.109  1.00  0.00     0.049 A 
ATOM     54  H   UNL A   1      39.637  31.470  32.637  1.00  0.00     0.167 HD
ATOM     55  C   UNL A   1      40.766  28.629  29.461  1.00  0.00     0.037 A 
ATOM     56  C   UNL A   1      39.766  32.560  35.193  1.00  0.00     0.037 A 
ATOM     57  C   UNL A   1      41.674  28.365  30.536  1.00  0.00     0.049 A 
ATOM     58  C   UNL A   1      40.801  31.464  35.137  1.00  0.00     0.074 A 
ATOM     59  C   UNL A   1      42.715  27.457  30.582  1.00  0.00     0.029 A 
ATOM     60  N   UNL A   1      41.627  28.994  31.770  1.00  0.00    -0.354 N 
ATOM     61  N   UNL A   1      41.130  30.684  34.133  1.00  0.00    -0.248 NA
ATOM     62  C   UNL A   1      41.564  31.206  36.368  1.00  0.00     0.031 C 
ATOM     63  C   UNL A   1      43.273  27.506  31.864  1.00  0.00     0.029 A 
ATOM     64  C   UNL A   1      42.603  28.474  32.599  1.00  0.00     0.049 A 
ATOM     65  H   UNL A   1      40.995  29.707  32.018  1.00  0.00     0.167 HD
ATOM     66  C   UNL A   1      42.151  29.867  34.603  1.00  0.00     0.074 A 
ATOM     67  C   UNL A   1      42.396  30.250  35.977  1.00  0.00     0.031 C 
ATOM     68  C   UNL A   1      42.827  28.884  33.959  1.00  0.00     0.037 A 
BRANCH  55  69
ATOM     69  C   UNL A   1      40.882  27.834  28.199  1.00  0.00     0.057 A 
ATOM     70  C   UNL A   1      41.626  28.299  27.108  1.00  0.00     0.134 A 
ATOM     71  C   UNL A   1      40.240  26.598  28.073  1.00  0.00     0.134 A 
ATOM     72  F   UNL A   1      42.237  29.492  27.158  1.00  0.00    -0.206 F 
ATOM     73  C   UNL A   1      41.721  27.561  25.927  1.00  0.00     0.040 A 
ATOM     74  C   UNL A   1      40.342  25.843  26.905  1.00  0.00     0.040 A 
ATOM     75  F   UNL A   1      39.499  26.110  29.079  1.00  0.00    -0.206 F 
ATOM     76  C   UNL A   1      41.082  26.326  25.827  1.00  0.00     0.006 A 
ENDBRANCH  55  69
BRANCH  56  77
ATOM     77  C   UNL A   1      39.573  33.337  36.445  1.00  0.00     0.057 A 
ATOM     78  C   UNL A   1      38.667  32.917  37.428  1.00  0.00     0.134 A 
ATOM     79  C   UNL A   1      40.232  34.553  36.658  1.00  0.00     0.134 A 
ATOM     80  F   UNL A   1      37.981  31.776  37.267  1.00  0.00    -0.206 F 
ATOM     81  C   UNL A   1      38.407  33.688  38.562  1.00  0.00     0.040 A 
ATOM     82  C   UNL A   1      39.998  35.324  37.799  1.00  0.00     0.040 A 
ATOM     83  F   UNL A   1      41.107  35.017  35.753  1.00  0.00    -0.206 F 
ATOM     84  C   UNL A   1      39.076  34.895  38.751  1.00  0.00     0.006 A 
ENDBRANCH  56  77
BRANCH  68  85
ATOM     85  C   UNL A   1      43.907  28.177  34.721  1.00  0.00     0.057 A 
ATOM     86  C   UNL A   1      45.216  28.671  34.771  1.00  0.00     0.134 A 
ATOM     87  C   UNL A   1      43.616  27.027  35.465  1.00  0.00     0.134 A 
ATOM     88  F   UNL A   1      45.557  29.765  34.072  1.00  0.00    -0.206 F 
ATOM     89  C   UNL A   1      46.203  28.036  35.524  1.00  0.00     0.040 A 
ATOM     90  C   UNL A   1      44.590  26.396  36.240  1.00  0.00     0.040 A 
ATOM     91  F   UNL A   1      42.378  26.512  35.467  1.00  0.00    -0.206 F 
ATOM     92  C   UNL A   1      45.889  26.899  36.269  1.00  0.00     0.006 A 
ENDBRANCH  68  85
ENDBRANCH  42  43
ENDBRANCH  35  37
ENDBRANCH  34  35
ENDBRANCH  33  34
ENDBRANCH  32  33
ENDBRANCH  31  32
ENDBRANCH  30  31
ENDBRANCH  29  30
ENDBRANCH  28  29
ENDBRANCH   1  28
TORSDOF 24
ENDMDL
MODEL 3
REMARK VINA RESULT:     -10.5      1.700      3.170
REMARK SMILES CC[C@H](NC(=O)c1nn(C)cc1C(=O)OCCOCCOCCOCCOC(=O)c1ccc(-c2c3nc(c(-c4c(F)cccc4F)c4ccc([nH]4)c(-c4c(F)cccc4F)c4nc(c(-c5c(F)cccc5F)c5ccc2[nH]5)C=C4)C=C3)cc1)c1ccccc1
REMARK SMILES IDX 20 1 19 2 18 3 17 4 16 5 15 6 13 7 14 8 12 9 7 10 8 11 9 12
REMARK SMILES IDX 11 13 10 14 5 15 4 16 6 18 3 19 2 20 1 21 84 22 85 23 89 24
REMARK SMILES IDX 86 25 88 26 87 27 21 28 22 29 23 30 24 31 25 32 26 33 27 34
REMARK SMILES IDX 28 35 29 36 30 37 31 38 83 39 32 40 82 41 33 42 34 43 35 44
REMARK SMILES IDX 76 45 36 46 81 47 75 48 77 49 37 50 80 51 74 52 73 53 38 55
REMARK SMILES IDX 64 56 47 57 63 58 48 59 51 60 62 61 78 62 49 63 50 64 61 66
REMARK SMILES IDX 79 67 52 68 39 69 40 70 45 71 41 72 42 73 44 74 46 75 43 76
REMARK SMILES IDX 65 77 66 78 71 79 67 80 68 81 70 82 72 83 69 84 53 85 54 86
REMARK SMILES IDX 59 87 55 88 56 89 58 90 60 91 57 92
REMARK H PARENT 4 17 77 54 51 65
REMARK Flexibility Score: inf
ROOT
ATOM      1  C   UNL A   1      39.524  21.469  26.089  1.00  0.00     0.188 C 
ENDROOT
BRANCH   1   2
ATOM      2  C   UNL A   1      38.313  22.397  25.951  1.00  0.00     0.188 C 
BRANCH   2   3
ATOM      3  O   UNL A   1      37.156  21.768  25.427  1.00  0.00    -0.376 OA
BRANCH   3   4
ATOM      4  C   UNL A   1      36.167  22.689  24.962  1.00  0.00     0.202 C 
BRANCH   4   5
ATOM      5  C   UNL A   1      35.983  22.620  23.452  1.00  0.00     0.261 C 
BRANCH   5   6
ATOM      6  O   UNL A   1      34.859  23.705  22.766  1.00  0.00    -0.460 OA
BRANCH   6   7
ATOM      7  C   UNL A   1      33.846  25.288  22.629  1.00  0.00     0.342 C 
ATOM      8  O   UNL A   1      33.674  25.965  21.597  1.00  0.00    -0.246 OA
BRANCH   7   9
ATOM      9  C   UNL A   1      33.220  26.021  23.827  1.00  0.00     0.111 A 
ATOM     10  C   UNL A   1      31.956  25.852  24.474  1.00  0.00     0.164 A 
ATOM     11  N   UNL A   1      31.852  26.659  25.550  1.00  0.00    -0.167 NA
ATOM     12  N   UNL A   1      32.976  27.390  25.525  1.00  0.00    -0.274 N 
ATOM     13  C   UNL A   1      33.761  27.140  24.447  1.00  0.00     0.125 A 
ATOM     14  C   UNL A   1      33.286  28.273  26.624  1.00  0.00     0.173 C 
BRANCH  10  15
ATOM     15  C   UNL A   1      30.881  24.920  24.137  1.00  0.00     0.273 C 
ATOM     16  N   UNL A   1      31.039  23.600  24.477  1.00  0.00    -0.344 N 
ATOM     17  H   UNL A   1      30.371  22.972  24.121  1.00  0.00     0.164 HD
ATOM     18  O   UNL A   1      29.837  25.262  23.584  1.00  0.00    -0.267 OA
BRANCH  16  19
ATOM     19  C   UNL A   1      32.085  23.032  25.306  1.00  0.00     0.112 C 
BRANCH  19  20
ATOM     20  C   UNL A   1      31.589  22.909  26.758  1.00  0.00     0.026 C 
ATOM     21  C   UNL A   1      30.094  23.141  26.951  1.00  0.00     0.006 C 
ENDBRANCH  19  20
BRANCH  19  22
ATOM     22  C   UNL A   1      32.521  21.717  24.666  1.00  0.00    -0.026 A 
ATOM     23  C   UNL A   1      33.036  20.343  25.740  1.00  0.00     0.006 A 
ATOM     24  C   UNL A   1      32.133  21.397  22.901  1.00  0.00     0.006 A 
ATOM     25  C   UNL A   1      33.167  18.653  25.080  1.00  0.00     0.000 A 
ATOM     26  C   UNL A   1      32.172  19.689  22.260  1.00  0.00     0.000 A 
ATOM     27  C   UNL A   1      32.671  18.317  23.344  1.00  0.00     0.000 A 
ENDBRANCH  19  22
ENDBRANCH  16  19
ENDBRANCH  10  15
ENDBRANCH   7   9
ENDBRANCH   6   7
ENDBRANCH   5   6
ENDBRANCH   4   5
ENDBRANCH   3   4
ENDBRANCH   2   3
ENDBRANCH   1   2
BRANCH   1  28
ATOM     28  O   UNL A   1      40.223  21.431  27.316  1.00  0.00    -0.377 OA
BRANCH  28  29
ATOM     29  C   UNL A   1      41.291  20.512  27.419  1.00  0.00     0.188 C 
BRANCH  29  30
ATOM     30  C   UNL A   1      42.109  20.189  26.156  1.00  0.00     0.188 C 
BRANCH  30  31
ATOM     31  O   UNL A   1      43.315  20.935  26.008  1.00  0.00    -0.376 OA
BRANCH  31  32
ATOM     32  C   UNL A   1      43.198  22.221  25.407  1.00  0.00     0.202 C 
BRANCH  32  33
ATOM     33  C   UNL A   1      43.433  23.395  26.365  1.00  0.00     0.261 C 
BRANCH  33  34
ATOM     34  O   UNL A   1      42.257  24.149  26.692  1.00  0.00    -0.460 OA
BRANCH  34  35
ATOM     35  C   UNL A   1      42.108  25.368  26.128  1.00  0.00     0.338 C 
ATOM     36  O   UNL A   1      42.080  25.650  24.947  1.00  0.00    -0.246 OA
BRANCH  35  37
ATOM     37  C   UNL A   1      41.733  26.277  27.227  1.00  0.00     0.060 A 
ATOM     38  C   UNL A   1      42.402  27.505  27.332  1.00  0.00     0.016 A 
ATOM     39  C   UNL A   1      40.638  25.984  28.043  1.00  0.00     0.016 A 
ATOM     40  C   UNL A   1      41.955  28.457  28.245  1.00  0.00     0.010 A 
ATOM     41  C   UNL A   1      40.231  26.911  28.999  1.00  0.00     0.010 A 
ATOM     42  C   UNL A   1      40.901  28.140  29.114  1.00  0.00    -0.014 A 
BRANCH  42  43
ATOM     43  C   UNL A   1      40.710  28.951  30.335  1.00  0.00     0.031 A 
ATOM     44  C   UNL A   1      39.626  29.992  30.288  1.00  0.00     0.074 A 
ATOM     45  C   UNL A   1      41.477  28.799  31.427  1.00  0.00     0.049 A 
ATOM     46  N   UNL A   1      39.266  30.859  31.195  1.00  0.00    -0.248 NA
ATOM     47  C   UNL A   1      38.837  30.059  29.044  1.00  0.00     0.031 C 
ATOM     48  C   UNL A   1      42.537  27.806  31.596  1.00  0.00     0.029 A 
ATOM     49  N   UNL A   1      41.486  29.504  32.604  1.00  0.00    -0.354 N 
ATOM     50  C   UNL A   1      38.201  31.555  30.639  1.00  0.00     0.074 A 
ATOM     51  C   UNL A   1      37.980  31.028  29.314  1.00  0.00     0.031 C 
ATOM     52  C   UNL A   1      43.110  27.983  32.801  1.00  0.00     0.029 A 
ATOM     53  C   UNL A   1      42.474  29.114  33.475  1.00  0.00     0.049 A 
ATOM     54  H   UNL A   1      40.842  30.221  32.806  1.00  0.00     0.167 HD
ATOM     55  C   UNL A   1      37.474  32.555  31.182  1.00  0.00     0.037 A 
ATOM     56  C   UNL A   1      42.829  29.638  34.664  1.00  0.00     0.037 A 
ATOM     57  C   UNL A   1      37.729  33.119  32.473  1.00  0.00     0.049 A 
ATOM     58  C   UNL A   1      42.067  30.824  35.201  1.00  0.00     0.074 A 
ATOM     59  C   UNL A   1      37.056  34.141  33.116  1.00  0.00     0.029 A 
ATOM     60  N   UNL A   1      38.763  32.723  33.307  1.00  0.00    -0.354 N 
ATOM     61  N   UNL A   1      41.028  31.443  34.692  1.00  0.00    -0.248 NA
ATOM     62  C   UNL A   1      42.535  31.393  36.475  1.00  0.00     0.031 C 
ATOM     63  C   UNL A   1      37.712  34.395  34.325  1.00  0.00     0.029 A 
ATOM     64  C   UNL A   1      38.767  33.502  34.450  1.00  0.00     0.049 A 
ATOM     65  H   UNL A   1      39.397  31.996  33.116  1.00  0.00     0.167 HD
ATOM     66  C   UNL A   1      40.704  32.451  35.591  1.00  0.00     0.074 A 
ATOM     67  C   UNL A   1      41.649  32.357  36.684  1.00  0.00     0.031 C 
ATOM     68  C   UNL A   1      39.716  33.376  35.524  1.00  0.00     0.037 A 
BRANCH  55  69
ATOM     69  C   UNL A   1      36.364  33.115  30.350  1.00  0.00     0.057 A 
ATOM     70  C   UNL A   1      35.029  32.756  30.572  1.00  0.00     0.134 A 
ATOM     71  C   UNL A   1      36.634  34.017  29.315  1.00  0.00     0.134 A 
ATOM     72  F   UNL A   1      34.713  31.870  31.529  1.00  0.00    -0.206 F 
ATOM     73  C   UNL A   1      33.998  33.270  29.785  1.00  0.00     0.040 A 
ATOM     74  C   UNL A   1      35.610  34.551  28.533  1.00  0.00     0.040 A 
ATOM     75  F   UNL A   1      37.894  34.384  29.044  1.00  0.00    -0.206 F 
ATOM     76  C   UNL A   1      34.288  34.175  28.766  1.00  0.00     0.006 A 
ENDBRANCH  55  69
BRANCH  56  77
ATOM     77  C   UNL A   1      43.977  29.083  35.426  1.00  0.00     0.057 A 
ATOM     78  C   UNL A   1      45.290  29.497  35.165  1.00  0.00     0.134 A 
ATOM     79  C   UNL A   1      43.800  28.077  36.383  1.00  0.00     0.134 A 
ATOM     80  F   UNL A   1      45.528  30.436  34.237  1.00  0.00    -0.206 F 
ATOM     81  C   UNL A   1      46.383  28.914  35.807  1.00  0.00     0.040 A 
ATOM     82  C   UNL A   1      44.883  27.500  37.049  1.00  0.00     0.040 A 
ATOM     83  F   UNL A   1      42.570  27.630  36.676  1.00  0.00    -0.206 F 
ATOM     84  C   UNL A   1      46.181  27.912  36.755  1.00  0.00     0.006 A 
ENDBRANCH  56  77
BRANCH  68  85
ATOM     85  C   UNL A   1      39.590  34.337  36.667  1.00  0.00     0.057 A 
ATOM     86  C   UNL A   1      38.954  33.980  37.862  1.00  0.00     0.134 A 
ATOM     87  C   UNL A   1      40.170  35.609  36.594  1.00  0.00     0.134 A 
ATOM     88  F   UNL A   1      38.372  32.777  37.988  1.00  0.00    -0.206 F 
ATOM     89  C   UNL A   1      38.887  34.862  38.940  1.00  0.00     0.040 A 
ATOM     90  C   UNL A   1      40.129  36.491  37.673  1.00  0.00     0.040 A 
ATOM     91  F   UNL A   1      40.805  36.005  35.480  1.00  0.00    -0.206 F 
ATOM     92  C   UNL A   1      39.483  36.118  38.850  1.00  0.00     0.006 A 
ENDBRANCH  68  85
ENDBRANCH  42  43
ENDBRANCH  35  37
ENDBRANCH  34  35
ENDBRANCH  33  34
ENDBRANCH  32  33
ENDBRANCH  31  32
ENDBRANCH  30  31
ENDBRANCH  29  30
ENDBRANCH  28  29
ENDBRANCH   1  28
TORSDOF 24
ENDMDL
