MODEL 1
REMARK VINA RESULT:     -11.5      0.000      0.000
REMARK SMILES O=C(OCCOCCOCCOCCOC(=O)[C@H]1[C@H]2CC[C@H](CC2)[C@@H]1C(=O)Nc1sc2c(c1C(=O)N1CCCCC1)CCCC2)c1ccc(-c2c3nc(c(-c4c(F)cccc4F)c4ccc([nH]4)c(-c4c(F)cccc4F)c4nc(c(-c5c(F)cccc5F)c5ccc2[nH]5)C=C4)C=C3)cc1
REMARK SMILES IDX 10 1 9 2 8 3 7 4 6 5 5 6 4 7 3 8 2 9 1 10 46 11 47 12 99 13
REMARK SMILES IDX 48 14 98 15 49 16 50 17 51 18 92 19 52 20 97 21 91 22 93 23
REMARK SMILES IDX 53 24 96 25 90 26 89 27 54 29 80 30 63 31 79 32 64 33 67 34
REMARK SMILES IDX 78 35 94 36 65 37 66 38 77 40 95 41 68 42 55 43 56 44 61 45
REMARK SMILES IDX 57 46 58 47 60 48 62 49 59 50 81 51 82 52 87 53 83 54 84 55
REMARK SMILES IDX 86 56 88 57 85 58 69 59 70 60 75 61 71 62 72 63 74 64 76 65
REMARK SMILES IDX 73 66 11 67 12 68 13 69 14 70 15 71 16 72 17 73 18 74 19 75
REMARK SMILES IDX 25 76 24 77 20 78 22 79 23 80 21 81 26 82 27 83 28 84 29 86
REMARK SMILES IDX 30 87 33 88 31 89 32 90 45 91 42 92 44 93 43 94 34 95 35 96
REMARK SMILES IDX 36 97 37 98 41 99 38 100 40 101 39 102
REMARK H PARENT 93 28 67 39 28 85
REMARK Flexibility Score: inf
ROOT
ATOM      1  C   UNL A   1      40.583  19.815  26.106  1.00  0.00     0.188 C 
ENDROOT
BRANCH   1   2
ATOM      2  O   UNL A   1      41.724  19.358  25.378  1.00  0.00    -0.377 OA
BRANCH   2   3
ATOM      3  C   UNL A   1      42.980  19.408  26.052  1.00  0.00     0.188 C 
BRANCH   3   4
ATOM      4  C   UNL A   1      44.033  20.174  25.271  1.00  0.00     0.188 C 
BRANCH   4   5
ATOM      5  O   UNL A   1      43.516  21.466  24.954  1.00  0.00    -0.376 OA
BRANCH   5   6
ATOM      6  C   UNL A   1      43.502  22.375  26.048  1.00  0.00     0.202 C 
BRANCH   6   7
ATOM      7  C   UNL A   1      42.181  23.121  26.172  1.00  0.00     0.261 C 
BRANCH   7   8
ATOM      8  O   UNL A   1      42.241  24.491  25.739  1.00  0.00    -0.460 OA
BRANCH   8   9
ATOM      9  C   UNL A   1      42.924  25.547  26.243  1.00  0.00     0.338 C 
ATOM     10  O   UNL A   1      44.079  25.710  25.847  1.00  0.00    -0.246 OA
BRANCH   9  11
ATOM     11  C   UNL A   1      42.414  26.524  27.267  1.00  0.00     0.060 A 
ATOM     12  C   UNL A   1      42.827  27.848  27.427  1.00  0.00     0.016 A 
ATOM     13  C   UNL A   1      41.381  26.068  28.111  1.00  0.00     0.016 A 
ATOM     14  C   UNL A   1      42.227  28.704  28.342  1.00  0.00     0.010 A 
ATOM     15  C   UNL A   1      40.813  26.897  29.085  1.00  0.00     0.010 A 
ATOM     16  C   UNL A   1      41.257  28.215  29.208  1.00  0.00    -0.014 A 
BRANCH  16  17
ATOM     17  C   UNL A   1      40.972  29.017  30.407  1.00  0.00     0.031 A 
ATOM     18  C   UNL A   1      39.790  29.937  30.331  1.00  0.00     0.074 A 
ATOM     19  C   UNL A   1      41.634  28.801  31.553  1.00  0.00     0.049 A 
ATOM     20  N   UNL A   1      39.368  30.823  31.187  1.00  0.00    -0.248 NA
ATOM     21  C   UNL A   1      38.951  29.821  29.122  1.00  0.00     0.031 C 
ATOM     22  C   UNL A   1      42.668  27.783  31.754  1.00  0.00     0.029 A 
ATOM     23  N   UNL A   1      41.522  29.412  32.773  1.00  0.00    -0.354 N 
ATOM     24  C   UNL A   1      38.249  31.400  30.601  1.00  0.00     0.074 A 
ATOM     25  C   UNL A   1      38.031  30.746  29.333  1.00  0.00     0.031 C 
ATOM     26  C   UNL A   1      43.105  27.853  33.024  1.00  0.00     0.029 A 
ATOM     27  C   UNL A   1      42.435  28.962  33.694  1.00  0.00     0.049 A 
ATOM     28  H   UNL A   1      40.851  30.106  32.970  1.00  0.00     0.167 HD
ATOM     29  C   UNL A   1      37.494  32.414  31.077  1.00  0.00     0.037 A 
ATOM     30  C   UNL A   1      42.726  29.453  34.914  1.00  0.00     0.037 A 
ATOM     31  C   UNL A   1      37.752  33.038  32.342  1.00  0.00     0.049 A 
ATOM     32  C   UNL A   1      41.953  30.663  35.377  1.00  0.00     0.074 A 
ATOM     33  C   UNL A   1      37.127  34.123  32.923  1.00  0.00     0.029 A 
ATOM     34  N   UNL A   1      38.740  32.615  33.222  1.00  0.00    -0.354 N 
ATOM     35  N   UNL A   1      40.952  31.277  34.788  1.00  0.00    -0.248 NA
ATOM     36  C   UNL A   1      42.368  31.270  36.648  1.00  0.00     0.031 C 
ATOM     37  C   UNL A   1      37.770  34.383  34.138  1.00  0.00     0.029 A 
ATOM     38  C   UNL A   1      38.765  33.433  34.333  1.00  0.00     0.049 A 
ATOM     39  H   UNL A   1      39.335  31.844  33.076  1.00  0.00     0.167 HD
ATOM     40  C   UNL A   1      40.615  32.341  35.615  1.00  0.00     0.074 A 
ATOM     41  C   UNL A   1      41.504  32.269  36.759  1.00  0.00     0.031 C 
ATOM     42  C   UNL A   1      39.671  33.300  35.447  1.00  0.00     0.037 A 
BRANCH  29  43
ATOM     43  C   UNL A   1      36.427  32.951  30.172  1.00  0.00     0.057 A 
ATOM     44  C   UNL A   1      35.066  32.682  30.367  1.00  0.00     0.134 A 
ATOM     45  C   UNL A   1      36.782  33.695  29.039  1.00  0.00     0.134 A 
ATOM     46  F   UNL A   1      34.662  31.939  31.409  1.00  0.00    -0.206 F 
ATOM     47  C   UNL A   1      34.099  33.115  29.456  1.00  0.00     0.040 A 
ATOM     48  C   UNL A   1      35.824  34.150  28.132  1.00  0.00     0.040 A 
ATOM     49  F   UNL A   1      38.069  33.971  28.784  1.00  0.00    -0.206 F 
ATOM     50  C   UNL A   1      34.478  33.853  28.334  1.00  0.00     0.006 A 
ENDBRANCH  29  43
BRANCH  30  51
ATOM     51  C   UNL A   1      43.842  28.885  35.714  1.00  0.00     0.057 A 
ATOM     52  C   UNL A   1      45.144  29.392  35.631  1.00  0.00     0.134 A 
ATOM     53  C   UNL A   1      43.638  27.792  36.570  1.00  0.00     0.134 A 
ATOM     54  F   UNL A   1      45.417  30.421  34.816  1.00  0.00    -0.206 F 
ATOM     55  C   UNL A   1      46.200  28.830  36.356  1.00  0.00     0.040 A 
ATOM     56  C   UNL A   1      44.677  27.240  37.323  1.00  0.00     0.040 A 
ATOM     57  F   UNL A   1      42.419  27.248  36.696  1.00  0.00    -0.206 F 
ATOM     58  C   UNL A   1      45.965  27.754  37.210  1.00  0.00     0.006 A 
ENDBRANCH  30  51
BRANCH  42  59
ATOM     59  C   UNL A   1      39.549  34.322  36.532  1.00  0.00     0.057 A 
ATOM     60  C   UNL A   1      38.838  34.057  37.707  1.00  0.00     0.134 A 
ATOM     61  C   UNL A   1      40.220  35.546  36.431  1.00  0.00     0.134 A 
ATOM     62  F   UNL A   1      38.167  32.904  37.852  1.00  0.00    -0.206 F 
ATOM     63  C   UNL A   1      38.792  34.983  38.747  1.00  0.00     0.040 A 
ATOM     64  C   UNL A   1      40.201  36.469  37.473  1.00  0.00     0.040 A 
ATOM     65  F   UNL A   1      40.925  35.847  35.330  1.00  0.00    -0.206 F 
ATOM     66  C   UNL A   1      39.484  36.188  38.636  1.00  0.00     0.006 A 
ENDBRANCH  42  59
ENDBRANCH  16  17
ENDBRANCH   9  11
ENDBRANCH   8   9
ENDBRANCH   7   8
ENDBRANCH   6   7
ENDBRANCH   5   6
ENDBRANCH   4   5
ENDBRANCH   3   4
ENDBRANCH   2   3
ENDBRANCH   1   2
BRANCH   1  67
ATOM     67  C   UNL A   1      39.194  19.709  25.477  1.00  0.00     0.188 C 
BRANCH  67  68
ATOM     68  O   UNL A   1      38.378  20.838  25.694  1.00  0.00    -0.376 OA
BRANCH  68  69
ATOM     69  C   UNL A   1      37.211  20.969  24.895  1.00  0.00     0.202 C 
BRANCH  69  70
ATOM     70  C   UNL A   1      36.958  22.164  23.947  1.00  0.00     0.261 C 
BRANCH  70  71
ATOM     71  O   UNL A   1      36.675  23.422  24.583  1.00  0.00    -0.463 OA
BRANCH  71  72
ATOM     72  C   UNL A   1      35.417  23.626  25.012  1.00  0.00     0.310 C 
ATOM     73  O   UNL A   1      35.192  24.194  26.080  1.00  0.00    -0.252 OA
BRANCH  72  74
ATOM     74  C   UNL A   1      34.312  23.231  23.992  1.00  0.00     0.115 C 
ATOM     75  C   UNL A   1      33.491  21.903  24.078  1.00  0.00     0.004 C 
ATOM     76  C   UNL A   1      33.326  24.416  23.974  1.00  0.00     0.096 C 
ATOM     77  C   UNL A   1      32.868  21.758  25.458  1.00  0.00     0.005 C 
ATOM     78  C   UNL A   1      32.355  21.935  23.018  1.00  0.00     0.005 C 
ATOM     79  C   UNL A   1      31.924  23.895  24.470  1.00  0.00     0.002 C 
ATOM     80  C   UNL A   1      32.119  23.056  25.773  1.00  0.00     0.005 C 
ATOM     81  C   UNL A   1      31.299  22.952  23.432  1.00  0.00     0.005 C 
BRANCH  76  82
ATOM     82  C   UNL A   1      33.314  25.224  22.659  1.00  0.00     0.229 C 
ATOM     83  O   UNL A   1      33.486  24.630  21.585  1.00  0.00    -0.274 OA
ATOM     84  N   UNL A   1      32.908  26.536  22.562  1.00  0.00    -0.317 N 
ATOM     85  H   UNL A   1      32.692  26.816  21.643  1.00  0.00     0.170 HD
BRANCH  84  86
ATOM     86  C   UNL A   1      32.744  27.538  23.505  1.00  0.00     0.108 A 
ATOM     87  S   UNL A   1      34.167  28.181  24.206  1.00  0.00    -0.122 S 
ATOM     88  C   UNL A   1      31.647  28.378  23.723  1.00  0.00     0.078 A 
ATOM     89  C   UNL A   1      33.284  29.240  25.185  1.00  0.00     0.011 A 
ATOM     90  C   UNL A   1      31.957  29.316  24.805  1.00  0.00    -0.019 A 
ATOM     91  C   UNL A   1      33.912  30.038  26.289  1.00  0.00     0.047 C 
ATOM     92  C   UNL A   1      31.024  30.253  25.520  1.00  0.00     0.037 C 
ATOM     93  C   UNL A   1      32.836  30.468  27.292  1.00  0.00     0.006 C 
ATOM     94  C   UNL A   1      31.687  31.158  26.571  1.00  0.00     0.005 C 
BRANCH  88  95
ATOM     95  C   UNL A   1      30.371  28.136  23.016  1.00  0.00     0.257 C 
ATOM     96  O   UNL A   1      30.030  27.000  22.684  1.00  0.00    -0.269 OA
ATOM     97  N   UNL A   1      29.518  29.216  22.781  1.00  0.00    -0.339 N 
ATOM     98  C   UNL A   1      28.093  28.936  22.879  1.00  0.00     0.120 C 
ATOM     99  C   UNL A   1      29.857  30.239  21.792  1.00  0.00     0.120 C 
ATOM    100  C   UNL A   1      27.340  30.198  23.272  1.00  0.00     0.022 C 
ATOM    101  C   UNL A   1      29.090  31.545  22.040  1.00  0.00     0.022 C 
ATOM    102  C   UNL A   1      27.595  31.319  22.265  1.00  0.00     0.004 C 
ENDBRANCH  88  95
ENDBRANCH  84  86
ENDBRANCH  76  82
ENDBRANCH  72  74
ENDBRANCH  71  72
ENDBRANCH  70  71
ENDBRANCH  69  70
ENDBRANCH  68  69
ENDBRANCH  67  68
ENDBRANCH   1  67
TORSDOF 23
ENDMDL
MODEL 2
REMARK VINA RESULT:     -10.5      1.830      2.792
REMARK SMILES O=C(OCCOCCOCCOCCOC(=O)[C@H]1[C@H]2CC[C@H](CC2)[C@@H]1C(=O)Nc1sc2c(c1C(=O)N1CCCCC1)CCCC2)c1ccc(-c2c3nc(c(-c4c(F)cccc4F)c4ccc([nH]4)c(-c4c(F)cccc4F)c4nc(c(-c5c(F)cccc5F)c5ccc2[nH]5)C=C4)C=C3)cc1
REMARK SMILES IDX 10 1 9 2 8 3 7 4 6 5 5 6 4 7 3 8 2 9 1 10 46 11 47 12 99 13
REMARK SMILES IDX 48 14 98 15 49 16 50 17 51 18 92 19 52 20 97 21 91 22 93 23
REMARK SMILES IDX 53 24 96 25 90 26 89 27 54 29 80 30 63 31 79 32 64 33 67 34
REMARK SMILES IDX 78 35 94 36 65 37 66 38 77 40 95 41 68 42 55 43 56 44 61 45
REMARK SMILES IDX 57 46 58 47 60 48 62 49 59 50 81 51 82 52 87 53 83 54 84 55
REMARK SMILES IDX 86 56 88 57 85 58 69 59 70 60 75 61 71 62 72 63 74 64 76 65
REMARK SMILES IDX 73 66 11 67 12 68 13 69 14 70 15 71 16 72 17 73 18 74 19 75
REMARK SMILES IDX 25 76 24 77 20 78 22 79 23 80 21 81 26 82 27 83 28 84 29 86
REMARK SMILES IDX 30 87 33 88 31 89 32 90 45 91 42 92 44 93 43 94 34 95 35 96
REMARK SMILES IDX 36 97 37 98 41 99 38 100 40 101 39 102
REMARK H PARENT 93 28 67 39 28 85
REMARK Flexibility Score: inf
ROOT
ATOM      1  C   UNL A   1      40.464  21.925  26.948  1.00  0.00     0.188 C 
ENDROOT
BRANCH   1   2
ATOM      2  O   UNL A   1      40.994  20.598  26.962  1.00  0.00    -0.377 OA
BRANCH   2   3
ATOM      3  C   UNL A   1      42.413  20.473  27.043  1.00  0.00     0.188 C 
BRANCH   3   4
ATOM      4  C   UNL A   1      43.030  19.974  25.749  1.00  0.00     0.188 C 
BRANCH   4   5
ATOM      5  O   UNL A   1      43.688  21.065  25.107  1.00  0.00    -0.376 OA
BRANCH   5   6
ATOM      6  C   UNL A   1      43.989  22.157  25.969  1.00  0.00     0.202 C 
BRANCH   6   7
ATOM      7  C   UNL A   1      43.811  23.506  25.288  1.00  0.00     0.261 C 
BRANCH   7   8
ATOM      8  O   UNL A   1      43.382  24.554  26.174  1.00  0.00    -0.460 OA
BRANCH   8   9
ATOM      9  C   UNL A   1      42.305  25.375  26.116  1.00  0.00     0.338 C 
ATOM     10  O   UNL A   1      41.604  25.311  25.105  1.00  0.00    -0.246 OA
BRANCH   9  11
ATOM     11  C   UNL A   1      41.903  26.383  27.158  1.00  0.00     0.060 A 
ATOM     12  C   UNL A   1      42.475  27.641  27.358  1.00  0.00     0.016 A 
ATOM     13  C   UNL A   1      40.806  26.039  27.974  1.00  0.00     0.016 A 
ATOM     14  C   UNL A   1      41.969  28.542  28.287  1.00  0.00     0.010 A 
ATOM     15  C   UNL A   1      40.329  26.908  28.961  1.00  0.00     0.010 A 
ATOM     16  C   UNL A   1      40.930  28.158  29.125  1.00  0.00    -0.014 A 
BRANCH  16  17
ATOM     17  C   UNL A   1      40.726  28.959  30.341  1.00  0.00     0.031 A 
ATOM     18  C   UNL A   1      39.584  29.930  30.317  1.00  0.00     0.074 A 
ATOM     19  C   UNL A   1      41.422  28.703  31.459  1.00  0.00     0.049 A 
ATOM     20  N   UNL A   1      39.233  30.826  31.196  1.00  0.00    -0.248 NA
ATOM     21  C   UNL A   1      38.695  29.863  29.141  1.00  0.00     0.031 C 
ATOM     22  C   UNL A   1      42.416  27.640  31.612  1.00  0.00     0.029 A 
ATOM     23  N   UNL A   1      41.382  29.307  32.687  1.00  0.00    -0.354 N 
ATOM     24  C   UNL A   1      38.119  31.456  30.658  1.00  0.00     0.074 A 
ATOM     25  C   UNL A   1      37.826  30.824  29.394  1.00  0.00     0.031 C 
ATOM     26  C   UNL A   1      42.903  27.678  32.865  1.00  0.00     0.029 A 
ATOM     27  C   UNL A   1      42.309  28.809  33.569  1.00  0.00     0.049 A 
ATOM     28  H   UNL A   1      40.750  30.027  32.915  1.00  0.00     0.167 HD
ATOM     29  C   UNL A   1      37.428  32.496  31.171  1.00  0.00     0.037 A 
ATOM     30  C   UNL A   1      42.666  29.275  34.781  1.00  0.00     0.037 A 
ATOM     31  C   UNL A   1      37.760  33.096  32.430  1.00  0.00     0.049 A 
ATOM     32  C   UNL A   1      41.965  30.512  35.284  1.00  0.00     0.074 A 
ATOM     33  C   UNL A   1      37.205  34.202  33.043  1.00  0.00     0.029 A 
ATOM     34  N   UNL A   1      38.762  32.623  33.268  1.00  0.00    -0.354 N 
ATOM     35  N   UNL A   1      40.971  31.175  34.738  1.00  0.00    -0.248 NA
ATOM     36  C   UNL A   1      42.453  31.088  36.542  1.00  0.00     0.031 C 
ATOM     37  C   UNL A   1      37.904  34.422  34.235  1.00  0.00     0.029 A 
ATOM     38  C   UNL A   1      38.864  33.428  34.384  1.00  0.00     0.049 A 
ATOM     39  H   UNL A   1      39.317  31.828  33.093  1.00  0.00     0.167 HD
ATOM     40  C   UNL A   1      40.712  32.244  35.585  1.00  0.00     0.074 A 
ATOM     41  C   UNL A   1      41.639  32.123  36.695  1.00  0.00     0.031 C 
ATOM     42  C   UNL A   1      39.804  33.245  35.462  1.00  0.00     0.037 A 
BRANCH  29  43
ATOM     43  C   UNL A   1      36.352  33.088  30.311  1.00  0.00     0.057 A 
ATOM     44  C   UNL A   1      34.991  32.832  30.522  1.00  0.00     0.134 A 
ATOM     45  C   UNL A   1      36.696  33.875  29.204  1.00  0.00     0.134 A 
ATOM     46  F   UNL A   1      34.595  32.052  31.540  1.00  0.00    -0.206 F 
ATOM     47  C   UNL A   1      34.014  33.319  29.650  1.00  0.00     0.040 A 
ATOM     48  C   UNL A   1      35.728  34.383  28.337  1.00  0.00     0.040 A 
ATOM     49  F   UNL A   1      37.982  34.142  28.934  1.00  0.00    -0.206 F 
ATOM     50  C   UNL A   1      34.381  34.098  28.554  1.00  0.00     0.006 A 
ENDBRANCH  29  43
BRANCH  30  51
ATOM     51  C   UNL A   1      43.786  28.651  35.534  1.00  0.00     0.057 A 
ATOM     52  C   UNL A   1      45.119  29.015  35.312  1.00  0.00     0.134 A 
ATOM     53  C   UNL A   1      43.551  27.645  36.484  1.00  0.00     0.134 A 
ATOM     54  F   UNL A   1      45.421  29.953  34.402  1.00  0.00    -0.206 F 
ATOM     55  C   UNL A   1      46.173  28.399  35.994  1.00  0.00     0.040 A 
ATOM     56  C   UNL A   1      44.591  27.042  37.194  1.00  0.00     0.040 A 
ATOM     57  F   UNL A   1      42.300  27.239  36.745  1.00  0.00    -0.206 F 
ATOM     58  C   UNL A   1      45.909  27.413  36.942  1.00  0.00     0.006 A 
ENDBRANCH  30  51
BRANCH  42  59
ATOM     59  C   UNL A   1      39.768  34.260  36.558  1.00  0.00     0.057 A 
ATOM     60  C   UNL A   1      40.462  35.471  36.455  1.00  0.00     0.134 A 
ATOM     61  C   UNL A   1      38.964  34.057  37.686  1.00  0.00     0.134 A 
ATOM     62  F   UNL A   1      41.256  35.713  35.401  1.00  0.00    -0.206 F 
ATOM     63  C   UNL A   1      40.363  36.446  37.445  1.00  0.00     0.040 A 
ATOM     64  C   UNL A   1      38.838  35.035  38.670  1.00  0.00     0.040 A 
ATOM     65  F   UNL A   1      38.268  32.920  37.830  1.00  0.00    -0.206 F 
ATOM     66  C   UNL A   1      39.541  36.234  38.551  1.00  0.00     0.006 A 
ENDBRANCH  42  59
ENDBRANCH  16  17
ENDBRANCH   9  11
ENDBRANCH   8   9
ENDBRANCH   7   8
ENDBRANCH   6   7
ENDBRANCH   5   6
ENDBRANCH   4   5
ENDBRANCH   3   4
ENDBRANCH   2   3
ENDBRANCH   1   2
BRANCH   1  67
ATOM     67  C   UNL A   1      39.115  22.192  26.281  1.00  0.00     0.188 C 
BRANCH  67  68
ATOM     68  O   UNL A   1      38.829  23.559  26.090  1.00  0.00    -0.376 OA
BRANCH  68  69
ATOM     69  C   UNL A   1      37.520  24.007  26.406  1.00  0.00     0.202 C 
BRANCH  69  70
ATOM     70  C   UNL A   1      36.377  24.102  25.368  1.00  0.00     0.261 C 
BRANCH  70  71
ATOM     71  O   UNL A   1      35.089  24.476  25.884  1.00  0.00    -0.463 OA
BRANCH  71  72
ATOM     72  C   UNL A   1      34.279  23.484  26.295  1.00  0.00     0.310 C 
ATOM     73  O   UNL A   1      34.237  23.145  27.477  1.00  0.00    -0.252 OA
BRANCH  72  74
ATOM     74  C   UNL A   1      33.322  22.933  25.202  1.00  0.00     0.115 C 
ATOM     75  C   UNL A   1      33.806  22.105  23.967  1.00  0.00     0.004 C 
ATOM     76  C   UNL A   1      32.263  22.107  25.959  1.00  0.00     0.096 C 
ATOM     77  C   UNL A   1      34.654  20.927  24.421  1.00  0.00     0.005 C 
ATOM     78  C   UNL A   1      32.568  21.561  23.199  1.00  0.00     0.005 C 
ATOM     79  C   UNL A   1      32.370  20.611  25.478  1.00  0.00     0.002 C 
ATOM     80  C   UNL A   1      33.868  20.172  25.497  1.00  0.00     0.005 C 
ATOM     81  C   UNL A   1      31.892  20.474  24.025  1.00  0.00     0.005 C 
BRANCH  76  82
ATOM     82  C   UNL A   1      30.844  22.716  25.949  1.00  0.00     0.229 C 
ATOM     83  O   UNL A   1      29.943  22.158  26.591  1.00  0.00    -0.274 OA
ATOM     84  N   UNL A   1      30.543  23.965  25.455  1.00  0.00    -0.317 N 
ATOM     85  H   UNL A   1      29.679  24.317  25.768  1.00  0.00     0.170 HD
BRANCH  84  86
ATOM     86  C   UNL A   1      31.220  24.824  24.603  1.00  0.00     0.108 A 
ATOM     87  S   UNL A   1      30.945  24.625  22.925  1.00  0.00    -0.122 S 
ATOM     88  C   UNL A   1      31.805  26.064  24.877  1.00  0.00     0.078 A 
ATOM     89  C   UNL A   1      32.012  25.878  22.536  1.00  0.00     0.011 A 
ATOM     90  C   UNL A   1      32.365  26.624  23.645  1.00  0.00    -0.019 A 
ATOM     91  C   UNL A   1      32.454  26.159  21.130  1.00  0.00     0.047 C 
ATOM     92  C   UNL A   1      33.261  27.821  23.488  1.00  0.00     0.037 C 
ATOM     93  C   UNL A   1      33.763  26.956  21.150  1.00  0.00     0.006 C 
ATOM     94  C   UNL A   1      33.620  28.184  22.039  1.00  0.00     0.005 C 
BRANCH  88  95
ATOM     95  C   UNL A   1      31.921  26.542  26.271  1.00  0.00     0.257 C 
ATOM     96  O   UNL A   1      31.768  25.776  27.223  1.00  0.00    -0.269 OA
ATOM     97  N   UNL A   1      32.272  27.874  26.498  1.00  0.00    -0.339 N 
ATOM     98  C   UNL A   1      33.134  28.120  27.645  1.00  0.00     0.120 C 
ATOM     99  C   UNL A   1      31.329  28.956  26.220  1.00  0.00     0.120 C 
ATOM    100  C   UNL A   1      33.958  29.377  27.417  1.00  0.00     0.022 C 
ATOM    101  C   UNL A   1      32.044  30.304  26.049  1.00  0.00     0.022 C 
ATOM    102  C   UNL A   1      33.054  30.582  27.163  1.00  0.00     0.004 C 
ENDBRANCH  88  95
ENDBRANCH  84  86
ENDBRANCH  76  82
ENDBRANCH  72  74
ENDBRANCH  71  72
ENDBRANCH  70  71
ENDBRANCH  69  70
ENDBRANCH  68  69
ENDBRANCH  67  68
ENDBRANCH   1  67
TORSDOF 23
ENDMDL
MODEL 3
REMARK VINA RESULT:     -10.4      5.199     10.824
REMARK SMILES O=C(OCCOCCOCCOCCOC(=O)[C@H]1[C@H]2CC[C@H](CC2)[C@@H]1C(=O)Nc1sc2c(c1C(=O)N1CCCCC1)CCCC2)c1ccc(-c2c3nc(c(-c4c(F)cccc4F)c4ccc([nH]4)c(-c4c(F)cccc4F)c4nc(c(-c5c(F)cccc5F)c5ccc2[nH]5)C=C4)C=C3)cc1
REMARK SMILES IDX 10 1 9 2 8 3 7 4 6 5 5 6 4 7 3 8 2 9 1 10 46 11 47 12 99 13
REMARK SMILES IDX 48 14 98 15 49 16 50 17 51 18 92 19 52 20 97 21 91 22 93 23
REMARK SMILES IDX 53 24 96 25 90 26 89 27 54 29 80 30 63 31 79 32 64 33 67 34
REMARK SMILES IDX 78 35 94 36 65 37 66 38 77 40 95 41 68 42 55 43 56 44 61 45
REMARK SMILES IDX 57 46 58 47 60 48 62 49 59 50 81 51 82 52 87 53 83 54 84 55
REMARK SMILES IDX 86 56 88 57 85 58 69 59 70 60 75 61 71 62 72 63 74 64 76 65
REMARK SMILES IDX 73 66 11 67 12 68 13 69 14 70 15 71 16 72 17 73 18 74 19 75
REMARK SMILES IDX 25 76 24 77 20 78 22 79 23 80 21 81 26 82 27 83 28 84 29 86
REMARK SMILES IDX 30 87 33 88 31 89 32 90 45 91 42 92 44 93 43 94 34 95 35 96
REMARK SMILES IDX 36 97 37 98 41 99 38 100 40 101 39 102
REMARK H PARENT 93 28 67 39 28 85
REMARK Flexibility Score: inf
ROOT
ATOM      1  C   UNL A   1      36.711  31.146  28.759  1.00  0.00     0.188 C 
ENDROOT
BRANCH   1   2
ATOM      2  O   UNL A   1      36.412  31.590  30.083  1.00  0.00    -0.377 OA
BRANCH   2   3
ATOM      3  C   UNL A   1      35.989  32.945  30.228  1.00  0.00     0.188 C 
BRANCH   3   4
ATOM      4  C   UNL A   1      34.626  33.065  30.885  1.00  0.00     0.188 C 
BRANCH   4   5
ATOM      5  O   UNL A   1      34.686  32.457  32.175  1.00  0.00    -0.376 OA
BRANCH   5   6
ATOM      6  C   UNL A   1      35.597  33.081  33.074  1.00  0.00     0.202 C 
BRANCH   6   7
ATOM      7  C   UNL A   1      36.589  32.096  33.677  1.00  0.00     0.261 C 
BRANCH   7   8
ATOM      8  O   UNL A   1      37.936  32.596  33.748  1.00  0.00    -0.460 OA
BRANCH   8   9
ATOM      9  C   UNL A   1      38.766  33.041  32.774  1.00  0.00     0.338 C 
ATOM     10  O   UNL A   1      38.653  34.221  32.436  1.00  0.00    -0.246 OA
BRANCH   9  11
ATOM     11  C   UNL A   1      39.793  32.221  32.042  1.00  0.00     0.060 A 
ATOM     12  C   UNL A   1      40.731  31.362  32.618  1.00  0.00     0.016 A 
ATOM     13  C   UNL A   1      39.766  32.291  30.634  1.00  0.00     0.016 A 
ATOM     14  C   UNL A   1      41.577  30.572  31.851  1.00  0.00     0.010 A 
ATOM     15  C   UNL A   1      40.658  31.554  29.849  1.00  0.00     0.010 A 
ATOM     16  C   UNL A   1      41.579  30.706  30.468  1.00  0.00    -0.014 A 
BRANCH  16  17
ATOM     17  C   UNL A   1      42.753  30.186  29.751  1.00  0.00     0.031 A 
ATOM     18  C   UNL A   1      42.656  28.780  29.240  1.00  0.00     0.074 A 
ATOM     19  C   UNL A   1      43.777  30.992  29.431  1.00  0.00     0.049 A 
ATOM     20  N   UNL A   1      43.560  28.036  28.668  1.00  0.00    -0.248 NA
ATOM     21  C   UNL A   1      41.338  28.128  29.372  1.00  0.00     0.031 C 
ATOM     22  C   UNL A   1      43.851  32.423  29.729  1.00  0.00     0.029 A 
ATOM     23  N   UNL A   1      44.943  30.724  28.766  1.00  0.00    -0.354 N 
ATOM     24  C   UNL A   1      42.937  26.821  28.419  1.00  0.00     0.074 A 
ATOM     25  C   UNL A   1      41.569  26.929  28.867  1.00  0.00     0.031 C 
ATOM     26  C   UNL A   1      45.015  32.905  29.257  1.00  0.00     0.029 A 
ATOM     27  C   UNL A   1      45.790  31.803  28.696  1.00  0.00     0.049 A 
ATOM     28  H   UNL A   1      45.154  29.845  28.377  1.00  0.00     0.167 HD
ATOM     29  C   UNL A   1      43.481  25.704  27.891  1.00  0.00     0.037 A 
ATOM     30  C   UNL A   1      47.070  31.854  28.281  1.00  0.00     0.037 A 
ATOM     31  C   UNL A   1      44.849  25.641  27.465  1.00  0.00     0.049 A 
ATOM     32  C   UNL A   1      47.698  30.568  27.808  1.00  0.00     0.074 A 
ATOM     33  C   UNL A   1      45.564  24.563  26.984  1.00  0.00     0.029 A 
ATOM     34  N   UNL A   1      45.712  26.730  27.482  1.00  0.00    -0.354 N 
ATOM     35  N   UNL A   1      47.143  29.386  27.656  1.00  0.00    -0.248 NA
ATOM     36  C   UNL A   1      49.129  30.606  27.484  1.00  0.00     0.031 C 
ATOM     37  C   UNL A   1      46.876  24.992  26.752  1.00  0.00     0.029 A 
ATOM     38  C   UNL A   1      46.964  26.347  27.046  1.00  0.00     0.049 A 
ATOM     39  H   UNL A   1      45.466  27.642  27.762  1.00  0.00     0.167 HD
ATOM     40  C   UNL A   1      48.154  28.541  27.218  1.00  0.00     0.074 A 
ATOM     41  C   UNL A   1      49.350  29.355  27.104  1.00  0.00     0.031 C 
ATOM     42  C   UNL A   1      48.113  27.213  26.945  1.00  0.00     0.037 A 
BRANCH  29  43
ATOM     43  C   UNL A   1      42.625  24.474  27.869  1.00  0.00     0.057 A 
ATOM     44  C   UNL A   1      42.755  23.447  28.812  1.00  0.00     0.134 A 
ATOM     45  C   UNL A   1      41.697  24.287  26.835  1.00  0.00     0.134 A 
ATOM     46  F   UNL A   1      43.654  23.543  29.803  1.00  0.00    -0.206 F 
ATOM     47  C   UNL A   1      42.011  22.268  28.714  1.00  0.00     0.040 A 
ATOM     48  C   UNL A   1      40.933  23.123  26.738  1.00  0.00     0.040 A 
ATOM     49  F   UNL A   1      41.537  25.224  25.889  1.00  0.00    -0.206 F 
ATOM     50  C   UNL A   1      41.095  22.105  27.675  1.00  0.00     0.006 A 
ENDBRANCH  29  43
BRANCH  30  51
ATOM     51  C   UNL A   1      47.854  33.112  28.395  1.00  0.00     0.057 A 
ATOM     52  C   UNL A   1      48.542  33.449  29.566  1.00  0.00     0.134 A 
ATOM     53  C   UNL A   1      47.914  34.029  27.335  1.00  0.00     0.134 A 
ATOM     54  F   UNL A   1      48.511  32.631  30.628  1.00  0.00    -0.206 F 
ATOM     55  C   UNL A   1      49.248  34.651  29.684  1.00  0.00     0.040 A 
ATOM     56  C   UNL A   1      48.639  35.219  27.428  1.00  0.00     0.040 A 
ATOM     57  F   UNL A   1      47.273  33.777  26.184  1.00  0.00    -0.206 F 
ATOM     58  C   UNL A   1      49.302  35.537  28.609  1.00  0.00     0.006 A 
ENDBRANCH  30  51
BRANCH  42  59
ATOM     59  C   UNL A   1      49.386  26.580  26.485  1.00  0.00     0.057 A 
ATOM     60  C   UNL A   1      49.847  26.738  25.173  1.00  0.00     0.134 A 
ATOM     61  C   UNL A   1      50.196  25.879  27.386  1.00  0.00     0.134 A 
ATOM     62  F   UNL A   1      49.105  27.390  24.265  1.00  0.00    -0.206 F 
ATOM     63  C   UNL A   1      51.072  26.211  24.769  1.00  0.00     0.040 A 
ATOM     64  C   UNL A   1      51.434  25.370  27.001  1.00  0.00     0.040 A 
ATOM     65  F   UNL A   1      49.808  25.707  28.658  1.00  0.00    -0.206 F 
ATOM     66  C   UNL A   1      51.874  25.534  25.688  1.00  0.00     0.006 A 
ENDBRANCH  42  59
ENDBRANCH  16  17
ENDBRANCH   9  11
ENDBRANCH   8   9
ENDBRANCH   7   8
ENDBRANCH   6   7
ENDBRANCH   5   6
ENDBRANCH   4   5
ENDBRANCH   3   4
ENDBRANCH   2   3
ENDBRANCH   1   2
BRANCH   1  67
ATOM     67  C   UNL A   1      35.670  31.318  27.653  1.00  0.00     0.188 C 
BRANCH  67  68
ATOM     68  O   UNL A   1      34.639  30.356  27.680  1.00  0.00    -0.376 OA
BRANCH  68  69
ATOM     69  C   UNL A   1      33.337  30.776  27.302  1.00  0.00     0.202 C 
BRANCH  69  70
ATOM     70  C   UNL A   1      32.553  30.163  26.118  1.00  0.00     0.261 C 
BRANCH  70  71
ATOM     71  O   UNL A   1      31.815  28.964  26.407  1.00  0.00    -0.463 OA
BRANCH  71  72
ATOM     72  C   UNL A   1      32.309  27.807  25.931  1.00  0.00     0.310 C 
ATOM     73  O   UNL A   1      33.215  27.212  26.515  1.00  0.00    -0.252 OA
BRANCH  72  74
ATOM     74  C   UNL A   1      31.549  27.235  24.702  1.00  0.00     0.115 C 
ATOM     75  C   UNL A   1      31.348  28.020  23.366  1.00  0.00     0.004 C 
ATOM     76  C   UNL A   1      32.236  25.892  24.382  1.00  0.00     0.096 C 
ATOM     77  C   UNL A   1      32.686  28.519  22.842  1.00  0.00     0.005 C 
ATOM     78  C   UNL A   1      30.719  27.074  22.305  1.00  0.00     0.005 C 
ATOM     79  C   UNL A   1      32.854  25.990  22.936  1.00  0.00     0.002 C 
ATOM     80  C   UNL A   1      33.649  27.328  22.807  1.00  0.00     0.005 C 
ATOM     81  C   UNL A   1      31.746  26.034  21.875  1.00  0.00     0.005 C 
BRANCH  76  82
ATOM     82  C   UNL A   1      31.370  24.643  24.658  1.00  0.00     0.229 C 
ATOM     83  O   UNL A   1      30.136  24.753  24.655  1.00  0.00    -0.274 OA
ATOM     84  N   UNL A   1      31.858  23.357  24.694  1.00  0.00    -0.317 N 
ATOM     85  H   UNL A   1      31.163  22.667  24.599  1.00  0.00     0.170 HD
BRANCH  84  86
ATOM     86  C   UNL A   1      33.138  22.844  24.837  1.00  0.00     0.108 A 
ATOM     87  S   UNL A   1      34.192  23.678  25.898  1.00  0.00    -0.122 S 
ATOM     88  C   UNL A   1      33.614  21.560  24.556  1.00  0.00     0.078 A 
ATOM     89  C   UNL A   1      35.460  22.603  25.588  1.00  0.00     0.011 A 
ATOM     90  C   UNL A   1      35.031  21.474  24.915  1.00  0.00    -0.019 A 
ATOM     91  C   UNL A   1      36.863  22.847  26.059  1.00  0.00     0.047 C 
ATOM     92  C   UNL A   1      36.007  20.373  24.603  1.00  0.00     0.037 C 
ATOM     93  C   UNL A   1      37.842  22.024  25.214  1.00  0.00     0.006 C 
ATOM     94  C   UNL A   1      37.416  20.563  25.186  1.00  0.00     0.005 C 
BRANCH  88  95
ATOM     95  C   UNL A   1      32.756  20.585  23.849  1.00  0.00     0.257 C 
ATOM     96  O   UNL A   1      31.928  20.951  23.014  1.00  0.00    -0.269 OA
ATOM     97  N   UNL A   1      32.941  19.223  24.096  1.00  0.00    -0.339 N 
ATOM     98  C   UNL A   1      32.772  18.339  22.952  1.00  0.00     0.120 C 
ATOM     99  C   UNL A   1      32.540  18.631  25.371  1.00  0.00     0.120 C 
ATOM    100  C   UNL A   1      33.606  17.081  23.137  1.00  0.00     0.022 C 
ATOM    101  C   UNL A   1      33.264  17.302  25.633  1.00  0.00     0.022 C 
ATOM    102  C   UNL A   1      33.224  16.361  24.429  1.00  0.00     0.004 C 
ENDBRANCH  88  95
ENDBRANCH  84  86
ENDBRANCH  76  82
ENDBRANCH  72  74
ENDBRANCH  71  72
ENDBRANCH  70  71
ENDBRANCH  69  70
ENDBRANCH  68  69
ENDBRANCH  67  68
ENDBRANCH   1  67
TORSDOF 23
ENDMDL
