MODEL 1
REMARK VINA RESULT:      -9.6      0.000      0.000
REMARK SMILES CC1=Nc2nc(NC(=O)CCC(=O)OCCOCCOCCOCCOC(=O)c3ccc(-c4c5nc(c(-c6c(F)cccc6F)c6ccc([nH]6)c(-c6c(F)cccc6F)c6nc(c(-c7c(F)cccc7F)c7ccc4[nH]7)C=C6)C=C5)cc3)nn2[C@@H](c2ccc(Cl)cc2)C1
REMARK SMILES IDX 19 1 18 2 17 3 16 4 15 5 14 6 12 7 13 8 11 9 10 10 8 11 7 12
REMARK SMILES IDX 9 14 6 15 1 16 2 17 3 18 93 19 4 20 85 21 5 22 84 23 83 24
REMARK SMILES IDX 86 25 87 26 92 27 88 28 91 29 89 30 90 31 20 32 21 33 22 34
REMARK SMILES IDX 23 35 24 36 25 37 26 38 27 39 28 40 29 41 30 42 82 43 31 44
REMARK SMILES IDX 81 45 32 46 33 47 34 48 75 49 35 50 80 51 74 52 76 53 36 54
REMARK SMILES IDX 79 55 73 56 72 57 37 59 63 60 46 61 62 62 47 63 50 64 61 65
REMARK SMILES IDX 77 66 48 67 49 68 60 70 78 71 51 72 38 73 39 74 44 75 40 76
REMARK SMILES IDX 41 77 43 78 45 79 42 80 64 81 65 82 70 83 66 84 67 85 69 86
REMARK SMILES IDX 71 87 68 88 52 89 53 90 58 91 54 92 55 93 57 94 59 95 56 96
REMARK H PARENT 7 13 76 58 50 69
REMARK Flexibility Score: inf
ROOT
ATOM      1  C   UNL A   1      32.178  26.460  24.016  1.00  0.00     0.188 C 
ENDROOT
BRANCH   1   2
ATOM      2  C   UNL A   1      32.201  25.680  25.407  1.00  0.00     0.188 C 
BRANCH   2   3
ATOM      3  O   UNL A   1      32.296  24.237  25.468  1.00  0.00    -0.376 OA
BRANCH   3   4
ATOM      4  C   UNL A   1      31.366  23.357  24.789  1.00  0.00     0.202 C 
BRANCH   4   5
ATOM      5  C   UNL A   1      31.718  22.941  23.352  1.00  0.00     0.261 C 
BRANCH   5   6
ATOM      6  O   UNL A   1      32.995  22.332  23.345  1.00  0.00    -0.463 OA
BRANCH   6   7
ATOM      7  C   UNL A   1      33.832  23.122  22.642  1.00  0.00     0.306 C 
ATOM      8  O   UNL A   1      33.617  23.497  21.493  1.00  0.00    -0.252 OA
BRANCH   7   9
ATOM      9  C   UNL A   1      35.010  23.558  23.461  1.00  0.00     0.132 C 
BRANCH   9  10
ATOM     10  C   UNL A   1      36.240  22.639  23.691  1.00  0.00     0.112 C 
BRANCH  10  11
ATOM     11  C   UNL A   1      36.571  21.797  24.945  1.00  0.00     0.227 C 
ATOM     12  N   UNL A   1      37.683  21.726  25.754  1.00  0.00    -0.293 N 
ATOM     13  H   UNL A   1      37.712  20.821  26.140  1.00  0.00     0.173 HD
ATOM     14  O   UNL A   1      35.741  20.892  25.179  1.00  0.00    -0.275 OA
BRANCH  12  15
ATOM     15  C   UNL A   1      38.790  22.432  26.245  1.00  0.00     0.250 A 
ATOM     16  C   UNL A   1      43.698  23.055  29.255  1.00  0.00     0.062 C 
ATOM     17  C   UNL A   1      42.495  23.308  28.386  1.00  0.00     0.021 C 
ATOM     18  N   UNL A   1      41.615  22.369  28.274  1.00  0.00    -0.221 NA
ATOM     19  C   UNL A   1      42.450  24.645  27.687  1.00  0.00     0.083 C 
ATOM     20  C   UNL A   1      40.540  22.592  27.493  1.00  0.00     0.250 A 
ATOM     21  C   UNL A   1      41.109  25.023  27.054  1.00  0.00     0.147 C 
ATOM     22  N   UNL A   1      39.664  21.718  27.028  1.00  0.00    -0.174 NA
ATOM     23  N   UNL A   1      40.197  23.844  27.037  1.00  0.00    -0.220 N 
ATOM     24  N   UNL A   1      39.124  23.733  26.229  1.00  0.00    -0.130 NA
BRANCH  21  25
ATOM     25  C   UNL A   1      40.614  26.400  27.576  1.00  0.00    -0.023 A 
ATOM     26  C   UNL A   1      39.720  26.505  28.631  1.00  0.00     0.007 A 
ATOM     27  C   UNL A   1      40.907  27.619  26.931  1.00  0.00     0.007 A 
ATOM     28  C   UNL A   1      39.121  27.699  29.054  1.00  0.00     0.021 A 
ATOM     29  C   UNL A   1      40.374  28.847  27.377  1.00  0.00     0.021 A 
ATOM     30  C   UNL A   1      39.476  28.883  28.437  1.00  0.00     0.041 A 
ATOM     31  Cl  UNL A   1      38.805  30.370  28.973  1.00  0.00    -0.084 Cl
ENDBRANCH  21  25
ENDBRANCH  12  15
ENDBRANCH  10  11
ENDBRANCH   9  10
ENDBRANCH   7   9
ENDBRANCH   6   7
ENDBRANCH   5   6
ENDBRANCH   4   5
ENDBRANCH   3   4
ENDBRANCH   2   3
ENDBRANCH   1   2
BRANCH   1  32
ATOM     32  O   UNL A   1      31.565  27.744  24.067  1.00  0.00    -0.377 OA
BRANCH  32  33
ATOM     33  C   UNL A   1      32.327  28.943  24.048  1.00  0.00     0.188 C 
BRANCH  33  34
ATOM     34  C   UNL A   1      32.518  29.597  25.420  1.00  0.00     0.188 C 
BRANCH  34  35
ATOM     35  O   UNL A   1      33.574  28.987  26.160  1.00  0.00    -0.376 OA
BRANCH  35  36
ATOM     36  C   UNL A   1      34.090  29.757  27.245  1.00  0.00     0.202 C 
BRANCH  36  37
ATOM     37  C   UNL A   1      33.497  31.161  27.374  1.00  0.00     0.261 C 
BRANCH  37  38
ATOM     38  O   UNL A   1      34.418  32.154  27.828  1.00  0.00    -0.460 OA
BRANCH  38  39
ATOM     39  C   UNL A   1      34.001  33.100  28.678  1.00  0.00     0.338 C 
ATOM     40  O   UNL A   1      33.212  34.023  28.437  1.00  0.00    -0.246 OA
BRANCH  39  41
ATOM     41  C   UNL A   1      34.678  32.902  29.964  1.00  0.00     0.060 A 
ATOM     42  C   UNL A   1      34.836  34.022  30.783  1.00  0.00     0.016 A 
ATOM     43  C   UNL A   1      35.371  31.703  30.212  1.00  0.00     0.016 A 
ATOM     44  C   UNL A   1      35.900  34.042  31.656  1.00  0.00     0.010 A 
ATOM     45  C   UNL A   1      36.434  31.722  31.084  1.00  0.00     0.010 A 
ATOM     46  C   UNL A   1      36.756  32.938  31.680  1.00  0.00    -0.014 A 
BRANCH  46  47
ATOM     47  C   UNL A   1      38.114  33.163  32.129  1.00  0.00     0.031 A 
ATOM     48  C   UNL A   1      39.069  33.591  31.099  1.00  0.00     0.074 A 
ATOM     49  C   UNL A   1      38.412  33.050  33.441  1.00  0.00     0.049 A 
ATOM     50  N   UNL A   1      40.141  32.982  30.714  1.00  0.00    -0.248 NA
ATOM     51  C   UNL A   1      38.750  34.807  30.339  1.00  0.00     0.031 C 
ATOM     52  C   UNL A   1      37.455  32.919  34.552  1.00  0.00     0.029 A 
ATOM     53  N   UNL A   1      39.614  33.140  34.077  1.00  0.00    -0.354 N 
ATOM     54  C   UNL A   1      40.744  33.846  29.809  1.00  0.00     0.074 A 
ATOM     55  C   UNL A   1      39.777  34.863  29.493  1.00  0.00     0.031 C 
ATOM     56  C   UNL A   1      38.092  33.149  35.718  1.00  0.00     0.029 A 
ATOM     57  C   UNL A   1      39.509  33.318  35.449  1.00  0.00     0.049 A 
ATOM     58  H   UNL A   1      40.476  33.083  33.607  1.00  0.00     0.167 HD
ATOM     59  C   UNL A   1      42.087  33.819  29.614  1.00  0.00     0.037 A 
ATOM     60  C   UNL A   1      40.501  33.648  36.307  1.00  0.00     0.037 A 
ATOM     61  C   UNL A   1      42.669  32.583  30.067  1.00  0.00     0.049 A 
ATOM     62  C   UNL A   1      41.795  33.336  35.660  1.00  0.00     0.074 A 
ATOM     63  C   UNL A   1      42.599  31.261  29.684  1.00  0.00     0.029 A 
ATOM     64  N   UNL A   1      43.231  32.610  31.316  1.00  0.00    -0.354 N 
ATOM     65  N   UNL A   1      42.225  32.129  35.422  1.00  0.00    -0.248 NA
ATOM     66  C   UNL A   1      42.506  34.396  34.955  1.00  0.00     0.031 C 
ATOM     67  C   UNL A   1      42.865  30.500  30.858  1.00  0.00     0.029 A 
ATOM     68  C   UNL A   1      43.088  31.385  31.912  1.00  0.00     0.049 A 
ATOM     69  H   UNL A   1      43.673  33.390  31.722  1.00  0.00     0.167 HD
ATOM     70  C   UNL A   1      42.950  32.241  34.248  1.00  0.00     0.074 A 
ATOM     71  C   UNL A   1      43.236  33.660  34.114  1.00  0.00     0.031 C 
ATOM     72  C   UNL A   1      42.977  31.218  33.346  1.00  0.00     0.037 A 
BRANCH  59  73
ATOM     73  C   UNL A   1      42.918  35.064  29.428  1.00  0.00     0.057 A 
ATOM     74  C   UNL A   1      43.587  35.262  28.208  1.00  0.00     0.134 A 
ATOM     75  C   UNL A   1      43.334  35.901  30.486  1.00  0.00     0.134 A 
ATOM     76  F   UNL A   1      43.301  34.506  27.137  1.00  0.00    -0.206 F 
ATOM     77  C   UNL A   1      44.630  36.184  28.069  1.00  0.00     0.040 A 
ATOM     78  C   UNL A   1      44.336  36.863  30.341  1.00  0.00     0.040 A 
ATOM     79  F   UNL A   1      42.872  35.764  31.734  1.00  0.00    -0.206 F 
ATOM     80  C   UNL A   1      45.010  36.986  29.139  1.00  0.00     0.006 A 
ENDBRANCH  59  73
BRANCH  60  81
ATOM     81  C   UNL A   1      40.398  34.419  37.565  1.00  0.00     0.057 A 
ATOM     82  C   UNL A   1      39.851  35.708  37.592  1.00  0.00     0.134 A 
ATOM     83  C   UNL A   1      40.619  33.815  38.816  1.00  0.00     0.134 A 
ATOM     84  F   UNL A   1      39.565  36.350  36.451  1.00  0.00    -0.206 F 
ATOM     85  C   UNL A   1      39.531  36.355  38.794  1.00  0.00     0.040 A 
ATOM     86  C   UNL A   1      40.318  34.454  40.023  1.00  0.00     0.040 A 
ATOM     87  F   UNL A   1      41.059  32.552  38.910  1.00  0.00    -0.206 F 
ATOM     88  C   UNL A   1      39.759  35.725  40.014  1.00  0.00     0.006 A 
ENDBRANCH  60  81
BRANCH  72  89
ATOM     89  C   UNL A   1      42.626  29.852  33.856  1.00  0.00     0.057 A 
ATOM     90  C   UNL A   1      41.325  29.332  33.878  1.00  0.00     0.134 A 
ATOM     91  C   UNL A   1      43.662  28.996  34.251  1.00  0.00     0.134 A 
ATOM     92  F   UNL A   1      40.285  30.049  33.431  1.00  0.00    -0.206 F 
ATOM     93  C   UNL A   1      41.062  28.033  34.324  1.00  0.00     0.040 A 
ATOM     94  C   UNL A   1      43.417  27.686  34.665  1.00  0.00     0.040 A 
ATOM     95  F   UNL A   1      44.938  29.412  34.204  1.00  0.00    -0.206 F 
ATOM     96  C   UNL A   1      42.111  27.205  34.715  1.00  0.00     0.006 A 
ENDBRANCH  72  89
ENDBRANCH  46  47
ENDBRANCH  39  41
ENDBRANCH  38  39
ENDBRANCH  37  38
ENDBRANCH  36  37
ENDBRANCH  35  36
ENDBRANCH  34  35
ENDBRANCH  33  34
ENDBRANCH  32  33
ENDBRANCH   1  32
TORSDOF 24
ENDMDL
MODEL 2
REMARK VINA RESULT:      -9.5      4.301      9.738
REMARK SMILES CC1=Nc2nc(NC(=O)CCC(=O)OCCOCCOCCOCCOC(=O)c3ccc(-c4c5nc(c(-c6c(F)cccc6F)c6ccc([nH]6)c(-c6c(F)cccc6F)c6nc(c(-c7c(F)cccc7F)c7ccc4[nH]7)C=C6)C=C5)cc3)nn2[C@@H](c2ccc(Cl)cc2)C1
REMARK SMILES IDX 19 1 18 2 17 3 16 4 15 5 14 6 12 7 13 8 11 9 10 10 8 11 7 12
REMARK SMILES IDX 9 14 6 15 1 16 2 17 3 18 93 19 4 20 85 21 5 22 84 23 83 24
REMARK SMILES IDX 86 25 87 26 92 27 88 28 91 29 89 30 90 31 20 32 21 33 22 34
REMARK SMILES IDX 23 35 24 36 25 37 26 38 27 39 28 40 29 41 30 42 82 43 31 44
REMARK SMILES IDX 81 45 32 46 33 47 34 48 75 49 35 50 80 51 74 52 76 53 36 54
REMARK SMILES IDX 79 55 73 56 72 57 37 59 63 60 46 61 62 62 47 63 50 64 61 65
REMARK SMILES IDX 77 66 48 67 49 68 60 70 78 71 51 72 38 73 39 74 44 75 40 76
REMARK SMILES IDX 41 77 43 78 45 79 42 80 64 81 65 82 70 83 66 84 67 85 69 86
REMARK SMILES IDX 71 87 68 88 52 89 53 90 58 91 54 92 55 93 57 94 59 95 56 96
REMARK H PARENT 7 13 76 58 50 69
REMARK Flexibility Score: inf
ROOT
ATOM      1  C   UNL A   1      33.543  34.933  28.383  1.00  0.00     0.188 C 
ENDROOT
BRANCH   1   2
ATOM      2  C   UNL A   1      34.876  34.113  28.077  1.00  0.00     0.188 C 
BRANCH   2   3
ATOM      3  O   UNL A   1      34.841  32.712  27.711  1.00  0.00    -0.376 OA
BRANCH   3   4
ATOM      4  C   UNL A   1      33.682  31.870  27.931  1.00  0.00     0.202 C 
BRANCH   4   5
ATOM      5  C   UNL A   1      33.728  30.449  27.347  1.00  0.00     0.261 C 
BRANCH   5   6
ATOM      6  O   UNL A   1      33.344  30.494  25.986  1.00  0.00    -0.463 OA
BRANCH   6   7
ATOM      7  C   UNL A   1      32.619  29.388  25.719  1.00  0.00     0.306 C 
ATOM      8  O   UNL A   1      33.001  28.245  25.955  1.00  0.00    -0.252 OA
BRANCH   7   9
ATOM      9  C   UNL A   1      31.259  29.726  25.183  1.00  0.00     0.132 C 
BRANCH   9  10
ATOM     10  C   UNL A   1      30.996  29.923  23.666  1.00  0.00     0.112 C 
BRANCH  10  11
ATOM     11  C   UNL A   1      30.503  28.870  22.646  1.00  0.00     0.227 C 
ATOM     12  N   UNL A   1      30.656  27.504  22.569  1.00  0.00    -0.293 N 
ATOM     13  H   UNL A   1      30.610  27.254  21.618  1.00  0.00     0.173 HD
ATOM     14  O   UNL A   1      30.009  29.365  21.610  1.00  0.00    -0.275 OA
BRANCH  12  15
ATOM     15  C   UNL A   1      30.853  26.329  23.308  1.00  0.00     0.250 A 
ATOM     16  C   UNL A   1      29.717  22.549  27.546  1.00  0.00     0.062 C 
ATOM     17  C   UNL A   1      30.320  23.245  26.355  1.00  0.00     0.021 C 
ATOM     18  N   UNL A   1      29.892  24.428  26.058  1.00  0.00    -0.221 NA
ATOM     19  C   UNL A   1      31.361  22.467  25.587  1.00  0.00     0.083 C 
ATOM     20  C   UNL A   1      30.429  25.050  24.990  1.00  0.00     0.250 A 
ATOM     21  C   UNL A   1      32.182  23.267  24.574  1.00  0.00     0.147 C 
ATOM     22  N   UNL A   1      29.986  26.121  24.352  1.00  0.00    -0.174 NA
ATOM     23  N   UNL A   1      31.579  24.617  24.375  1.00  0.00    -0.220 N 
ATOM     24  N   UNL A   1      31.820  25.398  23.303  1.00  0.00    -0.130 NA
BRANCH  21  25
ATOM     25  C   UNL A   1      33.704  23.112  24.843  1.00  0.00    -0.023 A 
ATOM     26  C   UNL A   1      34.534  22.420  23.974  1.00  0.00     0.007 A 
ATOM     27  C   UNL A   1      34.319  23.519  26.044  1.00  0.00     0.007 A 
ATOM     28  C   UNL A   1      35.879  22.116  24.228  1.00  0.00     0.021 A 
ATOM     29  C   UNL A   1      35.688  23.289  26.298  1.00  0.00     0.021 A 
ATOM     30  C   UNL A   1      36.465  22.582  25.388  1.00  0.00     0.041 A 
ATOM     31  Cl  UNL A   1      38.127  22.277  25.699  1.00  0.00    -0.084 Cl
ENDBRANCH  21  25
ENDBRANCH  12  15
ENDBRANCH  10  11
ENDBRANCH   9  10
ENDBRANCH   7   9
ENDBRANCH   6   7
ENDBRANCH   5   6
ENDBRANCH   4   5
ENDBRANCH   3   4
ENDBRANCH   2   3
ENDBRANCH   1   2
BRANCH   1  32
ATOM     32  O   UNL A   1      33.649  35.853  29.465  1.00  0.00    -0.377 OA
BRANCH  32  33
ATOM     33  C   UNL A   1      32.875  35.715  30.649  1.00  0.00     0.188 C 
BRANCH  33  34
ATOM     34  C   UNL A   1      33.691  35.429  31.912  1.00  0.00     0.188 C 
BRANCH  34  35
ATOM     35  O   UNL A   1      33.194  34.297  32.625  1.00  0.00    -0.376 OA
BRANCH  35  36
ATOM     36  C   UNL A   1      34.137  33.249  32.852  1.00  0.00     0.202 C 
BRANCH  36  37
ATOM     37  C   UNL A   1      34.661  32.574  31.584  1.00  0.00     0.261 C 
BRANCH  37  38
ATOM     38  O   UNL A   1      36.052  32.780  31.334  1.00  0.00    -0.460 OA
BRANCH  38  39
ATOM     39  C   UNL A   1      36.959  32.079  32.026  1.00  0.00     0.338 C 
ATOM     40  O   UNL A   1      37.219  32.184  33.231  1.00  0.00    -0.246 OA
BRANCH  39  41
ATOM     41  C   UNL A   1      37.651  31.174  31.102  1.00  0.00     0.060 A 
ATOM     42  C   UNL A   1      37.338  29.815  31.184  1.00  0.00     0.016 A 
ATOM     43  C   UNL A   1      38.769  31.632  30.381  1.00  0.00     0.016 A 
ATOM     44  C   UNL A   1      38.298  28.905  30.805  1.00  0.00     0.010 A 
ATOM     45  C   UNL A   1      39.729  30.723  30.003  1.00  0.00     0.010 A 
ATOM     46  C   UNL A   1      39.528  29.391  30.352  1.00  0.00    -0.014 A 
BRANCH  46  47
ATOM     47  C   UNL A   1      40.676  28.520  30.495  1.00  0.00     0.031 A 
ATOM     48  C   UNL A   1      41.290  28.478  31.828  1.00  0.00     0.074 A 
ATOM     49  C   UNL A   1      41.067  27.755  29.453  1.00  0.00     0.049 A 
ATOM     50  N   UNL A   1      42.495  28.806  32.153  1.00  0.00    -0.248 NA
ATOM     51  C   UNL A   1      40.430  28.105  32.960  1.00  0.00     0.031 C 
ATOM     52  C   UNL A   1      40.328  27.529  28.202  1.00  0.00     0.029 A 
ATOM     53  N   UNL A   1      42.146  26.930  29.330  1.00  0.00    -0.354 N 
ATOM     54  C   UNL A   1      42.610  28.479  33.499  1.00  0.00     0.074 A 
ATOM     55  C   UNL A   1      41.280  28.213  33.979  1.00  0.00     0.031 C 
ATOM     56  C   UNL A   1      40.867  26.479  27.549  1.00  0.00     0.029 A 
ATOM     57  C   UNL A   1      42.052  26.043  28.267  1.00  0.00     0.049 A 
ATOM     58  H   UNL A   1      42.918  26.960  29.938  1.00  0.00     0.167 HD
ATOM     59  C   UNL A   1      43.817  28.172  34.037  1.00  0.00     0.037 A 
ATOM     60  C   UNL A   1      42.849  24.978  28.020  1.00  0.00     0.037 A 
ATOM     61  C   UNL A   1      44.904  28.650  33.223  1.00  0.00     0.049 A 
ATOM     62  C   UNL A   1      44.111  25.161  28.772  1.00  0.00     0.074 A 
ATOM     63  C   UNL A   1      45.393  29.886  32.859  1.00  0.00     0.029 A 
ATOM     64  N   UNL A   1      45.469  27.730  32.381  1.00  0.00    -0.354 N 
ATOM     65  N   UNL A   1      45.009  26.064  28.492  1.00  0.00    -0.248 NA
ATOM     66  C   UNL A   1      44.249  24.537  30.083  1.00  0.00     0.031 C 
ATOM     67  C   UNL A   1      46.031  29.696  31.599  1.00  0.00     0.029 A 
ATOM     68  C   UNL A   1      45.907  28.354  31.243  1.00  0.00     0.049 A 
ATOM     69  H   UNL A   1      45.550  26.766  32.565  1.00  0.00     0.167 HD
ATOM     70  C   UNL A   1      45.544  26.417  29.719  1.00  0.00     0.074 A 
ATOM     71  C   UNL A   1      45.176  25.334  30.618  1.00  0.00     0.031 C 
ATOM     72  C   UNL A   1      45.961  27.694  29.956  1.00  0.00     0.037 A 
BRANCH  59  73
ATOM     73  C   UNL A   1      44.012  27.073  35.051  1.00  0.00     0.057 A 
ATOM     74  C   UNL A   1      44.598  27.382  36.290  1.00  0.00     0.134 A 
ATOM     75  C   UNL A   1      43.939  25.696  34.747  1.00  0.00     0.134 A 
ATOM     76  F   UNL A   1      44.751  28.658  36.678  1.00  0.00    -0.206 F 
ATOM     77  C   UNL A   1      45.124  26.399  37.135  1.00  0.00     0.040 A 
ATOM     78  C   UNL A   1      44.411  24.704  35.609  1.00  0.00     0.040 A 
ATOM     79  F   UNL A   1      43.509  25.244  33.563  1.00  0.00    -0.206 F 
ATOM     80  C   UNL A   1      45.035  25.054  36.794  1.00  0.00     0.006 A 
ENDBRANCH  59  73
BRANCH  60  81
ATOM     81  C   UNL A   1      42.493  23.711  27.346  1.00  0.00     0.057 A 
ATOM     82  C   UNL A   1      42.690  23.532  25.971  1.00  0.00     0.134 A 
ATOM     83  C   UNL A   1      42.167  22.556  28.079  1.00  0.00     0.134 A 
ATOM     84  F   UNL A   1      43.045  24.565  25.194  1.00  0.00    -0.206 F 
ATOM     85  C   UNL A   1      42.580  22.274  25.362  1.00  0.00     0.040 A 
ATOM     86  C   UNL A   1      42.041  21.298  27.483  1.00  0.00     0.040 A 
ATOM     87  F   UNL A   1      42.040  22.593  29.414  1.00  0.00    -0.206 F 
ATOM     88  C   UNL A   1      42.260  21.151  26.120  1.00  0.00     0.006 A 
ENDBRANCH  60  81
BRANCH  72  89
ATOM     89  C   UNL A   1      46.269  28.541  28.757  1.00  0.00     0.057 A 
ATOM     90  C   UNL A   1      47.494  28.524  28.077  1.00  0.00     0.134 A 
ATOM     91  C   UNL A   1      45.249  29.334  28.217  1.00  0.00     0.134 A 
ATOM     92  F   UNL A   1      48.494  27.725  28.471  1.00  0.00    -0.206 F 
ATOM     93  C   UNL A   1      47.709  29.304  26.937  1.00  0.00     0.040 A 
ATOM     94  C   UNL A   1      45.441  30.091  27.059  1.00  0.00     0.040 A 
ATOM     95  F   UNL A   1      44.034  29.355  28.787  1.00  0.00    -0.206 F 
ATOM     96  C   UNL A   1      46.680  30.087  26.423  1.00  0.00     0.006 A 
ENDBRANCH  72  89
ENDBRANCH  46  47
ENDBRANCH  39  41
ENDBRANCH  38  39
ENDBRANCH  37  38
ENDBRANCH  36  37
ENDBRANCH  35  36
ENDBRANCH  34  35
ENDBRANCH  33  34
ENDBRANCH  32  33
ENDBRANCH   1  32
TORSDOF 24
ENDMDL
MODEL 3
REMARK VINA RESULT:      -8.8      1.543      2.442
REMARK SMILES CC1=Nc2nc(NC(=O)CCC(=O)OCCOCCOCCOCCOC(=O)c3ccc(-c4c5nc(c(-c6c(F)cccc6F)c6ccc([nH]6)c(-c6c(F)cccc6F)c6nc(c(-c7c(F)cccc7F)c7ccc4[nH]7)C=C6)C=C5)cc3)nn2[C@@H](c2ccc(Cl)cc2)C1
REMARK SMILES IDX 19 1 18 2 17 3 16 4 15 5 14 6 12 7 13 8 11 9 10 10 8 11 7 12
REMARK SMILES IDX 9 14 6 15 1 16 2 17 3 18 93 19 4 20 85 21 5 22 84 23 83 24
REMARK SMILES IDX 86 25 87 26 92 27 88 28 91 29 89 30 90 31 20 32 21 33 22 34
REMARK SMILES IDX 23 35 24 36 25 37 26 38 27 39 28 40 29 41 30 42 82 43 31 44
REMARK SMILES IDX 81 45 32 46 33 47 34 48 75 49 35 50 80 51 74 52 76 53 36 54
REMARK SMILES IDX 79 55 73 56 72 57 37 59 63 60 46 61 62 62 47 63 50 64 61 65
REMARK SMILES IDX 77 66 48 67 49 68 60 70 78 71 51 72 38 73 39 74 44 75 40 76
REMARK SMILES IDX 41 77 43 78 45 79 42 80 64 81 65 82 70 83 66 84 67 85 69 86
REMARK SMILES IDX 71 87 68 88 52 89 53 90 58 91 54 92 55 93 57 94 59 95 56 96
REMARK H PARENT 7 13 76 58 50 69
REMARK Flexibility Score: inf
ROOT
ATOM      1  C   UNL A   1      31.891  26.372  24.091  1.00  0.00     0.188 C 
ENDROOT
BRANCH   1   2
ATOM      2  C   UNL A   1      31.734  25.576  25.463  1.00  0.00     0.188 C 
BRANCH   2   3
ATOM      3  O   UNL A   1      32.066  24.170  25.569  1.00  0.00    -0.376 OA
BRANCH   3   4
ATOM      4  C   UNL A   1      31.320  23.131  24.887  1.00  0.00     0.202 C 
BRANCH   4   5
ATOM      5  C   UNL A   1      31.579  22.955  23.383  1.00  0.00     0.261 C 
BRANCH   5   6
ATOM      6  O   UNL A   1      32.876  22.421  23.195  1.00  0.00    -0.463 OA
BRANCH   6   7
ATOM      7  C   UNL A   1      33.615  23.340  22.540  1.00  0.00     0.306 C 
ATOM      8  O   UNL A   1      33.278  23.866  21.484  1.00  0.00    -0.252 OA
BRANCH   7   9
ATOM      9  C   UNL A   1      34.855  23.705  23.302  1.00  0.00     0.132 C 
BRANCH   9  10
ATOM     10  C   UNL A   1      36.075  22.750  23.399  1.00  0.00     0.112 C 
BRANCH  10  11
ATOM     11  C   UNL A   1      36.449  21.808  24.567  1.00  0.00     0.227 C 
ATOM     12  N   UNL A   1      37.518  21.776  25.433  1.00  0.00    -0.293 N 
ATOM     13  H   UNL A   1      37.646  20.841  25.714  1.00  0.00     0.173 HD
ATOM     14  O   UNL A   1      35.733  20.786  24.640  1.00  0.00    -0.275 OA
BRANCH  12  15
ATOM     15  C   UNL A   1      38.498  22.548  26.074  1.00  0.00     0.250 A 
ATOM     16  C   UNL A   1      40.522  27.239  28.802  1.00  0.00     0.062 C 
ATOM     17  C   UNL A   1      40.402  25.887  28.150  1.00  0.00     0.021 C 
ATOM     18  N   UNL A   1      39.294  25.596  27.550  1.00  0.00    -0.221 NA
ATOM     19  C   UNL A   1      41.592  24.971  28.293  1.00  0.00     0.083 C 
ATOM     20  C   UNL A   1      39.184  24.385  26.969  1.00  0.00     0.250 A 
ATOM     21  C   UNL A   1      41.596  23.734  27.393  1.00  0.00     0.147 C 
ATOM     22  N   UNL A   1      38.093  23.776  26.536  1.00  0.00    -0.174 NA
ATOM     23  N   UNL A   1      40.263  23.563  26.747  1.00  0.00    -0.220 N 
ATOM     24  N   UNL A   1      39.825  22.402  26.220  1.00  0.00    -0.130 NA
BRANCH  21  25
ATOM     25  C   UNL A   1      42.900  23.661  26.550  1.00  0.00    -0.023 A 
ATOM     26  C   UNL A   1      42.919  23.114  25.276  1.00  0.00     0.007 A 
ATOM     27  C   UNL A   1      44.168  23.997  27.064  1.00  0.00     0.007 A 
ATOM     28  C   UNL A   1      44.079  22.883  24.525  1.00  0.00     0.021 A 
ATOM     29  C   UNL A   1      45.348  23.842  26.305  1.00  0.00     0.021 A 
ATOM     30  C   UNL A   1      45.299  23.278  25.035  1.00  0.00     0.041 A 
ATOM     31  Cl  UNL A   1      46.732  23.063  24.113  1.00  0.00    -0.084 Cl
ENDBRANCH  21  25
ENDBRANCH  12  15
ENDBRANCH  10  11
ENDBRANCH   9  10
ENDBRANCH   7   9
ENDBRANCH   6   7
ENDBRANCH   5   6
ENDBRANCH   4   5
ENDBRANCH   3   4
ENDBRANCH   2   3
ENDBRANCH   1   2
BRANCH   1  32
ATOM     32  O   UNL A   1      31.522  27.746  24.158  1.00  0.00    -0.377 OA
BRANCH  32  33
ATOM     33  C   UNL A   1      32.491  28.786  24.151  1.00  0.00     0.188 C 
BRANCH  33  34
ATOM     34  C   UNL A   1      32.655  29.510  25.491  1.00  0.00     0.188 C 
BRANCH  34  35
ATOM     35  O   UNL A   1      33.724  28.967  26.264  1.00  0.00    -0.376 OA
BRANCH  35  36
ATOM     36  C   UNL A   1      34.272  29.836  27.255  1.00  0.00     0.202 C 
BRANCH  36  37
ATOM     37  C   UNL A   1      33.686  31.249  27.262  1.00  0.00     0.261 C 
BRANCH  37  38
ATOM     38  O   UNL A   1      34.567  32.254  27.767  1.00  0.00    -0.460 OA
BRANCH  38  39
ATOM     39  C   UNL A   1      34.117  33.132  28.671  1.00  0.00     0.338 C 
ATOM     40  O   UNL A   1      33.294  34.037  28.485  1.00  0.00    -0.246 OA
BRANCH  39  41
ATOM     41  C   UNL A   1      34.803  32.883  29.943  1.00  0.00     0.060 A 
ATOM     42  C   UNL A   1      34.895  33.951  30.840  1.00  0.00     0.016 A 
ATOM     43  C   UNL A   1      35.566  31.713  30.110  1.00  0.00     0.016 A 
ATOM     44  C   UNL A   1      35.955  33.971  31.717  1.00  0.00     0.010 A 
ATOM     45  C   UNL A   1      36.625  31.733  30.985  1.00  0.00     0.010 A 
ATOM     46  C   UNL A   1      36.874  32.920  31.667  1.00  0.00    -0.014 A 
BRANCH  46  47
ATOM     47  C   UNL A   1      38.217  33.193  32.138  1.00  0.00     0.031 A 
ATOM     48  C   UNL A   1      39.181  33.620  31.117  1.00  0.00     0.074 A 
ATOM     49  C   UNL A   1      38.489  33.121  33.458  1.00  0.00     0.049 A 
ATOM     50  N   UNL A   1      40.276  33.031  30.769  1.00  0.00    -0.248 NA
ATOM     51  C   UNL A   1      38.846  34.808  30.320  1.00  0.00     0.031 C 
ATOM     52  C   UNL A   1      37.514  32.992  34.552  1.00  0.00     0.029 A 
ATOM     53  N   UNL A   1      39.676  33.258  34.116  1.00  0.00    -0.354 N 
ATOM     54  C   UNL A   1      40.875  33.888  29.855  1.00  0.00     0.074 A 
ATOM     55  C   UNL A   1      39.888  34.871  29.494  1.00  0.00     0.031 C 
ATOM     56  C   UNL A   1      38.120  33.268  35.724  1.00  0.00     0.029 A 
ATOM     57  C   UNL A   1      39.538  33.468  35.481  1.00  0.00     0.049 A 
ATOM     58  H   UNL A   1      40.549  33.213  33.665  1.00  0.00     0.167 HD
ATOM     59  C   UNL A   1      42.222  33.892  29.687  1.00  0.00     0.037 A 
ATOM     60  C   UNL A   1      40.503  33.846  36.350  1.00  0.00     0.037 A 
ATOM     61  C   UNL A   1      42.827  32.683  30.183  1.00  0.00     0.049 A 
ATOM     62  C   UNL A   1      41.818  33.552  35.737  1.00  0.00     0.074 A 
ATOM     63  C   UNL A   1      42.799  31.351  29.833  1.00  0.00     0.029 A 
ATOM     64  N   UNL A   1      43.362  32.756  31.442  1.00  0.00    -0.354 N 
ATOM     65  N   UNL A   1      42.284  32.351  35.538  1.00  0.00    -0.248 NA
ATOM     66  C   UNL A   1      42.515  34.613  35.020  1.00  0.00     0.031 C 
ATOM     67  C   UNL A   1      43.061  30.627  31.031  1.00  0.00     0.029 A 
ATOM     68  C   UNL A   1      43.239  31.544  32.067  1.00  0.00     0.049 A 
ATOM     69  H   UNL A   1      43.775  33.558  31.838  1.00  0.00     0.167 HD
ATOM     70  C   UNL A   1      43.029  32.453  34.377  1.00  0.00     0.074 A 
ATOM     71  C   UNL A   1      43.281  33.876  34.212  1.00  0.00     0.031 C 
ATOM     72  C   UNL A   1      43.102  31.409  33.502  1.00  0.00     0.037 A 
BRANCH  59  73
ATOM     73  C   UNL A   1      43.024  35.153  29.487  1.00  0.00     0.057 A 
ATOM     74  C   UNL A   1      43.720  35.335  28.279  1.00  0.00     0.134 A 
ATOM     75  C   UNL A   1      43.388  36.033  30.529  1.00  0.00     0.134 A 
ATOM     76  F   UNL A   1      43.484  34.540  27.224  1.00  0.00    -0.206 F 
ATOM     77  C   UNL A   1      44.742  36.281  28.141  1.00  0.00     0.040 A 
ATOM     78  C   UNL A   1      44.367  37.018  30.383  1.00  0.00     0.040 A 
ATOM     79  F   UNL A   1      42.896  35.919  31.769  1.00  0.00    -0.206 F 
ATOM     80  C   UNL A   1      45.071  37.124  29.196  1.00  0.00     0.006 A 
ENDBRANCH  59  73
BRANCH  60  81
ATOM     81  C   UNL A   1      40.353  34.645  37.585  1.00  0.00     0.057 A 
ATOM     82  C   UNL A   1      40.105  36.023  37.541  1.00  0.00     0.134 A 
ATOM     83  C   UNL A   1      40.215  34.032  38.844  1.00  0.00     0.134 A 
ATOM     84  F   UNL A   1      40.169  36.689  36.381  1.00  0.00    -0.206 F 
ATOM     85  C   UNL A   1      39.730  36.746  38.682  1.00  0.00     0.040 A 
ATOM     86  C   UNL A   1      39.856  34.743  39.991  1.00  0.00     0.040 A 
ATOM     87  F   UNL A   1      40.344  32.704  38.988  1.00  0.00    -0.206 F 
ATOM     88  C   UNL A   1      39.599  36.106  39.910  1.00  0.00     0.006 A 
ENDBRANCH  60  81
BRANCH  72  89
ATOM     89  C   UNL A   1      42.776  30.047  34.039  1.00  0.00     0.057 A 
ATOM     90  C   UNL A   1      43.689  29.235  34.724  1.00  0.00     0.134 A 
ATOM     91  C   UNL A   1      41.458  29.585  33.941  1.00  0.00     0.134 A 
ATOM     92  F   UNL A   1      44.947  29.640  34.945  1.00  0.00    -0.206 F 
ATOM     93  C   UNL A   1      43.317  27.991  35.243  1.00  0.00     0.040 A 
ATOM     94  C   UNL A   1      41.066  28.361  34.485  1.00  0.00     0.040 A 
ATOM     95  F   UNL A   1      40.519  30.337  33.344  1.00  0.00    -0.206 F 
ATOM     96  C   UNL A   1      42.000  27.553  35.128  1.00  0.00     0.006 A 
ENDBRANCH  72  89
ENDBRANCH  46  47
ENDBRANCH  39  41
ENDBRANCH  38  39
ENDBRANCH  37  38
ENDBRANCH  36  37
ENDBRANCH  35  36
ENDBRANCH  34  35
ENDBRANCH  33  34
ENDBRANCH  32  33
ENDBRANCH   1  32
TORSDOF 24
ENDMDL
