MODEL 1
REMARK VINA RESULT:     -10.4      0.000      0.000
REMARK SMILES O=C(OCCOCCOCCOCCOC(=O)C1(C/C=C/c2ccccc2)CCCCC1)c1ccc(-c2c3nc(c(-c4c(F)cccc4F)c4ccc([nH]4)c(-c4c(F)cccc4F)c4nc(c(-c5c(F)cccc5F)c5ccc2[nH]5)C=C4)C=C3)cc1
REMARK SMILES IDX 10 1 9 2 8 3 7 4 6 5 5 6 4 7 3 8 2 9 1 10 33 11 34 12 86 13
REMARK SMILES IDX 35 14 85 15 36 16 37 17 38 18 79 19 39 20 84 21 78 22 80 23
REMARK SMILES IDX 40 24 83 25 77 26 76 27 41 29 67 30 50 31 66 32 51 33 54 34
REMARK SMILES IDX 65 35 81 36 52 37 53 38 64 40 82 41 55 42 42 43 43 44 48 45
REMARK SMILES IDX 44 46 45 47 47 48 49 49 46 50 68 51 69 52 74 53 70 54 71 55
REMARK SMILES IDX 73 56 75 57 72 58 56 59 57 60 62 61 58 62 59 63 61 64 63 65
REMARK SMILES IDX 60 66 11 67 12 68 13 69 14 70 15 71 16 72 17 73 18 74 28 75
REMARK SMILES IDX 32 76 29 77 31 78 30 79 19 80 20 81 21 82 22 83 23 84 27 85
REMARK SMILES IDX 24 86 26 87 25 88
REMARK H PARENT 80 28 54 39
REMARK Flexibility Score: inf
ROOT
ATOM      1  C   UNL A   1      33.824  34.593  29.165  1.00  0.00     0.188 C 
ENDROOT
BRANCH   1   2
ATOM      2  O   UNL A   1      33.467  35.939  28.856  1.00  0.00    -0.377 OA
BRANCH   2   3
ATOM      3  C   UNL A   1      33.294  36.894  29.883  1.00  0.00     0.188 C 
BRANCH   3   4
ATOM      4  C   UNL A   1      32.678  36.351  31.155  1.00  0.00     0.188 C 
BRANCH   4   5
ATOM      5  O   UNL A   1      33.576  36.570  32.222  1.00  0.00    -0.376 OA
BRANCH   5   6
ATOM      6  C   UNL A   1      34.160  35.488  32.914  1.00  0.00     0.202 C 
BRANCH   6   7
ATOM      7  C   UNL A   1      35.603  35.165  32.598  1.00  0.00     0.261 C 
BRANCH   7   8
ATOM      8  O   UNL A   1      35.928  33.854  32.071  1.00  0.00    -0.460 OA
BRANCH   8   9
ATOM      9  C   UNL A   1      36.409  32.687  32.541  1.00  0.00     0.338 C 
ATOM     10  O   UNL A   1      36.001  32.269  33.627  1.00  0.00    -0.246 OA
BRANCH   9  11
ATOM     11  C   UNL A   1      37.325  31.810  31.784  1.00  0.00     0.060 A 
ATOM     12  C   UNL A   1      38.050  30.766  32.340  1.00  0.00     0.016 A 
ATOM     13  C   UNL A   1      37.350  31.949  30.393  1.00  0.00     0.016 A 
ATOM     14  C   UNL A   1      39.008  30.086  31.621  1.00  0.00     0.010 A 
ATOM     15  C   UNL A   1      38.207  31.160  29.621  1.00  0.00     0.010 A 
ATOM     16  C   UNL A   1      39.110  30.296  30.255  1.00  0.00    -0.014 A 
BRANCH  16  17
ATOM     17  C   UNL A   1      40.310  29.777  29.577  1.00  0.00     0.031 A 
ATOM     18  C   UNL A   1      41.518  30.666  29.557  1.00  0.00     0.074 A 
ATOM     19  C   UNL A   1      40.372  28.494  29.177  1.00  0.00     0.049 A 
ATOM     20  N   UNL A   1      42.652  30.515  28.935  1.00  0.00    -0.248 NA
ATOM     21  C   UNL A   1      41.432  31.907  30.353  1.00  0.00     0.031 C 
ATOM     22  C   UNL A   1      39.302  27.502  29.333  1.00  0.00     0.029 A 
ATOM     23  N   UNL A   1      41.396  27.788  28.611  1.00  0.00    -0.354 N 
ATOM     24  C   UNL A   1      43.375  31.672  29.196  1.00  0.00     0.074 A 
ATOM     25  C   UNL A   1      42.563  32.515  30.039  1.00  0.00     0.031 C 
ATOM     26  C   UNL A   1      39.750  26.304  28.926  1.00  0.00     0.029 A 
ATOM     27  C   UNL A   1      41.090  26.469  28.378  1.00  0.00     0.049 A 
ATOM     28  H   UNL A   1      42.269  28.185  28.391  1.00  0.00     0.167 HD
ATOM     29  C   UNL A   1      44.608  31.997  28.751  1.00  0.00     0.037 A 
ATOM     30  C   UNL A   1      41.806  25.522  27.747  1.00  0.00     0.037 A 
ATOM     31  C   UNL A   1      45.402  31.101  27.957  1.00  0.00     0.049 A 
ATOM     32  C   UNL A   1      43.144  25.927  27.194  1.00  0.00     0.074 A 
ATOM     33  C   UNL A   1      46.632  31.314  27.370  1.00  0.00     0.029 A 
ATOM     34  N   UNL A   1      45.028  29.795  27.662  1.00  0.00    -0.354 N 
ATOM     35  N   UNL A   1      43.775  27.074  27.313  1.00  0.00    -0.248 NA
ATOM     36  C   UNL A   1      43.859  24.926  26.396  1.00  0.00     0.031 C 
ATOM     37  C   UNL A   1      46.986  30.146  26.686  1.00  0.00     0.029 A 
ATOM     38  C   UNL A   1      46.002  29.189  26.892  1.00  0.00     0.049 A 
ATOM     39  H   UNL A   1      44.193  29.366  27.957  1.00  0.00     0.167 HD
ATOM     40  C   UNL A   1      44.968  26.928  26.622  1.00  0.00     0.074 A 
ATOM     41  C   UNL A   1      44.978  25.572  26.104  1.00  0.00     0.031 C 
ATOM     42  C   UNL A   1      45.966  27.826  26.423  1.00  0.00     0.037 A 
BRANCH  29  43
ATOM     43  C   UNL A   1      45.089  33.390  29.035  1.00  0.00     0.057 A 
ATOM     44  C   UNL A   1      45.861  33.711  30.159  1.00  0.00     0.134 A 
ATOM     45  C   UNL A   1      44.694  34.444  28.202  1.00  0.00     0.134 A 
ATOM     46  F   UNL A   1      46.238  32.757  31.022  1.00  0.00    -0.206 F 
ATOM     47  C   UNL A   1      46.194  35.035  30.462  1.00  0.00     0.040 A 
ATOM     48  C   UNL A   1      45.044  35.767  28.478  1.00  0.00     0.040 A 
ATOM     49  F   UNL A   1      43.941  34.211  27.117  1.00  0.00    -0.206 F 
ATOM     50  C   UNL A   1      45.787  36.068  29.618  1.00  0.00     0.006 A 
ENDBRANCH  29  43
BRANCH  30  51
ATOM     51  C   UNL A   1      41.256  24.154  27.550  1.00  0.00     0.057 A 
ATOM     52  C   UNL A   1      40.216  23.908  26.648  1.00  0.00     0.134 A 
ATOM     53  C   UNL A   1      41.750  23.057  28.269  1.00  0.00     0.134 A 
ATOM     54  F   UNL A   1      39.682  24.914  25.940  1.00  0.00    -0.206 F 
ATOM     55  C   UNL A   1      39.676  22.628  26.480  1.00  0.00     0.040 A 
ATOM     56  C   UNL A   1      41.244  21.768  28.089  1.00  0.00     0.040 A 
ATOM     57  F   UNL A   1      42.748  23.218  29.151  1.00  0.00    -0.206 F 
ATOM     58  C   UNL A   1      40.196  21.553  27.197  1.00  0.00     0.006 A 
ENDBRANCH  30  51
BRANCH  42  59
ATOM     59  C   UNL A   1      47.160  27.337  25.666  1.00  0.00     0.057 A 
ATOM     60  C   UNL A   1      47.314  27.568  24.296  1.00  0.00     0.134 A 
ATOM     61  C   UNL A   1      48.188  26.663  26.338  1.00  0.00     0.134 A 
ATOM     62  F   UNL A   1      46.355  28.197  23.599  1.00  0.00    -0.206 F 
ATOM     63  C   UNL A   1      48.442  27.120  23.609  1.00  0.00     0.040 A 
ATOM     64  C   UNL A   1      49.333  26.236  25.669  1.00  0.00     0.040 A 
ATOM     65  F   UNL A   1      48.100  26.424  27.656  1.00  0.00    -0.206 F 
ATOM     66  C   UNL A   1      49.458  26.459  24.299  1.00  0.00     0.006 A 
ENDBRANCH  42  59
ENDBRANCH  16  17
ENDBRANCH   9  11
ENDBRANCH   8   9
ENDBRANCH   7   8
ENDBRANCH   6   7
ENDBRANCH   5   6
ENDBRANCH   4   5
ENDBRANCH   3   4
ENDBRANCH   2   3
ENDBRANCH   1   2
BRANCH   1  67
ATOM     67  C   UNL A   1      33.648  33.493  28.112  1.00  0.00     0.188 C 
BRANCH  67  68
ATOM     68  O   UNL A   1      34.840  32.899  27.657  1.00  0.00    -0.376 OA
BRANCH  68  69
ATOM     69  C   UNL A   1      34.906  31.478  27.583  1.00  0.00     0.202 C 
BRANCH  69  70
ATOM     70  C   UNL A   1      33.681  30.557  27.375  1.00  0.00     0.261 C 
BRANCH  70  71
ATOM     71  O   UNL A   1      33.579  29.823  26.134  1.00  0.00    -0.463 OA
BRANCH  71  72
ATOM     72  C   UNL A   1      32.320  29.702  25.629  1.00  0.00     0.312 C 
ATOM     73  O   UNL A   1      31.487  30.605  25.703  1.00  0.00    -0.252 OA
BRANCH  72  74
ATOM     74  C   UNL A   1      31.953  28.336  24.978  1.00  0.00     0.071 C 
ATOM     75  C   UNL A   1      31.316  27.527  26.156  1.00  0.00     0.019 C 
ATOM     76  C   UNL A   1      30.980  28.329  23.768  1.00  0.00     0.019 C 
ATOM     77  C   UNL A   1      30.623  26.220  25.790  1.00  0.00     0.001 C 
ATOM     78  C   UNL A   1      30.420  26.950  23.410  1.00  0.00     0.001 C 
ATOM     79  C   UNL A   1      29.679  26.369  24.608  1.00  0.00     0.000 C 
BRANCH  74  80
ATOM     80  C   UNL A   1      33.315  27.720  24.553  1.00  0.00     0.046 C 
BRANCH  80  81
ATOM     81  C   UNL A   1      33.634  26.478  25.351  1.00  0.00    -0.025 C 
ATOM     82  C   UNL A   1      34.338  25.449  24.858  1.00  0.00     0.004 C 
BRANCH  82  83
ATOM     83  C   UNL A   1      34.426  24.162  25.550  1.00  0.00    -0.026 A 
ATOM     84  C   UNL A   1      33.444  23.809  26.476  1.00  0.00     0.008 A 
ATOM     85  C   UNL A   1      35.517  23.306  25.339  1.00  0.00     0.008 A 
ATOM     86  C   UNL A   1      33.539  22.603  27.173  1.00  0.00     0.001 A 
ATOM     87  C   UNL A   1      35.614  22.103  26.041  1.00  0.00     0.001 A 
ATOM     88  C   UNL A   1      34.623  21.752  26.957  1.00  0.00     0.000 A 
ENDBRANCH  82  83
ENDBRANCH  80  81
ENDBRANCH  74  80
ENDBRANCH  72  74
ENDBRANCH  71  72
ENDBRANCH  70  71
ENDBRANCH  69  70
ENDBRANCH  68  69
ENDBRANCH  67  68
ENDBRANCH   1  67
TORSDOF 23
ENDMDL
MODEL 2
REMARK VINA RESULT:     -10.4      1.861      3.260
REMARK SMILES O=C(OCCOCCOCCOCCOC(=O)C1(C/C=C/c2ccccc2)CCCCC1)c1ccc(-c2c3nc(c(-c4c(F)cccc4F)c4ccc([nH]4)c(-c4c(F)cccc4F)c4nc(c(-c5c(F)cccc5F)c5ccc2[nH]5)C=C4)C=C3)cc1
REMARK SMILES IDX 10 1 9 2 8 3 7 4 6 5 5 6 4 7 3 8 2 9 1 10 33 11 34 12 86 13
REMARK SMILES IDX 35 14 85 15 36 16 37 17 38 18 79 19 39 20 84 21 78 22 80 23
REMARK SMILES IDX 40 24 83 25 77 26 76 27 41 29 67 30 50 31 66 32 51 33 54 34
REMARK SMILES IDX 65 35 81 36 52 37 53 38 64 40 82 41 55 42 42 43 43 44 48 45
REMARK SMILES IDX 44 46 45 47 47 48 49 49 46 50 68 51 69 52 74 53 70 54 71 55
REMARK SMILES IDX 73 56 75 57 72 58 56 59 57 60 62 61 58 62 59 63 61 64 63 65
REMARK SMILES IDX 60 66 11 67 12 68 13 69 14 70 15 71 16 72 17 73 18 74 28 75
REMARK SMILES IDX 32 76 29 77 31 78 30 79 19 80 20 81 21 82 22 83 23 84 27 85
REMARK SMILES IDX 24 86 26 87 25 88
REMARK H PARENT 80 28 54 39
REMARK Flexibility Score: inf
ROOT
ATOM      1  C   UNL A   1      33.831  30.254  27.154  1.00  0.00     0.188 C 
ENDROOT
BRANCH   1   2
ATOM      2  O   UNL A   1      34.475  31.246  27.951  1.00  0.00    -0.377 OA
BRANCH   2   3
ATOM      3  C   UNL A   1      33.899  32.527  28.113  1.00  0.00     0.188 C 
BRANCH   3   4
ATOM      4  C   UNL A   1      34.830  33.683  27.811  1.00  0.00     0.188 C 
BRANCH   4   5
ATOM      5  O   UNL A   1      34.650  34.678  28.797  1.00  0.00    -0.376 OA
BRANCH   5   6
ATOM      6  C   UNL A   1      33.903  34.417  29.964  1.00  0.00     0.202 C 
BRANCH   6   7
ATOM      7  C   UNL A   1      34.675  34.246  31.254  1.00  0.00     0.261 C 
BRANCH   7   8
ATOM      8  O   UNL A   1      34.859  32.911  31.788  1.00  0.00    -0.460 OA
BRANCH   8   9
ATOM      9  C   UNL A   1      35.831  32.216  32.409  1.00  0.00     0.338 C 
ATOM     10  O   UNL A   1      35.857  32.199  33.641  1.00  0.00    -0.246 OA
BRANCH   9  11
ATOM     11  C   UNL A   1      36.820  31.375  31.705  1.00  0.00     0.060 A 
ATOM     12  C   UNL A   1      37.615  30.418  32.318  1.00  0.00     0.016 A 
ATOM     13  C   UNL A   1      36.851  31.447  30.309  1.00  0.00     0.016 A 
ATOM     14  C   UNL A   1      38.631  29.778  31.642  1.00  0.00     0.010 A 
ATOM     15  C   UNL A   1      37.774  30.688  29.584  1.00  0.00     0.010 A 
ATOM     16  C   UNL A   1      38.733  29.928  30.268  1.00  0.00    -0.014 A 
BRANCH  16  17
ATOM     17  C   UNL A   1      39.976  29.468  29.627  1.00  0.00     0.031 A 
ATOM     18  C   UNL A   1      41.145  30.408  29.659  1.00  0.00     0.074 A 
ATOM     19  C   UNL A   1      40.107  28.194  29.215  1.00  0.00     0.049 A 
ATOM     20  N   UNL A   1      42.305  30.313  29.074  1.00  0.00    -0.248 NA
ATOM     21  C   UNL A   1      40.979  31.634  30.464  1.00  0.00     0.031 C 
ATOM     22  C   UNL A   1      39.076  27.155  29.323  1.00  0.00     0.029 A 
ATOM     23  N   UNL A   1      41.179  27.539  28.678  1.00  0.00    -0.354 N 
ATOM     24  C   UNL A   1      42.968  31.497  29.373  1.00  0.00     0.074 A 
ATOM     25  C   UNL A   1      42.093  32.294  30.196  1.00  0.00     0.031 C 
ATOM     26  C   UNL A   1      39.588  25.983  28.919  1.00  0.00     0.029 A 
ATOM     27  C   UNL A   1      40.938  26.211  28.420  1.00  0.00     0.049 A 
ATOM     28  H   UNL A   1      42.041  27.976  28.493  1.00  0.00     0.167 HD
ATOM     29  C   UNL A   1      44.201  31.879  28.975  1.00  0.00     0.037 A 
ATOM     30  C   UNL A   1      41.716  25.304  27.804  1.00  0.00     0.037 A 
ATOM     31  C   UNL A   1      45.059  31.028  28.200  1.00  0.00     0.049 A 
ATOM     32  C   UNL A   1      43.054  25.772  27.302  1.00  0.00     0.074 A 
ATOM     33  C   UNL A   1      46.299  31.300  27.658  1.00  0.00     0.029 A 
ATOM     34  N   UNL A   1      44.753  29.711  27.878  1.00  0.00    -0.354 N 
ATOM     35  N   UNL A   1      43.630  26.943  27.455  1.00  0.00    -0.248 NA
ATOM     36  C   UNL A   1      43.837  24.812  26.519  1.00  0.00     0.031 C 
ATOM     37  C   UNL A   1      46.726  30.156  26.974  1.00  0.00     0.029 A 
ATOM     38  C   UNL A   1      45.777  29.156  27.136  1.00  0.00     0.049 A 
ATOM     39  H   UNL A   1      43.927  29.243  28.139  1.00  0.00     0.167 HD
ATOM     40  C   UNL A   1      44.851  26.856  26.805  1.00  0.00     0.074 A 
ATOM     41  C   UNL A   1      44.938  25.509  26.274  1.00  0.00     0.031 C 
ATOM     42  C   UNL A   1      45.816  27.798  26.651  1.00  0.00     0.037 A 
BRANCH  29  43
ATOM     43  C   UNL A   1      44.611  33.287  29.291  1.00  0.00     0.057 A 
ATOM     44  C   UNL A   1      45.168  33.658  30.522  1.00  0.00     0.134 A 
ATOM     45  C   UNL A   1      44.363  34.308  28.364  1.00  0.00     0.134 A 
ATOM     46  F   UNL A   1      45.392  32.738  31.472  1.00  0.00    -0.206 F 
ATOM     47  C   UNL A   1      45.430  34.996  30.832  1.00  0.00     0.040 A 
ATOM     48  C   UNL A   1      44.647  35.644  28.651  1.00  0.00     0.040 A 
ATOM     49  F   UNL A   1      43.818  34.027  27.171  1.00  0.00    -0.206 F 
ATOM     50  C   UNL A   1      45.171  35.993  29.894  1.00  0.00     0.006 A 
ENDBRANCH  29  43
BRANCH  30  51
ATOM     51  C   UNL A   1      41.232  23.916  27.573  1.00  0.00     0.057 A 
ATOM     52  C   UNL A   1      40.212  23.641  26.657  1.00  0.00     0.134 A 
ATOM     53  C   UNL A   1      41.771  22.828  28.274  1.00  0.00     0.134 A 
ATOM     54  F   UNL A   1      39.638  24.636  25.964  1.00  0.00    -0.206 F 
ATOM     55  C   UNL A   1      39.735  22.341  26.456  1.00  0.00     0.040 A 
ATOM     56  C   UNL A   1      41.328  21.521  28.062  1.00  0.00     0.040 A 
ATOM     57  F   UNL A   1      42.752  23.016  29.169  1.00  0.00    -0.206 F 
ATOM     58  C   UNL A   1      40.299  21.276  27.156  1.00  0.00     0.006 A 
ENDBRANCH  30  51
BRANCH  42  59
ATOM     59  C   UNL A   1      47.056  27.370  25.931  1.00  0.00     0.057 A 
ATOM     60  C   UNL A   1      48.137  26.789  26.601  1.00  0.00     0.134 A 
ATOM     61  C   UNL A   1      47.141  27.508  24.540  1.00  0.00     0.134 A 
ATOM     62  F   UNL A   1      48.115  26.645  27.934  1.00  0.00    -0.206 F 
ATOM     63  C   UNL A   1      49.279  26.381  25.911  1.00  0.00     0.040 A 
ATOM     64  C   UNL A   1      48.264  27.078  23.837  1.00  0.00     0.040 A 
ATOM     65  F   UNL A   1      46.129  28.048  23.844  1.00  0.00    -0.206 F 
ATOM     66  C   UNL A   1      49.340  26.519  24.525  1.00  0.00     0.006 A 
ENDBRANCH  42  59
ENDBRANCH  16  17
ENDBRANCH   9  11
ENDBRANCH   8   9
ENDBRANCH   7   8
ENDBRANCH   6   7
ENDBRANCH   5   6
ENDBRANCH   4   5
ENDBRANCH   3   4
ENDBRANCH   2   3
ENDBRANCH   1   2
BRANCH   1  67
ATOM     67  C   UNL A   1      32.302  30.212  27.071  1.00  0.00     0.188 C 
BRANCH  67  68
ATOM     68  O   UNL A   1      31.767  29.147  26.321  1.00  0.00    -0.376 OA
BRANCH  68  69
ATOM     69  C   UNL A   1      31.936  27.820  26.809  1.00  0.00     0.202 C 
BRANCH  69  70
ATOM     70  C   UNL A   1      31.058  26.618  26.389  1.00  0.00     0.261 C 
BRANCH  70  71
ATOM     71  O   UNL A   1      31.670  25.559  25.619  1.00  0.00    -0.463 OA
BRANCH  71  72
ATOM     72  C   UNL A   1      31.898  24.400  26.297  1.00  0.00     0.312 C 
ATOM     73  O   UNL A   1      31.225  24.059  27.270  1.00  0.00    -0.252 OA
BRANCH  72  74
ATOM     74  C   UNL A   1      33.092  23.526  25.813  1.00  0.00     0.071 C 
ATOM     75  C   UNL A   1      34.077  24.565  25.182  1.00  0.00     0.019 C 
ATOM     76  C   UNL A   1      33.854  22.667  26.858  1.00  0.00     0.019 C 
ATOM     77  C   UNL A   1      35.469  24.057  24.827  1.00  0.00     0.001 C 
ATOM     78  C   UNL A   1      35.193  22.111  26.369  1.00  0.00     0.001 C 
ATOM     79  C   UNL A   1      36.106  23.258  25.953  1.00  0.00     0.000 C 
BRANCH  74  80
ATOM     80  C   UNL A   1      32.487  22.599  24.721  1.00  0.00     0.046 C 
BRANCH  80  81
ATOM     81  C   UNL A   1      32.896  21.160  24.928  1.00  0.00    -0.025 C 
ATOM     82  C   UNL A   1      32.815  20.227  23.968  1.00  0.00     0.004 C 
BRANCH  82  83
ATOM     83  C   UNL A   1      32.977  18.801  24.251  1.00  0.00    -0.026 A 
ATOM     84  C   UNL A   1      32.651  18.307  25.514  1.00  0.00     0.008 A 
ATOM     85  C   UNL A   1      33.514  17.934  23.287  1.00  0.00     0.008 A 
ATOM     86  C   UNL A   1      32.841  16.955  25.809  1.00  0.00     0.001 A 
ATOM     87  C   UNL A   1      33.710  16.584  23.585  1.00  0.00     0.001 A 
ATOM     88  C   UNL A   1      33.371  16.096  24.847  1.00  0.00     0.000 A 
ENDBRANCH  82  83
ENDBRANCH  80  81
ENDBRANCH  74  80
ENDBRANCH  72  74
ENDBRANCH  71  72
ENDBRANCH  70  71
ENDBRANCH  69  70
ENDBRANCH  68  69
ENDBRANCH  67  68
ENDBRANCH   1  67
TORSDOF 23
ENDMDL
MODEL 3
REMARK VINA RESULT:      -9.9      2.228      4.454
REMARK SMILES O=C(OCCOCCOCCOCCOC(=O)C1(C/C=C/c2ccccc2)CCCCC1)c1ccc(-c2c3nc(c(-c4c(F)cccc4F)c4ccc([nH]4)c(-c4c(F)cccc4F)c4nc(c(-c5c(F)cccc5F)c5ccc2[nH]5)C=C4)C=C3)cc1
REMARK SMILES IDX 10 1 9 2 8 3 7 4 6 5 5 6 4 7 3 8 2 9 1 10 33 11 34 12 86 13
REMARK SMILES IDX 35 14 85 15 36 16 37 17 38 18 79 19 39 20 84 21 78 22 80 23
REMARK SMILES IDX 40 24 83 25 77 26 76 27 41 29 67 30 50 31 66 32 51 33 54 34
REMARK SMILES IDX 65 35 81 36 52 37 53 38 64 40 82 41 55 42 42 43 43 44 48 45
REMARK SMILES IDX 44 46 45 47 47 48 49 49 46 50 68 51 69 52 74 53 70 54 71 55
REMARK SMILES IDX 73 56 75 57 72 58 56 59 57 60 62 61 58 62 59 63 61 64 63 65
REMARK SMILES IDX 60 66 11 67 12 68 13 69 14 70 15 71 16 72 17 73 18 74 28 75
REMARK SMILES IDX 32 76 29 77 31 78 30 79 19 80 20 81 21 82 22 83 23 84 27 85
REMARK SMILES IDX 24 86 26 87 25 88
REMARK H PARENT 80 28 54 39
REMARK Flexibility Score: inf
ROOT
ATOM      1  C   UNL A   1      30.313  28.367  23.782  1.00  0.00     0.188 C 
ENDROOT
BRANCH   1   2
ATOM      2  O   UNL A   1      31.520  28.776  24.423  1.00  0.00    -0.377 OA
BRANCH   2   3
ATOM      3  C   UNL A   1      31.553  29.017  25.816  1.00  0.00     0.188 C 
BRANCH   3   4
ATOM      4  C   UNL A   1      32.178  30.337  26.215  1.00  0.00     0.188 C 
BRANCH   4   5
ATOM      5  O   UNL A   1      33.129  30.098  27.230  1.00  0.00    -0.376 OA
BRANCH   5   6
ATOM      6  C   UNL A   1      34.396  30.716  27.198  1.00  0.00     0.202 C 
BRANCH   6   7
ATOM      7  C   UNL A   1      34.624  31.874  28.144  1.00  0.00     0.261 C 
BRANCH   7   8
ATOM      8  O   UNL A   1      34.900  31.594  29.540  1.00  0.00    -0.460 OA
BRANCH   8   9
ATOM      9  C   UNL A   1      35.978  31.357  30.311  1.00  0.00     0.338 C 
ATOM     10  O   UNL A   1      35.993  31.791  31.465  1.00  0.00    -0.246 OA
BRANCH   9  11
ATOM     11  C   UNL A   1      37.116  30.511  29.897  1.00  0.00     0.060 A 
ATOM     12  C   UNL A   1      37.736  29.575  30.711  1.00  0.00     0.016 A 
ATOM     13  C   UNL A   1      37.496  30.555  28.551  1.00  0.00     0.016 A 
ATOM     14  C   UNL A   1      38.891  28.931  30.326  1.00  0.00     0.010 A 
ATOM     15  C   UNL A   1      38.575  29.790  28.099  1.00  0.00     0.010 A 
ATOM     16  C   UNL A   1      39.334  29.053  29.018  1.00  0.00    -0.014 A 
BRANCH  16  17
ATOM     17  C   UNL A   1      40.700  28.593  28.720  1.00  0.00     0.031 A 
ATOM     18  C   UNL A   1      41.818  29.553  29.003  1.00  0.00     0.074 A 
ATOM     19  C   UNL A   1      40.938  27.308  28.400  1.00  0.00     0.049 A 
ATOM     20  N   UNL A   1      43.087  29.457  28.727  1.00  0.00    -0.248 NA
ATOM     21  C   UNL A   1      41.450  30.802  29.698  1.00  0.00     0.031 C 
ATOM     22  C   UNL A   1      39.920  26.256  28.289  1.00  0.00     0.029 A 
ATOM     23  N   UNL A   1      42.115  26.652  28.168  1.00  0.00    -0.354 N 
ATOM     24  C   UNL A   1      43.647  30.661  29.136  1.00  0.00     0.074 A 
ATOM     25  C   UNL A   1      42.590  31.470  29.688  1.00  0.00     0.031 C 
ATOM     26  C   UNL A   1      40.525  25.080  28.067  1.00  0.00     0.029 A 
ATOM     27  C   UNL A   1      41.955  25.313  27.908  1.00  0.00     0.049 A 
ATOM     28  H   UNL A   1      42.992  27.097  28.185  1.00  0.00     0.167 HD
ATOM     29  C   UNL A   1      44.937  31.050  29.039  1.00  0.00     0.037 A 
ATOM     30  C   UNL A   1      42.867  24.399  27.536  1.00  0.00     0.037 A 
ATOM     31  C   UNL A   1      45.966  30.187  28.530  1.00  0.00     0.049 A 
ATOM     32  C   UNL A   1      44.283  24.871  27.361  1.00  0.00     0.074 A 
ATOM     33  C   UNL A   1      47.299  30.460  28.301  1.00  0.00     0.029 A 
ATOM     34  N   UNL A   1      45.759  28.854  28.191  1.00  0.00    -0.354 N 
ATOM     35  N   UNL A   1      44.796  26.056  27.608  1.00  0.00    -0.248 NA
ATOM     36  C   UNL A   1      45.243  23.898  26.831  1.00  0.00     0.031 C 
ATOM     37  C   UNL A   1      47.890  29.301  27.785  1.00  0.00     0.029 A 
ATOM     38  C   UNL A   1      46.938  28.292  27.746  1.00  0.00     0.049 A 
ATOM     39  H   UNL A   1      44.897  28.382  28.259  1.00  0.00     0.167 HD
ATOM     40  C   UNL A   1      46.140  25.968  27.282  1.00  0.00     0.074 A 
ATOM     41  C   UNL A   1      46.365  24.604  26.838  1.00  0.00     0.031 C 
ATOM     42  C   UNL A   1      47.105  26.919  27.335  1.00  0.00     0.037 A 
BRANCH  29  43
ATOM     43  C   UNL A   1      45.246  32.474  29.394  1.00  0.00     0.057 A 
ATOM     44  C   UNL A   1      45.729  32.855  30.653  1.00  0.00     0.134 A 
ATOM     45  C   UNL A   1      44.972  33.494  28.474  1.00  0.00     0.134 A 
ATOM     46  F   UNL A   1      45.972  31.933  31.596  1.00  0.00    -0.206 F 
ATOM     47  C   UNL A   1      45.895  34.200  30.995  1.00  0.00     0.040 A 
ATOM     48  C   UNL A   1      45.161  34.840  28.794  1.00  0.00     0.040 A 
ATOM     49  F   UNL A   1      44.494  33.203  27.255  1.00  0.00    -0.206 F 
ATOM     50  C   UNL A   1      45.612  35.197  30.063  1.00  0.00     0.006 A 
ENDBRANCH  29  43
BRANCH  30  51
ATOM     51  C   UNL A   1      42.465  22.996  27.244  1.00  0.00     0.057 A 
ATOM     52  C   UNL A   1      42.195  22.084  28.269  1.00  0.00     0.134 A 
ATOM     53  C   UNL A   1      42.353  22.527  25.927  1.00  0.00     0.134 A 
ATOM     54  F   UNL A   1      42.301  22.459  29.553  1.00  0.00    -0.206 F 
ATOM     55  C   UNL A   1      41.845  20.758  28.000  1.00  0.00     0.040 A 
ATOM     56  C   UNL A   1      41.973  21.214  25.642  1.00  0.00     0.040 A 
ATOM     57  F   UNL A   1      42.597  23.345  24.892  1.00  0.00    -0.206 F 
ATOM     58  C   UNL A   1      41.727  20.321  26.682  1.00  0.00     0.006 A 
ENDBRANCH  30  51
BRANCH  42  59
ATOM     59  C   UNL A   1      48.488  26.488  26.959  1.00  0.00     0.057 A 
ATOM     60  C   UNL A   1      49.324  25.816  27.856  1.00  0.00     0.134 A 
ATOM     61  C   UNL A   1      48.964  26.716  25.662  1.00  0.00     0.134 A 
ATOM     62  F   UNL A   1      48.924  25.582  29.116  1.00  0.00    -0.206 F 
ATOM     63  C   UNL A   1      50.604  25.406  27.483  1.00  0.00     0.040 A 
ATOM     64  C   UNL A   1      50.230  26.285  25.269  1.00  0.00     0.040 A 
ATOM     65  F   UNL A   1      48.201  27.345  24.755  1.00  0.00    -0.206 F 
ATOM     66  C   UNL A   1      51.055  25.635  26.184  1.00  0.00     0.006 A 
ENDBRANCH  42  59
ENDBRANCH  16  17
ENDBRANCH   9  11
ENDBRANCH   8   9
ENDBRANCH   7   8
ENDBRANCH   6   7
ENDBRANCH   5   6
ENDBRANCH   4   5
ENDBRANCH   3   4
ENDBRANCH   2   3
ENDBRANCH   1   2
BRANCH   1  67
ATOM     67  C   UNL A   1      30.270  27.051  22.999  1.00  0.00     0.188 C 
BRANCH  67  68
ATOM     68  O   UNL A   1      30.936  27.066  21.758  1.00  0.00    -0.376 OA
BRANCH  68  69
ATOM     69  C   UNL A   1      31.952  26.097  21.520  1.00  0.00     0.202 C 
BRANCH  69  70
ATOM     70  C   UNL A   1      33.383  26.172  22.102  1.00  0.00     0.261 C 
BRANCH  70  71
ATOM     71  O   UNL A   1      33.936  24.985  22.715  1.00  0.00    -0.463 OA
BRANCH  71  72
ATOM     72  C   UNL A   1      33.974  24.993  24.076  1.00  0.00     0.312 C 
ATOM     73  O   UNL A   1      33.345  25.808  24.750  1.00  0.00    -0.252 OA
BRANCH  72  74
ATOM     74  C   UNL A   1      34.892  23.938  24.759  1.00  0.00     0.071 C 
ATOM     75  C   UNL A   1      35.493  23.139  23.556  1.00  0.00     0.019 C 
ATOM     76  C   UNL A   1      36.046  24.437  25.669  1.00  0.00     0.019 C 
ATOM     77  C   UNL A   1      36.633  22.179  23.876  1.00  0.00     0.001 C 
ATOM     78  C   UNL A   1      37.084  23.370  26.024  1.00  0.00     0.001 C 
ATOM     79  C   UNL A   1      37.704  22.811  24.749  1.00  0.00     0.000 C 
BRANCH  74  80
ATOM     80  C   UNL A   1      33.924  23.048  25.589  1.00  0.00     0.046 C 
BRANCH  80  81
ATOM     81  C   UNL A   1      33.548  21.791  24.840  1.00  0.00    -0.025 C 
ATOM     82  C   UNL A   1      33.819  20.558  25.292  1.00  0.00     0.004 C 
BRANCH  82  83
ATOM     83  C   UNL A   1      33.675  19.370  24.450  1.00  0.00    -0.026 A 
ATOM     84  C   UNL A   1      32.628  19.299  23.531  1.00  0.00     0.008 A 
ATOM     85  C   UNL A   1      34.540  18.275  24.599  1.00  0.00     0.008 A 
ATOM     86  C   UNL A   1      32.455  18.153  22.752  1.00  0.00     0.001 A 
ATOM     87  C   UNL A   1      34.362  17.127  23.824  1.00  0.00     0.001 A 
ATOM     88  C   UNL A   1      33.320  17.069  22.899  1.00  0.00     0.000 A 
ENDBRANCH  82  83
ENDBRANCH  80  81
ENDBRANCH  74  80
ENDBRANCH  72  74
ENDBRANCH  71  72
ENDBRANCH  70  71
ENDBRANCH  69  70
ENDBRANCH  68  69
ENDBRANCH  67  68
ENDBRANCH   1  67
TORSDOF 23
ENDMDL
