MODEL 1
REMARK VINA RESULT:     -10.8      0.000      0.000
REMARK SMILES CC(=O)c1nnn(-c2ccc(C(=O)OCCOCCOCCOCCOC(=O)c3ccc(-c4c5nc(c(-c6c(F)cccc6F)c6ccc([nH]6)c(-c6c(F)cccc6F)c6nc(c(-c7c(F)cccc7F)c7ccc4[nH]7)C=C6)C=C5)cc3)cc2)c1C
REMARK SMILES IDX 20 1 19 2 18 3 17 4 16 5 15 6 14 7 12 8 13 9 11 10 8 11 9 12
REMARK SMILES IDX 84 13 10 14 83 15 7 16 4 17 5 18 85 19 6 20 86 21 2 22 1 23
REMARK SMILES IDX 3 24 21 25 22 26 23 27 24 28 25 29 26 30 27 31 28 32 29 33
REMARK SMILES IDX 30 34 82 35 31 36 81 37 32 38 33 39 34 40 75 41 35 42 80 43
REMARK SMILES IDX 74 44 76 45 36 46 79 47 73 48 72 49 37 51 63 52 46 53 62 54
REMARK SMILES IDX 47 55 50 56 61 57 77 58 48 59 49 60 60 62 78 63 51 64 38 65
REMARK SMILES IDX 39 66 44 67 40 68 41 69 43 70 45 71 42 72 64 73 65 74 70 75
REMARK SMILES IDX 66 76 67 77 69 78 71 79 68 80 52 81 53 82 58 83 54 84 55 85
REMARK SMILES IDX 57 86 59 87 56 88
REMARK H PARENT 76 50 50 61
REMARK Flexibility Score: inf
ROOT
ATOM      1  O   UNL A   1      38.920  21.260  26.015  1.00  0.00    -0.377 OA
ENDROOT
BRANCH   1   2
ATOM      2  C   UNL A   1      37.882  22.081  25.497  1.00  0.00     0.188 C 
BRANCH   2   3
ATOM      3  C   UNL A   1      37.041  21.593  24.294  1.00  0.00     0.188 C 
BRANCH   3   4
ATOM      4  O   UNL A   1      35.877  20.881  24.669  1.00  0.00    -0.376 OA
BRANCH   4   5
ATOM      5  C   UNL A   1      34.942  21.447  25.556  1.00  0.00     0.202 C 
BRANCH   5   6
ATOM      6  C   UNL A   1      33.792  22.299  25.008  1.00  0.00     0.261 C 
BRANCH   6   7
ATOM      7  O   UNL A   1      34.013  23.710  24.972  1.00  0.00    -0.460 OA
BRANCH   7   8
ATOM      8  C   UNL A   1      34.158  24.274  23.757  1.00  0.00     0.338 C 
ATOM      9  O   UNL A   1      34.723  23.796  22.786  1.00  0.00    -0.246 OA
BRANCH   8  10
ATOM     10  C   UNL A   1      33.357  25.517  23.733  1.00  0.00     0.060 A 
ATOM     11  C   UNL A   1      31.683  27.709  23.553  1.00  0.00     0.067 A 
ATOM     12  C   UNL A   1      31.471  26.789  24.581  1.00  0.00     0.029 A 
ATOM     13  C   UNL A   1      32.807  27.628  22.720  1.00  0.00     0.029 A 
ATOM     14  C   UNL A   1      32.302  25.669  24.647  1.00  0.00     0.018 A 
ATOM     15  C   UNL A   1      33.653  26.531  22.815  1.00  0.00     0.018 A 
BRANCH  11  16
ATOM     16  N   UNL A   1      30.628  28.562  23.174  1.00  0.00    -0.217 N 
ATOM     17  C   UNL A   1      29.186  30.193  23.079  1.00  0.00     0.151 A 
ATOM     18  N   UNL A   1      29.022  29.368  21.989  1.00  0.00    -0.126 NA
ATOM     19  C   UNL A   1      30.259  29.731  23.826  1.00  0.00     0.073 A 
ATOM     20  N   UNL A   1      29.983  28.455  22.000  1.00  0.00    -0.061 NA
ATOM     21  C   UNL A   1      31.004  30.251  25.001  1.00  0.00     0.069 C 
BRANCH  17  22
ATOM     22  C   UNL A   1      28.336  31.362  23.280  1.00  0.00     0.181 C 
ATOM     23  C   UNL A   1      28.779  32.693  22.727  1.00  0.00     0.095 C 
ATOM     24  O   UNL A   1      27.267  31.280  23.884  1.00  0.00    -0.293 OA
ENDBRANCH  17  22
ENDBRANCH  11  16
ENDBRANCH   8  10
ENDBRANCH   7   8
ENDBRANCH   6   7
ENDBRANCH   5   6
ENDBRANCH   4   5
ENDBRANCH   3   4
ENDBRANCH   2   3
ENDBRANCH   1   2
BRANCH   1  25
ATOM     25  C   UNL A   1      40.196  21.820  26.322  1.00  0.00     0.188 C 
BRANCH  25  26
ATOM     26  C   UNL A   1      40.931  21.578  27.672  1.00  0.00     0.188 C 
BRANCH  26  27
ATOM     27  O   UNL A   1      42.028  20.688  27.626  1.00  0.00    -0.376 OA
BRANCH  27  28
ATOM     28  C   UNL A   1      41.986  19.397  27.061  1.00  0.00     0.202 C 
BRANCH  28  29
ATOM     29  C   UNL A   1      42.710  19.098  25.754  1.00  0.00     0.261 C 
BRANCH  29  30
ATOM     30  O   UNL A   1      43.159  20.245  25.070  1.00  0.00    -0.460 OA
BRANCH  30  31
ATOM     31  C   UNL A   1      44.487  20.304  24.904  1.00  0.00     0.338 C 
ATOM     32  O   UNL A   1      45.277  19.360  24.884  1.00  0.00    -0.246 OA
BRANCH  31  33
ATOM     33  C   UNL A   1      44.874  21.711  24.842  1.00  0.00     0.060 A 
ATOM     34  C   UNL A   1      45.955  22.079  25.638  1.00  0.00     0.016 A 
ATOM     35  C   UNL A   1      43.955  22.643  24.328  1.00  0.00     0.016 A 
ATOM     36  C   UNL A   1      45.916  23.327  26.199  1.00  0.00     0.010 A 
ATOM     37  C   UNL A   1      43.921  23.892  24.887  1.00  0.00     0.010 A 
ATOM     38  C   UNL A   1      44.821  24.152  25.911  1.00  0.00    -0.014 A 
BRANCH  38  39
ATOM     39  C   UNL A   1      44.614  25.284  26.776  1.00  0.00     0.031 A 
ATOM     40  C   UNL A   1      45.771  26.188  26.829  1.00  0.00     0.074 A 
ATOM     41  C   UNL A   1      43.470  25.464  27.461  1.00  0.00     0.049 A 
ATOM     42  N   UNL A   1      46.607  26.326  27.801  1.00  0.00    -0.248 NA
ATOM     43  C   UNL A   1      46.147  26.876  25.589  1.00  0.00     0.031 C 
ATOM     44  C   UNL A   1      42.180  24.784  27.321  1.00  0.00     0.029 A 
ATOM     45  N   UNL A   1      43.227  26.389  28.421  1.00  0.00    -0.354 N 
ATOM     46  C   UNL A   1      47.520  27.275  27.365  1.00  0.00     0.074 A 
ATOM     47  C   UNL A   1      47.293  27.450  25.953  1.00  0.00     0.031 C 
ATOM     48  C   UNL A   1      41.237  25.480  28.002  1.00  0.00     0.029 A 
ATOM     49  C   UNL A   1      41.888  26.552  28.736  1.00  0.00     0.049 A 
ATOM     50  H   UNL A   1      43.943  26.904  28.858  1.00  0.00     0.167 HD
ATOM     51  C   UNL A   1      48.231  28.018  28.250  1.00  0.00     0.037 A 
ATOM     52  C   UNL A   1      41.382  27.564  29.482  1.00  0.00     0.037 A 
ATOM     53  C   UNL A   1      48.235  27.432  29.565  1.00  0.00     0.049 A 
ATOM     54  C   UNL A   1      42.499  28.114  30.298  1.00  0.00     0.074 A 
ATOM     55  C   UNL A   1      48.700  26.242  30.094  1.00  0.00     0.029 A 
ATOM     56  N   UNL A   1      47.358  27.933  30.496  1.00  0.00    -0.354 N 
ATOM     57  N   UNL A   1      43.075  27.454  31.265  1.00  0.00    -0.248 NA
ATOM     58  C   UNL A   1      43.292  29.193  29.724  1.00  0.00     0.031 C 
ATOM     59  C   UNL A   1      47.730  25.863  31.068  1.00  0.00     0.029 A 
ATOM     60  C   UNL A   1      46.756  26.863  31.108  1.00  0.00     0.049 A 
ATOM     61  H   UNL A   1      47.192  28.884  30.689  1.00  0.00     0.167 HD
ATOM     62  C   UNL A   1      44.429  27.744  31.141  1.00  0.00     0.074 A 
ATOM     63  C   UNL A   1      44.492  28.877  30.221  1.00  0.00     0.031 C 
ATOM     64  C   UNL A   1      45.385  26.864  31.563  1.00  0.00     0.037 A 
BRANCH  51  65
ATOM     65  C   UNL A   1      48.588  29.454  28.001  1.00  0.00     0.057 A 
ATOM     66  C   UNL A   1      47.565  30.394  27.815  1.00  0.00     0.134 A 
ATOM     67  C   UNL A   1      49.885  29.885  27.652  1.00  0.00     0.134 A 
ATOM     68  F   UNL A   1      46.289  30.086  28.091  1.00  0.00    -0.206 F 
ATOM     69  C   UNL A   1      47.809  31.656  27.263  1.00  0.00     0.040 A 
ATOM     70  C   UNL A   1      50.147  31.159  27.152  1.00  0.00     0.040 A 
ATOM     71  F   UNL A   1      50.945  29.066  27.677  1.00  0.00    -0.206 F 
ATOM     72  C   UNL A   1      49.102  32.039  26.925  1.00  0.00     0.006 A 
ENDBRANCH  51  65
BRANCH  52  73
ATOM     73  C   UNL A   1      40.138  28.320  29.220  1.00  0.00     0.057 A 
ATOM     74  C   UNL A   1      39.911  28.942  27.986  1.00  0.00     0.134 A 
ATOM     75  C   UNL A   1      39.023  28.218  30.074  1.00  0.00     0.134 A 
ATOM     76  F   UNL A   1      40.899  29.043  27.085  1.00  0.00    -0.206 F 
ATOM     77  C   UNL A   1      38.646  29.420  27.614  1.00  0.00     0.040 A 
ATOM     78  C   UNL A   1      37.758  28.693  29.719  1.00  0.00     0.040 A 
ATOM     79  F   UNL A   1      39.104  27.569  31.246  1.00  0.00    -0.206 F 
ATOM     80  C   UNL A   1      37.562  29.287  28.479  1.00  0.00     0.006 A 
ENDBRANCH  52  73
BRANCH  64  81
ATOM     81  C   UNL A   1      44.927  25.668  32.354  1.00  0.00     0.057 A 
ATOM     82  C   UNL A   1      44.528  24.454  31.773  1.00  0.00     0.134 A 
ATOM     83  C   UNL A   1      45.030  25.695  33.748  1.00  0.00     0.134 A 
ATOM     84  F   UNL A   1      44.502  24.300  30.443  1.00  0.00    -0.206 F 
ATOM     85  C   UNL A   1      44.199  23.336  32.546  1.00  0.00     0.040 A 
ATOM     86  C   UNL A   1      44.734  24.577  34.531  1.00  0.00     0.040 A 
ATOM     87  F   UNL A   1      45.466  26.801  34.371  1.00  0.00    -0.206 F 
ATOM     88  C   UNL A   1      44.306  23.395  33.931  1.00  0.00     0.006 A 
ENDBRANCH  64  81
ENDBRANCH  38  39
ENDBRANCH  31  33
ENDBRANCH  30  31
ENDBRANCH  29  30
ENDBRANCH  28  29
ENDBRANCH  27  28
ENDBRANCH  26  27
ENDBRANCH  25  26
ENDBRANCH   1  25
TORSDOF 22
ENDMDL
MODEL 2
REMARK VINA RESULT:     -10.3      3.046      8.305
REMARK SMILES CC(=O)c1nnn(-c2ccc(C(=O)OCCOCCOCCOCCOC(=O)c3ccc(-c4c5nc(c(-c6c(F)cccc6F)c6ccc([nH]6)c(-c6c(F)cccc6F)c6nc(c(-c7c(F)cccc7F)c7ccc4[nH]7)C=C6)C=C5)cc3)cc2)c1C
REMARK SMILES IDX 20 1 19 2 18 3 17 4 16 5 15 6 14 7 12 8 13 9 11 10 8 11 9 12
REMARK SMILES IDX 84 13 10 14 83 15 7 16 4 17 5 18 85 19 6 20 86 21 2 22 1 23
REMARK SMILES IDX 3 24 21 25 22 26 23 27 24 28 25 29 26 30 27 31 28 32 29 33
REMARK SMILES IDX 30 34 82 35 31 36 81 37 32 38 33 39 34 40 75 41 35 42 80 43
REMARK SMILES IDX 74 44 76 45 36 46 79 47 73 48 72 49 37 51 63 52 46 53 62 54
REMARK SMILES IDX 47 55 50 56 61 57 77 58 48 59 49 60 60 62 78 63 51 64 38 65
REMARK SMILES IDX 39 66 44 67 40 68 41 69 43 70 45 71 42 72 64 73 65 74 70 75
REMARK SMILES IDX 66 76 67 77 69 78 71 79 68 80 52 81 53 82 58 83 54 84 55 85
REMARK SMILES IDX 57 86 59 87 56 88
REMARK H PARENT 76 50 50 61
REMARK Flexibility Score: inf
ROOT
ATOM      1  O   UNL A   1      31.833  29.700  25.805  1.00  0.00    -0.377 OA
ENDROOT
BRANCH   1   2
ATOM      2  C   UNL A   1      32.219  28.345  25.992  1.00  0.00     0.188 C 
BRANCH   2   3
ATOM      3  C   UNL A   1      31.502  27.477  27.052  1.00  0.00     0.188 C 
BRANCH   3   4
ATOM      4  O   UNL A   1      31.052  26.232  26.554  1.00  0.00    -0.376 OA
BRANCH   4   5
ATOM      5  C   UNL A   1      30.413  26.146  25.302  1.00  0.00     0.202 C 
BRANCH   5   6
ATOM      6  C   UNL A   1      30.764  25.000  24.347  1.00  0.00     0.261 C 
BRANCH   6   7
ATOM      7  O   UNL A   1      31.093  23.750  24.955  1.00  0.00    -0.460 OA
BRANCH   7   8
ATOM      8  C   UNL A   1      32.005  22.985  24.323  1.00  0.00     0.338 C 
ATOM      9  O   UNL A   1      31.818  22.264  23.355  1.00  0.00    -0.246 OA
BRANCH   8  10
ATOM     10  C   UNL A   1      33.334  23.297  24.892  1.00  0.00     0.060 A 
ATOM     11  C   UNL A   1      35.904  23.659  25.846  1.00  0.00     0.067 A 
ATOM     12  C   UNL A   1      35.602  24.097  24.555  1.00  0.00     0.029 A 
ATOM     13  C   UNL A   1      34.905  23.191  26.711  1.00  0.00     0.029 A 
ATOM     14  C   UNL A   1      34.311  23.883  24.069  1.00  0.00     0.018 A 
ATOM     15  C   UNL A   1      33.612  23.016  26.234  1.00  0.00     0.018 A 
BRANCH  11  16
ATOM     16  N   UNL A   1      37.250  23.429  26.190  1.00  0.00    -0.217 N 
ATOM     17  C   UNL A   1      39.239  22.562  26.396  1.00  0.00     0.151 A 
ATOM     18  N   UNL A   1      39.214  23.806  26.987  1.00  0.00    -0.126 NA
ATOM     19  C   UNL A   1      38.002  22.323  25.817  1.00  0.00     0.073 A 
ATOM     20  N   UNL A   1      38.036  24.366  26.745  1.00  0.00    -0.061 NA
ATOM     21  C   UNL A   1      37.459  21.256  24.937  1.00  0.00     0.069 C 
BRANCH  17  22
ATOM     22  C   UNL A   1      40.447  21.745  26.403  1.00  0.00     0.181 C 
ATOM     23  C   UNL A   1      40.862  21.063  27.682  1.00  0.00     0.095 C 
ATOM     24  O   UNL A   1      41.127  21.598  25.387  1.00  0.00    -0.293 OA
ENDBRANCH  17  22
ENDBRANCH  11  16
ENDBRANCH   8  10
ENDBRANCH   7   8
ENDBRANCH   6   7
ENDBRANCH   5   6
ENDBRANCH   4   5
ENDBRANCH   3   4
ENDBRANCH   2   3
ENDBRANCH   1   2
BRANCH   1  25
ATOM     25  C   UNL A   1      32.277  30.707  26.712  1.00  0.00     0.188 C 
BRANCH  25  26
ATOM     26  C   UNL A   1      33.647  30.649  27.448  1.00  0.00     0.188 C 
BRANCH  26  27
ATOM     27  O   UNL A   1      34.221  31.896  27.783  1.00  0.00    -0.376 OA
BRANCH  27  28
ATOM     28  C   UNL A   1      34.705  32.234  29.064  1.00  0.00     0.202 C 
BRANCH  28  29
ATOM     29  C   UNL A   1      36.138  31.906  29.464  1.00  0.00     0.261 C 
BRANCH  29  30
ATOM     30  O   UNL A   1      36.717  30.857  28.721  1.00  0.00    -0.460 OA
BRANCH  30  31
ATOM     31  C   UNL A   1      37.031  29.776  29.445  1.00  0.00     0.338 C 
ATOM     32  O   UNL A   1      36.717  29.545  30.613  1.00  0.00    -0.246 OA
BRANCH  31  33
ATOM     33  C   UNL A   1      37.907  28.930  28.640  1.00  0.00     0.060 A 
ATOM     34  C   UNL A   1      38.373  27.774  29.260  1.00  0.00     0.016 A 
ATOM     35  C   UNL A   1      38.519  29.481  27.500  1.00  0.00     0.016 A 
ATOM     36  C   UNL A   1      39.644  27.371  28.948  1.00  0.00     0.010 A 
ATOM     37  C   UNL A   1      39.787  29.074  27.187  1.00  0.00     0.010 A 
ATOM     38  C   UNL A   1      40.368  28.121  28.011  1.00  0.00    -0.014 A 
BRANCH  38  39
ATOM     39  C   UNL A   1      41.792  27.910  27.971  1.00  0.00     0.031 A 
ATOM     40  C   UNL A   1      42.171  26.652  27.314  1.00  0.00     0.074 A 
ATOM     41  C   UNL A   1      42.662  28.790  28.499  1.00  0.00     0.049 A 
ATOM     42  N   UNL A   1      42.606  25.578  27.880  1.00  0.00    -0.248 NA
ATOM     43  C   UNL A   1      41.847  26.511  25.890  1.00  0.00     0.031 C 
ATOM     44  C   UNL A   1      42.441  30.162  28.961  1.00  0.00     0.029 A 
ATOM     45  N   UNL A   1      43.996  28.622  28.666  1.00  0.00    -0.354 N 
ATOM     46  C   UNL A   1      42.800  24.674  26.847  1.00  0.00     0.074 A 
ATOM     47  C   UNL A   1      42.164  25.234  25.681  1.00  0.00     0.031 C 
ATOM     48  C   UNL A   1      43.639  30.770  29.136  1.00  0.00     0.029 A 
ATOM     49  C   UNL A   1      44.693  29.787  28.944  1.00  0.00     0.049 A 
ATOM     50  H   UNL A   1      44.436  27.744  28.597  1.00  0.00     0.167 HD
ATOM     51  C   UNL A   1      43.677  23.647  26.974  1.00  0.00     0.037 A 
ATOM     52  C   UNL A   1      46.042  29.912  28.920  1.00  0.00     0.037 A 
ATOM     53  C   UNL A   1      44.010  23.389  28.350  1.00  0.00     0.049 A 
ATOM     54  C   UNL A   1      46.615  28.547  29.075  1.00  0.00     0.074 A 
ATOM     55  C   UNL A   1      43.291  22.997  29.464  1.00  0.00     0.029 A 
ATOM     56  N   UNL A   1      45.192  23.899  28.833  1.00  0.00    -0.354 N 
ATOM     57  N   UNL A   1      46.522  27.848  30.173  1.00  0.00    -0.248 NA
ATOM     58  C   UNL A   1      46.860  27.772  27.865  1.00  0.00     0.031 C 
ATOM     59  C   UNL A   1      43.862  23.724  30.550  1.00  0.00     0.029 A 
ATOM     60  C   UNL A   1      44.920  24.481  30.045  1.00  0.00     0.049 A 
ATOM     61  H   UNL A   1      46.070  23.855  28.390  1.00  0.00     0.167 HD
ATOM     62  C   UNL A   1      46.277  26.547  29.752  1.00  0.00     0.074 A 
ATOM     63  C   UNL A   1      46.569  26.549  28.321  1.00  0.00     0.031 C 
ATOM     64  C   UNL A   1      45.586  25.666  30.535  1.00  0.00     0.037 A 
BRANCH  51  65
ATOM     65  C   UNL A   1      44.509  23.145  25.830  1.00  0.00     0.057 A 
ATOM     66  C   UNL A   1      44.630  21.763  25.623  1.00  0.00     0.134 A 
ATOM     67  C   UNL A   1      45.417  23.952  25.114  1.00  0.00     0.134 A 
ATOM     68  F   UNL A   1      43.834  20.898  26.269  1.00  0.00    -0.206 F 
ATOM     69  C   UNL A   1      45.626  21.221  24.804  1.00  0.00     0.040 A 
ATOM     70  C   UNL A   1      46.379  23.425  24.254  1.00  0.00     0.040 A 
ATOM     71  F   UNL A   1      45.491  25.278  25.288  1.00  0.00    -0.206 F 
ATOM     72  C   UNL A   1      46.508  22.052  24.122  1.00  0.00     0.006 A 
ENDBRANCH  51  65
BRANCH  52  73
ATOM     73  C   UNL A   1      46.817  31.044  28.368  1.00  0.00     0.057 A 
ATOM     74  C   UNL A   1      46.590  31.517  27.069  1.00  0.00     0.134 A 
ATOM     75  C   UNL A   1      47.603  31.868  29.196  1.00  0.00     0.134 A 
ATOM     76  F   UNL A   1      45.813  30.826  26.222  1.00  0.00    -0.206 F 
ATOM     77  C   UNL A   1      47.100  32.744  26.623  1.00  0.00     0.040 A 
ATOM     78  C   UNL A   1      48.122  33.092  28.763  1.00  0.00     0.040 A 
ATOM     79  F   UNL A   1      47.816  31.556  30.483  1.00  0.00    -0.206 F 
ATOM     80  C   UNL A   1      47.861  33.540  27.475  1.00  0.00     0.006 A 
ENDBRANCH  52  73
BRANCH  64  81
ATOM     81  C   UNL A   1      45.284  26.083  31.950  1.00  0.00     0.057 A 
ATOM     82  C   UNL A   1      44.121  26.772  32.328  1.00  0.00     0.134 A 
ATOM     83  C   UNL A   1      46.123  25.649  32.980  1.00  0.00     0.134 A 
ATOM     84  F   UNL A   1      43.206  27.134  31.421  1.00  0.00    -0.206 F 
ATOM     85  C   UNL A   1      43.834  27.059  33.667  1.00  0.00     0.040 A 
ATOM     86  C   UNL A   1      45.833  25.902  34.323  1.00  0.00     0.040 A 
ATOM     87  F   UNL A   1      47.221  24.929  32.699  1.00  0.00    -0.206 F 
ATOM     88  C   UNL A   1      44.690  26.619  34.670  1.00  0.00     0.006 A 
ENDBRANCH  64  81
ENDBRANCH  38  39
ENDBRANCH  31  33
ENDBRANCH  30  31
ENDBRANCH  29  30
ENDBRANCH  28  29
ENDBRANCH  27  28
ENDBRANCH  26  27
ENDBRANCH  25  26
ENDBRANCH   1  25
TORSDOF 22
ENDMDL
MODEL 3
REMARK VINA RESULT:     -10.0      2.767      4.039
REMARK SMILES CC(=O)c1nnn(-c2ccc(C(=O)OCCOCCOCCOCCOC(=O)c3ccc(-c4c5nc(c(-c6c(F)cccc6F)c6ccc([nH]6)c(-c6c(F)cccc6F)c6nc(c(-c7c(F)cccc7F)c7ccc4[nH]7)C=C6)C=C5)cc3)cc2)c1C
REMARK SMILES IDX 20 1 19 2 18 3 17 4 16 5 15 6 14 7 12 8 13 9 11 10 8 11 9 12
REMARK SMILES IDX 84 13 10 14 83 15 7 16 4 17 5 18 85 19 6 20 86 21 2 22 1 23
REMARK SMILES IDX 3 24 21 25 22 26 23 27 24 28 25 29 26 30 27 31 28 32 29 33
REMARK SMILES IDX 30 34 82 35 31 36 81 37 32 38 33 39 34 40 75 41 35 42 80 43
REMARK SMILES IDX 74 44 76 45 36 46 79 47 73 48 72 49 37 51 63 52 46 53 62 54
REMARK SMILES IDX 47 55 50 56 61 57 77 58 48 59 49 60 60 62 78 63 51 64 38 65
REMARK SMILES IDX 39 66 44 67 40 68 41 69 43 70 45 71 42 72 64 73 65 74 70 75
REMARK SMILES IDX 66 76 67 77 69 78 71 79 68 80 52 81 53 82 58 83 54 84 55 85
REMARK SMILES IDX 57 86 59 87 56 88
REMARK H PARENT 76 50 50 61
REMARK Flexibility Score: inf
ROOT
ATOM      1  O   UNL A   1      38.884  21.122  25.974  1.00  0.00    -0.377 OA
ENDROOT
BRANCH   1   2
ATOM      2  C   UNL A   1      37.907  21.895  25.290  1.00  0.00     0.188 C 
BRANCH   2   3
ATOM      3  C   UNL A   1      36.843  21.194  24.413  1.00  0.00     0.188 C 
BRANCH   3   4
ATOM      4  O   UNL A   1      35.784  20.623  25.158  1.00  0.00    -0.376 OA
BRANCH   4   5
ATOM      5  C   UNL A   1      34.588  21.335  25.370  1.00  0.00     0.202 C 
BRANCH   5   6
ATOM      6  C   UNL A   1      33.768  21.820  24.169  1.00  0.00     0.261 C 
BRANCH   6   7
ATOM      7  O   UNL A   1      33.310  23.172  24.222  1.00  0.00    -0.460 OA
BRANCH   7   8
ATOM      8  C   UNL A   1      33.923  24.056  23.411  1.00  0.00     0.338 C 
ATOM      9  O   UNL A   1      34.852  23.836  22.649  1.00  0.00    -0.246 OA
BRANCH   8  10
ATOM     10  C   UNL A   1      33.164  25.325  23.462  1.00  0.00     0.060 A 
ATOM     11  C   UNL A   1      31.570  27.583  23.404  1.00  0.00     0.067 A 
ATOM     12  C   UNL A   1      31.281  26.584  24.335  1.00  0.00     0.029 A 
ATOM     13  C   UNL A   1      32.731  27.535  22.619  1.00  0.00     0.029 A 
ATOM     14  C   UNL A   1      32.071  25.433  24.338  1.00  0.00     0.018 A 
ATOM     15  C   UNL A   1      33.536  26.404  22.654  1.00  0.00     0.018 A 
BRANCH  11  16
ATOM     16  N   UNL A   1      30.563  28.503  23.055  1.00  0.00    -0.217 N 
ATOM     17  C   UNL A   1      29.204  30.206  23.024  1.00  0.00     0.151 A 
ATOM     18  N   UNL A   1      29.011  29.441  21.895  1.00  0.00    -0.126 NA
ATOM     19  C   UNL A   1      30.244  29.658  23.757  1.00  0.00     0.073 A 
ATOM     20  N   UNL A   1      29.927  28.482  21.873  1.00  0.00    -0.061 NA
ATOM     21  C   UNL A   1      31.001  30.087  24.962  1.00  0.00     0.069 C 
BRANCH  17  22
ATOM     22  C   UNL A   1      28.409  31.405  23.270  1.00  0.00     0.181 C 
ATOM     23  C   UNL A   1      28.903  32.730  22.747  1.00  0.00     0.095 C 
ATOM     24  O   UNL A   1      27.347  31.353  23.889  1.00  0.00    -0.293 OA
ENDBRANCH  17  22
ENDBRANCH  11  16
ENDBRANCH   8  10
ENDBRANCH   7   8
ENDBRANCH   6   7
ENDBRANCH   5   6
ENDBRANCH   4   5
ENDBRANCH   3   4
ENDBRANCH   2   3
ENDBRANCH   1   2
BRANCH   1  25
ATOM     25  C   UNL A   1      40.105  21.720  26.404  1.00  0.00     0.188 C 
BRANCH  25  26
ATOM     26  C   UNL A   1      40.894  21.241  27.657  1.00  0.00     0.188 C 
BRANCH  26  27
ATOM     27  O   UNL A   1      42.247  20.897  27.440  1.00  0.00    -0.376 OA
BRANCH  27  28
ATOM     28  C   UNL A   1      42.837  20.739  26.168  1.00  0.00     0.202 C 
BRANCH  28  29
ATOM     29  C   UNL A   1      43.430  21.935  25.434  1.00  0.00     0.261 C 
BRANCH  29  30
ATOM     30  O   UNL A   1      43.622  23.071  26.246  1.00  0.00    -0.460 OA
BRANCH  30  31
ATOM     31  C   UNL A   1      43.243  24.224  25.680  1.00  0.00     0.338 C 
ATOM     32  O   UNL A   1      43.688  24.729  24.650  1.00  0.00    -0.246 OA
BRANCH  31  33
ATOM     33  C   UNL A   1      42.255  24.853  26.552  1.00  0.00     0.060 A 
ATOM     34  C   UNL A   1      41.397  25.763  25.941  1.00  0.00     0.016 A 
ATOM     35  C   UNL A   1      42.459  24.815  27.943  1.00  0.00     0.016 A 
ATOM     36  C   UNL A   1      41.015  26.849  26.681  1.00  0.00     0.010 A 
ATOM     37  C   UNL A   1      42.072  25.900  28.682  1.00  0.00     0.010 A 
ATOM     38  C   UNL A   1      41.481  26.953  27.999  1.00  0.00    -0.014 A 
BRANCH  38  39
ATOM     39  C   UNL A   1      41.379  28.246  28.625  1.00  0.00     0.031 A 
ATOM     40  C   UNL A   1      42.539  29.108  28.361  1.00  0.00     0.074 A 
ATOM     41  C   UNL A   1      40.320  28.597  29.377  1.00  0.00     0.049 A 
ATOM     42  N   UNL A   1      43.481  29.421  29.185  1.00  0.00    -0.248 NA
ATOM     43  C   UNL A   1      42.777  29.511  26.970  1.00  0.00     0.031 C 
ATOM     44  C   UNL A   1      39.019  27.941  29.525  1.00  0.00     0.029 A 
ATOM     45  N   UNL A   1      40.191  29.708  30.142  1.00  0.00    -0.354 N 
ATOM     46  C   UNL A   1      44.343  30.231  28.463  1.00  0.00     0.074 A 
ATOM     47  C   UNL A   1      43.960  30.115  27.079  1.00  0.00     0.031 C 
ATOM     48  C   UNL A   1      38.163  28.790  30.143  1.00  0.00     0.029 A 
ATOM     49  C   UNL A   1      38.897  29.972  30.560  1.00  0.00     0.049 A 
ATOM     50  H   UNL A   1      40.955  30.282  30.381  1.00  0.00     0.167 HD
ATOM     51  C   UNL A   1      45.153  31.121  29.089  1.00  0.00     0.037 A 
ATOM     52  C   UNL A   1      38.484  31.132  31.127  1.00  0.00     0.037 A 
ATOM     53  C   UNL A   1      45.302  30.822  30.489  1.00  0.00     0.049 A 
ATOM     54  C   UNL A   1      39.688  31.806  31.682  1.00  0.00     0.074 A 
ATOM     55  C   UNL A   1      45.817  29.755  31.202  1.00  0.00     0.029 A 
ATOM     56  N   UNL A   1      44.539  31.531  31.384  1.00  0.00    -0.354 N 
ATOM     57  N   UNL A   1      40.367  31.347  32.698  1.00  0.00    -0.248 NA
ATOM     58  C   UNL A   1      40.418  32.720  30.811  1.00  0.00     0.031 C 
ATOM     59  C   UNL A   1      44.961  29.616  32.334  1.00  0.00     0.029 A 
ATOM     60  C   UNL A   1      44.004  30.629  32.269  1.00  0.00     0.049 A 
ATOM     61  H   UNL A   1      44.400  32.506  31.389  1.00  0.00     0.167 HD
ATOM     62  C   UNL A   1      41.699  31.565  32.370  1.00  0.00     0.074 A 
ATOM     63  C   UNL A   1      41.665  32.480  31.231  1.00  0.00     0.031 C 
ATOM     64  C   UNL A   1      42.692  30.765  32.860  1.00  0.00     0.037 A 
BRANCH  51  65
ATOM     65  C   UNL A   1      45.487  32.463  28.506  1.00  0.00     0.057 A 
ATOM     66  C   UNL A   1      46.832  32.839  28.374  1.00  0.00     0.134 A 
ATOM     67  C   UNL A   1      44.544  33.499  28.344  1.00  0.00     0.134 A 
ATOM     68  F   UNL A   1      47.816  31.942  28.532  1.00  0.00    -0.206 F 
ATOM     69  C   UNL A   1      47.211  34.168  28.155  1.00  0.00     0.040 A 
ATOM     70  C   UNL A   1      44.910  34.816  28.072  1.00  0.00     0.040 A 
ATOM     71  F   UNL A   1      43.232  33.313  28.543  1.00  0.00    -0.206 F 
ATOM     72  C   UNL A   1      46.250  35.161  28.009  1.00  0.00     0.006 A 
ENDBRANCH  51  65
BRANCH  52  73
ATOM     73  C   UNL A   1      37.222  31.852  30.849  1.00  0.00     0.057 A 
ATOM     74  C   UNL A   1      36.903  32.288  29.557  1.00  0.00     0.134 A 
ATOM     75  C   UNL A   1      36.174  31.886  31.789  1.00  0.00     0.134 A 
ATOM     76  F   UNL A   1      37.822  32.247  28.581  1.00  0.00    -0.206 F 
ATOM     77  C   UNL A   1      35.614  32.718  29.213  1.00  0.00     0.040 A 
ATOM     78  C   UNL A   1      34.885  32.315  31.461  1.00  0.00     0.040 A 
ATOM     79  F   UNL A   1      36.343  31.415  33.033  1.00  0.00    -0.206 F 
ATOM     80  C   UNL A   1      34.597  32.723  30.165  1.00  0.00     0.006 A 
ENDBRANCH  52  73
BRANCH  64  81
ATOM     81  C   UNL A   1      42.320  29.774  33.930  1.00  0.00     0.057 A 
ATOM     82  C   UNL A   1      41.891  28.463  33.664  1.00  0.00     0.134 A 
ATOM     83  C   UNL A   1      42.539  30.105  35.270  1.00  0.00     0.134 A 
ATOM     84  F   UNL A   1      41.756  28.022  32.408  1.00  0.00    -0.206 F 
ATOM     85  C   UNL A   1      41.644  27.543  34.689  1.00  0.00     0.040 A 
ATOM     86  C   UNL A   1      42.326  29.187  36.301  1.00  0.00     0.040 A 
ATOM     87  F   UNL A   1      43.009  31.319  35.597  1.00  0.00    -0.206 F 
ATOM     88  C   UNL A   1      41.867  27.904  36.013  1.00  0.00     0.006 A 
ENDBRANCH  64  81
ENDBRANCH  38  39
ENDBRANCH  31  33
ENDBRANCH  30  31
ENDBRANCH  29  30
ENDBRANCH  28  29
ENDBRANCH  27  28
ENDBRANCH  26  27
ENDBRANCH  25  26
ENDBRANCH   1  25
TORSDOF 22
ENDMDL
