MODEL 1
REMARK VINA RESULT:     -11.3      0.000      0.000
REMARK SMILES C[C@@H]1CN(C(=O)Nc2ccc(O)c(C(=O)OCCOCCOCCOCCOC(=O)c3ccc(-c4c5nc(c(-c6c(F)cccc6F)c6ccc([nH]6)c(-c6c(F)cccc6F)c6nc(c(-c7c(F)cccc7F)c7ccc4[nH]7)C=C6)C=C5)cc3)c2)C[C@H]1C
REMARK SMILES IDX 23 1 22 2 21 3 20 4 19 5 18 6 17 7 16 8 14 9 15 10 13 11
REMARK SMILES IDX 8 12 9 13 85 14 10 15 11 16 7 17 1 18 2 19 3 20 87 21 4 22
REMARK SMILES IDX 86 23 88 24 5 25 6 26 12 28 24 30 25 31 26 32 27 33 28 34
REMARK SMILES IDX 29 35 30 36 31 37 32 38 84 39 33 40 83 41 34 42 35 43 36 44
REMARK SMILES IDX 77 45 37 46 82 47 76 48 78 49 38 50 81 51 75 52 74 53 39 55
REMARK SMILES IDX 65 56 48 57 64 58 49 59 52 60 63 61 79 62 50 63 51 64 62 66
REMARK SMILES IDX 80 67 53 68 40 69 41 70 46 71 42 72 43 73 45 74 47 75 44 76
REMARK SMILES IDX 66 77 67 78 72 79 68 80 69 81 71 82 73 83 70 84 54 85 55 86
REMARK SMILES IDX 60 87 56 88 57 89 59 90 61 91 58 92
REMARK H PARENT 7 27 12 29 78 54 52 65
REMARK Flexibility Score: inf
ROOT
ATOM      1  C   UNL A   1      32.864  36.152  30.602  1.00  0.00     0.188 C 
ENDROOT
BRANCH   1   2
ATOM      2  O   UNL A   1      32.630  34.952  29.872  1.00  0.00    -0.377 OA
BRANCH   2   3
ATOM      3  C   UNL A   1      33.541  34.569  28.848  1.00  0.00     0.188 C 
BRANCH   3   4
ATOM      4  C   UNL A   1      33.280  33.299  28.004  1.00  0.00     0.188 C 
BRANCH   4   5
ATOM      5  O   UNL A   1      34.068  32.184  28.383  1.00  0.00    -0.376 OA
BRANCH   5   6
ATOM      6  C   UNL A   1      34.004  30.992  27.625  1.00  0.00     0.202 C 
BRANCH   6   7
ATOM      7  C   UNL A   1      32.718  30.652  26.859  1.00  0.00     0.261 C 
BRANCH   7   8
ATOM      8  O   UNL A   1      32.601  29.290  26.452  1.00  0.00    -0.460 OA
BRANCH   8   9
ATOM      9  C   UNL A   1      32.703  29.014  25.135  1.00  0.00     0.342 C 
ATOM     10  O   UNL A   1      33.616  29.329  24.392  1.00  0.00    -0.246 OA
BRANCH   9  11
ATOM     11  C   UNL A   1      31.658  28.016  24.805  1.00  0.00     0.103 A 
ATOM     12  C   UNL A   1      30.241  26.231  25.584  1.00  0.00     0.044 A 
ATOM     13  C   UNL A   1      29.530  26.259  24.382  1.00  0.00     0.030 A 
ATOM     14  C   UNL A   1      31.249  27.158  25.835  1.00  0.00     0.045 A 
ATOM     15  C   UNL A   1      29.931  27.118  23.357  1.00  0.00     0.049 A 
ATOM     16  C   UNL A   1      31.022  27.965  23.556  1.00  0.00     0.130 A 
BRANCH  12  17
ATOM     17  N   UNL A   1      30.035  25.202  26.502  1.00  0.00    -0.308 N 
ATOM     18  C   UNL A   1      34.400  24.252  23.464  1.00  0.00     0.010 C 
ATOM     19  C   UNL A   1      33.224  23.417  23.952  1.00  0.00     0.010 C 
ATOM     20  C   UNL A   1      32.139  24.302  24.544  1.00  0.00     0.125 C 
ATOM     21  C   UNL A   1      33.542  22.461  25.103  1.00  0.00     0.010 C 
ATOM     22  N   UNL A   1      31.498  23.540  25.602  1.00  0.00    -0.324 N 
ATOM     23  C   UNL A   1      32.170  22.258  25.758  1.00  0.00     0.125 C 
ATOM     24  C   UNL A   1      34.174  21.167  24.623  1.00  0.00     0.010 C 
ATOM     25  C   UNL A   1      30.531  23.927  26.498  1.00  0.00     0.321 C 
ATOM     26  O   UNL A   1      30.149  23.175  27.399  1.00  0.00    -0.248 OA
ATOM     27  H   UNL A   1      29.450  25.425  27.263  1.00  0.00     0.171 HD
ENDBRANCH  12  17
BRANCH  16  28
ATOM     28  O   UNL A   1      31.474  28.725  22.516  1.00  0.00    -0.507 OA
ATOM     29  H   UNL A   1      31.092  28.631  21.666  1.00  0.00     0.293 HD
ENDBRANCH  16  28
ENDBRANCH   9  11
ENDBRANCH   8   9
ENDBRANCH   7   8
ENDBRANCH   6   7
ENDBRANCH   5   6
ENDBRANCH   4   5
ENDBRANCH   3   4
ENDBRANCH   2   3
ENDBRANCH   1   2
BRANCH   1  30
ATOM     30  C   UNL A   1      32.819  36.157  32.150  1.00  0.00     0.188 C 
BRANCH  30  31
ATOM     31  O   UNL A   1      34.041  36.515  32.775  1.00  0.00    -0.376 OA
BRANCH  31  32
ATOM     32  C   UNL A   1      34.781  35.488  33.411  1.00  0.00     0.202 C 
BRANCH  32  33
ATOM     33  C   UNL A   1      35.889  34.800  32.601  1.00  0.00     0.261 C 
BRANCH  33  34
ATOM     34  O   UNL A   1      36.193  33.443  32.959  1.00  0.00    -0.460 OA
BRANCH  34  35
ATOM     35  C   UNL A   1      35.598  32.464  32.248  1.00  0.00     0.338 C 
ATOM     36  O   UNL A   1      34.404  32.329  32.028  1.00  0.00    -0.246 OA
BRANCH  35  37
ATOM     37  C   UNL A   1      36.665  31.666  31.615  1.00  0.00     0.060 A 
ATOM     38  C   UNL A   1      37.561  30.951  32.421  1.00  0.00     0.016 A 
ATOM     39  C   UNL A   1      36.771  31.617  30.223  1.00  0.00     0.016 A 
ATOM     40  C   UNL A   1      38.587  30.208  31.837  1.00  0.00     0.010 A 
ATOM     41  C   UNL A   1      37.813  30.893  29.639  1.00  0.00     0.010 A 
ATOM     42  C   UNL A   1      38.745  30.214  30.446  1.00  0.00    -0.014 A 
BRANCH  42  43
ATOM     43  C   UNL A   1      39.996  29.698  29.843  1.00  0.00     0.031 A 
ATOM     44  C   UNL A   1      41.146  30.652  29.676  1.00  0.00     0.074 A 
ATOM     45  C   UNL A   1      40.119  28.415  29.460  1.00  0.00     0.049 A 
ATOM     46  N   UNL A   1      42.310  30.465  29.109  1.00  0.00    -0.248 NA
ATOM     47  C   UNL A   1      40.952  32.006  30.220  1.00  0.00     0.031 C 
ATOM     48  C   UNL A   1      39.097  27.383  29.613  1.00  0.00     0.029 A 
ATOM     49  N   UNL A   1      41.166  27.768  28.850  1.00  0.00    -0.354 N 
ATOM     50  C   UNL A   1      42.980  31.677  29.220  1.00  0.00     0.074 A 
ATOM     51  C   UNL A   1      42.083  32.602  29.877  1.00  0.00     0.031 C 
ATOM     52  C   UNL A   1      39.561  26.232  29.094  1.00  0.00     0.029 A 
ATOM     53  C   UNL A   1      40.896  26.458  28.540  1.00  0.00     0.049 A 
ATOM     54  H   UNL A   1      42.026  28.203  28.652  1.00  0.00     0.167 HD
ATOM     55  C   UNL A   1      44.234  31.990  28.816  1.00  0.00     0.037 A 
ATOM     56  C   UNL A   1      41.634  25.557  27.862  1.00  0.00     0.037 A 
ATOM     57  C   UNL A   1      45.122  31.068  28.158  1.00  0.00     0.049 A 
ATOM     58  C   UNL A   1      42.994  25.953  27.345  1.00  0.00     0.074 A 
ATOM     59  C   UNL A   1      46.416  31.284  27.721  1.00  0.00     0.029 A 
ATOM     60  N   UNL A   1      44.800  29.759  27.833  1.00  0.00    -0.354 N 
ATOM     61  N   UNL A   1      43.629  27.094  27.470  1.00  0.00    -0.248 NA
ATOM     62  C   UNL A   1      43.740  24.936  26.591  1.00  0.00     0.031 C 
ATOM     63  C   UNL A   1      46.857  30.123  27.078  1.00  0.00     0.029 A 
ATOM     64  C   UNL A   1      45.862  29.163  27.173  1.00  0.00     0.049 A 
ATOM     65  H   UNL A   1      43.944  29.318  28.040  1.00  0.00     0.167 HD
ATOM     66  C   UNL A   1      44.860  26.919  26.845  1.00  0.00     0.074 A 
ATOM     67  C   UNL A   1      44.885  25.559  26.351  1.00  0.00     0.031 C 
ATOM     68  C   UNL A   1      45.877  27.804  26.695  1.00  0.00     0.037 A 
BRANCH  55  69
ATOM     69  C   UNL A   1      44.702  33.397  29.046  1.00  0.00     0.057 A 
ATOM     70  C   UNL A   1      45.332  33.788  30.234  1.00  0.00     0.134 A 
ATOM     71  C   UNL A   1      44.540  34.371  28.051  1.00  0.00     0.134 A 
ATOM     72  F   UNL A   1      45.502  32.911  31.234  1.00  0.00    -0.206 F 
ATOM     73  C   UNL A   1      45.759  35.102  30.436  1.00  0.00     0.040 A 
ATOM     74  C   UNL A   1      44.991  35.679  28.228  1.00  0.00     0.040 A 
ATOM     75  F   UNL A   1      43.947  34.065  26.887  1.00  0.00    -0.206 F 
ATOM     76  C   UNL A   1      45.596  36.050  29.427  1.00  0.00     0.006 A 
ENDBRANCH  55  69
BRANCH  56  77
ATOM     77  C   UNL A   1      41.102  24.192  27.608  1.00  0.00     0.057 A 
ATOM     78  C   UNL A   1      41.608  23.077  28.287  1.00  0.00     0.134 A 
ATOM     79  C   UNL A   1      40.101  23.965  26.655  1.00  0.00     0.134 A 
ATOM     80  F   UNL A   1      42.586  23.225  29.193  1.00  0.00    -0.206 F 
ATOM     81  C   UNL A   1      41.154  21.785  28.013  1.00  0.00     0.040 A 
ATOM     82  C   UNL A   1      39.618  22.681  26.393  1.00  0.00     0.040 A 
ATOM     83  F   UNL A   1      39.574  24.989  25.968  1.00  0.00    -0.206 F 
ATOM     84  C   UNL A   1      40.151  21.586  27.066  1.00  0.00     0.006 A 
ENDBRANCH  56  77
BRANCH  68  85
ATOM     85  C   UNL A   1      47.123  27.317  26.011  1.00  0.00     0.057 A 
ATOM     86  C   UNL A   1      48.155  26.676  26.708  1.00  0.00     0.134 A 
ATOM     87  C   UNL A   1      47.270  27.451  24.622  1.00  0.00     0.134 A 
ATOM     88  F   UNL A   1      48.085  26.524  28.039  1.00  0.00    -0.206 F 
ATOM     89  C   UNL A   1      49.299  26.211  26.054  1.00  0.00     0.040 A 
ATOM     90  C   UNL A   1      48.393  26.961  23.954  1.00  0.00     0.040 A 
ATOM     91  F   UNL A   1      46.314  28.043  23.890  1.00  0.00    -0.206 F 
ATOM     92  C   UNL A   1      49.415  26.346  24.672  1.00  0.00     0.006 A 
ENDBRANCH  68  85
ENDBRANCH  42  43
ENDBRANCH  35  37
ENDBRANCH  34  35
ENDBRANCH  33  34
ENDBRANCH  32  33
ENDBRANCH  31  32
ENDBRANCH  30  31
ENDBRANCH   1  30
TORSDOF 22
ENDMDL
MODEL 2
REMARK VINA RESULT:     -11.0      1.500      2.141
REMARK SMILES C[C@@H]1CN(C(=O)Nc2ccc(O)c(C(=O)OCCOCCOCCOCCOC(=O)c3ccc(-c4c5nc(c(-c6c(F)cccc6F)c6ccc([nH]6)c(-c6c(F)cccc6F)c6nc(c(-c7c(F)cccc7F)c7ccc4[nH]7)C=C6)C=C5)cc3)c2)C[C@H]1C
REMARK SMILES IDX 23 1 22 2 21 3 20 4 19 5 18 6 17 7 16 8 14 9 15 10 13 11
REMARK SMILES IDX 8 12 9 13 85 14 10 15 11 16 7 17 1 18 2 19 3 20 87 21 4 22
REMARK SMILES IDX 86 23 88 24 5 25 6 26 12 28 24 30 25 31 26 32 27 33 28 34
REMARK SMILES IDX 29 35 30 36 31 37 32 38 84 39 33 40 83 41 34 42 35 43 36 44
REMARK SMILES IDX 77 45 37 46 82 47 76 48 78 49 38 50 81 51 75 52 74 53 39 55
REMARK SMILES IDX 65 56 48 57 64 58 49 59 52 60 63 61 79 62 50 63 51 64 62 66
REMARK SMILES IDX 80 67 53 68 40 69 41 70 46 71 42 72 43 73 45 74 47 75 44 76
REMARK SMILES IDX 66 77 67 78 72 79 68 80 69 81 71 82 73 83 70 84 54 85 55 86
REMARK SMILES IDX 60 87 56 88 57 89 59 90 61 91 58 92
REMARK H PARENT 7 27 12 29 78 54 52 65
REMARK Flexibility Score: inf
ROOT
ATOM      1  C   UNL A   1      32.926  35.869  29.785  1.00  0.00     0.188 C 
ENDROOT
BRANCH   1   2
ATOM      2  O   UNL A   1      32.589  34.600  29.232  1.00  0.00    -0.377 OA
BRANCH   2   3
ATOM      3  C   UNL A   1      33.446  34.011  28.262  1.00  0.00     0.188 C 
BRANCH   3   4
ATOM      4  C   UNL A   1      34.447  32.904  28.670  1.00  0.00     0.188 C 
BRANCH   4   5
ATOM      5  O   UNL A   1      35.233  32.415  27.598  1.00  0.00    -0.376 OA
BRANCH   5   6
ATOM      6  C   UNL A   1      35.892  31.170  27.725  1.00  0.00     0.202 C 
BRANCH   6   7
ATOM      7  C   UNL A   1      35.063  29.897  27.941  1.00  0.00     0.261 C 
BRANCH   7   8
ATOM      8  O   UNL A   1      34.351  29.439  26.793  1.00  0.00    -0.460 OA
BRANCH   8   9
ATOM      9  C   UNL A   1      33.010  29.600  26.777  1.00  0.00     0.342 C 
ATOM     10  O   UNL A   1      32.400  30.647  26.899  1.00  0.00    -0.246 OA
BRANCH   9  11
ATOM     11  C   UNL A   1      32.414  28.331  26.298  1.00  0.00     0.103 A 
ATOM     12  C   UNL A   1      32.417  26.591  24.631  1.00  0.00     0.044 A 
ATOM     13  C   UNL A   1      31.549  25.827  25.415  1.00  0.00     0.030 A 
ATOM     14  C   UNL A   1      32.918  27.802  25.101  1.00  0.00     0.045 A 
ATOM     15  C   UNL A   1      31.052  26.348  26.612  1.00  0.00     0.049 A 
ATOM     16  C   UNL A   1      31.453  27.617  27.028  1.00  0.00     0.130 A 
BRANCH  12  17
ATOM     17  N   UNL A   1      32.703  26.212  23.321  1.00  0.00    -0.308 N 
ATOM     18  C   UNL A   1      34.932  22.797  26.865  1.00  0.00     0.010 C 
ATOM     19  C   UNL A   1      35.399  23.480  25.587  1.00  0.00     0.010 C 
ATOM     20  C   UNL A   1      34.426  24.571  25.168  1.00  0.00     0.125 C 
ATOM     21  C   UNL A   1      35.446  22.581  24.351  1.00  0.00     0.010 C 
ATOM     22  N   UNL A   1      34.451  24.630  23.717  1.00  0.00    -0.324 N 
ATOM     23  C   UNL A   1      35.325  23.587  23.199  1.00  0.00     0.125 C 
ATOM     24  C   UNL A   1      36.714  21.749  24.289  1.00  0.00     0.010 C 
ATOM     25  C   UNL A   1      33.683  25.377  22.857  1.00  0.00     0.321 C 
ATOM     26  O   UNL A   1      33.773  25.246  21.633  1.00  0.00    -0.248 OA
ATOM     27  H   UNL A   1      32.117  26.599  22.631  1.00  0.00     0.171 HD
ENDBRANCH  12  17
BRANCH  16  28
ATOM     28  O   UNL A   1      30.884  28.164  28.143  1.00  0.00    -0.507 OA
ATOM     29  H   UNL A   1      29.959  28.092  28.280  1.00  0.00     0.293 HD
ENDBRANCH  16  28
ENDBRANCH   9  11
ENDBRANCH   8   9
ENDBRANCH   7   8
ENDBRANCH   6   7
ENDBRANCH   5   6
ENDBRANCH   4   5
ENDBRANCH   3   4
ENDBRANCH   2   3
ENDBRANCH   1   2
BRANCH   1  30
ATOM     30  C   UNL A   1      33.343  35.998  31.270  1.00  0.00     0.188 C 
BRANCH  30  31
ATOM     31  O   UNL A   1      32.861  34.964  32.111  1.00  0.00    -0.376 OA
BRANCH  31  32
ATOM     32  C   UNL A   1      33.805  34.263  32.902  1.00  0.00     0.202 C 
BRANCH  32  33
ATOM     33  C   UNL A   1      34.497  33.045  32.274  1.00  0.00     0.261 C 
BRANCH  33  34
ATOM     34  O   UNL A   1      35.650  32.539  32.965  1.00  0.00    -0.460 OA
BRANCH  34  35
ATOM     35  C   UNL A   1      36.804  33.225  32.833  1.00  0.00     0.338 C 
ATOM     36  O   UNL A   1      37.095  34.291  33.351  1.00  0.00    -0.246 OA
BRANCH  35  37
ATOM     37  C   UNL A   1      37.744  32.366  32.087  1.00  0.00     0.060 A 
ATOM     38  C   UNL A   1      38.603  31.512  32.791  1.00  0.00     0.016 A 
ATOM     39  C   UNL A   1      37.767  32.401  30.691  1.00  0.00     0.016 A 
ATOM     40  C   UNL A   1      39.511  30.709  32.101  1.00  0.00     0.010 A 
ATOM     41  C   UNL A   1      38.693  31.615  30.001  1.00  0.00     0.010 A 
ATOM     42  C   UNL A   1      39.591  30.792  30.705  1.00  0.00    -0.014 A 
BRANCH  42  43
ATOM     43  C   UNL A   1      40.746  30.194  29.995  1.00  0.00     0.031 A 
ATOM     44  C   UNL A   1      41.940  31.066  29.726  1.00  0.00     0.074 A 
ATOM     45  C   UNL A   1      40.745  28.907  29.605  1.00  0.00     0.049 A 
ATOM     46  N   UNL A   1      43.034  30.802  29.059  1.00  0.00    -0.248 NA
ATOM     47  C   UNL A   1      41.889  32.428  30.282  1.00  0.00     0.031 C 
ATOM     48  C   UNL A   1      39.672  27.947  29.850  1.00  0.00     0.029 A 
ATOM     49  N   UNL A   1      41.687  28.192  28.907  1.00  0.00    -0.354 N 
ATOM     50  C   UNL A   1      43.794  31.964  29.108  1.00  0.00     0.074 A 
ATOM     51  C   UNL A   1      43.023  32.946  29.840  1.00  0.00     0.031 C 
ATOM     52  C   UNL A   1      40.008  26.769  29.294  1.00  0.00     0.029 A 
ATOM     53  C   UNL A   1      41.301  26.905  28.625  1.00  0.00     0.049 A 
ATOM     54  H   UNL A   1      42.555  28.566  28.633  1.00  0.00     0.167 HD
ATOM     55  C   UNL A   1      45.026  32.191  28.595  1.00  0.00     0.037 A 
ATOM     56  C   UNL A   1      41.912  25.957  27.886  1.00  0.00     0.037 A 
ATOM     57  C   UNL A   1      45.786  31.213  27.863  1.00  0.00     0.049 A 
ATOM     58  C   UNL A   1      43.246  26.261  27.250  1.00  0.00     0.074 A 
ATOM     59  C   UNL A   1      47.049  31.340  27.313  1.00  0.00     0.029 A 
ATOM     60  N   UNL A   1      45.347  29.930  27.570  1.00  0.00    -0.354 N 
ATOM     61  N   UNL A   1      43.967  27.355  27.317  1.00  0.00    -0.248 NA
ATOM     62  C   UNL A   1      43.850  25.197  26.435  1.00  0.00     0.031 C 
ATOM     63  C   UNL A   1      47.350  30.154  26.635  1.00  0.00     0.029 A 
ATOM     64  C   UNL A   1      46.303  29.265  26.820  1.00  0.00     0.049 A 
ATOM     65  H   UNL A   1      44.485  29.549  27.853  1.00  0.00     0.167 HD
ATOM     66  C   UNL A   1      45.123  27.097  26.586  1.00  0.00     0.074 A 
ATOM     67  C   UNL A   1      45.010  25.741  26.094  1.00  0.00     0.031 C 
ATOM     68  C   UNL A   1      46.182  27.910  26.345  1.00  0.00     0.037 A 
BRANCH  55  69
ATOM     69  C   UNL A   1      45.608  33.561  28.779  1.00  0.00     0.057 A 
ATOM     70  C   UNL A   1      46.380  33.898  29.899  1.00  0.00     0.134 A 
ATOM     71  C   UNL A   1      45.413  34.553  27.809  1.00  0.00     0.134 A 
ATOM     72  F   UNL A   1      46.592  33.002  30.874  1.00  0.00    -0.206 F 
ATOM     73  C   UNL A   1      46.914  35.178  30.060  1.00  0.00     0.040 A 
ATOM     74  C   UNL A   1      45.967  35.827  27.943  1.00  0.00     0.040 A 
ATOM     75  F   UNL A   1      44.686  34.299  26.710  1.00  0.00    -0.206 F 
ATOM     76  C   UNL A   1      46.714  36.145  29.076  1.00  0.00     0.006 A 
ENDBRANCH  55  69
BRANCH  56  77
ATOM     77  C   UNL A   1      41.266  24.634  27.683  1.00  0.00     0.057 A 
ATOM     78  C   UNL A   1      41.693  23.501  28.387  1.00  0.00     0.134 A 
ATOM     79  C   UNL A   1      40.234  24.461  26.753  1.00  0.00     0.134 A 
ATOM     80  F   UNL A   1      42.696  23.595  29.273  1.00  0.00    -0.206 F 
ATOM     81  C   UNL A   1      41.131  22.243  28.160  1.00  0.00     0.040 A 
ATOM     82  C   UNL A   1      39.643  23.214  26.538  1.00  0.00     0.040 A 
ATOM     83  F   UNL A   1      39.779  25.504  26.043  1.00  0.00    -0.206 F 
ATOM     84  C   UNL A   1      40.098  22.099  27.236  1.00  0.00     0.006 A 
ENDBRANCH  56  77
BRANCH  68  85
ATOM     85  C   UNL A   1      47.326  27.342  25.555  1.00  0.00     0.057 A 
ATOM     86  C   UNL A   1      47.439  27.524  24.170  1.00  0.00     0.134 A 
ATOM     87  C   UNL A   1      48.356  26.642  26.199  1.00  0.00     0.134 A 
ATOM     88  F   UNL A   1      46.485  28.176  23.489  1.00  0.00    -0.206 F 
ATOM     89  C   UNL A   1      48.521  27.007  23.452  1.00  0.00     0.040 A 
ATOM     90  C   UNL A   1      49.457  26.149  25.497  1.00  0.00     0.040 A 
ATOM     91  F   UNL A   1      48.318  26.441  27.525  1.00  0.00    -0.206 F 
ATOM     92  C   UNL A   1      49.537  26.324  24.118  1.00  0.00     0.006 A 
ENDBRANCH  68  85
ENDBRANCH  42  43
ENDBRANCH  35  37
ENDBRANCH  34  35
ENDBRANCH  33  34
ENDBRANCH  32  33
ENDBRANCH  31  32
ENDBRANCH  30  31
ENDBRANCH   1  30
TORSDOF 22
ENDMDL
MODEL 3
REMARK VINA RESULT:     -10.4      1.895      3.633
REMARK SMILES C[C@@H]1CN(C(=O)Nc2ccc(O)c(C(=O)OCCOCCOCCOCCOC(=O)c3ccc(-c4c5nc(c(-c6c(F)cccc6F)c6ccc([nH]6)c(-c6c(F)cccc6F)c6nc(c(-c7c(F)cccc7F)c7ccc4[nH]7)C=C6)C=C5)cc3)c2)C[C@H]1C
REMARK SMILES IDX 23 1 22 2 21 3 20 4 19 5 18 6 17 7 16 8 14 9 15 10 13 11
REMARK SMILES IDX 8 12 9 13 85 14 10 15 11 16 7 17 1 18 2 19 3 20 87 21 4 22
REMARK SMILES IDX 86 23 88 24 5 25 6 26 12 28 24 30 25 31 26 32 27 33 28 34
REMARK SMILES IDX 29 35 30 36 31 37 32 38 84 39 33 40 83 41 34 42 35 43 36 44
REMARK SMILES IDX 77 45 37 46 82 47 76 48 78 49 38 50 81 51 75 52 74 53 39 55
REMARK SMILES IDX 65 56 48 57 64 58 49 59 52 60 63 61 79 62 50 63 51 64 62 66
REMARK SMILES IDX 80 67 53 68 40 69 41 70 46 71 42 72 43 73 45 74 47 75 44 76
REMARK SMILES IDX 66 77 67 78 72 79 68 80 69 81 71 82 73 83 70 84 54 85 55 86
REMARK SMILES IDX 60 87 56 88 57 89 59 90 61 91 58 92
REMARK H PARENT 7 27 12 29 78 54 52 65
REMARK Flexibility Score: inf
ROOT
ATOM      1  C   UNL A   1      32.819  30.998  27.110  1.00  0.00     0.188 C 
ENDROOT
BRANCH   1   2
ATOM      2  O   UNL A   1      32.538  30.168  25.987  1.00  0.00    -0.377 OA
BRANCH   2   3
ATOM      3  C   UNL A   1      32.425  28.761  26.169  1.00  0.00     0.188 C 
BRANCH   3   4
ATOM      4  C   UNL A   1      33.478  27.806  25.560  1.00  0.00     0.188 C 
BRANCH   4   5
ATOM      5  O   UNL A   1      34.029  28.261  24.337  1.00  0.00    -0.376 OA
BRANCH   5   6
ATOM      6  C   UNL A   1      33.360  27.982  23.122  1.00  0.00     0.202 C 
BRANCH   6   7
ATOM      7  C   UNL A   1      33.643  26.662  22.391  1.00  0.00     0.261 C 
BRANCH   7   8
ATOM      8  O   UNL A   1      32.772  25.586  22.733  1.00  0.00    -0.460 OA
BRANCH   8   9
ATOM      9  C   UNL A   1      33.227  24.326  22.559  1.00  0.00     0.342 C 
ATOM     10  O   UNL A   1      33.356  23.736  21.502  1.00  0.00    -0.246 OA
BRANCH   9  11
ATOM     11  C   UNL A   1      33.817  23.884  23.844  1.00  0.00     0.103 A 
ATOM     12  C   UNL A   1      35.701  22.900  24.979  1.00  0.00     0.044 A 
ATOM     13  C   UNL A   1      35.140  23.231  26.215  1.00  0.00     0.030 A 
ATOM     14  C   UNL A   1      35.089  23.295  23.793  1.00  0.00     0.045 A 
ATOM     15  C   UNL A   1      33.878  23.825  26.269  1.00  0.00     0.049 A 
ATOM     16  C   UNL A   1      33.201  24.111  25.084  1.00  0.00     0.130 A 
BRANCH  12  17
ATOM     17  N   UNL A   1      36.818  22.068  24.911  1.00  0.00    -0.308 N 
ATOM     18  C   UNL A   1      32.268  19.293  24.023  1.00  0.00     0.010 C 
ATOM     19  C   UNL A   1      33.531  19.059  24.840  1.00  0.00     0.010 C 
ATOM     20  C   UNL A   1      34.357  20.332  24.939  1.00  0.00     0.125 C 
ATOM     21  C   UNL A   1      34.521  18.064  24.232  1.00  0.00     0.010 C 
ATOM     22  N   UNL A   1      35.752  19.930  25.002  1.00  0.00    -0.324 N 
ATOM     23  C   UNL A   1      35.852  18.484  24.869  1.00  0.00     0.125 C 
ATOM     24  C   UNL A   1      34.146  16.623  24.525  1.00  0.00     0.010 C 
ATOM     25  C   UNL A   1      36.887  20.704  25.000  1.00  0.00     0.321 C 
ATOM     26  O   UNL A   1      38.012  20.199  24.971  1.00  0.00    -0.248 OA
ATOM     27  H   UNL A   1      37.679  22.527  24.779  1.00  0.00     0.171 HD
ENDBRANCH  12  17
BRANCH  16  28
ATOM     28  O   UNL A   1      31.925  24.594  25.144  1.00  0.00    -0.507 OA
ATOM     29  H   UNL A   1      31.200  24.000  25.147  1.00  0.00     0.293 HD
ENDBRANCH  16  28
ENDBRANCH   9  11
ENDBRANCH   8   9
ENDBRANCH   7   8
ENDBRANCH   6   7
ENDBRANCH   5   6
ENDBRANCH   4   5
ENDBRANCH   3   4
ENDBRANCH   2   3
ENDBRANCH   1   2
BRANCH   1  30
ATOM     30  C   UNL A   1      34.271  31.173  27.619  1.00  0.00     0.188 C 
BRANCH  30  31
ATOM     31  O   UNL A   1      34.698  32.519  27.736  1.00  0.00    -0.376 OA
BRANCH  31  32
ATOM     32  C   UNL A   1      33.910  33.396  28.522  1.00  0.00     0.202 C 
BRANCH  32  33
ATOM     33  C   UNL A   1      34.377  33.684  29.956  1.00  0.00     0.261 C 
BRANCH  33  34
ATOM     34  O   UNL A   1      34.859  32.560  30.708  1.00  0.00    -0.460 OA
BRANCH  34  35
ATOM     35  C   UNL A   1      35.926  32.761  31.509  1.00  0.00     0.338 C 
ATOM     36  O   UNL A   1      35.965  33.406  32.544  1.00  0.00    -0.246 OA
BRANCH  35  37
ATOM     37  C   UNL A   1      37.020  31.903  31.011  1.00  0.00     0.060 A 
ATOM     38  C   UNL A   1      37.872  31.273  31.927  1.00  0.00     0.016 A 
ATOM     39  C   UNL A   1      37.192  31.716  29.638  1.00  0.00     0.016 A 
ATOM     40  C   UNL A   1      38.921  30.475  31.471  1.00  0.00     0.010 A 
ATOM     41  C   UNL A   1      38.258  30.937  29.181  1.00  0.00     0.010 A 
ATOM     42  C   UNL A   1      39.147  30.342  30.095  1.00  0.00    -0.014 A 
BRANCH  42  43
ATOM     43  C   UNL A   1      40.423  29.769  29.608  1.00  0.00     0.031 A 
ATOM     44  C   UNL A   1      41.611  30.683  29.495  1.00  0.00     0.074 A 
ATOM     45  C   UNL A   1      40.535  28.469  29.282  1.00  0.00     0.049 A 
ATOM     46  N   UNL A   1      42.808  30.442  29.026  1.00  0.00    -0.248 NA
ATOM     47  C   UNL A   1      41.418  32.062  29.974  1.00  0.00     0.031 C 
ATOM     48  C   UNL A   1      39.473  27.472  29.394  1.00  0.00     0.029 A 
ATOM     49  N   UNL A   1      41.604  27.771  28.777  1.00  0.00    -0.354 N 
ATOM     50  C   UNL A   1      43.505  31.639  29.143  1.00  0.00     0.074 A 
ATOM     51  C   UNL A   1      42.589  32.612  29.697  1.00  0.00     0.031 C 
ATOM     52  C   UNL A   1      39.939  26.290  28.953  1.00  0.00     0.029 A 
ATOM     53  C   UNL A   1      41.318  26.458  28.495  1.00  0.00     0.049 A 
ATOM     54  H   UNL A   1      42.490  28.173  28.630  1.00  0.00     0.167 HD
ATOM     55  C   UNL A   1      44.795  31.900  28.826  1.00  0.00     0.037 A 
ATOM     56  C   UNL A   1      42.077  25.511  27.908  1.00  0.00     0.037 A 
ATOM     57  C   UNL A   1      45.700  30.930  28.271  1.00  0.00     0.049 A 
ATOM     58  C   UNL A   1      43.483  25.849  27.482  1.00  0.00     0.074 A 
ATOM     59  C   UNL A   1      47.030  31.092  27.926  1.00  0.00     0.029 A 
ATOM     60  N   UNL A   1      45.364  29.618  27.969  1.00  0.00    -0.354 N 
ATOM     61  N   UNL A   1      44.142  26.976  27.614  1.00  0.00    -0.248 NA
ATOM     62  C   UNL A   1      44.252  24.783  26.824  1.00  0.00     0.031 C 
ATOM     63  C   UNL A   1      47.482  29.896  27.360  1.00  0.00     0.029 A 
ATOM     64  C   UNL A   1      46.453  28.969  27.413  1.00  0.00     0.049 A 
ATOM     65  H   UNL A   1      44.482  29.210  28.126  1.00  0.00     0.167 HD
ATOM     66  C   UNL A   1      45.410  26.743  27.091  1.00  0.00     0.074 A 
ATOM     67  C   UNL A   1      45.430  25.365  26.650  1.00  0.00     0.031 C 
ATOM     68  C   UNL A   1      46.462  27.592  26.987  1.00  0.00     0.037 A 
BRANCH  55  69
ATOM     69  C   UNL A   1      45.287  33.302  29.039  1.00  0.00     0.057 A 
ATOM     70  C   UNL A   1      45.902  33.701  30.234  1.00  0.00     0.134 A 
ATOM     71  C   UNL A   1      45.165  34.260  28.025  1.00  0.00     0.134 A 
ATOM     72  F   UNL A   1      46.034  32.839  31.252  1.00  0.00    -0.206 F 
ATOM     73  C   UNL A   1      46.352  35.009  30.420  1.00  0.00     0.040 A 
ATOM     74  C   UNL A   1      45.640  35.563  28.188  1.00  0.00     0.040 A 
ATOM     75  F   UNL A   1      44.589  33.945  26.855  1.00  0.00    -0.206 F 
ATOM     76  C   UNL A   1      46.229  35.942  29.392  1.00  0.00     0.006 A 
ENDBRANCH  55  69
BRANCH  56  77
ATOM     77  C   UNL A   1      41.523  24.153  27.663  1.00  0.00     0.057 A 
ATOM     78  C   UNL A   1      40.564  23.928  26.668  1.00  0.00     0.134 A 
ATOM     79  C   UNL A   1      41.910  23.056  28.443  1.00  0.00     0.134 A 
ATOM     80  F   UNL A   1      40.132  24.943  25.905  1.00  0.00    -0.206 F 
ATOM     81  C   UNL A   1      39.996  22.667  26.470  1.00  0.00     0.040 A 
ATOM     82  C   UNL A   1      41.372  21.784  28.236  1.00  0.00     0.040 A 
ATOM     83  F   UNL A   1      42.823  23.203  29.414  1.00  0.00    -0.206 F 
ATOM     84  C   UNL A   1      40.405  21.590  27.253  1.00  0.00     0.006 A 
ENDBRANCH  56  77
BRANCH  68  85
ATOM     85  C   UNL A   1      47.741  27.045  26.418  1.00  0.00     0.057 A 
ATOM     86  C   UNL A   1      48.725  26.457  27.223  1.00  0.00     0.134 A 
ATOM     87  C   UNL A   1      47.968  27.065  25.034  1.00  0.00     0.134 A 
ATOM     88  F   UNL A   1      48.577  26.413  28.556  1.00  0.00    -0.206 F 
ATOM     89  C   UNL A   1      49.899  25.935  26.676  1.00  0.00     0.040 A 
ATOM     90  C   UNL A   1      49.123  26.517  24.474  1.00  0.00     0.040 A 
ATOM     91  F   UNL A   1      47.062  27.602  24.203  1.00  0.00    -0.206 F 
ATOM     92  C   UNL A   1      50.096  25.957  25.297  1.00  0.00     0.006 A 
ENDBRANCH  68  85
ENDBRANCH  42  43
ENDBRANCH  35  37
ENDBRANCH  34  35
ENDBRANCH  33  34
ENDBRANCH  32  33
ENDBRANCH  31  32
ENDBRANCH  30  31
ENDBRANCH   1  30
TORSDOF 22
ENDMDL
