MODEL 1
REMARK VINA RESULT:     -11.0      0.000      0.000
REMARK SMILES COc1ccc(-c2cc(Cl)cc3c2O[C@@H](C(F)(F)F)C(C(=O)OCCOCCOCCOCCOC(=O)c2ccc(-c4c5nc(c(-c6c(F)cccc6F)c6ccc([nH]6)c(-c6c(F)cccc6F)c6nc(c(-c7c(F)cccc7F)c7ccc4[nH]7)C=C6)C=C5)cc2)=C3)cc1C
REMARK SMILES IDX 29 1 28 2 27 3 26 4 25 5 24 6 23 7 21 8 22 9 20 10 7 11 8 12
REMARK SMILES IDX 13 13 9 14 12 15 14 16 10 17 11 18 92 19 15 20 6 21 3 22
REMARK SMILES IDX 4 23 94 24 5 25 93 26 95 27 2 28 1 29 16 30 17 31 18 32
REMARK SMILES IDX 19 33 30 34 31 35 32 36 33 37 34 38 35 39 36 40 37 41 38 42
REMARK SMILES IDX 39 43 91 44 40 45 90 46 41 47 42 48 43 49 84 50 44 51 89 52
REMARK SMILES IDX 83 53 85 54 45 55 88 56 82 57 81 58 46 60 72 61 55 62 71 63
REMARK SMILES IDX 56 64 59 65 70 66 86 67 57 68 58 69 69 71 87 72 60 73 47 74
REMARK SMILES IDX 48 75 53 76 49 77 50 78 52 79 54 80 51 81 73 82 74 83 79 84
REMARK SMILES IDX 75 85 76 86 78 87 80 88 77 89 61 90 62 91 67 92 63 93 64 94
REMARK SMILES IDX 66 95 68 96 65 97
REMARK H PARENT 85 59 59 70
REMARK Flexibility Score: inf
ROOT
ATOM      1  O   UNL A   1      35.606  21.179  24.683  1.00  0.00    -0.377 OA
ENDROOT
BRANCH   1   2
ATOM      2  C   UNL A   1      35.277  21.447  26.039  1.00  0.00     0.188 C 
BRANCH   2   3
ATOM      3  C   UNL A   1      33.863  21.061  26.435  1.00  0.00     0.188 C 
BRANCH   3   4
ATOM      4  O   UNL A   1      33.127  21.614  27.539  1.00  0.00    -0.376 OA
BRANCH   4   5
ATOM      5  C   UNL A   1      32.455  22.900  27.307  1.00  0.00     0.202 C 
BRANCH   5   6
ATOM      6  C   UNL A   1      30.935  23.250  26.820  1.00  0.00     0.261 C 
BRANCH   6   7
ATOM      7  O   UNL A   1      30.597  24.635  26.527  1.00  0.00    -0.460 OA
BRANCH   7   8
ATOM      8  C   UNL A   1      31.385  25.351  25.675  1.00  0.00     0.338 C 
ATOM      9  O   UNL A   1      32.290  26.120  25.982  1.00  0.00    -0.246 OA
BRANCH   8  10
ATOM     10  C   UNL A   1      31.155  24.840  24.257  1.00  0.00     0.087 C 
ATOM     11  C   UNL A   1      31.199  28.937  24.293  1.00  0.00     0.026 A 
ATOM     12  C   UNL A   1      29.958  29.538  23.999  1.00  0.00     0.033 A 
ATOM     13  C   UNL A   1      31.253  27.521  23.852  1.00  0.00     0.135 A 
ATOM     14  C   UNL A   1      28.891  28.848  23.396  1.00  0.00     0.042 A 
ATOM     15  C   UNL A   1      30.079  26.795  23.498  1.00  0.00     0.019 A 
ATOM     16  O   UNL A   1      32.406  26.717  23.717  1.00  0.00    -0.475 OA
ATOM     17  Cl  UNL A   1      27.454  29.703  22.997  1.00  0.00    -0.084 Cl
ATOM     18  C   UNL A   1      28.929  27.477  23.176  1.00  0.00     0.032 A 
ATOM     19  C   UNL A   1      30.076  25.293  23.573  1.00  0.00     0.027 C 
ATOM     20  C   UNL A   1      32.362  25.224  23.467  1.00  0.00     0.316 C 
BRANCH  11  21
ATOM     21  C   UNL A   1      32.091  29.913  25.228  1.00  0.00    -0.014 A 
ATOM     22  C   UNL A   1      33.611  31.105  27.544  1.00  0.00     0.121 A 
ATOM     23  C   UNL A   1      32.378  31.585  27.060  1.00  0.00     0.047 A 
ATOM     24  C   UNL A   1      34.084  29.962  26.934  1.00  0.00    -0.008 A 
ATOM     25  C   UNL A   1      31.625  31.000  25.966  1.00  0.00     0.013 A 
ATOM     26  C   UNL A   1      33.364  29.494  25.737  1.00  0.00     0.016 A 
ATOM     27  C   UNL A   1      35.202  29.205  27.632  1.00  0.00     0.048 C 
BRANCH  22  28
ATOM     28  O   UNL A   1      34.138  31.792  28.611  1.00  0.00    -0.496 OA
ATOM     29  C   UNL A   1      34.786  33.066  28.498  1.00  0.00     0.278 C 
ENDBRANCH  22  28
ENDBRANCH  11  21
BRANCH  20  30
ATOM     30  C   UNL A   1      33.599  24.236  23.731  1.00  0.00     0.430 C 
ATOM     31  F   UNL A   1      33.100  23.069  24.245  1.00  0.00    -0.167 F 
ATOM     32  F   UNL A   1      34.241  23.869  22.599  1.00  0.00    -0.167 F 
ATOM     33  F   UNL A   1      34.548  24.610  24.609  1.00  0.00    -0.167 F 
ENDBRANCH  20  30
ENDBRANCH   8  10
ENDBRANCH   7   8
ENDBRANCH   6   7
ENDBRANCH   5   6
ENDBRANCH   4   5
ENDBRANCH   3   4
ENDBRANCH   2   3
ENDBRANCH   1   2
BRANCH   1  34
ATOM     34  C   UNL A   1      36.920  21.589  24.330  1.00  0.00     0.188 C 
BRANCH  34  35
ATOM     35  C   UNL A   1      37.968  20.879  25.176  1.00  0.00     0.188 C 
BRANCH  35  36
ATOM     36  O   UNL A   1      38.926  21.831  25.643  1.00  0.00    -0.376 OA
BRANCH  36  37
ATOM     37  C   UNL A   1      40.122  21.306  26.217  1.00  0.00     0.202 C 
BRANCH  37  38
ATOM     38  C   UNL A   1      40.467  21.909  27.576  1.00  0.00     0.261 C 
BRANCH  38  39
ATOM     39  O   UNL A   1      41.782  22.491  27.489  1.00  0.00    -0.460 OA
BRANCH  39  40
ATOM     40  C   UNL A   1      41.919  23.435  26.521  1.00  0.00     0.338 C 
ATOM     41  O   UNL A   1      42.648  23.333  25.545  1.00  0.00    -0.246 OA
BRANCH  40  42
ATOM     42  C   UNL A   1      41.283  24.724  26.942  1.00  0.00     0.060 A 
ATOM     43  C   UNL A   1      41.173  25.777  26.023  1.00  0.00     0.016 A 
ATOM     44  C   UNL A   1      41.092  24.999  28.292  1.00  0.00     0.016 A 
ATOM     45  C   UNL A   1      41.022  27.108  26.472  1.00  0.00     0.010 A 
ATOM     46  C   UNL A   1      41.014  26.321  28.725  1.00  0.00     0.010 A 
ATOM     47  C   UNL A   1      41.023  27.402  27.839  1.00  0.00    -0.014 A 
BRANCH  47  48
ATOM     48  C   UNL A   1      41.274  28.740  28.453  1.00  0.00     0.031 A 
ATOM     49  C   UNL A   1      40.125  29.699  28.718  1.00  0.00     0.074 A 
ATOM     50  C   UNL A   1      42.462  28.906  29.100  1.00  0.00     0.049 A 
ATOM     51  N   UNL A   1      40.119  30.631  29.610  1.00  0.00    -0.248 NA
ATOM     52  C   UNL A   1      38.860  29.703  27.999  1.00  0.00     0.031 C 
ATOM     53  C   UNL A   1      42.811  29.874  30.151  1.00  0.00     0.029 A 
ATOM     54  N   UNL A   1      43.635  28.176  29.010  1.00  0.00    -0.354 N 
ATOM     55  C   UNL A   1      38.867  31.222  29.766  1.00  0.00     0.074 A 
ATOM     56  C   UNL A   1      38.150  30.651  28.656  1.00  0.00     0.031 C 
ATOM     57  C   UNL A   1      44.083  29.728  30.556  1.00  0.00     0.029 A 
ATOM     58  C   UNL A   1      44.707  28.896  29.561  1.00  0.00     0.049 A 
ATOM     59  H   UNL A   1      43.708  27.279  28.614  1.00  0.00     0.167 HD
ATOM     60  C   UNL A   1      38.692  32.132  30.805  1.00  0.00     0.037 A 
ATOM     61  C   UNL A   1      45.606  29.451  28.690  1.00  0.00     0.037 A 
ATOM     62  C   UNL A   1      40.035  32.728  31.057  1.00  0.00     0.049 A 
ATOM     63  C   UNL A   1      45.269  30.946  28.483  1.00  0.00     0.074 A 
ATOM     64  C   UNL A   1      40.793  33.077  32.154  1.00  0.00     0.029 A 
ATOM     65  N   UNL A   1      40.861  33.003  29.951  1.00  0.00    -0.354 N 
ATOM     66  N   UNL A   1      44.056  31.462  28.564  1.00  0.00    -0.248 NA
ATOM     67  C   UNL A   1      46.292  31.992  28.488  1.00  0.00     0.031 C 
ATOM     68  C   UNL A   1      42.145  33.263  31.704  1.00  0.00     0.029 A 
ATOM     69  C   UNL A   1      42.176  33.208  30.314  1.00  0.00     0.049 A 
ATOM     70  H   UNL A   1      40.536  33.044  29.023  1.00  0.00     0.167 HD
ATOM     71  C   UNL A   1      44.136  32.806  28.832  1.00  0.00     0.074 A 
ATOM     72  C   UNL A   1      45.556  33.101  28.695  1.00  0.00     0.031 C 
ATOM     73  C   UNL A   1      43.149  33.637  29.308  1.00  0.00     0.037 A 
BRANCH  60  74
ATOM     74  C   UNL A   1      37.442  32.705  31.632  1.00  0.00     0.057 A 
ATOM     75  C   UNL A   1      36.265  31.940  31.702  1.00  0.00     0.134 A 
ATOM     76  C   UNL A   1      37.168  34.005  32.157  1.00  0.00     0.134 A 
ATOM     77  F   UNL A   1      36.223  30.714  31.166  1.00  0.00    -0.206 F 
ATOM     78  C   UNL A   1      35.040  32.386  32.289  1.00  0.00     0.040 A 
ATOM     79  C   UNL A   1      36.012  34.428  32.856  1.00  0.00     0.040 A 
ATOM     80  F   UNL A   1      37.918  35.076  31.971  1.00  0.00    -0.206 F 
ATOM     81  C   UNL A   1      34.920  33.616  32.915  1.00  0.00     0.006 A 
ENDBRANCH  60  74
BRANCH  61  82
ATOM     82  C   UNL A   1      46.111  28.354  27.796  1.00  0.00     0.057 A 
ATOM     83  C   UNL A   1      45.613  28.412  26.469  1.00  0.00     0.134 A 
ATOM     84  C   UNL A   1      47.392  27.808  27.943  1.00  0.00     0.134 A 
ATOM     85  F   UNL A   1      44.383  28.902  26.240  1.00  0.00    -0.206 F 
ATOM     86  C   UNL A   1      46.426  28.186  25.350  1.00  0.00     0.040 A 
ATOM     87  C   UNL A   1      48.202  27.540  26.820  1.00  0.00     0.040 A 
ATOM     88  F   UNL A   1      47.960  27.718  29.154  1.00  0.00    -0.206 F 
ATOM     89  C   UNL A   1      47.747  27.799  25.526  1.00  0.00     0.006 A 
ENDBRANCH  61  82
BRANCH  73  90
ATOM     90  C   UNL A   1      42.974  35.035  28.741  1.00  0.00     0.057 A 
ATOM     91  C   UNL A   1      43.052  36.191  29.530  1.00  0.00     0.134 A 
ATOM     92  C   UNL A   1      42.964  35.268  27.342  1.00  0.00     0.134 A 
ATOM     93  F   UNL A   1      43.170  36.132  30.864  1.00  0.00    -0.206 F 
ATOM     94  C   UNL A   1      43.075  37.475  28.979  1.00  0.00     0.040 A 
ATOM     95  C   UNL A   1      43.052  36.542  26.783  1.00  0.00     0.040 A 
ATOM     96  F   UNL A   1      42.916  34.274  26.445  1.00  0.00    -0.206 F 
ATOM     97  C   UNL A   1      43.092  37.654  27.603  1.00  0.00     0.006 A 
ENDBRANCH  73  90
ENDBRANCH  47  48
ENDBRANCH  40  42
ENDBRANCH  39  40
ENDBRANCH  38  39
ENDBRANCH  37  38
ENDBRANCH  36  37
ENDBRANCH  35  36
ENDBRANCH  34  35
ENDBRANCH   1  34
TORSDOF 23
ENDMDL
MODEL 2
REMARK VINA RESULT:     -10.8      1.769      2.966
REMARK SMILES COc1ccc(-c2cc(Cl)cc3c2O[C@@H](C(F)(F)F)C(C(=O)OCCOCCOCCOCCOC(=O)c2ccc(-c4c5nc(c(-c6c(F)cccc6F)c6ccc([nH]6)c(-c6c(F)cccc6F)c6nc(c(-c7c(F)cccc7F)c7ccc4[nH]7)C=C6)C=C5)cc2)=C3)cc1C
REMARK SMILES IDX 29 1 28 2 27 3 26 4 25 5 24 6 23 7 21 8 22 9 20 10 7 11 8 12
REMARK SMILES IDX 13 13 9 14 12 15 14 16 10 17 11 18 92 19 15 20 6 21 3 22
REMARK SMILES IDX 4 23 94 24 5 25 93 26 95 27 2 28 1 29 16 30 17 31 18 32
REMARK SMILES IDX 19 33 30 34 31 35 32 36 33 37 34 38 35 39 36 40 37 41 38 42
REMARK SMILES IDX 39 43 91 44 40 45 90 46 41 47 42 48 43 49 84 50 44 51 89 52
REMARK SMILES IDX 83 53 85 54 45 55 88 56 82 57 81 58 46 60 72 61 55 62 71 63
REMARK SMILES IDX 56 64 59 65 70 66 86 67 57 68 58 69 69 71 87 72 60 73 47 74
REMARK SMILES IDX 48 75 53 76 49 77 50 78 52 79 54 80 51 81 73 82 74 83 79 84
REMARK SMILES IDX 75 85 76 86 78 87 80 88 77 89 61 90 62 91 67 92 63 93 64 94
REMARK SMILES IDX 66 95 68 96 65 97
REMARK H PARENT 85 59 59 70
REMARK Flexibility Score: inf
ROOT
ATOM      1  O   UNL A   1      35.586  21.117  26.148  1.00  0.00    -0.377 OA
ENDROOT
BRANCH   1   2
ATOM      2  C   UNL A   1      34.632  22.133  26.426  1.00  0.00     0.188 C 
BRANCH   2   3
ATOM      3  C   UNL A   1      33.775  21.876  27.653  1.00  0.00     0.188 C 
BRANCH   3   4
ATOM      4  O   UNL A   1      32.561  22.573  27.981  1.00  0.00    -0.376 OA
BRANCH   4   5
ATOM      5  C   UNL A   1      31.547  22.668  26.920  1.00  0.00     0.202 C 
BRANCH   5   6
ATOM      6  C   UNL A   1      30.249  23.646  26.754  1.00  0.00     0.261 C 
BRANCH   6   7
ATOM      7  O   UNL A   1      30.348  24.792  25.861  1.00  0.00    -0.460 OA
BRANCH   7   8
ATOM      8  C   UNL A   1      31.560  25.127  25.334  1.00  0.00     0.338 C 
ATOM      9  O   UNL A   1      32.617  25.252  25.944  1.00  0.00    -0.246 OA
BRANCH   8  10
ATOM     10  C   UNL A   1      31.464  25.057  23.814  1.00  0.00     0.087 C 
ATOM     11  C   UNL A   1      32.276  28.893  25.003  1.00  0.00     0.026 A 
ATOM     12  C   UNL A   1      31.234  29.813  24.766  1.00  0.00     0.033 A 
ATOM     13  C   UNL A   1      32.132  27.661  24.190  1.00  0.00     0.135 A 
ATOM     14  C   UNL A   1      30.166  29.556  23.888  1.00  0.00     0.042 A 
ATOM     15  C   UNL A   1      30.912  27.331  23.530  1.00  0.00     0.019 A 
ATOM     16  O   UNL A   1      33.118  26.678  23.952  1.00  0.00    -0.475 OA
ATOM     17  Cl  UNL A   1      28.998  30.785  23.602  1.00  0.00    -0.084 Cl
ATOM     18  C   UNL A   1      29.978  28.313  23.297  1.00  0.00     0.032 A 
ATOM     19  C   UNL A   1      30.613  25.899  23.179  1.00  0.00     0.027 C 
ATOM     20  C   UNL A   1      32.832  25.347  23.290  1.00  0.00     0.316 C 
BRANCH  11  21
ATOM     21  C   UNL A   1      33.178  29.375  26.261  1.00  0.00    -0.014 A 
ATOM     22  C   UNL A   1      35.039  30.917  28.063  1.00  0.00     0.121 A 
ATOM     23  C   UNL A   1      35.353  29.691  27.445  1.00  0.00     0.047 A 
ATOM     24  C   UNL A   1      33.810  31.451  27.735  1.00  0.00    -0.008 A 
ATOM     25  C   UNL A   1      34.475  28.957  26.551  1.00  0.00     0.013 A 
ATOM     26  C   UNL A   1      32.899  30.601  26.947  1.00  0.00     0.016 A 
ATOM     27  C   UNL A   1      33.564  32.912  28.077  1.00  0.00     0.048 C 
BRANCH  22  28
ATOM     28  O   UNL A   1      36.029  31.456  28.848  1.00  0.00    -0.496 OA
ATOM     29  C   UNL A   1      36.811  32.598  28.473  1.00  0.00     0.278 C 
ENDBRANCH  22  28
ENDBRANCH  11  21
BRANCH  20  30
ATOM     30  C   UNL A   1      33.802  24.072  23.390  1.00  0.00     0.430 C 
ATOM     31  F   UNL A   1      34.111  23.681  22.115  1.00  0.00    -0.167 F 
ATOM     32  F   UNL A   1      34.993  24.349  23.965  1.00  0.00    -0.167 F 
ATOM     33  F   UNL A   1      33.340  22.953  23.980  1.00  0.00    -0.167 F 
ENDBRANCH  20  30
ENDBRANCH   8  10
ENDBRANCH   7   8
ENDBRANCH   6   7
ENDBRANCH   5   6
ENDBRANCH   4   5
ENDBRANCH   3   4
ENDBRANCH   2   3
ENDBRANCH   1   2
BRANCH   1  34
ATOM     34  C   UNL A   1      36.548  21.498  25.173  1.00  0.00     0.188 C 
BRANCH  34  35
ATOM     35  C   UNL A   1      37.687  22.291  25.799  1.00  0.00     0.188 C 
BRANCH  35  36
ATOM     36  O   UNL A   1      38.884  21.514  25.762  1.00  0.00    -0.376 OA
BRANCH  36  37
ATOM     37  C   UNL A   1      39.997  22.018  26.500  1.00  0.00     0.202 C 
BRANCH  37  38
ATOM     38  C   UNL A   1      41.334  21.409  26.085  1.00  0.00     0.261 C 
BRANCH  38  39
ATOM     39  O   UNL A   1      42.031  22.371  25.269  1.00  0.00    -0.460 OA
BRANCH  39  40
ATOM     40  C   UNL A   1      43.373  22.174  25.185  1.00  0.00     0.338 C 
ATOM     41  O   UNL A   1      43.906  21.117  24.879  1.00  0.00    -0.246 OA
BRANCH  40  42
ATOM     42  C   UNL A   1      44.117  23.329  25.783  1.00  0.00     0.060 A 
ATOM     43  C   UNL A   1      44.287  23.401  27.172  1.00  0.00     0.016 A 
ATOM     44  C   UNL A   1      44.360  24.469  25.024  1.00  0.00     0.016 A 
ATOM     45  C   UNL A   1      44.550  24.640  27.799  1.00  0.00     0.010 A 
ATOM     46  C   UNL A   1      44.552  25.695  25.658  1.00  0.00     0.010 A 
ATOM     47  C   UNL A   1      44.604  25.818  27.049  1.00  0.00    -0.014 A 
BRANCH  47  48
ATOM     48  C   UNL A   1      44.473  27.208  27.580  1.00  0.00     0.031 A 
ATOM     49  C   UNL A   1      43.104  27.804  27.865  1.00  0.00     0.074 A 
ATOM     50  C   UNL A   1      45.585  27.757  28.145  1.00  0.00     0.049 A 
ATOM     51  N   UNL A   1      42.861  28.749  28.709  1.00  0.00    -0.248 NA
ATOM     52  C   UNL A   1      41.865  27.390  27.225  1.00  0.00     0.031 C 
ATOM     53  C   UNL A   1      45.677  28.851  29.124  1.00  0.00     0.029 A 
ATOM     54  N   UNL A   1      46.917  27.399  28.022  1.00  0.00    -0.354 N 
ATOM     55  C   UNL A   1      41.498  28.955  28.911  1.00  0.00     0.074 A 
ATOM     56  C   UNL A   1      40.935  28.129  27.875  1.00  0.00     0.031 C 
ATOM     57  C   UNL A   1      46.951  29.111  29.459  1.00  0.00     0.029 A 
ATOM     58  C   UNL A   1      47.750  28.435  28.472  1.00  0.00     0.049 A 
ATOM     59  H   UNL A   1      47.235  26.539  27.667  1.00  0.00     0.167 HD
ATOM     60  C   UNL A   1      41.106  29.839  29.912  1.00  0.00     0.037 A 
ATOM     61  C   UNL A   1      48.407  29.172  27.522  1.00  0.00     0.037 A 
ATOM     62  C   UNL A   1      42.221  30.818  30.053  1.00  0.00     0.049 A 
ATOM     63  C   UNL A   1      47.633  30.486  27.261  1.00  0.00     0.074 A 
ATOM     64  C   UNL A   1      42.887  31.444  31.084  1.00  0.00     0.029 A 
ATOM     65  N   UNL A   1      42.881  31.250  28.888  1.00  0.00    -0.354 N 
ATOM     66  N   UNL A   1      46.327  30.627  27.390  1.00  0.00    -0.248 NA
ATOM     67  C   UNL A   1      48.299  31.784  27.154  1.00  0.00     0.031 C 
ATOM     68  C   UNL A   1      44.103  31.989  30.546  1.00  0.00     0.029 A 
ATOM     69  C   UNL A   1      44.090  31.856  29.160  1.00  0.00     0.049 A 
ATOM     70  H   UNL A   1      42.519  31.134  27.980  1.00  0.00     0.167 HD
ATOM     71  C   UNL A   1      46.015  31.951  27.585  1.00  0.00     0.074 A 
ATOM     72  C   UNL A   1      47.277  32.639  27.349  1.00  0.00     0.031 C 
ATOM     73  C   UNL A   1      44.848  32.485  28.078  1.00  0.00     0.037 A 
BRANCH  60  74
ATOM     74  C   UNL A   1      39.778  30.073  30.783  1.00  0.00     0.057 A 
ATOM     75  C   UNL A   1      39.007  28.960  31.160  1.00  0.00     0.134 A 
ATOM     76  C   UNL A   1      39.040  31.258  31.088  1.00  0.00     0.134 A 
ATOM     77  F   UNL A   1      39.425  27.721  30.874  1.00  0.00    -0.206 F 
ATOM     78  C   UNL A   1      37.740  29.034  31.818  1.00  0.00     0.040 A 
ATOM     79  C   UNL A   1      37.852  31.363  31.849  1.00  0.00     0.040 A 
ATOM     80  F   UNL A   1      39.293  32.459  30.602  1.00  0.00    -0.206 F 
ATOM     81  C   UNL A   1      37.177  30.237  32.211  1.00  0.00     0.006 A 
ENDBRANCH  60  74
BRANCH  61  82
ATOM     82  C   UNL A   1      49.175  28.216  26.654  1.00  0.00     0.057 A 
ATOM     83  C   UNL A   1      50.247  27.565  27.317  1.00  0.00     0.134 A 
ATOM     84  C   UNL A   1      48.562  27.489  25.627  1.00  0.00     0.134 A 
ATOM     85  F   UNL A   1      50.906  28.200  28.301  1.00  0.00    -0.206 F 
ATOM     86  C   UNL A   1      50.518  26.200  27.149  1.00  0.00     0.040 A 
ATOM     87  C   UNL A   1      48.857  26.125  25.425  1.00  0.00     0.040 A 
ATOM     88  F   UNL A   1      47.531  28.009  24.945  1.00  0.00    -0.206 F 
ATOM     89  C   UNL A   1      49.780  25.461  26.234  1.00  0.00     0.006 A 
ENDBRANCH  61  82
BRANCH  73  90
ATOM     90  C   UNL A   1      44.243  33.730  27.453  1.00  0.00     0.057 A 
ATOM     91  C   UNL A   1      43.788  33.771  26.127  1.00  0.00     0.134 A 
ATOM     92  C   UNL A   1      43.878  34.849  28.243  1.00  0.00     0.134 A 
ATOM     93  F   UNL A   1      43.967  32.745  25.284  1.00  0.00    -0.206 F 
ATOM     94  C   UNL A   1      43.068  34.854  25.616  1.00  0.00     0.040 A 
ATOM     95  C   UNL A   1      43.104  35.902  27.759  1.00  0.00     0.040 A 
ATOM     96  F   UNL A   1      44.211  34.959  29.537  1.00  0.00    -0.206 F 
ATOM     97  C   UNL A   1      42.708  35.915  26.434  1.00  0.00     0.006 A 
ENDBRANCH  73  90
ENDBRANCH  47  48
ENDBRANCH  40  42
ENDBRANCH  39  40
ENDBRANCH  38  39
ENDBRANCH  37  38
ENDBRANCH  36  37
ENDBRANCH  35  36
ENDBRANCH  34  35
ENDBRANCH   1  34
TORSDOF 23
ENDMDL
MODEL 3
REMARK VINA RESULT:     -10.5      1.271      2.159
REMARK SMILES COc1ccc(-c2cc(Cl)cc3c2O[C@@H](C(F)(F)F)C(C(=O)OCCOCCOCCOCCOC(=O)c2ccc(-c4c5nc(c(-c6c(F)cccc6F)c6ccc([nH]6)c(-c6c(F)cccc6F)c6nc(c(-c7c(F)cccc7F)c7ccc4[nH]7)C=C6)C=C5)cc2)=C3)cc1C
REMARK SMILES IDX 29 1 28 2 27 3 26 4 25 5 24 6 23 7 21 8 22 9 20 10 7 11 8 12
REMARK SMILES IDX 13 13 9 14 12 15 14 16 10 17 11 18 92 19 15 20 6 21 3 22
REMARK SMILES IDX 4 23 94 24 5 25 93 26 95 27 2 28 1 29 16 30 17 31 18 32
REMARK SMILES IDX 19 33 30 34 31 35 32 36 33 37 34 38 35 39 36 40 37 41 38 42
REMARK SMILES IDX 39 43 91 44 40 45 90 46 41 47 42 48 43 49 84 50 44 51 89 52
REMARK SMILES IDX 83 53 85 54 45 55 88 56 82 57 81 58 46 60 72 61 55 62 71 63
REMARK SMILES IDX 56 64 59 65 70 66 86 67 57 68 58 69 69 71 87 72 60 73 47 74
REMARK SMILES IDX 48 75 53 76 49 77 50 78 52 79 54 80 51 81 73 82 74 83 79 84
REMARK SMILES IDX 75 85 76 86 78 87 80 88 77 89 61 90 62 91 67 92 63 93 64 94
REMARK SMILES IDX 66 95 68 96 65 97
REMARK H PARENT 85 59 59 70
REMARK Flexibility Score: inf
ROOT
ATOM      1  O   UNL A   1      35.124  21.711  25.255  1.00  0.00    -0.377 OA
ENDROOT
BRANCH   1   2
ATOM      2  C   UNL A   1      34.968  21.956  26.647  1.00  0.00     0.188 C 
BRANCH   2   3
ATOM      3  C   UNL A   1      33.643  21.491  27.225  1.00  0.00     0.188 C 
BRANCH   3   4
ATOM      4  O   UNL A   1      32.720  22.316  27.956  1.00  0.00    -0.376 OA
BRANCH   4   5
ATOM      5  C   UNL A   1      32.131  23.451  27.231  1.00  0.00     0.202 C 
BRANCH   5   6
ATOM      6  C   UNL A   1      30.682  23.628  26.498  1.00  0.00     0.261 C 
BRANCH   6   7
ATOM      7  O   UNL A   1      30.316  24.938  25.980  1.00  0.00    -0.460 OA
BRANCH   7   8
ATOM      8  C   UNL A   1      31.288  25.755  25.481  1.00  0.00     0.338 C 
ATOM      9  O   UNL A   1      32.172  26.319  26.117  1.00  0.00    -0.246 OA
BRANCH   8  10
ATOM     10  C   UNL A   1      31.278  25.647  23.960  1.00  0.00     0.087 C 
ATOM     11  C   UNL A   1      31.925  29.530  25.096  1.00  0.00     0.026 A 
ATOM     12  C   UNL A   1      30.875  30.416  24.780  1.00  0.00     0.033 A 
ATOM     13  C   UNL A   1      31.857  28.275  24.308  1.00  0.00     0.135 A 
ATOM     14  C   UNL A   1      29.864  30.110  23.852  1.00  0.00     0.042 A 
ATOM     15  C   UNL A   1      30.685  27.898  23.590  1.00  0.00     0.019 A 
ATOM     16  O   UNL A   1      32.880  27.315  24.149  1.00  0.00    -0.475 OA
ATOM     17  Cl  UNL A   1      28.683  31.300  23.472  1.00  0.00    -0.084 Cl
ATOM     18  C   UNL A   1      29.741  28.849  23.282  1.00  0.00     0.032 A 
ATOM     19  C   UNL A   1      30.442  26.451  23.259  1.00  0.00     0.027 C 
ATOM     20  C   UNL A   1      32.665  25.961  23.505  1.00  0.00     0.316 C 
BRANCH  11  21
ATOM     21  C   UNL A   1      32.743  30.065  26.389  1.00  0.00    -0.014 A 
ATOM     22  C   UNL A   1      34.523  31.656  28.231  1.00  0.00     0.121 A 
ATOM     23  C   UNL A   1      34.827  30.375  27.729  1.00  0.00     0.047 A 
ATOM     24  C   UNL A   1      33.353  32.216  27.762  1.00  0.00    -0.008 A 
ATOM     25  C   UNL A   1      33.990  29.615  26.818  1.00  0.00     0.013 A 
ATOM     26  C   UNL A   1      32.469  31.349  26.962  1.00  0.00     0.016 A 
ATOM     27  C   UNL A   1      33.151  33.707  27.979  1.00  0.00     0.048 C 
BRANCH  22  28
ATOM     28  O   UNL A   1      35.471  32.209  29.058  1.00  0.00    -0.496 OA
ATOM     29  C   UNL A   1      36.673  32.834  28.587  1.00  0.00     0.278 C 
ENDBRANCH  22  28
ENDBRANCH  11  21
BRANCH  20  30
ATOM     30  C   UNL A   1      33.660  24.715  23.689  1.00  0.00     0.430 C 
ATOM     31  F   UNL A   1      34.167  24.399  22.458  1.00  0.00    -0.167 F 
ATOM     32  F   UNL A   1      34.742  25.002  24.446  1.00  0.00    -0.167 F 
ATOM     33  F   UNL A   1      33.162  23.554  24.153  1.00  0.00    -0.167 F 
ENDBRANCH  20  30
ENDBRANCH   8  10
ENDBRANCH   7   8
ENDBRANCH   6   7
ENDBRANCH   5   6
ENDBRANCH   4   5
ENDBRANCH   3   4
ENDBRANCH   2   3
ENDBRANCH   1   2
BRANCH   1  34
ATOM     34  C   UNL A   1      36.403  22.083  24.757  1.00  0.00     0.188 C 
BRANCH  34  35
ATOM     35  C   UNL A   1      37.454  21.034  25.090  1.00  0.00     0.188 C 
BRANCH  35  36
ATOM     36  O   UNL A   1      38.656  21.681  25.510  1.00  0.00    -0.376 OA
BRANCH  36  37
ATOM     37  C   UNL A   1      39.707  20.838  25.979  1.00  0.00     0.202 C 
BRANCH  37  38
ATOM     38  C   UNL A   1      40.433  21.386  27.204  1.00  0.00     0.261 C 
BRANCH  38  39
ATOM     39  O   UNL A   1      41.806  21.632  26.840  1.00  0.00    -0.460 OA
BRANCH  39  40
ATOM     40  C   UNL A   1      41.986  22.673  25.986  1.00  0.00     0.338 C 
ATOM     41  O   UNL A   1      42.659  22.630  24.966  1.00  0.00    -0.246 OA
BRANCH  40  42
ATOM     42  C   UNL A   1      41.490  23.950  26.593  1.00  0.00     0.060 A 
ATOM     43  C   UNL A   1      41.095  25.006  25.761  1.00  0.00     0.016 A 
ATOM     44  C   UNL A   1      41.712  24.214  27.940  1.00  0.00     0.016 A 
ATOM     45  C   UNL A   1      41.070  26.332  26.248  1.00  0.00     0.010 A 
ATOM     46  C   UNL A   1      41.751  25.532  28.391  1.00  0.00     0.010 A 
ATOM     47  C   UNL A   1      41.479  26.617  27.553  1.00  0.00    -0.014 A 
BRANCH  47  48
ATOM     48  C   UNL A   1      41.886  27.956  28.078  1.00  0.00     0.031 A 
ATOM     49  C   UNL A   1      40.840  28.968  28.516  1.00  0.00     0.074 A 
ATOM     50  C   UNL A   1      43.176  28.084  28.498  1.00  0.00     0.049 A 
ATOM     51  N   UNL A   1      41.029  29.916  29.370  1.00  0.00    -0.248 NA
ATOM     52  C   UNL A   1      39.468  29.011  28.034  1.00  0.00     0.031 C 
ATOM     53  C   UNL A   1      43.744  29.056  29.444  1.00  0.00     0.029 A 
ATOM     54  N   UNL A   1      44.285  27.304  28.221  1.00  0.00    -0.354 N 
ATOM     55  C   UNL A   1      39.849  30.562  29.731  1.00  0.00     0.074 A 
ATOM     56  C   UNL A   1      38.924  30.001  28.781  1.00  0.00     0.031 C 
ATOM     57  C   UNL A   1      45.061  28.865  29.621  1.00  0.00     0.029 A 
ATOM     58  C   UNL A   1      45.465  27.988  28.554  1.00  0.00     0.049 A 
ATOM     59  H   UNL A   1      44.252  26.396  27.842  1.00  0.00     0.167 HD
ATOM     60  C   UNL A   1      39.897  31.499  30.759  1.00  0.00     0.037 A 
ATOM     61  C   UNL A   1      46.215  28.488  27.522  1.00  0.00     0.037 A 
ATOM     62  C   UNL A   1      41.285  32.042  30.753  1.00  0.00     0.049 A 
ATOM     63  C   UNL A   1      45.904  29.991  27.338  1.00  0.00     0.074 A 
ATOM     64  C   UNL A   1      42.239  32.380  31.688  1.00  0.00     0.029 A 
ATOM     65  N   UNL A   1      41.910  32.260  29.511  1.00  0.00    -0.354 N 
ATOM     66  N   UNL A   1      44.745  30.559  27.620  1.00  0.00    -0.248 NA
ATOM     67  C   UNL A   1      46.950  30.993  27.134  1.00  0.00     0.031 C 
ATOM     68  C   UNL A   1      43.495  32.500  31.000  1.00  0.00     0.029 A 
ATOM     69  C   UNL A   1      43.276  32.418  29.628  1.00  0.00     0.049 A 
ATOM     70  H   UNL A   1      41.427  32.297  28.655  1.00  0.00     0.167 HD
ATOM     71  C   UNL A   1      44.922  31.904  27.833  1.00  0.00     0.074 A 
ATOM     72  C   UNL A   1      46.305  32.136  27.438  1.00  0.00     0.031 C 
ATOM     73  C   UNL A   1      44.069  32.785  28.454  1.00  0.00     0.037 A 
BRANCH  60  74
ATOM     74  C   UNL A   1      38.838  32.140  31.779  1.00  0.00     0.057 A 
ATOM     75  C   UNL A   1      38.684  33.538  31.810  1.00  0.00     0.134 A 
ATOM     76  C   UNL A   1      38.134  31.584  32.891  1.00  0.00     0.134 A 
ATOM     77  F   UNL A   1      39.344  34.309  30.938  1.00  0.00    -0.206 F 
ATOM     78  C   UNL A   1      37.879  34.245  32.756  1.00  0.00     0.040 A 
ATOM     79  C   UNL A   1      37.231  32.243  33.760  1.00  0.00     0.040 A 
ATOM     80  F   UNL A   1      38.304  30.364  33.367  1.00  0.00    -0.206 F 
ATOM     81  C   UNL A   1      37.107  33.598  33.707  1.00  0.00     0.006 A 
ENDBRANCH  60  74
BRANCH  61  82
ATOM     82  C   UNL A   1      46.510  27.353  26.582  1.00  0.00     0.057 A 
ATOM     83  C   UNL A   1      47.371  26.362  27.121  1.00  0.00     0.134 A 
ATOM     84  C   UNL A   1      45.572  26.902  25.646  1.00  0.00     0.134 A 
ATOM     85  F   UNL A   1      48.315  26.712  28.010  1.00  0.00    -0.206 F 
ATOM     86  C   UNL A   1      47.145  24.991  26.940  1.00  0.00     0.040 A 
ATOM     87  C   UNL A   1      45.365  25.524  25.429  1.00  0.00     0.040 A 
ATOM     88  F   UNL A   1      44.703  27.756  25.085  1.00  0.00    -0.206 F 
ATOM     89  C   UNL A   1      46.100  24.567  26.130  1.00  0.00     0.006 A 
ENDBRANCH  61  82
BRANCH  73  90
ATOM     90  C   UNL A   1      43.849  34.178  27.890  1.00  0.00     0.057 A 
ATOM     91  C   UNL A   1      43.428  34.406  26.572  1.00  0.00     0.134 A 
ATOM     92  C   UNL A   1      43.819  35.318  28.731  1.00  0.00     0.134 A 
ATOM     93  F   UNL A   1      43.306  33.410  25.684  1.00  0.00    -0.206 F 
ATOM     94  C   UNL A   1      43.050  35.671  26.115  1.00  0.00     0.040 A 
ATOM     95  C   UNL A   1      43.382  36.570  28.299  1.00  0.00     0.040 A 
ATOM     96  F   UNL A   1      44.167  35.271  30.024  1.00  0.00    -0.206 F 
ATOM     97  C   UNL A   1      43.010  36.754  26.981  1.00  0.00     0.006 A 
ENDBRANCH  73  90
ENDBRANCH  47  48
ENDBRANCH  40  42
ENDBRANCH  39  40
ENDBRANCH  38  39
ENDBRANCH  37  38
ENDBRANCH  36  37
ENDBRANCH  35  36
ENDBRANCH  34  35
ENDBRANCH   1  34
TORSDOF 23
ENDMDL
