MODEL 1
REMARK VINA RESULT:     -10.5      0.000      0.000
REMARK SMILES Cc1ccc(F)cc1NS(=O)(=O)c1ccc(C(=O)OCCOCCOCCOCCOC(=O)c2ccc(-c3c4nc(c(-c5c(F)cccc5F)c5ccc([nH]5)c(-c5c(F)cccc5F)c5nc(c(-c6c(F)cccc6F)c6ccc3[nH]6)C=C5)C=C4)cc2)cc1
REMARK SMILES IDX 24 1 23 2 22 3 21 4 20 5 19 6 17 7 18 8 16 9 13 10 14 11
REMARK SMILES IDX 89 12 15 13 88 14 10 15 11 16 12 17 9 18 8 20 1 21 2 22 3 23
REMARK SMILES IDX 4 24 7 25 5 26 6 27 25 28 26 29 27 30 28 31 29 32 30 33
REMARK SMILES IDX 31 34 32 35 33 36 34 37 35 38 87 39 36 40 86 41 37 42 38 43
REMARK SMILES IDX 39 44 80 45 40 46 85 47 79 48 81 49 41 50 84 51 78 52 77 53
REMARK SMILES IDX 42 55 68 56 51 57 67 58 52 59 55 60 66 61 82 62 53 63 54 64
REMARK SMILES IDX 65 66 83 67 56 68 43 69 44 70 49 71 45 72 46 73 48 74 50 75
REMARK SMILES IDX 47 76 69 77 70 78 75 79 71 80 72 81 74 82 76 83 73 84 57 85
REMARK SMILES IDX 58 86 63 87 59 88 60 89 62 90 64 91 61 92
REMARK H PARENT 9 19 81 54 55 65
REMARK Flexibility Score: inf
ROOT
ATOM      1  C   UNL A   1      42.127  18.904  25.879  1.00  0.00     0.188 C 
ENDROOT
BRANCH   1   2
ATOM      2  C   UNL A   1      42.017  19.539  27.276  1.00  0.00     0.188 C 
BRANCH   2   3
ATOM      3  O   UNL A   1      40.864  20.352  27.431  1.00  0.00    -0.376 OA
BRANCH   3   4
ATOM      4  C   UNL A   1      40.547  21.293  26.420  1.00  0.00     0.202 C 
BRANCH   4   5
ATOM      5  C   UNL A   1      39.215  22.061  26.481  1.00  0.00     0.261 C 
BRANCH   5   6
ATOM      6  O   UNL A   1      38.528  22.230  25.234  1.00  0.00    -0.460 OA
BRANCH   6   7
ATOM      7  C   UNL A   1      37.540  21.354  24.952  1.00  0.00     0.338 C 
ATOM      8  O   UNL A   1      37.618  20.138  25.020  1.00  0.00    -0.246 OA
BRANCH   7   9
ATOM      9  C   UNL A   1      36.270  22.096  24.711  1.00  0.00     0.060 A 
ATOM     10  C   UNL A   1      33.866  23.393  24.066  1.00  0.00     0.087 A 
ATOM     11  C   UNL A   1      34.938  23.438  23.174  1.00  0.00     0.023 A 
ATOM     12  C   UNL A   1      34.007  22.740  25.300  1.00  0.00     0.023 A 
ATOM     13  C   UNL A   1      36.125  22.762  23.484  1.00  0.00     0.017 A 
ATOM     14  C   UNL A   1      35.211  22.104  25.628  1.00  0.00     0.017 A 
BRANCH  10  15
ATOM     15  S   UNL A   1      32.251  24.041  23.673  1.00  0.00     0.261 S 
ATOM     16  O   UNL A   1      31.336  22.929  23.824  1.00  0.00    -0.201 OA
ATOM     17  O   UNL A   1      32.370  24.747  22.415  1.00  0.00    -0.201 OA
BRANCH  15  18
ATOM     18  N   UNL A   1      31.773  25.138  24.835  1.00  0.00    -0.279 N 
ATOM     19  H   UNL A   1      31.092  24.809  25.465  1.00  0.00     0.180 HD
BRANCH  18  20
ATOM     20  C   UNL A   1      32.203  26.480  25.052  1.00  0.00     0.055 A 
ATOM     21  C   UNL A   1      30.158  27.376  23.765  1.00  0.00     0.046 C 
ATOM     22  C   UNL A   1      31.300  27.520  24.738  1.00  0.00    -0.027 A 
ATOM     23  C   UNL A   1      31.492  28.793  25.306  1.00  0.00     0.008 A 
ATOM     24  C   UNL A   1      32.599  29.048  26.108  1.00  0.00     0.039 A 
ATOM     25  C   UNL A   1      33.398  26.796  25.698  1.00  0.00     0.066 A 
ATOM     26  C   UNL A   1      33.563  28.062  26.254  1.00  0.00     0.125 A 
ATOM     27  F   UNL A   1      34.649  28.314  26.997  1.00  0.00    -0.207 F 
ENDBRANCH  18  20
ENDBRANCH  15  18
ENDBRANCH  10  15
ENDBRANCH   7   9
ENDBRANCH   6   7
ENDBRANCH   5   6
ENDBRANCH   4   5
ENDBRANCH   3   4
ENDBRANCH   2   3
ENDBRANCH   1   2
BRANCH   1  28
ATOM     28  O   UNL A   1      43.100  19.457  25.006  1.00  0.00    -0.377 OA
BRANCH  28  29
ATOM     29  C   UNL A   1      44.390  18.848  24.907  1.00  0.00     0.188 C 
BRANCH  29  30
ATOM     30  C   UNL A   1      45.698  19.654  24.716  1.00  0.00     0.188 C 
BRANCH  30  31
ATOM     31  O   UNL A   1      45.698  20.942  25.308  1.00  0.00    -0.376 OA
BRANCH  31  32
ATOM     32  C   UNL A   1      44.977  21.964  24.642  1.00  0.00     0.202 C 
BRANCH  32  33
ATOM     33  C   UNL A   1      43.871  22.643  25.458  1.00  0.00     0.261 C 
BRANCH  33  34
ATOM     34  O   UNL A   1      43.412  23.910  24.960  1.00  0.00    -0.460 OA
BRANCH  34  35
ATOM     35  C   UNL A   1      44.168  24.995  25.228  1.00  0.00     0.338 C 
ATOM     36  O   UNL A   1      45.164  25.370  24.630  1.00  0.00    -0.246 OA
BRANCH  35  37
ATOM     37  C   UNL A   1      43.477  25.775  26.276  1.00  0.00     0.060 A 
ATOM     38  C   UNL A   1      43.837  27.112  26.485  1.00  0.00     0.016 A 
ATOM     39  C   UNL A   1      42.465  25.187  27.039  1.00  0.00     0.016 A 
ATOM     40  C   UNL A   1      43.208  27.857  27.485  1.00  0.00     0.010 A 
ATOM     41  C   UNL A   1      41.849  25.927  28.051  1.00  0.00     0.010 A 
ATOM     42  C   UNL A   1      42.241  27.254  28.301  1.00  0.00    -0.014 A 
BRANCH  42  43
ATOM     43  C   UNL A   1      41.779  27.939  29.534  1.00  0.00     0.031 A 
ATOM     44  C   UNL A   1      40.560  28.816  29.449  1.00  0.00     0.074 A 
ATOM     45  C   UNL A   1      42.418  27.783  30.708  1.00  0.00     0.049 A 
ATOM     46  N   UNL A   1      40.005  29.563  30.369  1.00  0.00    -0.248 NA
ATOM     47  C   UNL A   1      39.880  28.860  28.145  1.00  0.00     0.031 C 
ATOM     48  C   UNL A   1      43.583  26.931  30.932  1.00  0.00     0.029 A 
ATOM     49  N   UNL A   1      42.173  28.352  31.934  1.00  0.00    -0.354 N 
ATOM     50  C   UNL A   1      38.917  30.169  29.753  1.00  0.00     0.074 A 
ATOM     51  C   UNL A   1      38.911  29.730  28.374  1.00  0.00     0.031 C 
ATOM     52  C   UNL A   1      43.963  27.045  32.217  1.00  0.00     0.029 A 
ATOM     53  C   UNL A   1      43.089  28.002  32.895  1.00  0.00     0.049 A 
ATOM     54  H   UNL A   1      41.414  28.954  32.106  1.00  0.00     0.167 HD
ATOM     55  C   UNL A   1      38.000  31.008  30.289  1.00  0.00     0.037 A 
ATOM     56  C   UNL A   1      43.221  28.427  34.167  1.00  0.00     0.037 A 
ATOM     57  C   UNL A   1      38.012  31.449  31.660  1.00  0.00     0.049 A 
ATOM     58  C   UNL A   1      42.236  29.428  34.719  1.00  0.00     0.074 A 
ATOM     59  C   UNL A   1      37.117  32.285  32.303  1.00  0.00     0.029 A 
ATOM     60  N   UNL A   1      38.975  31.097  32.593  1.00  0.00    -0.354 N 
ATOM     61  N   UNL A   1      41.194  29.974  34.140  1.00  0.00    -0.248 NA
ATOM     62  C   UNL A   1      42.448  29.871  36.106  1.00  0.00     0.031 C 
ATOM     63  C   UNL A   1      37.573  32.489  33.609  1.00  0.00     0.029 A 
ATOM     64  C   UNL A   1      38.715  31.726  33.799  1.00  0.00     0.049 A 
ATOM     65  H   UNL A   1      39.733  30.491  32.423  1.00  0.00     0.167 HD
ATOM     66  C   UNL A   1      40.610  30.796  35.097  1.00  0.00     0.074 A 
ATOM     67  C   UNL A   1      41.407  30.667  36.299  1.00  0.00     0.031 C 
ATOM     68  C   UNL A   1      39.512  31.585  34.992  1.00  0.00     0.037 A 
BRANCH  55  69
ATOM     69  C   UNL A   1      36.927  31.531  29.379  1.00  0.00     0.057 A 
ATOM     70  C   UNL A   1      35.811  30.761  29.025  1.00  0.00     0.134 A 
ATOM     71  C   UNL A   1      37.002  32.832  28.864  1.00  0.00     0.134 A 
ATOM     72  F   UNL A   1      35.684  29.501  29.470  1.00  0.00    -0.206 F 
ATOM     73  C   UNL A   1      34.823  31.255  28.171  1.00  0.00     0.040 A 
ATOM     74  C   UNL A   1      36.006  33.348  28.033  1.00  0.00     0.040 A 
ATOM     75  F   UNL A   1      38.041  33.625  29.163  1.00  0.00    -0.206 F 
ATOM     76  C   UNL A   1      34.916  32.556  27.678  1.00  0.00     0.006 A 
ENDBRANCH  55  69
BRANCH  56  77
ATOM     77  C   UNL A   1      44.335  27.925  35.012  1.00  0.00     0.057 A 
ATOM     78  C   UNL A   1      45.551  28.613  35.096  1.00  0.00     0.134 A 
ATOM     79  C   UNL A   1      44.222  26.728  35.731  1.00  0.00     0.134 A 
ATOM     80  F   UNL A   1      45.732  29.751  34.411  1.00  0.00    -0.206 F 
ATOM     81  C   UNL A   1      46.620  28.122  35.849  1.00  0.00     0.040 A 
ATOM     82  C   UNL A   1      45.274  26.239  36.510  1.00  0.00     0.040 A 
ATOM     83  F   UNL A   1      43.086  26.017  35.692  1.00  0.00    -0.206 F 
ATOM     84  C   UNL A   1      46.480  26.934  36.563  1.00  0.00     0.006 A 
ENDBRANCH  56  77
BRANCH  68  85
ATOM     85  C   UNL A   1      39.077  32.337  36.218  1.00  0.00     0.057 A 
ATOM     86  C   UNL A   1      39.490  33.652  36.471  1.00  0.00     0.134 A 
ATOM     87  C   UNL A   1      38.195  31.751  37.136  1.00  0.00     0.134 A 
ATOM     88  F   UNL A   1      40.342  34.269  35.639  1.00  0.00    -0.206 F 
ATOM     89  C   UNL A   1      39.063  34.346  37.604  1.00  0.00     0.040 A 
ATOM     90  C   UNL A   1      37.737  32.446  38.256  1.00  0.00     0.040 A 
ATOM     91  F   UNL A   1      37.749  30.500  36.951  1.00  0.00    -0.206 F 
ATOM     92  C   UNL A   1      38.177  33.745  38.497  1.00  0.00     0.006 A 
ENDBRANCH  68  85
ENDBRANCH  42  43
ENDBRANCH  35  37
ENDBRANCH  34  35
ENDBRANCH  33  34
ENDBRANCH  32  33
ENDBRANCH  31  32
ENDBRANCH  30  31
ENDBRANCH  29  30
ENDBRANCH  28  29
ENDBRANCH   1  28
TORSDOF 23
ENDMDL
MODEL 2
REMARK VINA RESULT:     -10.1      0.943      2.036
REMARK SMILES Cc1ccc(F)cc1NS(=O)(=O)c1ccc(C(=O)OCCOCCOCCOCCOC(=O)c2ccc(-c3c4nc(c(-c5c(F)cccc5F)c5ccc([nH]5)c(-c5c(F)cccc5F)c5nc(c(-c6c(F)cccc6F)c6ccc3[nH]6)C=C5)C=C4)cc2)cc1
REMARK SMILES IDX 24 1 23 2 22 3 21 4 20 5 19 6 17 7 18 8 16 9 13 10 14 11
REMARK SMILES IDX 89 12 15 13 88 14 10 15 11 16 12 17 9 18 8 20 1 21 2 22 3 23
REMARK SMILES IDX 4 24 7 25 5 26 6 27 25 28 26 29 27 30 28 31 29 32 30 33
REMARK SMILES IDX 31 34 32 35 33 36 34 37 35 38 87 39 36 40 86 41 37 42 38 43
REMARK SMILES IDX 39 44 80 45 40 46 85 47 79 48 81 49 41 50 84 51 78 52 77 53
REMARK SMILES IDX 42 55 68 56 51 57 67 58 52 59 55 60 66 61 82 62 53 63 54 64
REMARK SMILES IDX 65 66 83 67 56 68 43 69 44 70 49 71 45 72 46 73 48 74 50 75
REMARK SMILES IDX 47 76 69 77 70 78 75 79 71 80 72 81 74 82 76 83 73 84 57 85
REMARK SMILES IDX 58 86 63 87 59 88 60 89 62 90 64 91 61 92
REMARK H PARENT 9 19 81 54 55 65
REMARK Flexibility Score: inf
ROOT
ATOM      1  C   UNL A   1      42.317  19.269  25.816  1.00  0.00     0.188 C 
ENDROOT
BRANCH   1   2
ATOM      2  C   UNL A   1      41.909  20.061  27.072  1.00  0.00     0.188 C 
BRANCH   2   3
ATOM      3  O   UNL A   1      40.566  20.516  27.033  1.00  0.00    -0.376 OA
BRANCH   3   4
ATOM      4  C   UNL A   1      40.208  21.518  26.097  1.00  0.00     0.202 C 
BRANCH   4   5
ATOM      5  C   UNL A   1      38.806  22.150  26.151  1.00  0.00     0.261 C 
BRANCH   5   6
ATOM      6  O   UNL A   1      38.027  22.057  24.951  1.00  0.00    -0.460 OA
BRANCH   6   7
ATOM      7  C   UNL A   1      37.209  20.990  24.829  1.00  0.00     0.338 C 
ATOM      8  O   UNL A   1      37.529  19.821  24.970  1.00  0.00    -0.246 OA
BRANCH   7   9
ATOM      9  C   UNL A   1      35.803  21.456  24.667  1.00  0.00     0.060 A 
ATOM     10  C   UNL A   1      33.145  22.356  24.574  1.00  0.00     0.087 A 
ATOM     11  C   UNL A   1      33.485  21.286  25.402  1.00  0.00     0.023 A 
ATOM     12  C   UNL A   1      34.121  22.950  23.758  1.00  0.00     0.023 A 
ATOM     13  C   UNL A   1      34.818  20.860  25.470  1.00  0.00     0.017 A 
ATOM     14  C   UNL A   1      35.444  22.492  23.794  1.00  0.00     0.017 A 
BRANCH  10  15
ATOM     15  S   UNL A   1      31.526  23.103  24.574  1.00  0.00     0.261 S 
ATOM     16  O   UNL A   1      30.748  22.351  25.537  1.00  0.00    -0.201 OA
ATOM     17  O   UNL A   1      31.106  23.211  23.193  1.00  0.00    -0.201 OA
BRANCH  15  18
ATOM     18  N   UNL A   1      31.603  24.643  25.210  1.00  0.00    -0.279 N 
ATOM     19  H   UNL A   1      31.432  24.705  26.177  1.00  0.00     0.180 HD
BRANCH  18  20
ATOM     20  C   UNL A   1      31.878  25.883  24.562  1.00  0.00     0.055 A 
ATOM     21  C   UNL A   1      34.197  25.989  25.681  1.00  0.00     0.046 C 
ATOM     22  C   UNL A   1      33.200  26.378  24.620  1.00  0.00    -0.027 A 
ATOM     23  C   UNL A   1      33.617  27.338  23.680  1.00  0.00     0.008 A 
ATOM     24  C   UNL A   1      32.720  27.852  22.751  1.00  0.00     0.039 A 
ATOM     25  C   UNL A   1      30.947  26.537  23.756  1.00  0.00     0.066 A 
ATOM     26  C   UNL A   1      31.385  27.482  22.831  1.00  0.00     0.125 A 
ATOM     27  F   UNL A   1      30.509  28.001  21.961  1.00  0.00    -0.207 F 
ENDBRANCH  18  20
ENDBRANCH  15  18
ENDBRANCH  10  15
ENDBRANCH   7   9
ENDBRANCH   6   7
ENDBRANCH   5   6
ENDBRANCH   4   5
ENDBRANCH   3   4
ENDBRANCH   2   3
ENDBRANCH   1   2
BRANCH   1  28
ATOM     28  O   UNL A   1      43.314  19.856  24.994  1.00  0.00    -0.377 OA
BRANCH  28  29
ATOM     29  C   UNL A   1      44.577  19.204  24.838  1.00  0.00     0.188 C 
BRANCH  29  30
ATOM     30  C   UNL A   1      45.919  19.968  24.715  1.00  0.00     0.188 C 
BRANCH  30  31
ATOM     31  O   UNL A   1      45.865  21.333  25.091  1.00  0.00    -0.376 OA
BRANCH  31  32
ATOM     32  C   UNL A   1      45.007  22.180  24.347  1.00  0.00     0.202 C 
BRANCH  32  33
ATOM     33  C   UNL A   1      43.930  22.916  25.155  1.00  0.00     0.261 C 
BRANCH  33  34
ATOM     34  O   UNL A   1      43.627  24.252  24.723  1.00  0.00    -0.460 OA
BRANCH  34  35
ATOM     35  C   UNL A   1      44.432  25.244  25.159  1.00  0.00     0.338 C 
ATOM     36  O   UNL A   1      45.503  25.590  24.686  1.00  0.00    -0.246 OA
BRANCH  35  37
ATOM     37  C   UNL A   1      43.706  25.980  26.215  1.00  0.00     0.060 A 
ATOM     38  C   UNL A   1      43.991  27.335  26.427  1.00  0.00     0.016 A 
ATOM     39  C   UNL A   1      42.735  25.332  26.983  1.00  0.00     0.016 A 
ATOM     40  C   UNL A   1      43.329  28.039  27.434  1.00  0.00     0.010 A 
ATOM     41  C   UNL A   1      42.086  26.032  28.003  1.00  0.00     0.010 A 
ATOM     42  C   UNL A   1      42.404  27.379  28.255  1.00  0.00    -0.014 A 
BRANCH  42  43
ATOM     43  C   UNL A   1      41.913  28.032  29.494  1.00  0.00     0.031 A 
ATOM     44  C   UNL A   1      40.663  28.865  29.415  1.00  0.00     0.074 A 
ATOM     45  C   UNL A   1      42.553  27.886  30.668  1.00  0.00     0.049 A 
ATOM     46  N   UNL A   1      40.078  29.580  30.340  1.00  0.00    -0.248 NA
ATOM     47  C   UNL A   1      39.986  28.899  28.108  1.00  0.00     0.031 C 
ATOM     48  C   UNL A   1      43.748  27.075  30.887  1.00  0.00     0.029 A 
ATOM     49  N   UNL A   1      42.284  28.432  31.899  1.00  0.00    -0.354 N 
ATOM     50  C   UNL A   1      38.970  30.153  29.728  1.00  0.00     0.074 A 
ATOM     51  C   UNL A   1      38.985  29.731  28.344  1.00  0.00     0.031 C 
ATOM     52  C   UNL A   1      44.119  27.187  32.174  1.00  0.00     0.029 A 
ATOM     53  C   UNL A   1      43.209  28.104  32.860  1.00  0.00     0.049 A 
ATOM     54  H   UNL A   1      41.503  29.003  32.076  1.00  0.00     0.167 HD
ATOM     55  C   UNL A   1      38.021  30.953  30.270  1.00  0.00     0.037 A 
ATOM     56  C   UNL A   1      43.320  28.518  34.138  1.00  0.00     0.037 A 
ATOM     57  C   UNL A   1      38.013  31.377  31.645  1.00  0.00     0.049 A 
ATOM     58  C   UNL A   1      42.298  29.476  34.697  1.00  0.00     0.074 A 
ATOM     59  C   UNL A   1      37.086  32.173  32.295  1.00  0.00     0.029 A 
ATOM     60  N   UNL A   1      38.985  31.050  32.578  1.00  0.00    -0.354 N 
ATOM     61  N   UNL A   1      41.239  29.991  34.120  1.00  0.00    -0.248 NA
ATOM     62  C   UNL A   1      42.489  29.911  36.090  1.00  0.00     0.031 C 
ATOM     63  C   UNL A   1      37.530  32.378  33.606  1.00  0.00     0.029 A 
ATOM     64  C   UNL A   1      38.698  31.656  33.791  1.00  0.00     0.049 A 
ATOM     65  H   UNL A   1      39.765  30.474  32.404  1.00  0.00     0.167 HD
ATOM     66  C   UNL A   1      40.622  30.780  35.084  1.00  0.00     0.074 A 
ATOM     67  C   UNL A   1      41.419  30.666  36.289  1.00  0.00     0.031 C 
ATOM     68  C   UNL A   1      39.496  31.529  34.985  1.00  0.00     0.037 A 
BRANCH  55  69
ATOM     69  C   UNL A   1      36.933  31.446  29.361  1.00  0.00     0.057 A 
ATOM     70  C   UNL A   1      36.928  32.747  28.843  1.00  0.00     0.134 A 
ATOM     71  C   UNL A   1      35.883  30.598  28.984  1.00  0.00     0.134 A 
ATOM     72  F   UNL A   1      37.896  33.616  29.177  1.00  0.00    -0.206 F 
ATOM     73  C   UNL A   1      35.906  33.197  28.005  1.00  0.00     0.040 A 
ATOM     74  C   UNL A   1      34.872  31.026  28.122  1.00  0.00     0.040 A 
ATOM     75  F   UNL A   1      35.826  29.338  29.441  1.00  0.00    -0.206 F 
ATOM     76  C   UNL A   1      34.877  32.332  27.637  1.00  0.00     0.006 A 
ENDBRANCH  55  69
BRANCH  56  77
ATOM     77  C   UNL A   1      44.450  28.048  34.981  1.00  0.00     0.057 A 
ATOM     78  C   UNL A   1      44.319  26.932  35.816  1.00  0.00     0.134 A 
ATOM     79  C   UNL A   1      45.679  28.721  34.995  1.00  0.00     0.134 A 
ATOM     80  F   UNL A   1      43.159  26.261  35.868  1.00  0.00    -0.206 F 
ATOM     81  C   UNL A   1      45.359  26.514  36.648  1.00  0.00     0.040 A 
ATOM     82  C   UNL A   1      46.737  28.296  35.800  1.00  0.00     0.040 A 
ATOM     83  F   UNL A   1      45.870  29.799  34.220  1.00  0.00    -0.206 F 
ATOM     84  C   UNL A   1      46.575  27.194  36.637  1.00  0.00     0.006 A 
ENDBRANCH  56  77
BRANCH  68  85
ATOM     85  C   UNL A   1      39.030  32.251  36.217  1.00  0.00     0.057 A 
ATOM     86  C   UNL A   1      38.156  31.663  37.141  1.00  0.00     0.134 A 
ATOM     87  C   UNL A   1      39.500  33.539  36.506  1.00  0.00     0.134 A 
ATOM     88  F   UNL A   1      37.660  30.436  36.921  1.00  0.00    -0.206 F 
ATOM     89  C   UNL A   1      37.746  32.338  38.292  1.00  0.00     0.040 A 
ATOM     90  C   UNL A   1      39.122  34.213  37.670  1.00  0.00     0.040 A 
ATOM     91  F   UNL A   1      40.349  34.160  35.673  1.00  0.00    -0.206 F 
ATOM     92  C   UNL A   1      38.237  33.615  38.563  1.00  0.00     0.006 A 
ENDBRANCH  68  85
ENDBRANCH  42  43
ENDBRANCH  35  37
ENDBRANCH  34  35
ENDBRANCH  33  34
ENDBRANCH  32  33
ENDBRANCH  31  32
ENDBRANCH  30  31
ENDBRANCH  29  30
ENDBRANCH  28  29
ENDBRANCH   1  28
TORSDOF 23
ENDMDL
MODEL 3
REMARK VINA RESULT:      -9.9      1.945      2.872
REMARK SMILES Cc1ccc(F)cc1NS(=O)(=O)c1ccc(C(=O)OCCOCCOCCOCCOC(=O)c2ccc(-c3c4nc(c(-c5c(F)cccc5F)c5ccc([nH]5)c(-c5c(F)cccc5F)c5nc(c(-c6c(F)cccc6F)c6ccc3[nH]6)C=C5)C=C4)cc2)cc1
REMARK SMILES IDX 24 1 23 2 22 3 21 4 20 5 19 6 17 7 18 8 16 9 13 10 14 11
REMARK SMILES IDX 89 12 15 13 88 14 10 15 11 16 12 17 9 18 8 20 1 21 2 22 3 23
REMARK SMILES IDX 4 24 7 25 5 26 6 27 25 28 26 29 27 30 28 31 29 32 30 33
REMARK SMILES IDX 31 34 32 35 33 36 34 37 35 38 87 39 36 40 86 41 37 42 38 43
REMARK SMILES IDX 39 44 80 45 40 46 85 47 79 48 81 49 41 50 84 51 78 52 77 53
REMARK SMILES IDX 42 55 68 56 51 57 67 58 52 59 55 60 66 61 82 62 53 63 54 64
REMARK SMILES IDX 65 66 83 67 56 68 43 69 44 70 49 71 45 72 46 73 48 74 50 75
REMARK SMILES IDX 47 76 69 77 70 78 75 79 71 80 72 81 74 82 76 83 73 84 57 85
REMARK SMILES IDX 58 86 63 87 59 88 60 89 62 90 64 91 61 92
REMARK H PARENT 9 19 81 54 55 65
REMARK Flexibility Score: inf
ROOT
ATOM      1  C   UNL A   1      41.239  19.663  26.199  1.00  0.00     0.188 C 
ENDROOT
BRANCH   1   2
ATOM      2  C   UNL A   1      39.910  20.102  25.560  1.00  0.00     0.188 C 
BRANCH   2   3
ATOM      3  O   UNL A   1      39.170  21.002  26.370  1.00  0.00    -0.376 OA
BRANCH   3   4
ATOM      4  C   UNL A   1      38.407  22.019  25.745  1.00  0.00     0.202 C 
BRANCH   4   5
ATOM      5  C   UNL A   1      37.013  21.693  25.182  1.00  0.00     0.261 C 
BRANCH   5   6
ATOM      6  O   UNL A   1      35.912  21.872  26.083  1.00  0.00    -0.460 OA
BRANCH   6   7
ATOM      7  C   UNL A   1      34.699  21.455  25.663  1.00  0.00     0.338 C 
ATOM      8  O   UNL A   1      34.425  20.338  25.256  1.00  0.00    -0.246 OA
BRANCH   7   9
ATOM      9  C   UNL A   1      33.687  22.516  25.931  1.00  0.00     0.060 A 
ATOM     10  C   UNL A   1      31.854  24.616  26.261  1.00  0.00     0.087 A 
ATOM     11  C   UNL A   1      33.213  24.899  26.125  1.00  0.00     0.023 A 
ATOM     12  C   UNL A   1      31.413  23.284  26.277  1.00  0.00     0.023 A 
ATOM     13  C   UNL A   1      34.121  23.850  25.928  1.00  0.00     0.017 A 
ATOM     14  C   UNL A   1      32.328  22.236  26.126  1.00  0.00     0.017 A 
BRANCH  10  15
ATOM     15  S   UNL A   1      30.601  25.885  26.307  1.00  0.00     0.261 S 
ATOM     16  O   UNL A   1      31.087  26.881  27.240  1.00  0.00    -0.201 OA
ATOM     17  O   UNL A   1      29.331  25.223  26.513  1.00  0.00    -0.201 OA
BRANCH  15  18
ATOM     18  N   UNL A   1      30.535  26.680  24.843  1.00  0.00    -0.279 N 
ATOM     19  H   UNL A   1      29.812  27.343  24.759  1.00  0.00     0.180 HD
BRANCH  18  20
ATOM     20  C   UNL A   1      31.368  26.543  23.693  1.00  0.00     0.055 A 
ATOM     21  C   UNL A   1      31.877  29.070  23.722  1.00  0.00     0.046 C 
ATOM     22  C   UNL A   1      32.173  27.646  23.327  1.00  0.00    -0.027 A 
ATOM     23  C   UNL A   1      33.287  27.437  22.494  1.00  0.00     0.008 A 
ATOM     24  C   UNL A   1      33.553  26.175  21.974  1.00  0.00     0.039 A 
ATOM     25  C   UNL A   1      31.535  25.334  23.020  1.00  0.00     0.066 A 
ATOM     26  C   UNL A   1      32.647  25.150  22.203  1.00  0.00     0.125 A 
ATOM     27  F   UNL A   1      32.880  23.941  21.675  1.00  0.00    -0.207 F 
ENDBRANCH  18  20
ENDBRANCH  15  18
ENDBRANCH  10  15
ENDBRANCH   7   9
ENDBRANCH   6   7
ENDBRANCH   5   6
ENDBRANCH   4   5
ENDBRANCH   3   4
ENDBRANCH   2   3
ENDBRANCH   1   2
BRANCH   1  28
ATOM     28  O   UNL A   1      42.314  19.400  25.311  1.00  0.00    -0.377 OA
BRANCH  28  29
ATOM     29  C   UNL A   1      43.640  19.800  25.665  1.00  0.00     0.188 C 
BRANCH  29  30
ATOM     30  C   UNL A   1      44.338  21.049  25.074  1.00  0.00     0.188 C 
BRANCH  30  31
ATOM     31  O   UNL A   1      43.461  22.086  24.666  1.00  0.00    -0.376 OA
BRANCH  31  32
ATOM     32  C   UNL A   1      44.035  23.351  24.387  1.00  0.00     0.202 C 
BRANCH  32  33
ATOM     33  C   UNL A   1      43.965  24.381  25.521  1.00  0.00     0.261 C 
BRANCH  33  34
ATOM     34  O   UNL A   1      42.703  25.051  25.681  1.00  0.00    -0.460 OA
BRANCH  34  35
ATOM     35  C   UNL A   1      41.846  24.553  26.597  1.00  0.00     0.338 C 
ATOM     36  O   UNL A   1      41.512  23.387  26.742  1.00  0.00    -0.246 OA
BRANCH  35  37
ATOM     37  C   UNL A   1      41.506  25.644  27.533  1.00  0.00     0.060 A 
ATOM     38  C   UNL A   1      42.437  26.665  27.762  1.00  0.00     0.016 A 
ATOM     39  C   UNL A   1      40.264  25.661  28.172  1.00  0.00     0.016 A 
ATOM     40  C   UNL A   1      42.140  27.692  28.660  1.00  0.00     0.010 A 
ATOM     41  C   UNL A   1      39.975  26.679  29.085  1.00  0.00     0.010 A 
ATOM     42  C   UNL A   1      40.924  27.681  29.357  1.00  0.00    -0.014 A 
BRANCH  42  43
ATOM     43  C   UNL A   1      40.721  28.595  30.509  1.00  0.00     0.031 A 
ATOM     44  C   UNL A   1      39.651  29.648  30.403  1.00  0.00     0.074 A 
ATOM     45  C   UNL A   1      41.458  28.492  31.628  1.00  0.00     0.049 A 
ATOM     46  N   UNL A   1      39.329  30.596  31.245  1.00  0.00    -0.248 NA
ATOM     47  C   UNL A   1      38.840  29.630  29.176  1.00  0.00     0.031 C 
ATOM     48  C   UNL A   1      42.495  27.492  31.872  1.00  0.00     0.029 A 
ATOM     49  N   UNL A   1      41.449  29.256  32.771  1.00  0.00    -0.354 N 
ATOM     50  C   UNL A   1      38.285  31.289  30.647  1.00  0.00     0.074 A 
ATOM     51  C   UNL A   1      38.051  30.676  29.357  1.00  0.00     0.031 C 
ATOM     52  C   UNL A   1      43.034  27.712  33.084  1.00  0.00     0.029 A 
ATOM     53  C   UNL A   1      42.404  28.888  33.686  1.00  0.00     0.049 A 
ATOM     54  H   UNL A   1      40.818  29.996  32.918  1.00  0.00     0.167 HD
ATOM     55  C   UNL A   1      37.578  32.338  31.131  1.00  0.00     0.037 A 
ATOM     56  C   UNL A   1      42.747  29.452  34.861  1.00  0.00     0.037 A 
ATOM     57  C   UNL A   1      37.817  32.951  32.411  1.00  0.00     0.049 A 
ATOM     58  C   UNL A   1      42.001  30.671  35.342  1.00  0.00     0.074 A 
ATOM     59  C   UNL A   1      37.144  34.007  32.999  1.00  0.00     0.029 A 
ATOM     60  N   UNL A   1      38.815  32.570  33.295  1.00  0.00    -0.354 N 
ATOM     61  N   UNL A   1      40.996  31.304  34.784  1.00  0.00    -0.248 NA
ATOM     62  C   UNL A   1      42.438  31.256  36.619  1.00  0.00     0.031 C 
ATOM     63  C   UNL A   1      37.774  34.305  34.212  1.00  0.00     0.029 A 
ATOM     64  C   UNL A   1      38.797  33.392  34.410  1.00  0.00     0.049 A 
ATOM     65  H   UNL A   1      39.444  31.826  33.150  1.00  0.00     0.167 HD
ATOM     66  C   UNL A   1      40.662  32.336  35.654  1.00  0.00     0.074 A 
ATOM     67  C   UNL A   1      41.563  32.236  36.784  1.00  0.00     0.031 C 
ATOM     68  C   UNL A   1      39.695  33.279  35.532  1.00  0.00     0.037 A 
BRANCH  55  69
ATOM     69  C   UNL A   1      36.501  32.908  30.254  1.00  0.00     0.057 A 
ATOM     70  C   UNL A   1      36.780  33.824  29.232  1.00  0.00     0.134 A 
ATOM     71  C   UNL A   1      35.166  32.518  30.422  1.00  0.00     0.134 A 
ATOM     72  F   UNL A   1      38.035  34.252  29.026  1.00  0.00    -0.206 F 
ATOM     73  C   UNL A   1      35.769  34.353  28.427  1.00  0.00     0.040 A 
ATOM     74  C   UNL A   1      34.150  33.016  29.605  1.00  0.00     0.040 A 
ATOM     75  F   UNL A   1      34.827  31.641  31.380  1.00  0.00    -0.206 F 
ATOM     76  C   UNL A   1      34.449  33.942  28.609  1.00  0.00     0.006 A 
ENDBRANCH  55  69
BRANCH  56  77
ATOM     77  C   UNL A   1      43.860  28.886  35.666  1.00  0.00     0.057 A 
ATOM     78  C   UNL A   1      43.634  27.884  36.617  1.00  0.00     0.134 A 
ATOM     79  C   UNL A   1      45.173  29.355  35.526  1.00  0.00     0.134 A 
ATOM     80  F   UNL A   1      42.395  27.411  36.818  1.00  0.00    -0.206 F 
ATOM     81  C   UNL A   1      44.666  27.382  37.412  1.00  0.00     0.040 A 
ATOM     82  C   UNL A   1      46.220  28.842  36.295  1.00  0.00     0.040 A 
ATOM     83  F   UNL A   1      45.458  30.316  34.635  1.00  0.00    -0.206 F 
ATOM     84  C   UNL A   1      45.965  27.858  37.248  1.00  0.00     0.006 A 
ENDBRANCH  56  77
BRANCH  68  85
ATOM     85  C   UNL A   1      39.528  34.253  36.663  1.00  0.00     0.057 A 
ATOM     86  C   UNL A   1      38.814  33.932  37.825  1.00  0.00     0.134 A 
ATOM     87  C   UNL A   1      40.128  35.518  36.606  1.00  0.00     0.134 A 
ATOM     88  F   UNL A   1      38.205  32.742  37.941  1.00  0.00    -0.206 F 
ATOM     89  C   UNL A   1      38.683  34.840  38.877  1.00  0.00     0.040 A 
ATOM     90  C   UNL A   1      40.031  36.424  37.664  1.00  0.00     0.040 A 
ATOM     91  F   UNL A   1      40.837  35.890  35.529  1.00  0.00    -0.206 F 
ATOM     92  C   UNL A   1      39.300  36.089  38.800  1.00  0.00     0.006 A 
ENDBRANCH  68  85
ENDBRANCH  42  43
ENDBRANCH  35  37
ENDBRANCH  34  35
ENDBRANCH  33  34
ENDBRANCH  32  33
ENDBRANCH  31  32
ENDBRANCH  30  31
ENDBRANCH  29  30
ENDBRANCH  28  29
ENDBRANCH   1  28
TORSDOF 23
ENDMDL
