MODEL 1
REMARK VINA RESULT:     -10.0      0.000      0.000
REMARK SMILES C[C@@H]1OCC[C@@H]1C(=O)Nc1ccc(C(=O)OCCOCCOCCOCCOC(=O)c2ccc(-c3c4nc(c(-c5c(F)cccc5F)c5ccc([nH]5)c(-c5c(F)cccc5F)c5nc(c(-c6c(F)cccc6F)c6ccc3[nH]6)C=C5)C=C4)cc2)cc1F
REMARK SMILES IDX 22 1 21 2 20 3 19 4 18 5 17 6 16 7 14 8 15 9 13 10 10 11
REMARK SMILES IDX 11 12 86 13 12 14 85 15 87 16 9 17 7 18 8 19 6 21 1 22 2 23
REMARK SMILES IDX 3 24 4 25 5 26 23 27 24 28 25 29 26 30 27 31 28 32 29 33
REMARK SMILES IDX 30 34 31 35 32 36 84 37 33 38 83 39 34 40 35 41 36 42 77 43
REMARK SMILES IDX 37 44 82 45 76 46 78 47 38 48 81 49 75 50 74 51 39 53 65 54
REMARK SMILES IDX 48 55 64 56 49 57 52 58 63 59 79 60 50 61 51 62 62 64 80 65
REMARK SMILES IDX 53 66 40 67 41 68 46 69 42 70 43 71 45 72 47 73 44 74 66 75
REMARK SMILES IDX 67 76 72 77 68 78 69 79 71 80 73 81 70 82 54 83 55 84 60 85
REMARK SMILES IDX 56 86 57 87 59 88 61 89 58 90
REMARK H PARENT 9 20 78 52 52 63
REMARK Flexibility Score: inf
ROOT
ATOM      1  O   UNL A   1      32.254  36.519  30.791  1.00  0.00    -0.377 OA
ENDROOT
BRANCH   1   2
ATOM      2  C   UNL A   1      33.269  36.181  29.857  1.00  0.00     0.188 C 
BRANCH   2   3
ATOM      3  C   UNL A   1      33.058  34.972  28.921  1.00  0.00     0.188 C 
BRANCH   3   4
ATOM      4  O   UNL A   1      34.249  34.262  28.617  1.00  0.00    -0.376 OA
BRANCH   4   5
ATOM      5  C   UNL A   1      34.375  32.916  29.030  1.00  0.00     0.202 C 
BRANCH   5   6
ATOM      6  C   UNL A   1      34.588  31.898  27.912  1.00  0.00     0.261 C 
BRANCH   6   7
ATOM      7  O   UNL A   1      33.665  30.807  27.915  1.00  0.00    -0.460 OA
BRANCH   7   8
ATOM      8  C   UNL A   1      32.606  30.838  27.076  1.00  0.00     0.338 C 
ATOM      9  O   UNL A   1      31.823  31.748  26.885  1.00  0.00    -0.246 OA
BRANCH   8  10
ATOM     10  C   UNL A   1      32.688  29.591  26.292  1.00  0.00     0.063 A 
ATOM     11  C   UNL A   1      32.650  27.157  24.841  1.00  0.00     0.077 A 
ATOM     12  C   UNL A   1      33.682  27.448  25.757  1.00  0.00     0.030 A 
ATOM     13  C   UNL A   1      31.627  28.110  24.737  1.00  0.00     0.147 A 
ATOM     14  C   UNL A   1      33.713  28.661  26.470  1.00  0.00     0.018 A 
ATOM     15  C   UNL A   1      31.644  29.302  25.434  1.00  0.00     0.057 A 
ATOM     16  F   UNL A   1      30.530  27.974  23.997  1.00  0.00    -0.205 F 
BRANCH  11  17
ATOM     17  N   UNL A   1      32.804  25.947  24.113  1.00  0.00    -0.323 N 
ATOM     18  C   UNL A   1      32.287  24.680  24.222  1.00  0.00     0.230 C 
ATOM     19  O   UNL A   1      32.532  23.875  23.320  1.00  0.00    -0.274 OA
ATOM     20  H   UNL A   1      33.426  26.038  23.354  1.00  0.00     0.170 HD
BRANCH  18  21
ATOM     21  C   UNL A   1      31.455  24.295  25.406  1.00  0.00     0.110 C 
ATOM     22  C   UNL A   1      33.593  23.365  26.531  1.00  0.00     0.039 C 
ATOM     23  C   UNL A   1      32.282  24.135  26.688  1.00  0.00     0.127 C 
ATOM     24  O   UNL A   1      31.443  23.389  27.598  1.00  0.00    -0.378 OA
ATOM     25  C   UNL A   1      30.264  22.995  26.878  1.00  0.00     0.161 C 
ATOM     26  C   UNL A   1      30.654  23.014  25.409  1.00  0.00     0.044 C 
ENDBRANCH  18  21
ENDBRANCH  11  17
ENDBRANCH   8  10
ENDBRANCH   7   8
ENDBRANCH   6   7
ENDBRANCH   5   6
ENDBRANCH   4   5
ENDBRANCH   3   4
ENDBRANCH   2   3
ENDBRANCH   1   2
BRANCH   1  27
ATOM     27  C   UNL A   1      32.534  36.515  32.188  1.00  0.00     0.188 C 
BRANCH  27  28
ATOM     28  C   UNL A   1      33.529  35.512  32.818  1.00  0.00     0.188 C 
BRANCH  28  29
ATOM     29  O   UNL A   1      33.347  34.170  32.402  1.00  0.00    -0.376 OA
BRANCH  29  30
ATOM     30  C   UNL A   1      33.941  33.152  33.185  1.00  0.00     0.202 C 
BRANCH  30  31
ATOM     31  C   UNL A   1      35.256  33.539  33.870  1.00  0.00     0.261 C 
BRANCH  31  32
ATOM     32  O   UNL A   1      36.451  33.071  33.230  1.00  0.00    -0.460 OA
BRANCH  32  33
ATOM     33  C   UNL A   1      36.780  33.632  32.044  1.00  0.00     0.338 C 
ATOM     34  O   UNL A   1      36.425  34.712  31.611  1.00  0.00    -0.246 OA
BRANCH  33  35
ATOM     35  C   UNL A   1      37.816  32.777  31.433  1.00  0.00     0.060 A 
ATOM     36  C   UNL A   1      38.750  32.131  32.255  1.00  0.00     0.016 A 
ATOM     37  C   UNL A   1      37.839  32.597  30.049  1.00  0.00     0.016 A 
ATOM     38  C   UNL A   1      39.728  31.315  31.686  1.00  0.00     0.010 A 
ATOM     39  C   UNL A   1      38.833  31.802  29.480  1.00  0.00     0.010 A 
ATOM     40  C   UNL A   1      39.796  31.182  30.293  1.00  0.00    -0.014 A 
BRANCH  40  41
ATOM     41  C   UNL A   1      40.981  30.554  29.665  1.00  0.00     0.031 A 
ATOM     42  C   UNL A   1      42.195  31.405  29.432  1.00  0.00     0.074 A 
ATOM     43  C   UNL A   1      40.981  29.259  29.311  1.00  0.00     0.049 A 
ATOM     44  N   UNL A   1      43.321  31.101  28.842  1.00  0.00    -0.248 NA
ATOM     45  C   UNL A   1      42.127  32.787  29.932  1.00  0.00     0.031 C 
ATOM     46  C   UNL A   1      39.883  28.322  29.533  1.00  0.00     0.029 A 
ATOM     47  N   UNL A   1      41.944  28.512  28.681  1.00  0.00    -0.354 N 
ATOM     48  C   UNL A   1      44.095  32.253  28.899  1.00  0.00     0.074 A 
ATOM     49  C   UNL A   1      43.295  33.272  29.544  1.00  0.00     0.031 C 
ATOM     50  C   UNL A   1      40.232  27.122  29.042  1.00  0.00     0.029 A 
ATOM     51  C   UNL A   1      41.562  27.217  28.438  1.00  0.00     0.049 A 
ATOM     52  H   UNL A   1      42.826  28.871  28.428  1.00  0.00     0.167 HD
ATOM     53  C   UNL A   1      45.362  32.441  28.464  1.00  0.00     0.037 A 
ATOM     54  C   UNL A   1      42.204  26.229  27.784  1.00  0.00     0.037 A 
ATOM     55  C   UNL A   1      46.145  31.427  27.806  1.00  0.00     0.049 A 
ATOM     56  C   UNL A   1      43.571  26.486  27.209  1.00  0.00     0.074 A 
ATOM     57  C   UNL A   1      47.439  31.516  27.329  1.00  0.00     0.029 A 
ATOM     58  N   UNL A   1      45.698  30.146  27.520  1.00  0.00    -0.354 N 
ATOM     59  N   UNL A   1      44.302  27.573  27.272  1.00  0.00    -0.248 NA
ATOM     60  C   UNL A   1      44.200  25.384  26.467  1.00  0.00     0.031 C 
ATOM     61  C   UNL A   1      47.754  30.308  26.701  1.00  0.00     0.029 A 
ATOM     62  C   UNL A   1      46.680  29.443  26.843  1.00  0.00     0.049 A 
ATOM     63  H   UNL A   1      44.813  29.787  27.764  1.00  0.00     0.167 HD
ATOM     64  C   UNL A   1      45.483  27.282  26.599  1.00  0.00     0.074 A 
ATOM     65  C   UNL A   1      45.373  25.913  26.142  1.00  0.00     0.031 C 
ATOM     66  C   UNL A   1      46.560  28.080  26.386  1.00  0.00     0.037 A 
BRANCH  53  67
ATOM     67  C   UNL A   1      45.963  33.801  28.665  1.00  0.00     0.057 A 
ATOM     68  C   UNL A   1      45.814  34.798  27.692  1.00  0.00     0.134 A 
ATOM     69  C   UNL A   1      46.702  34.123  29.811  1.00  0.00     0.134 A 
ATOM     70  F   UNL A   1      45.122  34.557  26.569  1.00  0.00    -0.206 F 
ATOM     71  C   UNL A   1      46.379  36.064  27.853  1.00  0.00     0.040 A 
ATOM     72  C   UNL A   1      47.244  35.397  29.997  1.00  0.00     0.040 A 
ATOM     73  F   UNL A   1      46.867  33.220  30.790  1.00  0.00    -0.206 F 
ATOM     74  C   UNL A   1      47.089  36.369  29.012  1.00  0.00     0.006 A 
ENDBRANCH  53  67
BRANCH  54  75
ATOM     75  C   UNL A   1      41.552  24.903  27.659  1.00  0.00     0.057 A 
ATOM     76  C   UNL A   1      40.470  24.698  26.794  1.00  0.00     0.134 A 
ATOM     77  C   UNL A   1      41.958  23.824  28.452  1.00  0.00     0.134 A 
ATOM     78  F   UNL A   1      40.034  25.692  26.007  1.00  0.00    -0.206 F 
ATOM     79  C   UNL A   1      39.792  23.478  26.748  1.00  0.00     0.040 A 
ATOM     80  C   UNL A   1      41.302  22.593  28.401  1.00  0.00     0.040 A 
ATOM     81  F   UNL A   1      43.002  23.954  29.283  1.00  0.00    -0.206 F 
ATOM     82  C   UNL A   1      40.207  22.422  27.556  1.00  0.00     0.006 A 
ENDBRANCH  54  75
BRANCH  66  83
ATOM     83  C   UNL A   1      47.725  27.502  25.636  1.00  0.00     0.057 A 
ATOM     84  C   UNL A   1      47.733  27.484  24.234  1.00  0.00     0.134 A 
ATOM     85  C   UNL A   1      48.789  26.873  26.295  1.00  0.00     0.134 A 
ATOM     86  F   UNL A   1      46.739  28.057  23.540  1.00  0.00    -0.206 F 
ATOM     87  C   UNL A   1      48.744  26.842  23.517  1.00  0.00     0.040 A 
ATOM     88  C   UNL A   1      49.820  26.251  25.588  1.00  0.00     0.040 A 
ATOM     89  F   UNL A   1      48.847  26.861  27.635  1.00  0.00    -0.206 F 
ATOM     90  C   UNL A   1      49.792  26.223  24.194  1.00  0.00     0.006 A 
ENDBRANCH  66  83
ENDBRANCH  40  41
ENDBRANCH  33  35
ENDBRANCH  32  33
ENDBRANCH  31  32
ENDBRANCH  30  31
ENDBRANCH  29  30
ENDBRANCH  28  29
ENDBRANCH  27  28
ENDBRANCH   1  27
TORSDOF 22
ENDMDL
MODEL 2
REMARK VINA RESULT:      -9.9      2.467      7.443
REMARK SMILES C[C@@H]1OCC[C@@H]1C(=O)Nc1ccc(C(=O)OCCOCCOCCOCCOC(=O)c2ccc(-c3c4nc(c(-c5c(F)cccc5F)c5ccc([nH]5)c(-c5c(F)cccc5F)c5nc(c(-c6c(F)cccc6F)c6ccc3[nH]6)C=C5)C=C4)cc2)cc1F
REMARK SMILES IDX 22 1 21 2 20 3 19 4 18 5 17 6 16 7 14 8 15 9 13 10 10 11
REMARK SMILES IDX 11 12 86 13 12 14 85 15 87 16 9 17 7 18 8 19 6 21 1 22 2 23
REMARK SMILES IDX 3 24 4 25 5 26 23 27 24 28 25 29 26 30 27 31 28 32 29 33
REMARK SMILES IDX 30 34 31 35 32 36 84 37 33 38 83 39 34 40 35 41 36 42 77 43
REMARK SMILES IDX 37 44 82 45 76 46 78 47 38 48 81 49 75 50 74 51 39 53 65 54
REMARK SMILES IDX 48 55 64 56 49 57 52 58 63 59 79 60 50 61 51 62 62 64 80 65
REMARK SMILES IDX 53 66 40 67 41 68 46 69 42 70 43 71 45 72 47 73 44 74 66 75
REMARK SMILES IDX 67 76 72 77 68 78 69 79 71 80 73 81 70 82 54 83 55 84 60 85
REMARK SMILES IDX 56 86 57 87 59 88 61 89 58 90
REMARK H PARENT 9 20 78 52 52 63
REMARK Flexibility Score: inf
ROOT
ATOM      1  O   UNL A   1      33.575  28.636  25.218  1.00  0.00    -0.377 OA
ENDROOT
BRANCH   1   2
ATOM      2  C   UNL A   1      33.998  28.373  23.889  1.00  0.00     0.188 C 
BRANCH   2   3
ATOM      3  C   UNL A   1      33.028  27.667  22.917  1.00  0.00     0.188 C 
BRANCH   3   4
ATOM      4  O   UNL A   1      31.797  28.350  22.733  1.00  0.00    -0.376 OA
BRANCH   4   5
ATOM      5  C   UNL A   1      30.596  27.606  22.678  1.00  0.00     0.202 C 
BRANCH   5   6
ATOM      6  C   UNL A   1      29.893  27.383  24.015  1.00  0.00     0.261 C 
BRANCH   6   7
ATOM      7  O   UNL A   1      30.125  26.102  24.604  1.00  0.00    -0.460 OA
BRANCH   7   8
ATOM      8  C   UNL A   1      30.928  26.011  25.688  1.00  0.00     0.338 C 
ATOM      9  O   UNL A   1      30.908  26.687  26.699  1.00  0.00    -0.246 OA
BRANCH   8  10
ATOM     10  C   UNL A   1      31.737  24.796  25.478  1.00  0.00     0.063 A 
ATOM     11  C   UNL A   1      33.436  22.545  25.197  1.00  0.00     0.077 A 
ATOM     12  C   UNL A   1      32.889  23.195  24.071  1.00  0.00     0.030 A 
ATOM     13  C   UNL A   1      33.137  23.109  26.445  1.00  0.00     0.147 A 
ATOM     14  C   UNL A   1      32.034  24.305  24.206  1.00  0.00     0.018 A 
ATOM     15  C   UNL A   1      32.303  24.201  26.590  1.00  0.00     0.057 A 
ATOM     16  F   UNL A   1      33.630  22.694  27.608  1.00  0.00    -0.205 F 
BRANCH  11  17
ATOM     17  N   UNL A   1      34.191  21.374  24.918  1.00  0.00    -0.323 N 
ATOM     18  C   UNL A   1      35.490  20.988  25.133  1.00  0.00     0.230 C 
ATOM     19  O   UNL A   1      35.797  19.820  24.880  1.00  0.00    -0.274 OA
ATOM     20  H   UNL A   1      33.659  20.679  24.467  1.00  0.00     0.170 HD
BRANCH  18  21
ATOM     21  C   UNL A   1      36.501  21.964  25.653  1.00  0.00     0.110 C 
ATOM     22  C   UNL A   1      36.642  22.993  23.282  1.00  0.00     0.039 C 
ATOM     23  C   UNL A   1      36.606  23.229  24.791  1.00  0.00     0.127 C 
ATOM     24  O   UNL A   1      37.856  23.849  25.167  1.00  0.00    -0.378 OA
ATOM     25  C   UNL A   1      38.529  22.957  26.070  1.00  0.00     0.161 C 
ATOM     26  C   UNL A   1      37.955  21.578  25.790  1.00  0.00     0.044 C 
ENDBRANCH  18  21
ENDBRANCH  11  17
ENDBRANCH   8  10
ENDBRANCH   7   8
ENDBRANCH   6   7
ENDBRANCH   5   6
ENDBRANCH   4   5
ENDBRANCH   3   4
ENDBRANCH   2   3
ENDBRANCH   1   2
BRANCH   1  27
ATOM     27  C   UNL A   1      32.708  29.733  25.492  1.00  0.00     0.188 C 
BRANCH  27  28
ATOM     28  C   UNL A   1      32.683  30.430  26.873  1.00  0.00     0.188 C 
BRANCH  28  29
ATOM     29  O   UNL A   1      33.874  31.125  27.198  1.00  0.00    -0.376 OA
BRANCH  29  30
ATOM     30  C   UNL A   1      33.770  32.242  28.061  1.00  0.00     0.202 C 
BRANCH  30  31
ATOM     31  C   UNL A   1      34.735  32.240  29.250  1.00  0.00     0.261 C 
BRANCH  31  32
ATOM     32  O   UNL A   1      35.917  31.442  29.090  1.00  0.00    -0.460 OA
BRANCH  32  33
ATOM     33  C   UNL A   1      36.439  30.877  30.202  1.00  0.00     0.338 C 
ATOM     34  O   UNL A   1      35.908  30.750  31.289  1.00  0.00    -0.246 OA
BRANCH  33  35
ATOM     35  C   UNL A   1      37.719  30.255  29.810  1.00  0.00     0.060 A 
ATOM     36  C   UNL A   1      38.632  29.871  30.802  1.00  0.00     0.016 A 
ATOM     37  C   UNL A   1      37.995  30.029  28.460  1.00  0.00     0.016 A 
ATOM     38  C   UNL A   1      39.840  29.276  30.440  1.00  0.00     0.010 A 
ATOM     39  C   UNL A   1      39.214  29.457  28.100  1.00  0.00     0.010 A 
ATOM     40  C   UNL A   1      40.152  29.105  29.085  1.00  0.00    -0.014 A 
BRANCH  40  41
ATOM     41  C   UNL A   1      41.527  28.737  28.680  1.00  0.00     0.031 A 
ATOM     42  C   UNL A   1      41.800  27.310  28.305  1.00  0.00     0.074 A 
ATOM     43  C   UNL A   1      42.513  29.649  28.646  1.00  0.00     0.049 A 
ATOM     44  N   UNL A   1      42.929  26.736  27.983  1.00  0.00    -0.248 NA
ATOM     45  C   UNL A   1      40.637  26.408  28.292  1.00  0.00     0.031 C 
ATOM     46  C   UNL A   1      42.359  31.071  28.939  1.00  0.00     0.029 A 
ATOM     47  N   UNL A   1      43.845  29.503  28.352  1.00  0.00    -0.354 N 
ATOM     48  C   UNL A   1      42.615  25.408  27.730  1.00  0.00     0.074 A 
ATOM     49  C   UNL A   1      41.198  25.252  27.975  1.00  0.00     0.031 C 
ATOM     50  C   UNL A   1      43.555  31.670  28.814  1.00  0.00     0.029 A 
ATOM     51  C   UNL A   1      44.563  30.666  28.470  1.00  0.00     0.049 A 
ATOM     52  H   UNL A   1      44.247  28.645  28.082  1.00  0.00     0.167 HD
ATOM     53  C   UNL A   1      43.432  24.411  27.319  1.00  0.00     0.037 A 
ATOM     54  C   UNL A   1      45.885  30.889  28.336  1.00  0.00     0.037 A 
ATOM     55  C   UNL A   1      44.844  24.570  27.096  1.00  0.00     0.049 A 
ATOM     56  C   UNL A   1      46.799  29.745  27.986  1.00  0.00     0.074 A 
ATOM     57  C   UNL A   1      45.761  23.623  26.677  1.00  0.00     0.029 A 
ATOM     58  N   UNL A   1      45.547  25.751  27.289  1.00  0.00    -0.354 N 
ATOM     59  N   UNL A   1      46.497  28.493  27.739  1.00  0.00    -0.248 NA
ATOM     60  C   UNL A   1      48.236  30.043  27.900  1.00  0.00     0.031 C 
ATOM     61  C   UNL A   1      47.027  24.215  26.674  1.00  0.00     0.029 A 
ATOM     62  C   UNL A   1      46.892  25.548  27.029  1.00  0.00     0.049 A 
ATOM     63  H   UNL A   1      45.149  26.607  27.568  1.00  0.00     0.167 HD
ATOM     64  C   UNL A   1      47.698  27.857  27.449  1.00  0.00     0.074 A 
ATOM     65  C   UNL A   1      48.734  28.865  27.543  1.00  0.00     0.031 C 
ATOM     66  C   UNL A   1      47.918  26.557  27.130  1.00  0.00     0.037 A 
BRANCH  53  67
ATOM     67  C   UNL A   1      42.815  23.058  27.113  1.00  0.00     0.057 A 
ATOM     68  C   UNL A   1      42.528  22.231  28.206  1.00  0.00     0.134 A 
ATOM     69  C   UNL A   1      42.519  22.566  25.835  1.00  0.00     0.134 A 
ATOM     70  F   UNL A   1      42.788  22.638  29.458  1.00  0.00    -0.206 F 
ATOM     71  C   UNL A   1      41.969  20.963  28.035  1.00  0.00     0.040 A 
ATOM     72  C   UNL A   1      41.930  21.312  25.654  1.00  0.00     0.040 A 
ATOM     73  F   UNL A   1      42.752  23.315  24.747  1.00  0.00    -0.206 F 
ATOM     74  C   UNL A   1      41.661  20.505  26.756  1.00  0.00     0.006 A 
ENDBRANCH  53  67
BRANCH  54  75
ATOM     75  C   UNL A   1      46.408  32.264  28.525  1.00  0.00     0.057 A 
ATOM     76  C   UNL A   1      46.514  33.161  27.454  1.00  0.00     0.134 A 
ATOM     77  C   UNL A   1      46.874  32.691  29.773  1.00  0.00     0.134 A 
ATOM     78  F   UNL A   1      46.085  32.811  26.233  1.00  0.00    -0.206 F 
ATOM     79  C   UNL A   1      47.098  34.419  27.611  1.00  0.00     0.040 A 
ATOM     80  C   UNL A   1      47.441  33.955  29.948  1.00  0.00     0.040 A 
ATOM     81  F   UNL A   1      46.778  31.885  30.841  1.00  0.00    -0.206 F 
ATOM     82  C   UNL A   1      47.566  34.818  28.861  1.00  0.00     0.006 A 
ENDBRANCH  54  75
BRANCH  66  83
ATOM     83  C   UNL A   1      49.329  26.133  26.841  1.00  0.00     0.057 A 
ATOM     84  C   UNL A   1      50.186  25.750  27.882  1.00  0.00     0.134 A 
ATOM     85  C   UNL A   1      49.871  26.200  25.552  1.00  0.00     0.134 A 
ATOM     86  F   UNL A   1      49.736  25.677  29.144  1.00  0.00    -0.206 F 
ATOM     87  C   UNL A   1      51.535  25.472  27.654  1.00  0.00     0.040 A 
ATOM     88  C   UNL A   1      51.212  25.898  25.307  1.00  0.00     0.040 A 
ATOM     89  F   UNL A   1      49.104  26.552  24.509  1.00  0.00    -0.206 F 
ATOM     90  C   UNL A   1      52.052  25.546  26.363  1.00  0.00     0.006 A 
ENDBRANCH  66  83
ENDBRANCH  40  41
ENDBRANCH  33  35
ENDBRANCH  32  33
ENDBRANCH  31  32
ENDBRANCH  30  31
ENDBRANCH  29  30
ENDBRANCH  28  29
ENDBRANCH  27  28
ENDBRANCH   1  27
TORSDOF 22
ENDMDL
MODEL 3
REMARK VINA RESULT:      -9.8      2.330      4.613
REMARK SMILES C[C@@H]1OCC[C@@H]1C(=O)Nc1ccc(C(=O)OCCOCCOCCOCCOC(=O)c2ccc(-c3c4nc(c(-c5c(F)cccc5F)c5ccc([nH]5)c(-c5c(F)cccc5F)c5nc(c(-c6c(F)cccc6F)c6ccc3[nH]6)C=C5)C=C4)cc2)cc1F
REMARK SMILES IDX 22 1 21 2 20 3 19 4 18 5 17 6 16 7 14 8 15 9 13 10 10 11
REMARK SMILES IDX 11 12 86 13 12 14 85 15 87 16 9 17 7 18 8 19 6 21 1 22 2 23
REMARK SMILES IDX 3 24 4 25 5 26 23 27 24 28 25 29 26 30 27 31 28 32 29 33
REMARK SMILES IDX 30 34 31 35 32 36 84 37 33 38 83 39 34 40 35 41 36 42 77 43
REMARK SMILES IDX 37 44 82 45 76 46 78 47 38 48 81 49 75 50 74 51 39 53 65 54
REMARK SMILES IDX 48 55 64 56 49 57 52 58 63 59 79 60 50 61 51 62 62 64 80 65
REMARK SMILES IDX 53 66 40 67 41 68 46 69 42 70 43 71 45 72 47 73 44 74 66 75
REMARK SMILES IDX 67 76 72 77 68 78 69 79 71 80 73 81 70 82 54 83 55 84 60 85
REMARK SMILES IDX 56 86 57 87 59 88 61 89 58 90
REMARK H PARENT 9 20 78 52 52 63
REMARK Flexibility Score: inf
ROOT
ATOM      1  O   UNL A   1      34.096  28.800  25.307  1.00  0.00    -0.377 OA
ENDROOT
BRANCH   1   2
ATOM      2  C   UNL A   1      33.939  28.219  24.021  1.00  0.00     0.188 C 
BRANCH   2   3
ATOM      3  C   UNL A   1      32.726  27.300  23.755  1.00  0.00     0.188 C 
BRANCH   3   4
ATOM      4  O   UNL A   1      31.664  27.934  23.058  1.00  0.00    -0.376 OA
BRANCH   4   5
ATOM      5  C   UNL A   1      30.490  27.201  22.773  1.00  0.00     0.202 C 
BRANCH   5   6
ATOM      6  C   UNL A   1      29.691  26.731  23.987  1.00  0.00     0.261 C 
BRANCH   6   7
ATOM      7  O   UNL A   1      29.920  25.371  24.362  1.00  0.00    -0.460 OA
BRANCH   7   8
ATOM      8  C   UNL A   1      30.405  25.100  25.595  1.00  0.00     0.338 C 
ATOM      9  O   UNL A   1      30.024  25.534  26.665  1.00  0.00    -0.246 OA
BRANCH   8  10
ATOM     10  C   UNL A   1      31.390  24.020  25.402  1.00  0.00     0.063 A 
ATOM     11  C   UNL A   1      33.415  22.053  25.150  1.00  0.00     0.077 A 
ATOM     12  C   UNL A   1      32.758  22.578  24.018  1.00  0.00     0.030 A 
ATOM     13  C   UNL A   1      33.049  22.600  26.388  1.00  0.00     0.147 A 
ATOM     14  C   UNL A   1      31.742  23.544  24.138  1.00  0.00     0.018 A 
ATOM     15  C   UNL A   1      32.057  23.552  26.519  1.00  0.00     0.057 A 
ATOM     16  F   UNL A   1      33.617  22.300  27.552  1.00  0.00    -0.205 F 
BRANCH  11  17
ATOM     17  N   UNL A   1      34.340  21.007  24.888  1.00  0.00    -0.323 N 
ATOM     18  C   UNL A   1      35.680  20.821  25.117  1.00  0.00     0.230 C 
ATOM     19  O   UNL A   1      36.161  19.711  24.878  1.00  0.00    -0.274 OA
ATOM     20  H   UNL A   1      33.922  20.236  24.439  1.00  0.00     0.170 HD
BRANCH  18  21
ATOM     21  C   UNL A   1      36.528  21.942  25.636  1.00  0.00     0.110 C 
ATOM     22  C   UNL A   1      36.651  22.886  23.229  1.00  0.00     0.039 C 
ATOM     23  C   UNL A   1      36.510  23.175  24.723  1.00  0.00     0.127 C 
ATOM     24  O   UNL A   1      37.649  23.968  25.125  1.00  0.00    -0.378 OA
ATOM     25  C   UNL A   1      38.387  23.210  26.096  1.00  0.00     0.161 C 
ATOM     26  C   UNL A   1      38.011  21.757  25.854  1.00  0.00     0.044 C 
ENDBRANCH  18  21
ENDBRANCH  11  17
ENDBRANCH   8  10
ENDBRANCH   7   8
ENDBRANCH   6   7
ENDBRANCH   5   6
ENDBRANCH   4   5
ENDBRANCH   3   4
ENDBRANCH   2   3
ENDBRANCH   1   2
BRANCH   1  27
ATOM     27  C   UNL A   1      33.100  29.679  25.824  1.00  0.00     0.188 C 
BRANCH  27  28
ATOM     28  C   UNL A   1      33.240  30.343  27.215  1.00  0.00     0.188 C 
BRANCH  28  29
ATOM     29  O   UNL A   1      33.991  31.544  27.216  1.00  0.00    -0.376 OA
BRANCH  29  30
ATOM     30  C   UNL A   1      33.690  32.507  28.207  1.00  0.00     0.202 C 
BRANCH  30  31
ATOM     31  C   UNL A   1      34.603  32.487  29.436  1.00  0.00     0.261 C 
BRANCH  31  32
ATOM     32  O   UNL A   1      35.774  31.664  29.326  1.00  0.00    -0.460 OA
BRANCH  32  33
ATOM     33  C   UNL A   1      36.357  31.259  30.477  1.00  0.00     0.338 C 
ATOM     34  O   UNL A   1      35.908  31.339  31.604  1.00  0.00    -0.246 OA
BRANCH  33  35
ATOM     35  C   UNL A   1      37.575  30.513  30.105  1.00  0.00     0.060 A 
ATOM     36  C   UNL A   1      38.322  29.869  31.100  1.00  0.00     0.016 A 
ATOM     37  C   UNL A   1      37.955  30.432  28.764  1.00  0.00     0.016 A 
ATOM     38  C   UNL A   1      39.470  29.155  30.755  1.00  0.00     0.010 A 
ATOM     39  C   UNL A   1      39.117  29.740  28.424  1.00  0.00     0.010 A 
ATOM     40  C   UNL A   1      39.892  29.124  29.420  1.00  0.00    -0.014 A 
BRANCH  40  41
ATOM     41  C   UNL A   1      41.240  28.614  29.080  1.00  0.00     0.031 A 
ATOM     42  C   UNL A   1      42.398  29.565  29.158  1.00  0.00     0.074 A 
ATOM     43  C   UNL A   1      41.433  27.337  28.713  1.00  0.00     0.049 A 
ATOM     44  N   UNL A   1      43.654  29.373  28.847  1.00  0.00    -0.248 NA
ATOM     45  C   UNL A   1      42.098  30.918  29.653  1.00  0.00     0.031 C 
ATOM     46  C   UNL A   1      40.396  26.311  28.650  1.00  0.00     0.029 A 
ATOM     47  N   UNL A   1      42.577  26.692  28.316  1.00  0.00    -0.354 N 
ATOM     48  C   UNL A   1      44.292  30.578  29.108  1.00  0.00     0.074 A 
ATOM     49  C   UNL A   1      43.280  31.506  29.563  1.00  0.00     0.031 C 
ATOM     50  C   UNL A   1      40.951  25.160  28.233  1.00  0.00     0.029 A 
ATOM     51  C   UNL A   1      42.373  25.382  27.964  1.00  0.00     0.049 A 
ATOM     52  H   UNL A   1      43.459  27.128  28.287  1.00  0.00     0.167 HD
ATOM     53  C   UNL A   1      45.605  30.879  28.991  1.00  0.00     0.037 A 
ATOM     54  C   UNL A   1      43.232  24.472  27.464  1.00  0.00     0.037 A 
ATOM     55  C   UNL A   1      46.603  29.956  28.519  1.00  0.00     0.049 A 
ATOM     56  C   UNL A   1      44.669  24.857  27.235  1.00  0.00     0.074 A 
ATOM     57  C   UNL A   1      47.962  30.163  28.365  1.00  0.00     0.029 A 
ATOM     58  N   UNL A   1      46.346  28.655  28.111  1.00  0.00    -0.354 N 
ATOM     59  N   UNL A   1      45.270  25.994  27.490  1.00  0.00    -0.248 NA
ATOM     60  C   UNL A   1      45.546  23.835  26.643  1.00  0.00     0.031 C 
ATOM     61  C   UNL A   1      48.517  29.008  27.808  1.00  0.00     0.029 A 
ATOM     62  C   UNL A   1      47.516  28.057  27.674  1.00  0.00     0.049 A 
ATOM     63  H   UNL A   1      45.463  28.220  28.131  1.00  0.00     0.167 HD
ATOM     64  C   UNL A   1      46.597  25.821  27.112  1.00  0.00     0.074 A 
ATOM     65  C   UNL A   1      46.714  24.466  26.616  1.00  0.00     0.031 C 
ATOM     66  C   UNL A   1      47.622  26.707  27.176  1.00  0.00     0.037 A 
BRANCH  53  67
ATOM     67  C   UNL A   1      46.025  32.274  29.354  1.00  0.00     0.057 A 
ATOM     68  C   UNL A   1      46.030  33.291  28.392  1.00  0.00     0.134 A 
ATOM     69  C   UNL A   1      46.438  32.609  30.651  1.00  0.00     0.134 A 
ATOM     70  F   UNL A   1      45.650  33.040  27.130  1.00  0.00    -0.206 F 
ATOM     71  C   UNL A   1      46.433  34.591  28.706  1.00  0.00     0.040 A 
ATOM     72  C   UNL A   1      46.812  33.913  30.984  1.00  0.00     0.040 A 
ATOM     73  F   UNL A   1      46.439  31.686  31.624  1.00  0.00    -0.206 F 
ATOM     74  C   UNL A   1      46.816  34.906  30.007  1.00  0.00     0.006 A 
ENDBRANCH  53  67
BRANCH  54  75
ATOM     75  C   UNL A   1      42.742  23.105  27.162  1.00  0.00     0.057 A 
ATOM     76  C   UNL A   1      42.574  22.148  28.171  1.00  0.00     0.134 A 
ATOM     77  C   UNL A   1      42.489  22.706  25.845  1.00  0.00     0.134 A 
ATOM     78  F   UNL A   1      42.799  22.469  29.453  1.00  0.00    -0.206 F 
ATOM     79  C   UNL A   1      42.209  20.833  27.877  1.00  0.00     0.040 A 
ATOM     80  C   UNL A   1      42.103  21.400  25.539  1.00  0.00     0.040 A 
ATOM     81  F   UNL A   1      42.611  23.585  24.839  1.00  0.00    -0.206 F 
ATOM     82  C   UNL A   1      41.974  20.456  26.556  1.00  0.00     0.006 A 
ENDBRANCH  54  75
BRANCH  66  83
ATOM     83  C   UNL A   1      48.976  26.250  26.714  1.00  0.00     0.057 A 
ATOM     84  C   UNL A   1      49.858  25.620  27.603  1.00  0.00     0.134 A 
ATOM     85  C   UNL A   1      49.447  26.523  25.424  1.00  0.00     0.134 A 
ATOM     86  F   UNL A   1      49.476  25.341  28.858  1.00  0.00    -0.206 F 
ATOM     87  C   UNL A   1      51.164  25.299  27.232  1.00  0.00     0.040 A 
ATOM     88  C   UNL A   1      50.743  26.182  25.032  1.00  0.00     0.040 A 
ATOM     89  F   UNL A   1      48.651  27.117  24.521  1.00  0.00    -0.206 F 
ATOM     90  C   UNL A   1      51.611  25.580  25.942  1.00  0.00     0.006 A 
ENDBRANCH  66  83
ENDBRANCH  40  41
ENDBRANCH  33  35
ENDBRANCH  32  33
ENDBRANCH  31  32
ENDBRANCH  30  31
ENDBRANCH  29  30
ENDBRANCH  28  29
ENDBRANCH  27  28
ENDBRANCH   1  27
TORSDOF 22
ENDMDL
