MODEL 1
REMARK VINA RESULT:      -7.8      0.000      0.000
REMARK SMILES O=C(OCCOCCOCCOCCOC(=O)c1cc([N+](=O)[O-])c(NCCC2=CCCCC2)c([N+](=O)[O-])c1)c1ccc(-c2c3nc(c(-c4c(F)cccc4F)c4ccc([nH]4)c(-c4c(F)cccc4F)c4nc(c(-c5c(F)cccc5F)c5ccc2[nH]5)C=C4)C=C3)cc1
REMARK SMILES IDX 10 1 9 2 8 3 7 4 6 5 5 6 4 7 3 8 2 9 1 10 39 11 40 12 92 13
REMARK SMILES IDX 41 14 91 15 42 16 43 17 44 18 85 19 45 20 90 21 84 22 86 23
REMARK SMILES IDX 46 24 89 25 83 26 82 27 47 29 73 30 56 31 72 32 57 33 60 34
REMARK SMILES IDX 71 35 87 36 58 37 59 38 70 40 88 41 61 42 48 43 49 44 54 45
REMARK SMILES IDX 50 46 51 47 53 48 55 49 52 50 74 51 75 52 80 53 76 54 77 55
REMARK SMILES IDX 79 56 81 57 78 58 62 59 63 60 68 61 64 62 65 63 67 64 69 65
REMARK SMILES IDX 66 66 11 67 12 68 13 69 14 70 15 71 16 72 17 73 18 74 19 75
REMARK SMILES IDX 38 76 20 77 34 78 24 79 21 80 22 81 23 82 35 83 36 84 37 85
REMARK SMILES IDX 25 86 26 88 27 89 28 90 29 91 33 92 30 93 32 94 31 95
REMARK H PARENT 86 28 60 39 25 87
REMARK Flexibility Score: inf
ROOT
ATOM      1  C   UNL A   1      46.385  19.503  24.877  1.00  0.00     0.188 C 
ENDROOT
BRANCH   1   2
ATOM      2  O   UNL A   1      46.781  20.852  24.658  1.00  0.00    -0.377 OA
BRANCH   2   3
ATOM      3  C   UNL A   1      45.779  21.739  24.163  1.00  0.00     0.188 C 
BRANCH   3   4
ATOM      4  C   UNL A   1      46.043  23.236  24.346  1.00  0.00     0.188 C 
BRANCH   4   5
ATOM      5  O   UNL A   1      44.855  24.018  24.251  1.00  0.00    -0.376 OA
BRANCH   5   6
ATOM      6  C   UNL A   1      44.447  24.738  25.413  1.00  0.00     0.202 C 
BRANCH   6   7
ATOM      7  C   UNL A   1      45.537  25.532  26.130  1.00  0.00     0.261 C 
BRANCH   7   8
ATOM      8  O   UNL A   1      45.071  26.714  26.792  1.00  0.00    -0.460 OA
BRANCH   8   9
ATOM      9  C   UNL A   1      44.964  27.979  26.328  1.00  0.00     0.338 C 
ATOM     10  O   UNL A   1      45.226  28.178  25.140  1.00  0.00    -0.246 OA
BRANCH   9  11
ATOM     11  C   UNL A   1      44.568  29.166  27.145  1.00  0.00     0.060 A 
ATOM     12  C   UNL A   1      43.546  30.070  26.849  1.00  0.00     0.016 A 
ATOM     13  C   UNL A   1      45.239  29.320  28.370  1.00  0.00     0.016 A 
ATOM     14  C   UNL A   1      43.206  31.105  27.705  1.00  0.00     0.010 A 
ATOM     15  C   UNL A   1      44.922  30.366  29.236  1.00  0.00     0.010 A 
ATOM     16  C   UNL A   1      43.922  31.275  28.879  1.00  0.00    -0.014 A 
BRANCH  16  17
ATOM     17  C   UNL A   1      43.797  32.564  29.566  1.00  0.00     0.031 A 
ATOM     18  C   UNL A   1      44.582  33.700  28.997  1.00  0.00     0.074 A 
ATOM     19  C   UNL A   1      42.929  32.718  30.574  1.00  0.00     0.049 A 
ATOM     20  N   UNL A   1      44.816  34.880  29.492  1.00  0.00    -0.248 NA
ATOM     21  C   UNL A   1      45.198  33.463  27.677  1.00  0.00     0.031 C 
ATOM     22  C   UNL A   1      41.998  31.695  31.054  1.00  0.00     0.029 A 
ATOM     23  N   UNL A   1      42.692  33.798  31.376  1.00  0.00    -0.354 N 
ATOM     24  C   UNL A   1      45.654  35.502  28.576  1.00  0.00     0.074 A 
ATOM     25  C   UNL A   1      45.882  34.577  27.492  1.00  0.00     0.031 C 
ATOM     26  C   UNL A   1      41.306  32.192  32.092  1.00  0.00     0.029 A 
ATOM     27  C   UNL A   1      41.810  33.527  32.392  1.00  0.00     0.049 A 
ATOM     28  H   UNL A   1      43.109  34.679  31.240  1.00  0.00     0.167 HD
ATOM     29  C   UNL A   1      46.197  36.736  28.665  1.00  0.00     0.037 A 
ATOM     30  C   UNL A   1      41.515  34.264  33.478  1.00  0.00     0.037 A 
ATOM     31  C   UNL A   1      45.935  37.605  29.778  1.00  0.00     0.049 A 
ATOM     32  C   UNL A   1      42.210  35.590  33.624  1.00  0.00     0.074 A 
ATOM     33  C   UNL A   1      46.450  38.857  30.047  1.00  0.00     0.029 A 
ATOM     34  N   UNL A   1      45.068  37.288  30.820  1.00  0.00    -0.354 N 
ATOM     35  N   UNL A   1      43.079  36.157  32.817  1.00  0.00    -0.248 NA
ATOM     36  C   UNL A   1      41.907  36.372  34.826  1.00  0.00     0.031 C 
ATOM     37  C   UNL A   1      45.941  39.268  31.283  1.00  0.00     0.029 A 
ATOM     38  C   UNL A   1      45.050  38.309  31.748  1.00  0.00     0.049 A 
ATOM     39  H   UNL A   1      44.545  36.457  30.885  1.00  0.00     0.167 HD
ATOM     40  C   UNL A   1      43.404  37.375  33.393  1.00  0.00     0.074 A 
ATOM     41  C   UNL A   1      42.639  37.461  34.624  1.00  0.00     0.031 C 
ATOM     42  C   UNL A   1      44.247  38.342  32.949  1.00  0.00     0.037 A 
BRANCH  29  43
ATOM     43  C   UNL A   1      47.190  37.117  27.606  1.00  0.00     0.057 A 
ATOM     44  C   UNL A   1      46.821  37.767  26.419  1.00  0.00     0.134 A 
ATOM     45  C   UNL A   1      48.531  36.732  27.734  1.00  0.00     0.134 A 
ATOM     46  F   UNL A   1      45.546  38.133  26.212  1.00  0.00    -0.206 F 
ATOM     47  C   UNL A   1      47.735  37.973  25.382  1.00  0.00     0.040 A 
ATOM     48  C   UNL A   1      49.462  36.962  26.719  1.00  0.00     0.040 A 
ATOM     49  F   UNL A   1      48.955  36.097  28.837  1.00  0.00    -0.206 F 
ATOM     50  C   UNL A   1      49.060  37.569  25.531  1.00  0.00     0.006 A 
ENDBRANCH  29  43
BRANCH  30  51
ATOM     51  C   UNL A   1      40.590  33.725  34.506  1.00  0.00     0.057 A 
ATOM     52  C   UNL A   1      41.050  32.925  35.556  1.00  0.00     0.134 A 
ATOM     53  C   UNL A   1      39.223  34.043  34.494  1.00  0.00     0.134 A 
ATOM     54  F   UNL A   1      42.343  32.575  35.621  1.00  0.00    -0.206 F 
ATOM     55  C   UNL A   1      40.188  32.461  36.554  1.00  0.00     0.040 A 
ATOM     56  C   UNL A   1      38.357  33.608  35.498  1.00  0.00     0.040 A 
ATOM     57  F   UNL A   1      38.717  34.814  33.520  1.00  0.00    -0.206 F 
ATOM     58  C   UNL A   1      38.839  32.810  36.532  1.00  0.00     0.006 A 
ENDBRANCH  30  51
BRANCH  42  59
ATOM     59  C   UNL A   1      44.332  39.597  33.762  1.00  0.00     0.057 A 
ATOM     60  C   UNL A   1      45.257  39.749  34.798  1.00  0.00     0.134 A 
ATOM     61  C   UNL A   1      43.545  40.704  33.416  1.00  0.00     0.134 A 
ATOM     62  F   UNL A   1      46.029  38.721  35.180  1.00  0.00    -0.206 F 
ATOM     63  C   UNL A   1      45.397  40.964  35.468  1.00  0.00     0.040 A 
ATOM     64  C   UNL A   1      43.697  41.930  34.057  1.00  0.00     0.040 A 
ATOM     65  F   UNL A   1      42.650  40.618  32.420  1.00  0.00    -0.206 F 
ATOM     66  C   UNL A   1      44.625  42.062  35.087  1.00  0.00     0.006 A 
ENDBRANCH  42  59
ENDBRANCH  16  17
ENDBRANCH   9  11
ENDBRANCH   8   9
ENDBRANCH   7   8
ENDBRANCH   6   7
ENDBRANCH   5   6
ENDBRANCH   4   5
ENDBRANCH   3   4
ENDBRANCH   2   3
ENDBRANCH   1   2
BRANCH   1  67
ATOM     67  C   UNL A   1      45.090  18.985  24.208  1.00  0.00     0.188 C 
BRANCH  67  68
ATOM     68  O   UNL A   1      44.341  18.087  25.008  1.00  0.00    -0.376 OA
BRANCH  68  69
ATOM     69  C   UNL A   1      43.294  18.651  25.787  1.00  0.00     0.202 C 
BRANCH  69  70
ATOM     70  C   UNL A   1      43.076  20.179  25.754  1.00  0.00     0.261 C 
BRANCH  70  71
ATOM     71  O   UNL A   1      41.717  20.651  25.870  1.00  0.00    -0.460 OA
BRANCH  71  72
ATOM     72  C   UNL A   1      41.194  20.810  27.102  1.00  0.00     0.338 C 
ATOM     73  O   UNL A   1      40.778  19.931  27.843  1.00  0.00    -0.246 OA
BRANCH  72  74
ATOM     74  C   UNL A   1      41.459  22.203  27.545  1.00  0.00     0.073 A 
ATOM     75  C   UNL A   1      42.434  22.406  28.518  1.00  0.00     0.104 A 
ATOM     76  C   UNL A   1      40.857  23.309  26.955  1.00  0.00     0.104 A 
ATOM     77  C   UNL A   1      42.849  23.715  28.845  1.00  0.00     0.300 A 
ATOM     78  C   UNL A   1      41.228  24.621  27.363  1.00  0.00     0.300 A 
ATOM     79  C   UNL A   1      42.271  24.885  28.308  1.00  0.00     0.192 A 
BRANCH  77  80
ATOM     80  N   UNL A   1      43.981  23.753  29.742  1.00  0.00     0.065 N 
ATOM     81  O   UNL A   1      43.767  23.426  30.918  1.00  0.00    -0.258 OA
ATOM     82  O   UNL A   1      45.052  24.168  29.285  1.00  0.00    -0.258 OA
ENDBRANCH  77  80
BRANCH  78  83
ATOM     83  N   UNL A   1      40.439  25.726  26.778  1.00  0.00     0.065 N 
ATOM     84  O   UNL A   1      40.784  26.167  25.671  1.00  0.00    -0.258 OA
ATOM     85  O   UNL A   1      39.503  26.181  27.449  1.00  0.00    -0.258 OA
ENDBRANCH  78  83
BRANCH  79  86
ATOM     86  N   UNL A   1      42.702  26.188  28.532  1.00  0.00    -0.374 N 
ATOM     87  H   UNL A   1      43.176  26.604  27.776  1.00  0.00     0.161 HD
BRANCH  86  88
ATOM     88  C   UNL A   1      42.563  27.040  29.715  1.00  0.00     0.118 C 
BRANCH  88  89
ATOM     89  C   UNL A   1      41.678  28.271  29.437  1.00  0.00     0.052 C 
BRANCH  89  90
ATOM     90  C   UNL A   1      40.419  28.396  30.267  1.00  0.00    -0.072 C 
ATOM     91  C   UNL A   1      39.228  28.637  29.687  1.00  0.00    -0.028 C 
ATOM     92  C   UNL A   1      40.563  28.289  31.767  1.00  0.00     0.031 C 
ATOM     93  C   UNL A   1      37.951  28.843  30.448  1.00  0.00     0.027 C 
ATOM     94  C   UNL A   1      39.225  28.149  32.500  1.00  0.00     0.005 C 
ATOM     95  C   UNL A   1      38.181  29.104  31.937  1.00  0.00     0.004 C 
ENDBRANCH  89  90
ENDBRANCH  88  89
ENDBRANCH  86  88
ENDBRANCH  79  86
ENDBRANCH  72  74
ENDBRANCH  71  72
ENDBRANCH  70  71
ENDBRANCH  69  70
ENDBRANCH  68  69
ENDBRANCH  67  68
ENDBRANCH   1  67
TORSDOF 26
ENDMDL
MODEL 2
REMARK VINA RESULT:      -7.8      6.634     10.196
REMARK SMILES O=C(OCCOCCOCCOCCOC(=O)c1cc([N+](=O)[O-])c(NCCC2=CCCCC2)c([N+](=O)[O-])c1)c1ccc(-c2c3nc(c(-c4c(F)cccc4F)c4ccc([nH]4)c(-c4c(F)cccc4F)c4nc(c(-c5c(F)cccc5F)c5ccc2[nH]5)C=C4)C=C3)cc1
REMARK SMILES IDX 10 1 9 2 8 3 7 4 6 5 5 6 4 7 3 8 2 9 1 10 39 11 40 12 92 13
REMARK SMILES IDX 41 14 91 15 42 16 43 17 44 18 85 19 45 20 90 21 84 22 86 23
REMARK SMILES IDX 46 24 89 25 83 26 82 27 47 29 73 30 56 31 72 32 57 33 60 34
REMARK SMILES IDX 71 35 87 36 58 37 59 38 70 40 88 41 61 42 48 43 49 44 54 45
REMARK SMILES IDX 50 46 51 47 53 48 55 49 52 50 74 51 75 52 80 53 76 54 77 55
REMARK SMILES IDX 79 56 81 57 78 58 62 59 63 60 68 61 64 62 65 63 67 64 69 65
REMARK SMILES IDX 66 66 11 67 12 68 13 69 14 70 15 71 16 72 17 73 18 74 19 75
REMARK SMILES IDX 38 76 20 77 34 78 24 79 21 80 22 81 23 82 35 83 36 84 37 85
REMARK SMILES IDX 25 86 26 88 27 89 28 90 29 91 33 92 30 93 32 94 31 95
REMARK H PARENT 86 28 60 39 25 87
REMARK Flexibility Score: inf
ROOT
ATOM      1  C   UNL A   1      35.662  21.549  25.678  1.00  0.00     0.188 C 
ENDROOT
BRANCH   1   2
ATOM      2  O   UNL A   1      35.995  22.911  25.917  1.00  0.00    -0.377 OA
BRANCH   2   3
ATOM      3  C   UNL A   1      37.322  23.314  25.579  1.00  0.00     0.188 C 
BRANCH   3   4
ATOM      4  C   UNL A   1      38.455  22.413  26.075  1.00  0.00     0.188 C 
BRANCH   4   5
ATOM      5  O   UNL A   1      39.708  23.090  26.135  1.00  0.00    -0.376 OA
BRANCH   5   6
ATOM      6  C   UNL A   1      40.859  22.317  26.472  1.00  0.00     0.202 C 
BRANCH   6   7
ATOM      7  C   UNL A   1      41.555  22.683  27.782  1.00  0.00     0.261 C 
BRANCH   7   8
ATOM      8  O   UNL A   1      42.776  23.415  27.620  1.00  0.00    -0.460 OA
BRANCH   8   9
ATOM      9  C   UNL A   1      43.425  24.217  28.494  1.00  0.00     0.338 C 
ATOM     10  O   UNL A   1      43.184  24.071  29.693  1.00  0.00    -0.246 OA
BRANCH   9  11
ATOM     11  C   UNL A   1      44.404  25.283  28.121  1.00  0.00     0.060 A 
ATOM     12  C   UNL A   1      45.309  25.911  28.979  1.00  0.00     0.016 A 
ATOM     13  C   UNL A   1      44.468  25.608  26.756  1.00  0.00     0.016 A 
ATOM     14  C   UNL A   1      46.227  26.844  28.526  1.00  0.00     0.010 A 
ATOM     15  C   UNL A   1      45.374  26.558  26.285  1.00  0.00     0.010 A 
ATOM     16  C   UNL A   1      46.231  27.196  27.186  1.00  0.00    -0.014 A 
BRANCH  16  17
ATOM     17  C   UNL A   1      46.937  28.424  26.811  1.00  0.00     0.031 A 
ATOM     18  C   UNL A   1      48.371  28.274  26.423  1.00  0.00     0.074 A 
ATOM     19  C   UNL A   1      46.281  29.588  26.717  1.00  0.00     0.049 A 
ATOM     20  N   UNL A   1      49.282  29.184  26.233  1.00  0.00    -0.248 NA
ATOM     21  C   UNL A   1      48.846  26.891  26.224  1.00  0.00     0.031 C 
ATOM     22  C   UNL A   1      44.839  29.763  26.903  1.00  0.00     0.029 A 
ATOM     23  N   UNL A   1      46.744  30.842  26.440  1.00  0.00    -0.354 N 
ATOM     24  C   UNL A   1      50.448  28.483  25.956  1.00  0.00     0.074 A 
ATOM     25  C   UNL A   1      50.132  27.076  25.991  1.00  0.00     0.031 C 
ATOM     26  C   UNL A   1      44.540  31.065  26.761  1.00  0.00     0.029 A 
ATOM     27  C   UNL A   1      45.778  31.809  26.562  1.00  0.00     0.049 A 
ATOM     28  H   UNL A   1      47.674  31.034  26.180  1.00  0.00     0.167 HD
ATOM     29  C   UNL A   1      51.677  28.993  25.719  1.00  0.00     0.037 A 
ATOM     30  C   UNL A   1      45.915  33.147  26.581  1.00  0.00     0.037 A 
ATOM     31  C   UNL A   1      51.925  30.407  25.706  1.00  0.00     0.049 A 
ATOM     32  C   UNL A   1      47.304  33.703  26.427  1.00  0.00     0.074 A 
ATOM     33  C   UNL A   1      53.117  31.081  25.540  1.00  0.00     0.029 A 
ATOM     34  N   UNL A   1      50.933  31.369  25.876  1.00  0.00    -0.354 N 
ATOM     35  N   UNL A   1      48.436  33.055  26.258  1.00  0.00    -0.248 NA
ATOM     36  C   UNL A   1      47.448  35.160  26.482  1.00  0.00     0.031 C 
ATOM     37  C   UNL A   1      52.853  32.449  25.672  1.00  0.00     0.029 A 
ATOM     38  C   UNL A   1      51.487  32.632  25.842  1.00  0.00     0.049 A 
ATOM     39  H   UNL A   1      49.976  31.175  26.001  1.00  0.00     0.167 HD
ATOM     40  C   UNL A   1      49.423  34.022  26.153  1.00  0.00     0.074 A 
ATOM     41  C   UNL A   1      48.753  35.304  26.284  1.00  0.00     0.031 C 
ATOM     42  C   UNL A   1      50.758  33.874  25.959  1.00  0.00     0.037 A 
BRANCH  29  43
ATOM     43  C   UNL A   1      52.804  28.010  25.589  1.00  0.00     0.057 A 
ATOM     44  C   UNL A   1      53.203  27.473  24.357  1.00  0.00     0.134 A 
ATOM     45  C   UNL A   1      53.436  27.517  26.738  1.00  0.00     0.134 A 
ATOM     46  F   UNL A   1      52.616  27.872  23.218  1.00  0.00    -0.206 F 
ATOM     47  C   UNL A   1      54.149  26.447  24.278  1.00  0.00     0.040 A 
ATOM     48  C   UNL A   1      54.407  26.516  26.669  1.00  0.00     0.040 A 
ATOM     49  F   UNL A   1      53.100  27.978  27.952  1.00  0.00    -0.206 F 
ATOM     50  C   UNL A   1      54.754  25.966  25.438  1.00  0.00     0.006 A 
ENDBRANCH  29  43
BRANCH  30  51
ATOM     51  C   UNL A   1      44.729  34.006  26.821  1.00  0.00     0.057 A 
ATOM     52  C   UNL A   1      43.968  34.514  25.764  1.00  0.00     0.134 A 
ATOM     53  C   UNL A   1      44.293  34.298  28.122  1.00  0.00     0.134 A 
ATOM     54  F   UNL A   1      44.337  34.281  24.495  1.00  0.00    -0.206 F 
ATOM     55  C   UNL A   1      42.821  35.279  25.989  1.00  0.00     0.040 A 
ATOM     56  C   UNL A   1      43.134  35.039  28.362  1.00  0.00     0.040 A 
ATOM     57  F   UNL A   1      44.970  33.835  29.183  1.00  0.00    -0.206 F 
ATOM     58  C   UNL A   1      42.395  35.536  27.291  1.00  0.00     0.006 A 
ENDBRANCH  30  51
BRANCH  42  59
ATOM     59  C   UNL A   1      51.567  35.126  25.808  1.00  0.00     0.057 A 
ATOM     60  C   UNL A   1      51.850  35.680  24.557  1.00  0.00     0.134 A 
ATOM     61  C   UNL A   1      51.966  35.838  26.947  1.00  0.00     0.134 A 
ATOM     62  F   UNL A   1      51.502  35.038  23.431  1.00  0.00    -0.206 F 
ATOM     63  C   UNL A   1      52.507  36.904  24.441  1.00  0.00     0.040 A 
ATOM     64  C   UNL A   1      52.596  37.075  26.845  1.00  0.00     0.040 A 
ATOM     65  F   UNL A   1      51.709  35.359  28.174  1.00  0.00    -0.206 F 
ATOM     66  C   UNL A   1      52.869  37.612  25.588  1.00  0.00     0.006 A 
ENDBRANCH  42  59
ENDBRANCH  16  17
ENDBRANCH   9  11
ENDBRANCH   8   9
ENDBRANCH   7   8
ENDBRANCH   6   7
ENDBRANCH   5   6
ENDBRANCH   4   5
ENDBRANCH   3   4
ENDBRANCH   2   3
ENDBRANCH   1   2
BRANCH   1  67
ATOM     67  C   UNL A   1      34.233  21.059  26.013  1.00  0.00     0.188 C 
BRANCH  67  68
ATOM     68  O   UNL A   1      33.528  20.524  24.907  1.00  0.00    -0.376 OA
BRANCH  68  69
ATOM     69  C   UNL A   1      32.280  21.131  24.596  1.00  0.00     0.202 C 
BRANCH  69  70
ATOM     70  C   UNL A   1      31.989  21.537  23.135  1.00  0.00     0.261 C 
BRANCH  70  71
ATOM     71  O   UNL A   1      31.970  22.950  22.838  1.00  0.00    -0.460 OA
BRANCH  71  72
ATOM     72  C   UNL A   1      33.144  23.605  22.751  1.00  0.00     0.338 C 
ATOM     73  O   UNL A   1      34.085  23.333  22.021  1.00  0.00    -0.246 OA
BRANCH  72  74
ATOM     74  C   UNL A   1      33.015  24.892  23.482  1.00  0.00     0.073 A 
ATOM     75  C   UNL A   1      33.622  26.019  22.935  1.00  0.00     0.104 A 
ATOM     76  C   UNL A   1      32.228  25.038  24.619  1.00  0.00     0.104 A 
ATOM     77  C   UNL A   1      33.383  27.295  23.490  1.00  0.00     0.300 A 
ATOM     78  C   UNL A   1      32.071  26.321  25.215  1.00  0.00     0.300 A 
ATOM     79  C   UNL A   1      32.617  27.520  24.654  1.00  0.00     0.192 A 
BRANCH  77  80
ATOM     80  N   UNL A   1      33.944  28.376  22.712  1.00  0.00     0.065 N 
ATOM     81  O   UNL A   1      34.280  28.106  21.550  1.00  0.00    -0.258 OA
ATOM     82  O   UNL A   1      34.104  29.461  23.283  1.00  0.00    -0.258 OA
ENDBRANCH  77  80
BRANCH  78  83
ATOM     83  N   UNL A   1      31.330  26.353  26.493  1.00  0.00     0.065 N 
ATOM     84  O   UNL A   1      30.187  25.872  26.518  1.00  0.00    -0.258 OA
ATOM     85  O   UNL A   1      31.877  26.901  27.460  1.00  0.00    -0.258 OA
ENDBRANCH  78  83
BRANCH  79  86
ATOM     86  N   UNL A   1      32.283  28.760  25.187  1.00  0.00    -0.374 N 
ATOM     87  H   UNL A   1      32.821  29.034  25.966  1.00  0.00     0.161 HD
BRANCH  86  88
ATOM     88  C   UNL A   1      31.259  29.722  24.777  1.00  0.00     0.118 C 
BRANCH  88  89
ATOM     89  C   UNL A   1      30.225  29.090  23.825  1.00  0.00     0.052 C 
BRANCH  89  90
ATOM     90  C   UNL A   1      29.328  30.049  23.072  1.00  0.00    -0.072 C 
ATOM     91  C   UNL A   1      28.950  29.795  21.805  1.00  0.00    -0.028 C 
ATOM     92  C   UNL A   1      28.920  31.320  23.781  1.00  0.00     0.031 C 
ATOM     93  C   UNL A   1      28.124  30.730  20.973  1.00  0.00     0.027 C 
ATOM     94  C   UNL A   1      27.806  32.087  23.064  1.00  0.00     0.005 C 
ATOM     95  C   UNL A   1      28.046  32.139  21.561  1.00  0.00     0.004 C 
ENDBRANCH  89  90
ENDBRANCH  88  89
ENDBRANCH  86  88
ENDBRANCH  79  86
ENDBRANCH  72  74
ENDBRANCH  71  72
ENDBRANCH  70  71
ENDBRANCH  69  70
ENDBRANCH  68  69
ENDBRANCH  67  68
ENDBRANCH   1  67
TORSDOF 26
ENDMDL
MODEL 3
REMARK VINA RESULT:      -7.8      5.782      9.503
REMARK SMILES O=C(OCCOCCOCCOCCOC(=O)c1cc([N+](=O)[O-])c(NCCC2=CCCCC2)c([N+](=O)[O-])c1)c1ccc(-c2c3nc(c(-c4c(F)cccc4F)c4ccc([nH]4)c(-c4c(F)cccc4F)c4nc(c(-c5c(F)cccc5F)c5ccc2[nH]5)C=C4)C=C3)cc1
REMARK SMILES IDX 10 1 9 2 8 3 7 4 6 5 5 6 4 7 3 8 2 9 1 10 39 11 40 12 92 13
REMARK SMILES IDX 41 14 91 15 42 16 43 17 44 18 85 19 45 20 90 21 84 22 86 23
REMARK SMILES IDX 46 24 89 25 83 26 82 27 47 29 73 30 56 31 72 32 57 33 60 34
REMARK SMILES IDX 71 35 87 36 58 37 59 38 70 40 88 41 61 42 48 43 49 44 54 45
REMARK SMILES IDX 50 46 51 47 53 48 55 49 52 50 74 51 75 52 80 53 76 54 77 55
REMARK SMILES IDX 79 56 81 57 78 58 62 59 63 60 68 61 64 62 65 63 67 64 69 65
REMARK SMILES IDX 66 66 11 67 12 68 13 69 14 70 15 71 16 72 17 73 18 74 19 75
REMARK SMILES IDX 38 76 20 77 34 78 24 79 21 80 22 81 23 82 35 83 36 84 37 85
REMARK SMILES IDX 25 86 26 88 27 89 28 90 29 91 33 92 30 93 32 94 31 95
REMARK H PARENT 86 28 60 39 25 87
REMARK Flexibility Score: inf
ROOT
ATOM      1  C   UNL A   1      35.650  21.323  25.471  1.00  0.00     0.188 C 
ENDROOT
BRANCH   1   2
ATOM      2  O   UNL A   1      36.027  22.692  25.558  1.00  0.00    -0.377 OA
BRANCH   2   3
ATOM      3  C   UNL A   1      37.399  22.994  25.307  1.00  0.00     0.188 C 
BRANCH   3   4
ATOM      4  C   UNL A   1      38.429  22.020  25.883  1.00  0.00     0.188 C 
BRANCH   4   5
ATOM      5  O   UNL A   1      39.573  22.682  26.416  1.00  0.00    -0.376 OA
BRANCH   5   6
ATOM      6  C   UNL A   1      40.825  22.002  26.335  1.00  0.00     0.202 C 
BRANCH   6   7
ATOM      7  C   UNL A   1      41.777  22.202  27.513  1.00  0.00     0.261 C 
BRANCH   7   8
ATOM      8  O   UNL A   1      42.738  23.248  27.326  1.00  0.00    -0.460 OA
BRANCH   8   9
ATOM      9  C   UNL A   1      43.344  24.038  28.241  1.00  0.00     0.338 C 
ATOM     10  O   UNL A   1      43.064  23.860  29.427  1.00  0.00    -0.246 OA
BRANCH   9  11
ATOM     11  C   UNL A   1      44.319  25.127  27.928  1.00  0.00     0.060 A 
ATOM     12  C   UNL A   1      45.117  25.812  28.845  1.00  0.00     0.016 A 
ATOM     13  C   UNL A   1      44.503  25.413  26.564  1.00  0.00     0.016 A 
ATOM     14  C   UNL A   1      46.044  26.763  28.452  1.00  0.00     0.010 A 
ATOM     15  C   UNL A   1      45.419  26.379  26.150  1.00  0.00     0.010 A 
ATOM     16  C   UNL A   1      46.165  27.074  27.107  1.00  0.00    -0.014 A 
BRANCH  16  17
ATOM     17  C   UNL A   1      46.863  28.315  26.761  1.00  0.00     0.031 A 
ATOM     18  C   UNL A   1      48.304  28.185  26.389  1.00  0.00     0.074 A 
ATOM     19  C   UNL A   1      46.196  29.474  26.675  1.00  0.00     0.049 A 
ATOM     20  N   UNL A   1      49.207  29.107  26.226  1.00  0.00    -0.248 NA
ATOM     21  C   UNL A   1      48.794  26.810  26.176  1.00  0.00     0.031 C 
ATOM     22  C   UNL A   1      44.751  29.632  26.845  1.00  0.00     0.029 A 
ATOM     23  N   UNL A   1      46.651  30.737  26.424  1.00  0.00    -0.354 N 
ATOM     24  C   UNL A   1      50.384  28.422  25.953  1.00  0.00     0.074 A 
ATOM     25  C   UNL A   1      50.082  27.011  25.962  1.00  0.00     0.031 C 
ATOM     26  C   UNL A   1      44.440  30.933  26.719  1.00  0.00     0.029 A 
ATOM     27  C   UNL A   1      45.674  31.692  26.547  1.00  0.00     0.049 A 
ATOM     28  H   UNL A   1      47.582  30.941  26.179  1.00  0.00     0.167 HD
ATOM     29  C   UNL A   1      51.611  28.947  25.740  1.00  0.00     0.037 A 
ATOM     30  C   UNL A   1      45.797  33.031  26.590  1.00  0.00     0.037 A 
ATOM     31  C   UNL A   1      51.845  30.364  25.752  1.00  0.00     0.049 A 
ATOM     32  C   UNL A   1      47.182  33.602  26.463  1.00  0.00     0.074 A 
ATOM     33  C   UNL A   1      53.032  31.052  25.612  1.00  0.00     0.029 A 
ATOM     34  N   UNL A   1      50.841  31.313  25.923  1.00  0.00    -0.354 N 
ATOM     35  N   UNL A   1      48.323  32.968  26.298  1.00  0.00    -0.248 NA
ATOM     36  C   UNL A   1      47.311  35.060  26.541  1.00  0.00     0.031 C 
ATOM     37  C   UNL A   1      52.753  32.415  25.762  1.00  0.00     0.029 A 
ATOM     38  C   UNL A   1      51.382  32.582  25.917  1.00  0.00     0.049 A 
ATOM     39  H   UNL A   1      49.884  31.108  26.033  1.00  0.00     0.167 HD
ATOM     40  C   UNL A   1      49.301  33.947  26.221  1.00  0.00     0.074 A 
ATOM     41  C   UNL A   1      48.617  35.219  26.363  1.00  0.00     0.031 C 
ATOM     42  C   UNL A   1      50.640  33.815  26.043  1.00  0.00     0.037 A 
BRANCH  29  43
ATOM     43  C   UNL A   1      52.750  27.978  25.610  1.00  0.00     0.057 A 
ATOM     44  C   UNL A   1      53.496  27.532  26.712  1.00  0.00     0.134 A 
ATOM     45  C   UNL A   1      53.170  27.560  24.341  1.00  0.00     0.134 A 
ATOM     46  F   UNL A   1      53.172  27.921  27.955  1.00  0.00    -0.206 F 
ATOM     47  C   UNL A   1      54.645  26.754  26.550  1.00  0.00     0.040 A 
ATOM     48  C   UNL A   1      54.297  26.754  24.169  1.00  0.00     0.040 A 
ATOM     49  F   UNL A   1      52.511  27.954  23.241  1.00  0.00    -0.206 F 
ATOM     50  C   UNL A   1      55.048  26.363  25.275  1.00  0.00     0.006 A 
ENDBRANCH  29  43
BRANCH  30  51
ATOM     51  C   UNL A   1      44.599  33.874  26.826  1.00  0.00     0.057 A 
ATOM     52  C   UNL A   1      44.181  34.206  28.118  1.00  0.00     0.134 A 
ATOM     53  C   UNL A   1      43.870  34.418  25.757  1.00  0.00     0.134 A 
ATOM     54  F   UNL A   1      44.828  33.710  29.184  1.00  0.00    -0.206 F 
ATOM     55  C   UNL A   1      43.085  35.043  28.341  1.00  0.00     0.040 A 
ATOM     56  C   UNL A   1      42.789  35.277  25.965  1.00  0.00     0.040 A 
ATOM     57  F   UNL A   1      44.221  34.149  24.491  1.00  0.00    -0.206 F 
ATOM     58  C   UNL A   1      42.391  35.589  27.262  1.00  0.00     0.006 A 
ENDBRANCH  30  51
BRANCH  42  59
ATOM     59  C   UNL A   1      51.438  35.077  25.922  1.00  0.00     0.057 A 
ATOM     60  C   UNL A   1      51.738  35.650  24.682  1.00  0.00     0.134 A 
ATOM     61  C   UNL A   1      51.810  35.779  27.076  1.00  0.00     0.134 A 
ATOM     62  F   UNL A   1      51.416  35.018  23.543  1.00  0.00    -0.206 F 
ATOM     63  C   UNL A   1      52.384  36.882  24.594  1.00  0.00     0.040 A 
ATOM     64  C   UNL A   1      52.428  37.023  27.001  1.00  0.00     0.040 A 
ATOM     65  F   UNL A   1      51.536  35.281  28.292  1.00  0.00    -0.206 F 
ATOM     66  C   UNL A   1      52.717  37.578  25.756  1.00  0.00     0.006 A 
ENDBRANCH  42  59
ENDBRANCH  16  17
ENDBRANCH   9  11
ENDBRANCH   8   9
ENDBRANCH   7   8
ENDBRANCH   6   7
ENDBRANCH   5   6
ENDBRANCH   4   5
ENDBRANCH   3   4
ENDBRANCH   2   3
ENDBRANCH   1   2
BRANCH   1  67
ATOM     67  C   UNL A   1      34.183  20.931  25.768  1.00  0.00     0.188 C 
BRANCH  67  68
ATOM     68  O   UNL A   1      33.550  20.213  24.725  1.00  0.00    -0.376 OA
BRANCH  68  69
ATOM     69  C   UNL A   1      32.363  20.784  24.189  1.00  0.00     0.202 C 
BRANCH  69  70
ATOM     70  C   UNL A   1      32.335  21.190  22.700  1.00  0.00     0.261 C 
BRANCH  70  71
ATOM     71  O   UNL A   1      32.521  22.589  22.396  1.00  0.00    -0.460 OA
BRANCH  71  72
ATOM     72  C   UNL A   1      33.664  23.186  22.788  1.00  0.00     0.338 C 
ATOM     73  O   UNL A   1      34.798  22.917  22.422  1.00  0.00    -0.246 OA
BRANCH  72  74
ATOM     74  C   UNL A   1      33.312  24.424  23.531  1.00  0.00     0.073 A 
ATOM     75  C   UNL A   1      33.779  25.639  23.037  1.00  0.00     0.104 A 
ATOM     76  C   UNL A   1      32.452  24.429  24.624  1.00  0.00     0.104 A 
ATOM     77  C   UNL A   1      33.329  26.854  23.597  1.00  0.00     0.300 A 
ATOM     78  C   UNL A   1      32.080  25.662  25.229  1.00  0.00     0.300 A 
ATOM     79  C   UNL A   1      32.477  26.940  24.719  1.00  0.00     0.192 A 
BRANCH  77  80
ATOM     80  N   UNL A   1      33.769  28.022  22.869  1.00  0.00     0.065 N 
ATOM     81  O   UNL A   1      33.875  27.901  21.640  1.00  0.00    -0.258 OA
ATOM     82  O   UNL A   1      34.067  29.023  23.531  1.00  0.00    -0.258 OA
ENDBRANCH  77  80
BRANCH  78  83
ATOM     83  N   UNL A   1      31.274  25.557  26.464  1.00  0.00     0.065 N 
ATOM     84  O   UNL A   1      31.584  24.687  27.291  1.00  0.00    -0.258 OA
ATOM     85  O   UNL A   1      30.303  26.318  26.582  1.00  0.00    -0.258 OA
ENDBRANCH  78  83
BRANCH  79  86
ATOM     86  N   UNL A   1      31.940  28.107  25.252  1.00  0.00    -0.374 N 
ATOM     87  H   UNL A   1      31.057  28.357  24.893  1.00  0.00     0.161 HD
BRANCH  86  88
ATOM     88  C   UNL A   1      32.477  29.023  26.259  1.00  0.00     0.118 C 
BRANCH  88  89
ATOM     89  C   UNL A   1      33.860  28.570  26.768  1.00  0.00     0.052 C 
BRANCH  89  90
ATOM     90  C   UNL A   1      34.733  29.641  27.386  1.00  0.00    -0.072 C 
ATOM     91  C   UNL A   1      35.956  29.345  27.867  1.00  0.00    -0.028 C 
ATOM     92  C   UNL A   1      34.158  31.035  27.484  1.00  0.00     0.031 C 
ATOM     93  C   UNL A   1      36.847  30.337  28.557  1.00  0.00     0.027 C 
ATOM     94  C   UNL A   1      35.195  32.097  27.860  1.00  0.00     0.005 C 
ATOM     95  C   UNL A   1      36.111  31.609  28.974  1.00  0.00     0.004 C 
ENDBRANCH  89  90
ENDBRANCH  88  89
ENDBRANCH  86  88
ENDBRANCH  79  86
ENDBRANCH  72  74
ENDBRANCH  71  72
ENDBRANCH  70  71
ENDBRANCH  69  70
ENDBRANCH  68  69
ENDBRANCH  67  68
ENDBRANCH   1  67
TORSDOF 26
ENDMDL
