MODEL 1
REMARK VINA RESULT:      -9.6      0.000      0.000
REMARK SMILES COc1cccc(CSc2nc3ccccc3c(=O)n2CCC(=O)OCCOCCOCCOCCOC(=O)c2ccc(-c3c4nc(c(-c5c(F)cccc5F)c5ccc([nH]5)c(-c5c(F)cccc5F)c5nc(c(-c6c(F)cccc6F)c6ccc3[nH]6)C=C5)C=C4)cc2)c1
REMARK SMILES IDX 29 1 28 2 27 3 26 4 25 5 23 6 24 7 22 8 21 9 20 10 10 11
REMARK SMILES IDX 11 12 12 13 18 14 13 15 17 16 19 17 14 18 16 19 15 20 9 21
REMARK SMILES IDX 8 22 7 23 3 24 4 25 94 26 5 27 6 28 2 29 1 30 30 31 31 32
REMARK SMILES IDX 32 33 33 34 34 35 35 36 36 37 37 38 38 39 39 40 40 41 41 42
REMARK SMILES IDX 93 43 42 44 92 45 43 46 44 47 45 48 86 49 46 50 91 51 85 52
REMARK SMILES IDX 87 53 47 54 90 55 84 56 83 57 48 59 74 60 57 61 73 62 58 63
REMARK SMILES IDX 61 64 72 65 88 66 59 67 60 68 71 70 89 71 62 72 49 73 50 74
REMARK SMILES IDX 55 75 51 76 52 77 54 78 56 79 53 80 75 81 76 82 81 83 77 84
REMARK SMILES IDX 78 85 80 86 82 87 79 88 63 89 64 90 69 91 65 92 66 93 68 94
REMARK SMILES IDX 70 95 67 96
REMARK H PARENT 87 58 61 69
REMARK Flexibility Score: inf
ROOT
ATOM      1  C   UNL A   1      36.815  23.360  25.586  1.00  0.00     0.188 C 
ENDROOT
BRANCH   1   2
ATOM      2  O   UNL A   1      35.879  24.390  25.833  1.00  0.00    -0.376 OA
BRANCH   2   3
ATOM      3  C   UNL A   1      34.815  24.554  24.888  1.00  0.00     0.202 C 
BRANCH   3   4
ATOM      4  C   UNL A   1      34.953  23.956  23.455  1.00  0.00     0.261 C 
BRANCH   4   5
ATOM      5  O   UNL A   1      33.808  24.025  22.547  1.00  0.00    -0.463 OA
BRANCH   5   6
ATOM      6  C   UNL A   1      33.317  25.257  22.206  1.00  0.00     0.307 C 
ATOM      7  O   UNL A   1      34.021  26.191  21.835  1.00  0.00    -0.252 OA
BRANCH   6   8
ATOM      8  C   UNL A   1      31.788  25.412  22.401  1.00  0.00     0.144 C 
BRANCH   8   9
ATOM      9  C   UNL A   1      31.053  26.742  22.748  1.00  0.00     0.140 C 
BRANCH   9  10
ATOM     10  N   UNL A   1      31.201  27.212  24.114  1.00  0.00    -0.286 N 
ATOM     11  C   UNL A   1      31.391  26.363  25.137  1.00  0.00     0.171 A 
ATOM     12  N   UNL A   1      32.262  26.586  26.067  1.00  0.00    -0.224 NA
ATOM     13  C   UNL A   1      32.750  27.898  26.129  1.00  0.00     0.079 A 
ATOM     14  C   UNL A   1      31.030  28.520  24.516  1.00  0.00     0.262 A 
ATOM     15  C   UNL A   1      33.896  28.216  26.850  1.00  0.00     0.029 A 
ATOM     16  C   UNL A   1      31.946  28.924  25.622  1.00  0.00     0.066 A 
ATOM     17  O   UNL A   1      30.237  29.305  24.014  1.00  0.00    -0.269 OA
ATOM     18  C   UNL A   1      34.161  29.552  27.156  1.00  0.00     0.002 A 
ATOM     19  C   UNL A   1      32.125  30.240  26.027  1.00  0.00     0.016 A 
ATOM     20  C   UNL A   1      33.240  30.550  26.808  1.00  0.00     0.001 A 
BRANCH  11  21
ATOM     21  S   UNL A   1      30.321  25.070  25.348  1.00  0.00    -0.083 SA
BRANCH  21  22
ATOM     22  C   UNL A   1      30.557  23.861  26.651  1.00  0.00     0.113 C 
BRANCH  22  23
ATOM     23  C   UNL A   1      31.690  22.920  26.380  1.00  0.00    -0.034 A 
ATOM     24  C   UNL A   1      32.664  21.218  24.968  1.00  0.00     0.119 A 
ATOM     25  C   UNL A   1      33.642  20.983  25.936  1.00  0.00     0.046 A 
ATOM     26  C   UNL A   1      31.688  22.181  25.200  1.00  0.00     0.051 A 
ATOM     27  C   UNL A   1      33.703  21.771  27.083  1.00  0.00     0.004 A 
ATOM     28  C   UNL A   1      32.747  22.758  27.285  1.00  0.00     0.005 A 
BRANCH  24  29
ATOM     29  O   UNL A   1      32.728  20.441  23.844  1.00  0.00    -0.497 OA
ATOM     30  C   UNL A   1      32.103  20.993  22.689  1.00  0.00     0.278 C 
ENDBRANCH  24  29
ENDBRANCH  22  23
ENDBRANCH  21  22
ENDBRANCH  11  21
ENDBRANCH   9  10
ENDBRANCH   8   9
ENDBRANCH   6   8
ENDBRANCH   5   6
ENDBRANCH   4   5
ENDBRANCH   3   4
ENDBRANCH   2   3
ENDBRANCH   1   2
BRANCH   1  31
ATOM     31  C   UNL A   1      38.287  23.529  26.007  1.00  0.00     0.188 C 
BRANCH  31  32
ATOM     32  O   UNL A   1      38.963  22.528  26.736  1.00  0.00    -0.377 OA
BRANCH  32  33
ATOM     33  C   UNL A   1      39.515  21.496  25.944  1.00  0.00     0.188 C 
BRANCH  33  34
ATOM     34  C   UNL A   1      40.835  20.865  26.437  1.00  0.00     0.188 C 
BRANCH  34  35
ATOM     35  O   UNL A   1      42.003  21.208  25.703  1.00  0.00    -0.376 OA
BRANCH  35  36
ATOM     36  C   UNL A   1      42.883  22.176  26.296  1.00  0.00     0.202 C 
BRANCH  36  37
ATOM     37  C   UNL A   1      42.827  23.667  25.866  1.00  0.00     0.261 C 
BRANCH  37  38
ATOM     38  O   UNL A   1      41.653  24.392  26.243  1.00  0.00    -0.460 OA
BRANCH  38  39
ATOM     39  C   UNL A   1      41.693  25.719  26.033  1.00  0.00     0.338 C 
ATOM     40  O   UNL A   1      41.385  26.315  25.007  1.00  0.00    -0.246 OA
BRANCH  39  41
ATOM     41  C   UNL A   1      41.949  26.382  27.318  1.00  0.00     0.060 A 
ATOM     42  C   UNL A   1      41.043  26.140  28.355  1.00  0.00     0.016 A 
ATOM     43  C   UNL A   1      43.015  27.272  27.487  1.00  0.00     0.016 A 
ATOM     44  C   UNL A   1      41.183  26.795  29.564  1.00  0.00     0.010 A 
ATOM     45  C   UNL A   1      43.122  27.981  28.688  1.00  0.00     0.010 A 
ATOM     46  C   UNL A   1      42.174  27.773  29.705  1.00  0.00    -0.014 A 
BRANCH  46  47
ATOM     47  C   UNL A   1      41.958  28.753  30.787  1.00  0.00     0.031 A 
ATOM     48  C   UNL A   1      40.780  29.679  30.644  1.00  0.00     0.074 A 
ATOM     49  C   UNL A   1      42.663  28.692  31.927  1.00  0.00     0.049 A 
ATOM     50  N   UNL A   1      40.267  30.514  31.508  1.00  0.00    -0.248 NA
ATOM     51  C   UNL A   1      40.068  29.636  29.354  1.00  0.00     0.031 C 
ATOM     52  C   UNL A   1      43.767  27.772  32.189  1.00  0.00     0.029 A 
ATOM     53  N   UNL A   1      42.528  29.406  33.088  1.00  0.00    -0.354 N 
ATOM     54  C   UNL A   1      39.170  31.082  30.872  1.00  0.00     0.074 A 
ATOM     55  C   UNL A   1      39.107  30.525  29.540  1.00  0.00     0.031 C 
ATOM     56  C   UNL A   1      44.212  27.978  33.441  1.00  0.00     0.029 A 
ATOM     57  C   UNL A   1      43.435  29.054  34.055  1.00  0.00     0.049 A 
ATOM     58  H   UNL A   1      41.846  30.104  33.217  1.00  0.00     0.167 HD
ATOM     59  C   UNL A   1      38.286  31.982  31.360  1.00  0.00     0.037 A 
ATOM     60  C   UNL A   1      43.612  29.557  35.290  1.00  0.00     0.037 A 
ATOM     61  C   UNL A   1      38.373  32.541  32.681  1.00  0.00     0.049 A 
ATOM     62  C   UNL A   1      42.673  30.630  35.778  1.00  0.00     0.074 A 
ATOM     63  C   UNL A   1      37.549  33.477  33.278  1.00  0.00     0.029 A 
ATOM     64  N   UNL A   1      39.358  32.222  33.605  1.00  0.00    -0.354 N 
ATOM     65  N   UNL A   1      41.632  31.159  35.177  1.00  0.00    -0.248 NA
ATOM     66  C   UNL A   1      42.924  31.169  37.121  1.00  0.00     0.031 C 
ATOM     67  C   UNL A   1      38.072  33.770  34.541  1.00  0.00     0.029 A 
ATOM     68  C   UNL A   1      39.180  32.965  34.759  1.00  0.00     0.049 A 
ATOM     69  H   UNL A   1      40.076  31.565  33.461  1.00  0.00     0.167 HD
ATOM     70  C   UNL A   1      41.089  32.068  36.077  1.00  0.00     0.074 A 
ATOM     71  C   UNL A   1      41.907  32.004  37.271  1.00  0.00     0.031 C 
ATOM     72  C   UNL A   1      40.012  32.880  35.933  1.00  0.00     0.037 A 
BRANCH  59  73
ATOM     73  C   UNL A   1      37.197  32.447  30.438  1.00  0.00     0.057 A 
ATOM     74  C   UNL A   1      37.410  33.434  29.466  1.00  0.00     0.134 A 
ATOM     75  C   UNL A   1      35.911  31.901  30.530  1.00  0.00     0.134 A 
ATOM     76  F   UNL A   1      38.612  34.017  29.339  1.00  0.00    -0.206 F 
ATOM     77  C   UNL A   1      36.377  33.877  28.636  1.00  0.00     0.040 A 
ATOM     78  C   UNL A   1      34.878  32.314  29.688  1.00  0.00     0.040 A 
ATOM     79  F   UNL A   1      35.637  30.956  31.442  1.00  0.00    -0.206 F 
ATOM     80  C   UNL A   1      35.108  33.311  28.742  1.00  0.00     0.006 A 
ENDBRANCH  59  73
BRANCH  60  81
ATOM     81  C   UNL A   1      44.726  29.068  36.143  1.00  0.00     0.057 A 
ATOM     82  C   UNL A   1      44.559  27.998  37.030  1.00  0.00     0.134 A 
ATOM     83  C   UNL A   1      45.987  29.678  36.103  1.00  0.00     0.134 A 
ATOM     84  F   UNL A   1      43.373  27.383  37.132  1.00  0.00    -0.206 F 
ATOM     85  C   UNL A   1      45.597  27.569  37.861  1.00  0.00     0.040 A 
ATOM     86  C   UNL A   1      47.039  29.241  36.907  1.00  0.00     0.040 A 
ATOM     87  F   UNL A   1      46.215  30.708  35.274  1.00  0.00    -0.206 F 
ATOM     88  C   UNL A   1      46.843  28.188  37.796  1.00  0.00     0.006 A 
ENDBRANCH  60  81
BRANCH  72  89
ATOM     89  C   UNL A   1      39.637  33.734  37.112  1.00  0.00     0.057 A 
ATOM     90  C   UNL A   1      40.101  35.047  37.258  1.00  0.00     0.134 A 
ATOM     91  C   UNL A   1      38.769  33.242  38.096  1.00  0.00     0.134 A 
ATOM     92  F   UNL A   1      40.940  35.576  36.354  1.00  0.00    -0.206 F 
ATOM     93  C   UNL A   1      39.744  35.827  38.358  1.00  0.00     0.040 A 
ATOM     94  C   UNL A   1      38.379  34.024  39.183  1.00  0.00     0.040 A 
ATOM     95  F   UNL A   1      38.275  31.997  38.010  1.00  0.00    -0.206 F 
ATOM     96  C   UNL A   1      38.875  35.318  39.321  1.00  0.00     0.006 A 
ENDBRANCH  72  89
ENDBRANCH  46  47
ENDBRANCH  39  41
ENDBRANCH  38  39
ENDBRANCH  37  38
ENDBRANCH  36  37
ENDBRANCH  35  36
ENDBRANCH  34  35
ENDBRANCH  33  34
ENDBRANCH  32  33
ENDBRANCH  31  32
ENDBRANCH   1  31
TORSDOF 26
ENDMDL
MODEL 2
REMARK VINA RESULT:      -9.5      2.009      6.615
REMARK SMILES COc1cccc(CSc2nc3ccccc3c(=O)n2CCC(=O)OCCOCCOCCOCCOC(=O)c2ccc(-c3c4nc(c(-c5c(F)cccc5F)c5ccc([nH]5)c(-c5c(F)cccc5F)c5nc(c(-c6c(F)cccc6F)c6ccc3[nH]6)C=C5)C=C4)cc2)c1
REMARK SMILES IDX 29 1 28 2 27 3 26 4 25 5 23 6 24 7 22 8 21 9 20 10 10 11
REMARK SMILES IDX 11 12 12 13 18 14 13 15 17 16 19 17 14 18 16 19 15 20 9 21
REMARK SMILES IDX 8 22 7 23 3 24 4 25 94 26 5 27 6 28 2 29 1 30 30 31 31 32
REMARK SMILES IDX 32 33 33 34 34 35 35 36 36 37 37 38 38 39 39 40 40 41 41 42
REMARK SMILES IDX 93 43 42 44 92 45 43 46 44 47 45 48 86 49 46 50 91 51 85 52
REMARK SMILES IDX 87 53 47 54 90 55 84 56 83 57 48 59 74 60 57 61 73 62 58 63
REMARK SMILES IDX 61 64 72 65 88 66 59 67 60 68 71 70 89 71 62 72 49 73 50 74
REMARK SMILES IDX 55 75 51 76 52 77 54 78 56 79 53 80 75 81 76 82 81 83 77 84
REMARK SMILES IDX 78 85 80 86 82 87 79 88 63 89 64 90 69 91 65 92 66 93 68 94
REMARK SMILES IDX 70 95 67 96
REMARK H PARENT 87 58 61 69
REMARK Flexibility Score: inf
ROOT
ATOM      1  C   UNL A   1      38.551  22.940  26.264  1.00  0.00     0.188 C 
ENDROOT
BRANCH   1   2
ATOM      2  O   UNL A   1      38.395  21.649  25.712  1.00  0.00    -0.376 OA
BRANCH   2   3
ATOM      3  C   UNL A   1      37.494  21.508  24.608  1.00  0.00     0.202 C 
BRANCH   3   4
ATOM      4  C   UNL A   1      35.962  21.693  24.831  1.00  0.00     0.261 C 
BRANCH   4   5
ATOM      5  O   UNL A   1      35.372  21.243  26.092  1.00  0.00    -0.463 OA
BRANCH   5   6
ATOM      6  C   UNL A   1      34.688  22.152  26.855  1.00  0.00     0.307 C 
ATOM      7  O   UNL A   1      34.312  21.932  28.001  1.00  0.00    -0.252 OA
BRANCH   6   8
ATOM      8  C   UNL A   1      34.348  23.474  26.122  1.00  0.00     0.144 C 
BRANCH   8   9
ATOM      9  C   UNL A   1      33.023  24.279  26.282  1.00  0.00     0.140 C 
BRANCH   9  10
ATOM     10  N   UNL A   1      32.431  24.780  25.054  1.00  0.00    -0.286 N 
ATOM     11  C   UNL A   1      31.584  24.039  24.323  1.00  0.00     0.171 A 
ATOM     12  N   UNL A   1      30.496  24.525  23.822  1.00  0.00    -0.224 NA
ATOM     13  C   UNL A   1      30.418  25.923  23.801  1.00  0.00     0.079 A 
ATOM     14  C   UNL A   1      32.767  25.975  24.453  1.00  0.00     0.262 A 
ATOM     15  C   UNL A   1      29.213  26.584  23.590  1.00  0.00     0.029 A 
ATOM     16  C   UNL A   1      31.614  26.649  23.789  1.00  0.00     0.066 A 
ATOM     17  O   UNL A   1      33.884  26.474  24.473  1.00  0.00    -0.269 OA
ATOM     18  C   UNL A   1      29.226  27.939  23.254  1.00  0.00     0.002 A 
ATOM     19  C   UNL A   1      31.652  27.959  23.329  1.00  0.00     0.016 A 
ATOM     20  C   UNL A   1      30.444  28.602  23.053  1.00  0.00     0.001 A 
BRANCH  11  21
ATOM     21  S   UNL A   1      32.045  22.480  23.854  1.00  0.00    -0.083 SA
BRANCH  21  22
ATOM     22  C   UNL A   1      32.005  21.105  25.004  1.00  0.00     0.113 C 
BRANCH  22  23
ATOM     23  C   UNL A   1      32.316  19.790  24.356  1.00  0.00    -0.034 A 
ATOM     24  C   UNL A   1      33.186  17.545  24.561  1.00  0.00     0.119 A 
ATOM     25  C   UNL A   1      33.138  17.406  23.173  1.00  0.00     0.046 A 
ATOM     26  C   UNL A   1      32.783  18.741  25.144  1.00  0.00     0.051 A 
ATOM     27  C   UNL A   1      32.598  18.416  22.382  1.00  0.00     0.004 A 
ATOM     28  C   UNL A   1      32.158  19.591  22.978  1.00  0.00     0.005 A 
BRANCH  24  29
ATOM     29  O   UNL A   1      33.668  16.472  25.259  1.00  0.00    -0.497 OA
ATOM     30  C   UNL A   1      32.688  15.517  25.656  1.00  0.00     0.278 C 
ENDBRANCH  24  29
ENDBRANCH  22  23
ENDBRANCH  21  22
ENDBRANCH  11  21
ENDBRANCH   9  10
ENDBRANCH   8   9
ENDBRANCH   6   8
ENDBRANCH   5   6
ENDBRANCH   4   5
ENDBRANCH   3   4
ENDBRANCH   2   3
ENDBRANCH   1   2
BRANCH   1  31
ATOM     31  C   UNL A   1      39.923  23.400  26.793  1.00  0.00     0.188 C 
BRANCH  31  32
ATOM     32  O   UNL A   1      41.073  22.595  26.655  1.00  0.00    -0.377 OA
BRANCH  32  33
ATOM     33  C   UNL A   1      42.066  23.131  25.804  1.00  0.00     0.188 C 
BRANCH  33  34
ATOM     34  C   UNL A   1      43.099  22.142  25.223  1.00  0.00     0.188 C 
BRANCH  34  35
ATOM     35  O   UNL A   1      43.702  22.521  23.992  1.00  0.00    -0.376 OA
BRANCH  35  36
ATOM     36  C   UNL A   1      45.136  22.463  23.925  1.00  0.00     0.202 C 
BRANCH  36  37
ATOM     37  C   UNL A   1      46.006  23.535  24.637  1.00  0.00     0.261 C 
BRANCH  37  38
ATOM     38  O   UNL A   1      45.301  24.533  25.381  1.00  0.00    -0.460 OA
BRANCH  38  39
ATOM     39  C   UNL A   1      45.616  24.621  26.684  1.00  0.00     0.338 C 
ATOM     40  O   UNL A   1      46.690  24.343  27.205  1.00  0.00    -0.246 OA
BRANCH  39  41
ATOM     41  C   UNL A   1      44.534  25.335  27.374  1.00  0.00     0.060 A 
ATOM     42  C   UNL A   1      44.594  26.732  27.384  1.00  0.00     0.016 A 
ATOM     43  C   UNL A   1      43.518  24.653  28.051  1.00  0.00     0.016 A 
ATOM     44  C   UNL A   1      43.649  27.461  28.082  1.00  0.00     0.010 A 
ATOM     45  C   UNL A   1      42.599  25.386  28.809  1.00  0.00     0.010 A 
ATOM     46  C   UNL A   1      42.699  26.787  28.859  1.00  0.00    -0.014 A 
BRANCH  46  47
ATOM     47  C   UNL A   1      42.074  27.580  29.936  1.00  0.00     0.031 A 
ATOM     48  C   UNL A   1      42.784  27.609  31.262  1.00  0.00     0.074 A 
ATOM     49  C   UNL A   1      41.029  28.383  29.686  1.00  0.00     0.049 A 
ATOM     50  N   UNL A   1      42.550  28.345  32.316  1.00  0.00    -0.248 NA
ATOM     51  C   UNL A   1      43.935  26.701  31.407  1.00  0.00     0.031 C 
ATOM     52  C   UNL A   1      40.327  28.484  28.408  1.00  0.00     0.029 A 
ATOM     53  N   UNL A   1      40.398  29.289  30.496  1.00  0.00    -0.354 N 
ATOM     54  C   UNL A   1      43.529  27.997  33.239  1.00  0.00     0.074 A 
ATOM     55  C   UNL A   1      44.340  26.962  32.638  1.00  0.00     0.031 C 
ATOM     56  C   UNL A   1      39.357  29.408  28.521  1.00  0.00     0.029 A 
ATOM     57  C   UNL A   1      39.361  29.945  29.881  1.00  0.00     0.049 A 
ATOM     58  H   UNL A   1      40.663  29.455  31.430  1.00  0.00     0.167 HD
ATOM     59  C   UNL A   1      43.738  28.502  34.476  1.00  0.00     0.037 A 
ATOM     60  C   UNL A   1      38.515  30.867  30.375  1.00  0.00     0.037 A 
ATOM     61  C   UNL A   1      42.911  29.517  35.067  1.00  0.00     0.049 A 
ATOM     62  C   UNL A   1      38.709  31.346  31.791  1.00  0.00     0.074 A 
ATOM     63  C   UNL A   1      43.012  30.092  36.321  1.00  0.00     0.029 A 
ATOM     64  N   UNL A   1      41.815  30.098  34.444  1.00  0.00    -0.354 N 
ATOM     65  N   UNL A   1      39.640  31.020  32.657  1.00  0.00    -0.248 NA
ATOM     66  C   UNL A   1      37.742  32.330  32.294  1.00  0.00     0.031 C 
ATOM     67  C   UNL A   1      41.941  30.976  36.478  1.00  0.00     0.029 A 
ATOM     68  C   UNL A   1      41.213  31.005  35.298  1.00  0.00     0.049 A 
ATOM     69  H   UNL A   1      41.513  29.896  33.530  1.00  0.00     0.167 HD
ATOM     70  C   UNL A   1      39.389  31.778  33.795  1.00  0.00     0.074 A 
ATOM     71  C   UNL A   1      38.228  32.593  33.499  1.00  0.00     0.031 C 
ATOM     72  C   UNL A   1      40.057  31.803  34.976  1.00  0.00     0.037 A 
BRANCH  59  73
ATOM     73  C   UNL A   1      44.867  27.920  35.276  1.00  0.00     0.057 A 
ATOM     74  C   UNL A   1      44.699  26.802  36.104  1.00  0.00     0.134 A 
ATOM     75  C   UNL A   1      46.143  28.493  35.218  1.00  0.00     0.134 A 
ATOM     76  F   UNL A   1      43.497  26.218  36.225  1.00  0.00    -0.206 F 
ATOM     77  C   UNL A   1      45.753  26.291  36.865  1.00  0.00     0.040 A 
ATOM     78  C   UNL A   1      47.212  27.975  35.951  1.00  0.00     0.040 A 
ATOM     79  F   UNL A   1      46.373  29.568  34.449  1.00  0.00    -0.206 F 
ATOM     80  C   UNL A   1      47.016  26.875  36.784  1.00  0.00     0.006 A 
ENDBRANCH  59  73
BRANCH  60  81
ATOM     81  C   UNL A   1      37.403  31.384  29.536  1.00  0.00     0.057 A 
ATOM     82  C   UNL A   1      37.449  32.657  28.957  1.00  0.00     0.134 A 
ATOM     83  C   UNL A   1      36.252  30.617  29.311  1.00  0.00     0.134 A 
ATOM     84  F   UNL A   1      38.512  33.450  29.150  1.00  0.00    -0.206 F 
ATOM     85  C   UNL A   1      36.383  33.157  28.204  1.00  0.00     0.040 A 
ATOM     86  C   UNL A   1      35.193  31.093  28.539  1.00  0.00     0.040 A 
ATOM     87  F   UNL A   1      36.144  29.388  29.836  1.00  0.00    -0.206 F 
ATOM     88  C   UNL A   1      35.253  32.371  27.989  1.00  0.00     0.006 A 
ENDBRANCH  60  81
BRANCH  72  89
ATOM     89  C   UNL A   1      39.569  32.771  36.017  1.00  0.00     0.057 A 
ATOM     90  C   UNL A   1      38.571  32.430  36.940  1.00  0.00     0.134 A 
ATOM     91  C   UNL A   1      40.133  34.049  36.117  1.00  0.00     0.134 A 
ATOM     92  F   UNL A   1      37.985  31.225  36.893  1.00  0.00    -0.206 F 
ATOM     93  C   UNL A   1      38.128  33.340  37.901  1.00  0.00     0.040 A 
ATOM     94  C   UNL A   1      39.722  34.954  37.095  1.00  0.00     0.040 A 
ATOM     95  F   UNL A   1      41.104  34.435  35.275  1.00  0.00    -0.206 F 
ATOM     96  C   UNL A   1      38.709  34.604  37.985  1.00  0.00     0.006 A 
ENDBRANCH  72  89
ENDBRANCH  46  47
ENDBRANCH  39  41
ENDBRANCH  38  39
ENDBRANCH  37  38
ENDBRANCH  36  37
ENDBRANCH  35  36
ENDBRANCH  34  35
ENDBRANCH  33  34
ENDBRANCH  32  33
ENDBRANCH  31  32
ENDBRANCH   1  31
TORSDOF 26
ENDMDL
MODEL 3
REMARK VINA RESULT:      -8.8      4.095      6.633
REMARK SMILES COc1cccc(CSc2nc3ccccc3c(=O)n2CCC(=O)OCCOCCOCCOCCOC(=O)c2ccc(-c3c4nc(c(-c5c(F)cccc5F)c5ccc([nH]5)c(-c5c(F)cccc5F)c5nc(c(-c6c(F)cccc6F)c6ccc3[nH]6)C=C5)C=C4)cc2)c1
REMARK SMILES IDX 29 1 28 2 27 3 26 4 25 5 23 6 24 7 22 8 21 9 20 10 10 11
REMARK SMILES IDX 11 12 12 13 18 14 13 15 17 16 19 17 14 18 16 19 15 20 9 21
REMARK SMILES IDX 8 22 7 23 3 24 4 25 94 26 5 27 6 28 2 29 1 30 30 31 31 32
REMARK SMILES IDX 32 33 33 34 34 35 35 36 36 37 37 38 38 39 39 40 40 41 41 42
REMARK SMILES IDX 93 43 42 44 92 45 43 46 44 47 45 48 86 49 46 50 91 51 85 52
REMARK SMILES IDX 87 53 47 54 90 55 84 56 83 57 48 59 74 60 57 61 73 62 58 63
REMARK SMILES IDX 61 64 72 65 88 66 59 67 60 68 71 70 89 71 62 72 49 73 50 74
REMARK SMILES IDX 55 75 51 76 52 77 54 78 56 79 53 80 75 81 76 82 81 83 77 84
REMARK SMILES IDX 78 85 80 86 82 87 79 88 63 89 64 90 69 91 65 92 66 93 68 94
REMARK SMILES IDX 70 95 67 96
REMARK H PARENT 87 58 61 69
REMARK Flexibility Score: inf
ROOT
ATOM      1  C   UNL A   1      36.247  21.947  25.567  1.00  0.00     0.188 C 
ENDROOT
BRANCH   1   2
ATOM      2  O   UNL A   1      35.236  21.320  24.804  1.00  0.00    -0.376 OA
BRANCH   2   3
ATOM      3  C   UNL A   1      33.876  21.620  25.140  1.00  0.00     0.202 C 
BRANCH   3   4
ATOM      4  C   UNL A   1      32.738  21.288  24.127  1.00  0.00     0.261 C 
BRANCH   4   5
ATOM      5  O   UNL A   1      32.819  21.827  22.770  1.00  0.00    -0.463 OA
BRANCH   5   6
ATOM      6  C   UNL A   1      33.238  23.121  22.604  1.00  0.00     0.307 C 
ATOM      7  O   UNL A   1      34.297  23.428  22.067  1.00  0.00    -0.252 OA
BRANCH   6   8
ATOM      8  C   UNL A   1      32.296  24.182  23.224  1.00  0.00     0.144 C 
BRANCH   8   9
ATOM      9  C   UNL A   1      32.646  25.102  24.433  1.00  0.00     0.140 C 
BRANCH   9  10
ATOM     10  N   UNL A   1      31.910  26.350  24.517  1.00  0.00    -0.286 N 
ATOM     11  C   UNL A   1      32.531  27.527  24.697  1.00  0.00     0.171 A 
ATOM     12  N   UNL A   1      32.212  28.587  24.029  1.00  0.00    -0.224 NA
ATOM     13  C   UNL A   1      30.982  28.525  23.360  1.00  0.00     0.079 A 
ATOM     14  C   UNL A   1      30.535  26.449  24.558  1.00  0.00     0.262 A 
ATOM     15  C   UNL A   1      30.646  29.437  22.365  1.00  0.00     0.029 A 
ATOM     16  C   UNL A   1      30.006  27.653  23.856  1.00  0.00     0.066 A 
ATOM     17  O   UNL A   1      29.794  25.628  25.082  1.00  0.00    -0.269 OA
ATOM     18  C   UNL A   1      29.314  29.547  21.962  1.00  0.00     0.002 A 
ATOM     19  C   UNL A   1      28.663  27.841  23.559  1.00  0.00     0.016 A 
ATOM     20  C   UNL A   1      28.319  28.804  22.609  1.00  0.00     0.001 A 
BRANCH  11  21
ATOM     21  S   UNL A   1      33.618  27.699  25.982  1.00  0.00    -0.083 SA
BRANCH  21  22
ATOM     22  C   UNL A   1      33.243  28.737  27.394  1.00  0.00     0.113 C 
BRANCH  22  23
ATOM     23  C   UNL A   1      34.316  29.741  27.685  1.00  0.00    -0.034 A 
ATOM     24  C   UNL A   1      34.999  32.056  27.802  1.00  0.00     0.119 A 
ATOM     25  C   UNL A   1      36.322  31.651  27.981  1.00  0.00     0.046 A 
ATOM     26  C   UNL A   1      34.004  31.097  27.646  1.00  0.00     0.051 A 
ATOM     27  C   UNL A   1      36.635  30.300  28.103  1.00  0.00     0.004 A 
ATOM     28  C   UNL A   1      35.627  29.351  27.988  1.00  0.00     0.005 A 
BRANCH  24  29
ATOM     29  O   UNL A   1      34.780  33.406  27.763  1.00  0.00    -0.497 OA
ATOM     30  C   UNL A   1      34.690  34.042  29.035  1.00  0.00     0.278 C 
ENDBRANCH  24  29
ENDBRANCH  22  23
ENDBRANCH  21  22
ENDBRANCH  11  21
ENDBRANCH   9  10
ENDBRANCH   8   9
ENDBRANCH   6   8
ENDBRANCH   5   6
ENDBRANCH   4   5
ENDBRANCH   3   4
ENDBRANCH   2   3
ENDBRANCH   1   2
BRANCH   1  31
ATOM     31  C   UNL A   1      37.726  21.569  25.359  1.00  0.00     0.188 C 
BRANCH  31  32
ATOM     32  O   UNL A   1      38.763  22.272  26.008  1.00  0.00    -0.377 OA
BRANCH  32  33
ATOM     33  C   UNL A   1      39.784  21.452  26.539  1.00  0.00     0.188 C 
BRANCH  33  34
ATOM     34  C   UNL A   1      41.233  21.777  26.119  1.00  0.00     0.188 C 
BRANCH  34  35
ATOM     35  O   UNL A   1      41.872  22.823  26.839  1.00  0.00    -0.376 OA
BRANCH  35  36
ATOM     36  C   UNL A   1      42.462  23.881  26.066  1.00  0.00     0.202 C 
BRANCH  36  37
ATOM     37  C   UNL A   1      41.824  25.296  26.044  1.00  0.00     0.261 C 
BRANCH  37  38
ATOM     38  O   UNL A   1      41.820  26.010  27.283  1.00  0.00    -0.460 OA
BRANCH  38  39
ATOM     39  C   UNL A   1      40.612  26.213  27.836  1.00  0.00     0.338 C 
ATOM     40  O   UNL A   1      39.649  25.456  27.806  1.00  0.00    -0.246 OA
BRANCH  39  41
ATOM     41  C   UNL A   1      40.692  27.401  28.696  1.00  0.00     0.060 A 
ATOM     42  C   UNL A   1      39.930  28.513  28.323  1.00  0.00     0.016 A 
ATOM     43  C   UNL A   1      41.539  27.449  29.807  1.00  0.00     0.016 A 
ATOM     44  C   UNL A   1      40.020  29.688  29.045  1.00  0.00     0.010 A 
ATOM     45  C   UNL A   1      41.678  28.656  30.502  1.00  0.00     0.010 A 
ATOM     46  C   UNL A   1      40.951  29.785  30.086  1.00  0.00    -0.014 A 
BRANCH  46  47
ATOM     47  C   UNL A   1      41.348  31.155  30.466  1.00  0.00     0.031 A 
ATOM     48  C   UNL A   1      40.750  31.715  31.728  1.00  0.00     0.074 A 
ATOM     49  C   UNL A   1      42.336  31.793  29.819  1.00  0.00     0.049 A 
ATOM     50  N   UNL A   1      41.044  32.811  32.375  1.00  0.00    -0.248 NA
ATOM     51  C   UNL A   1      39.691  30.909  32.362  1.00  0.00     0.031 C 
ATOM     52  C   UNL A   1      43.033  31.292  28.637  1.00  0.00     0.029 A 
ATOM     53  N   UNL A   1      42.941  32.990  30.093  1.00  0.00    -0.354 N 
ATOM     54  C   UNL A   1      40.218  32.818  33.492  1.00  0.00     0.074 A 
ATOM     55  C   UNL A   1      39.387  31.638  33.422  1.00  0.00     0.031 C 
ATOM     56  C   UNL A   1      43.978  32.182  28.285  1.00  0.00     0.029 A 
ATOM     57  C   UNL A   1      43.935  33.317  29.206  1.00  0.00     0.049 A 
ATOM     58  H   UNL A   1      42.688  33.562  30.853  1.00  0.00     0.167 HD
ATOM     59  C   UNL A   1      40.164  33.726  34.493  1.00  0.00     0.037 A 
ATOM     60  C   UNL A   1      44.711  34.415  29.151  1.00  0.00     0.037 A 
ATOM     61  C   UNL A   1      40.983  34.906  34.538  1.00  0.00     0.049 A 
ATOM     62  C   UNL A   1      44.566  35.460  30.226  1.00  0.00     0.074 A 
ATOM     63  C   UNL A   1      41.002  35.908  35.491  1.00  0.00     0.029 A 
ATOM     64  N   UNL A   1      41.922  35.246  33.575  1.00  0.00    -0.354 N 
ATOM     65  N   UNL A   1      43.789  35.460  31.285  1.00  0.00    -0.248 NA
ATOM     66  C   UNL A   1      45.413  36.654  30.107  1.00  0.00     0.031 C 
ATOM     67  C   UNL A   1      41.909  36.885  35.070  1.00  0.00     0.029 A 
ATOM     68  C   UNL A   1      42.507  36.459  33.894  1.00  0.00     0.049 A 
ATOM     69  H   UNL A   1      42.140  34.704  32.783  1.00  0.00     0.167 HD
ATOM     70  C   UNL A   1      44.074  36.634  31.971  1.00  0.00     0.074 A 
ATOM     71  C   UNL A   1      45.108  37.312  31.216  1.00  0.00     0.031 C 
ATOM     72  C   UNL A   1      43.535  37.110  33.122  1.00  0.00     0.037 A 
BRANCH  59  73
ATOM     73  C   UNL A   1      39.150  33.497  35.576  1.00  0.00     0.057 A 
ATOM     74  C   UNL A   1      39.478  32.874  36.789  1.00  0.00     0.134 A 
ATOM     75  C   UNL A   1      37.822  33.902  35.399  1.00  0.00     0.134 A 
ATOM     76  F   UNL A   1      40.727  32.439  37.015  1.00  0.00    -0.206 F 
ATOM     77  C   UNL A   1      38.516  32.641  37.774  1.00  0.00     0.040 A 
ATOM     78  C   UNL A   1      36.857  33.701  36.388  1.00  0.00     0.040 A 
ATOM     79  F   UNL A   1      37.438  34.500  34.261  1.00  0.00    -0.206 F 
ATOM     80  C   UNL A   1      37.202  33.061  37.576  1.00  0.00     0.006 A 
ENDBRANCH  59  73
BRANCH  60  81
ATOM     81  C   UNL A   1      45.678  34.590  28.036  1.00  0.00     0.057 A 
ATOM     82  C   UNL A   1      47.022  34.220  28.164  1.00  0.00     0.134 A 
ATOM     83  C   UNL A   1      45.280  35.155  26.818  1.00  0.00     0.134 A 
ATOM     84  F   UNL A   1      47.473  33.692  29.310  1.00  0.00    -0.206 F 
ATOM     85  C   UNL A   1      47.938  34.426  27.129  1.00  0.00     0.040 A 
ATOM     86  C   UNL A   1      46.178  35.341  25.767  1.00  0.00     0.040 A 
ATOM     87  F   UNL A   1      44.006  35.530  26.629  1.00  0.00    -0.206 F 
ATOM     88  C   UNL A   1      47.515  34.983  25.924  1.00  0.00     0.006 A 
ENDBRANCH  60  81
BRANCH  72  89
ATOM     89  C   UNL A   1      44.084  38.406  33.650  1.00  0.00     0.057 A 
ATOM     90  C   UNL A   1      43.613  39.649  33.208  1.00  0.00     0.134 A 
ATOM     91  C   UNL A   1      45.073  38.405  34.642  1.00  0.00     0.134 A 
ATOM     92  F   UNL A   1      42.672  39.720  32.254  1.00  0.00    -0.206 F 
ATOM     93  C   UNL A   1      44.133  40.844  33.708  1.00  0.00     0.040 A 
ATOM     94  C   UNL A   1      45.576  39.592  35.173  1.00  0.00     0.040 A 
ATOM     95  F   UNL A   1      45.557  37.249  35.122  1.00  0.00    -0.206 F 
ATOM     96  C   UNL A   1      45.112  40.817  34.698  1.00  0.00     0.006 A 
ENDBRANCH  72  89
ENDBRANCH  46  47
ENDBRANCH  39  41
ENDBRANCH  38  39
ENDBRANCH  37  38
ENDBRANCH  36  37
ENDBRANCH  35  36
ENDBRANCH  34  35
ENDBRANCH  33  34
ENDBRANCH  32  33
ENDBRANCH  31  32
ENDBRANCH   1  31
TORSDOF 26
ENDMDL
