MODEL 1
REMARK VINA RESULT:      -9.6      0.000      0.000
REMARK SMILES Cc1ccccc1C(=O)Nc1ccc(N2CCCCC2)cc1C(=O)OCCOCCOCCOCCOC(=O)c1ccc(-c2c3nc(c(-c4c(F)cccc4F)c4ccc([nH]4)c(-c4c(F)cccc4F)c4nc(c(-c5c(F)cccc5F)c5ccc2[nH]5)C=C4)C=C3)cc1
REMARK SMILES IDX 31 1 30 2 29 3 28 4 27 5 26 6 25 7 23 8 24 9 22 10 11 11
REMARK SMILES IDX 12 12 13 13 21 14 14 15 10 16 8 17 9 18 7 20 1 21 2 22 3 23
REMARK SMILES IDX 4 24 6 25 5 26 15 27 16 28 20 29 17 30 19 31 18 32 32 33
REMARK SMILES IDX 33 34 34 35 35 36 36 37 37 38 38 39 39 40 40 41 41 42 93 43
REMARK SMILES IDX 42 44 92 45 43 46 44 47 45 48 86 49 46 50 91 51 85 52 87 53
REMARK SMILES IDX 47 54 90 55 84 56 83 57 48 59 74 60 57 61 73 62 58 63 61 64
REMARK SMILES IDX 72 65 88 66 59 67 60 68 71 70 89 71 62 72 49 73 50 74 55 75
REMARK SMILES IDX 51 76 52 77 54 78 56 79 53 80 75 81 76 82 81 83 77 84 78 85
REMARK SMILES IDX 80 86 82 87 79 88 63 89 64 90 69 91 65 92 66 93 68 94 70 95
REMARK SMILES IDX 67 96
REMARK H PARENT 10 19 87 58 61 69
REMARK Flexibility Score: inf
ROOT
ATOM      1  O   UNL A   1      40.508  26.656  27.726  1.00  0.00    -0.377 OA
ENDROOT
BRANCH   1   2
ATOM      2  C   UNL A   1      39.653  25.525  27.964  1.00  0.00     0.188 C 
BRANCH   2   3
ATOM      3  C   UNL A   1      39.887  24.465  26.891  1.00  0.00     0.188 C 
BRANCH   3   4
ATOM      4  O   UNL A   1      38.877  23.545  26.533  1.00  0.00    -0.376 OA
BRANCH   4   5
ATOM      5  C   UNL A   1      37.652  24.134  26.184  1.00  0.00     0.202 C 
BRANCH   5   6
ATOM      6  C   UNL A   1      36.714  23.440  25.183  1.00  0.00     0.261 C 
BRANCH   6   7
ATOM      7  O   UNL A   1      35.509  24.090  24.817  1.00  0.00    -0.460 OA
BRANCH   7   8
ATOM      8  C   UNL A   1      35.231  23.947  23.506  1.00  0.00     0.340 C 
ATOM      9  O   UNL A   1      35.681  23.125  22.717  1.00  0.00    -0.246 OA
BRANCH   8  10
ATOM     10  C   UNL A   1      34.092  24.791  23.188  1.00  0.00     0.085 A 
ATOM     11  C   UNL A   1      32.991  24.175  22.585  1.00  0.00     0.056 A 
ATOM     12  C   UNL A   1      31.928  24.948  22.175  1.00  0.00     0.029 A 
ATOM     13  C   UNL A   1      31.843  26.252  22.638  1.00  0.00     0.028 A 
ATOM     14  C   UNL A   1      33.959  26.065  23.752  1.00  0.00     0.043 A 
ATOM     15  C   UNL A   1      32.739  26.736  23.613  1.00  0.00     0.038 A 
BRANCH  11  16
ATOM     16  N   UNL A   1      32.899  22.785  22.540  1.00  0.00    -0.321 N 
ATOM     17  C   UNL A   1      32.406  21.905  23.483  1.00  0.00     0.255 C 
ATOM     18  O   UNL A   1      31.960  20.843  23.029  1.00  0.00    -0.269 OA
ATOM     19  H   UNL A   1      33.235  22.369  21.714  1.00  0.00     0.170 HD
BRANCH  17  20
ATOM     20  C   UNL A   1      32.582  22.014  25.020  1.00  0.00     0.043 A 
ATOM     21  C   UNL A   1      31.145  24.048  25.820  1.00  0.00     0.045 C 
ATOM     22  C   UNL A   1      31.986  22.831  26.010  1.00  0.00    -0.038 A 
ATOM     23  C   UNL A   1      32.307  22.662  27.382  1.00  0.00     0.004 A 
ATOM     24  C   UNL A   1      33.391  21.908  27.779  1.00  0.00     0.000 A 
ATOM     25  C   UNL A   1      33.731  21.310  25.471  1.00  0.00     0.014 A 
ATOM     26  C   UNL A   1      34.154  21.295  26.807  1.00  0.00     0.001 A 
ENDBRANCH  17  20
ENDBRANCH  11  16
BRANCH  15  27
ATOM     27  N   UNL A   1      32.302  27.677  24.525  1.00  0.00    -0.372 N 
ATOM     28  C   UNL A   1      32.988  28.972  24.653  1.00  0.00     0.116 C 
ATOM     29  C   UNL A   1      31.080  27.579  25.306  1.00  0.00     0.116 C 
ATOM     30  C   UNL A   1      33.476  29.116  26.082  1.00  0.00     0.021 C 
ATOM     31  C   UNL A   1      31.512  27.637  26.772  1.00  0.00     0.021 C 
ATOM     32  C   UNL A   1      32.331  28.900  27.074  1.00  0.00     0.004 C 
ENDBRANCH  15  27
ENDBRANCH   8  10
ENDBRANCH   7   8
ENDBRANCH   6   7
ENDBRANCH   5   6
ENDBRANCH   4   5
ENDBRANCH   3   4
ENDBRANCH   2   3
ENDBRANCH   1   2
BRANCH   1  33
ATOM     33  C   UNL A   1      41.312  26.598  26.547  1.00  0.00     0.188 C 
BRANCH  33  34
ATOM     34  C   UNL A   1      41.538  27.934  25.851  1.00  0.00     0.188 C 
BRANCH  34  35
ATOM     35  O   UNL A   1      42.512  27.751  24.835  1.00  0.00    -0.376 OA
BRANCH  35  36
ATOM     36  C   UNL A   1      43.445  26.702  25.041  1.00  0.00     0.202 C 
BRANCH  36  37
ATOM     37  C   UNL A   1      44.877  27.234  25.077  1.00  0.00     0.261 C 
BRANCH  37  38
ATOM     38  O   UNL A   1      45.177  27.607  26.442  1.00  0.00    -0.460 OA
BRANCH  38  39
ATOM     39  C   UNL A   1      45.727  26.622  27.203  1.00  0.00     0.338 C 
ATOM     40  O   UNL A   1      46.364  25.673  26.770  1.00  0.00    -0.246 OA
BRANCH  39  41
ATOM     41  C   UNL A   1      45.224  26.689  28.612  1.00  0.00     0.060 A 
ATOM     42  C   UNL A   1      44.041  26.016  28.963  1.00  0.00     0.016 A 
ATOM     43  C   UNL A   1      45.725  27.656  29.474  1.00  0.00     0.016 A 
ATOM     44  C   UNL A   1      43.285  26.425  30.079  1.00  0.00     0.010 A 
ATOM     45  C   UNL A   1      44.927  28.117  30.512  1.00  0.00     0.010 A 
ATOM     46  C   UNL A   1      43.676  27.548  30.815  1.00  0.00    -0.014 A 
BRANCH  46  47
ATOM     47  C   UNL A   1      42.777  28.355  31.703  1.00  0.00     0.031 A 
ATOM     48  C   UNL A   1      41.780  29.346  31.089  1.00  0.00     0.074 A 
ATOM     49  C   UNL A   1      42.595  27.825  32.945  1.00  0.00     0.049 A 
ATOM     50  N   UNL A   1      40.902  30.083  31.709  1.00  0.00    -0.248 NA
ATOM     51  C   UNL A   1      41.759  29.619  29.646  1.00  0.00     0.031 C 
ATOM     52  C   UNL A   1      41.363  27.513  33.636  1.00  0.00     0.029 A 
ATOM     53  N   UNL A   1      43.528  27.410  33.887  1.00  0.00    -0.354 N 
ATOM     54  C   UNL A   1      40.039  30.670  30.757  1.00  0.00     0.074 A 
ATOM     55  C   UNL A   1      40.692  30.410  29.501  1.00  0.00     0.031 C 
ATOM     56  C   UNL A   1      41.529  27.324  34.943  1.00  0.00     0.029 A 
ATOM     57  C   UNL A   1      42.922  27.466  35.169  1.00  0.00     0.049 A 
ATOM     58  H   UNL A   1      44.452  27.125  33.697  1.00  0.00     0.167 HD
ATOM     59  C   UNL A   1      38.796  31.180  31.096  1.00  0.00     0.037 A 
ATOM     60  C   UNL A   1      43.452  28.164  36.195  1.00  0.00     0.037 A 
ATOM     61  C   UNL A   1      38.611  31.325  32.565  1.00  0.00     0.049 A 
ATOM     62  C   UNL A   1      42.776  29.525  36.366  1.00  0.00     0.074 A 
ATOM     63  C   UNL A   1      37.562  31.221  33.475  1.00  0.00     0.029 A 
ATOM     64  N   UNL A   1      39.729  31.524  33.365  1.00  0.00    -0.354 N 
ATOM     65  N   UNL A   1      41.635  29.913  35.823  1.00  0.00    -0.248 NA
ATOM     66  C   UNL A   1      43.397  30.587  37.152  1.00  0.00     0.031 C 
ATOM     67  C   UNL A   1      38.080  31.293  34.804  1.00  0.00     0.029 A 
ATOM     68  C   UNL A   1      39.435  31.530  34.706  1.00  0.00     0.049 A 
ATOM     69  H   UNL A   1      40.638  31.648  33.008  1.00  0.00     0.167 HD
ATOM     70  C   UNL A   1      41.438  31.260  36.089  1.00  0.00     0.074 A 
ATOM     71  C   UNL A   1      42.566  31.618  36.934  1.00  0.00     0.031 C 
ATOM     72  C   UNL A   1      40.435  32.061  35.599  1.00  0.00     0.037 A 
BRANCH  59  73
ATOM     73  C   UNL A   1      37.582  31.369  30.113  1.00  0.00     0.057 A 
ATOM     74  C   UNL A   1      36.739  30.280  29.771  1.00  0.00     0.134 A 
ATOM     75  C   UNL A   1      37.274  32.525  29.358  1.00  0.00     0.134 A 
ATOM     76  F   UNL A   1      36.739  29.142  30.476  1.00  0.00    -0.206 F 
ATOM     77  C   UNL A   1      35.808  30.290  28.710  1.00  0.00     0.040 A 
ATOM     78  C   UNL A   1      36.271  32.578  28.361  1.00  0.00     0.040 A 
ATOM     79  F   UNL A   1      37.931  33.677  29.502  1.00  0.00    -0.206 F 
ATOM     80  C   UNL A   1      35.563  31.447  27.999  1.00  0.00     0.006 A 
ENDBRANCH  59  73
BRANCH  60  81
ATOM     81  C   UNL A   1      44.840  27.619  36.403  1.00  0.00     0.057 A 
ATOM     82  C   UNL A   1      45.841  28.586  36.105  1.00  0.00     0.134 A 
ATOM     83  C   UNL A   1      45.086  26.811  37.523  1.00  0.00     0.134 A 
ATOM     84  F   UNL A   1      45.706  29.375  35.026  1.00  0.00    -0.206 F 
ATOM     85  C   UNL A   1      46.814  28.956  37.045  1.00  0.00     0.040 A 
ATOM     86  C   UNL A   1      46.073  27.166  38.464  1.00  0.00     0.040 A 
ATOM     87  F   UNL A   1      44.206  25.859  37.868  1.00  0.00    -0.206 F 
ATOM     88  C   UNL A   1      46.886  28.285  38.260  1.00  0.00     0.006 A 
ENDBRANCH  60  81
BRANCH  72  89
ATOM     89  C   UNL A   1      40.315  33.556  35.828  1.00  0.00     0.057 A 
ATOM     90  C   UNL A   1      40.924  34.508  35.013  1.00  0.00     0.134 A 
ATOM     91  C   UNL A   1      39.674  34.072  36.986  1.00  0.00     0.134 A 
ATOM     92  F   UNL A   1      41.672  34.138  33.964  1.00  0.00    -0.206 F 
ATOM     93  C   UNL A   1      40.809  35.881  35.267  1.00  0.00     0.040 A 
ATOM     94  C   UNL A   1      39.610  35.431  37.284  1.00  0.00     0.040 A 
ATOM     95  F   UNL A   1      39.067  33.284  37.885  1.00  0.00    -0.206 F 
ATOM     96  C   UNL A   1      40.150  36.347  36.402  1.00  0.00     0.006 A 
ENDBRANCH  72  89
ENDBRANCH  46  47
ENDBRANCH  39  41
ENDBRANCH  38  39
ENDBRANCH  37  38
ENDBRANCH  36  37
ENDBRANCH  35  36
ENDBRANCH  34  35
ENDBRANCH  33  34
ENDBRANCH   1  33
TORSDOF 23
ENDMDL
MODEL 2
REMARK VINA RESULT:      -9.5      4.628      9.302
REMARK SMILES Cc1ccccc1C(=O)Nc1ccc(N2CCCCC2)cc1C(=O)OCCOCCOCCOCCOC(=O)c1ccc(-c2c3nc(c(-c4c(F)cccc4F)c4ccc([nH]4)c(-c4c(F)cccc4F)c4nc(c(-c5c(F)cccc5F)c5ccc2[nH]5)C=C4)C=C3)cc1
REMARK SMILES IDX 31 1 30 2 29 3 28 4 27 5 26 6 25 7 23 8 24 9 22 10 11 11
REMARK SMILES IDX 12 12 13 13 21 14 14 15 10 16 8 17 9 18 7 20 1 21 2 22 3 23
REMARK SMILES IDX 4 24 6 25 5 26 15 27 16 28 20 29 17 30 19 31 18 32 32 33
REMARK SMILES IDX 33 34 34 35 35 36 36 37 37 38 38 39 39 40 40 41 41 42 93 43
REMARK SMILES IDX 42 44 92 45 43 46 44 47 45 48 86 49 46 50 91 51 85 52 87 53
REMARK SMILES IDX 47 54 90 55 84 56 83 57 48 59 74 60 57 61 73 62 58 63 61 64
REMARK SMILES IDX 72 65 88 66 59 67 60 68 71 70 89 71 62 72 49 73 50 74 55 75
REMARK SMILES IDX 51 76 52 77 54 78 56 79 53 80 75 81 76 82 81 83 77 84 78 85
REMARK SMILES IDX 80 86 82 87 79 88 63 89 64 90 69 91 65 92 66 93 68 94 70 95
REMARK SMILES IDX 67 96
REMARK H PARENT 10 19 87 58 61 69
REMARK Flexibility Score: inf
ROOT
ATOM      1  O   UNL A   1      35.455  32.909  28.209  1.00  0.00    -0.377 OA
ENDROOT
BRANCH   1   2
ATOM      2  C   UNL A   1      34.050  32.618  28.121  1.00  0.00     0.188 C 
BRANCH   2   3
ATOM      3  C   UNL A   1      33.846  31.224  27.532  1.00  0.00     0.188 C 
BRANCH   3   4
ATOM      4  O   UNL A   1      34.863  30.246  27.587  1.00  0.00    -0.376 OA
BRANCH   4   5
ATOM      5  C   UNL A   1      34.582  29.075  26.866  1.00  0.00     0.202 C 
BRANCH   5   6
ATOM      6  C   UNL A   1      33.292  28.285  27.140  1.00  0.00     0.261 C 
BRANCH   6   7
ATOM      7  O   UNL A   1      33.141  27.005  26.551  1.00  0.00    -0.460 OA
BRANCH   7   8
ATOM      8  C   UNL A   1      31.947  26.449  26.842  1.00  0.00     0.340 C 
ATOM      9  O   UNL A   1      30.939  26.992  27.277  1.00  0.00    -0.246 OA
BRANCH   8  10
ATOM     10  C   UNL A   1      31.939  25.092  26.323  1.00  0.00     0.085 A 
ATOM     11  C   UNL A   1      30.873  24.732  25.494  1.00  0.00     0.056 A 
ATOM     12  C   UNL A   1      30.768  23.430  25.058  1.00  0.00     0.029 A 
ATOM     13  C   UNL A   1      31.868  22.597  25.197  1.00  0.00     0.028 A 
ATOM     14  C   UNL A   1      33.092  24.297  26.366  1.00  0.00     0.043 A 
ATOM     15  C   UNL A   1      33.108  23.100  25.641  1.00  0.00     0.038 A 
BRANCH  11  16
ATOM     16  N   UNL A   1      30.015  25.707  24.988  1.00  0.00    -0.321 N 
ATOM     17  C   UNL A   1      30.129  26.470  23.843  1.00  0.00     0.255 C 
ATOM     18  O   UNL A   1      29.056  26.851  23.355  1.00  0.00    -0.269 OA
ATOM     19  H   UNL A   1      29.209  25.876  25.525  1.00  0.00     0.170 HD
BRANCH  17  20
ATOM     20  C   UNL A   1      31.436  27.082  23.275  1.00  0.00     0.043 A 
ATOM     21  C   UNL A   1      32.879  25.105  22.353  1.00  0.00     0.045 C 
ATOM     22  C   UNL A   1      32.533  26.540  22.565  1.00  0.00    -0.038 A 
ATOM     23  C   UNL A   1      33.587  27.374  22.108  1.00  0.00     0.004 A 
ATOM     24  C   UNL A   1      33.729  28.668  22.562  1.00  0.00     0.000 A 
ATOM     25  C   UNL A   1      31.664  28.394  23.771  1.00  0.00     0.014 A 
ATOM     26  C   UNL A   1      32.803  29.151  23.464  1.00  0.00     0.001 A 
ENDBRANCH  17  20
ENDBRANCH  11  16
BRANCH  15  27
ATOM     27  N   UNL A   1      34.276  22.538  25.165  1.00  0.00    -0.372 N 
ATOM     28  C   UNL A   1      35.325  22.087  26.093  1.00  0.00     0.116 C 
ATOM     29  C   UNL A   1      34.528  22.186  23.777  1.00  0.00     0.116 C 
ATOM     30  C   UNL A   1      36.604  22.838  25.770  1.00  0.00     0.021 C 
ATOM     31  C   UNL A   1      35.768  22.977  23.361  1.00  0.00     0.021 C 
ATOM     32  C   UNL A   1      36.960  22.697  24.289  1.00  0.00     0.004 C 
ENDBRANCH  15  27
ENDBRANCH   8  10
ENDBRANCH   7   8
ENDBRANCH   6   7
ENDBRANCH   5   6
ENDBRANCH   4   5
ENDBRANCH   3   4
ENDBRANCH   2   3
ENDBRANCH   1   2
BRANCH   1  33
ATOM     33  C   UNL A   1      35.915  33.416  29.462  1.00  0.00     0.188 C 
BRANCH  33  34
ATOM     34  C   UNL A   1      35.714  32.486  30.651  1.00  0.00     0.188 C 
BRANCH  34  35
ATOM     35  O   UNL A   1      36.728  31.492  30.618  1.00  0.00    -0.376 OA
BRANCH  35  36
ATOM     36  C   UNL A   1      38.067  31.960  30.653  1.00  0.00     0.202 C 
BRANCH  36  37
ATOM     37  C   UNL A   1      38.466  32.391  32.063  1.00  0.00     0.261 C 
BRANCH  37  38
ATOM     38  O   UNL A   1      38.653  33.825  32.051  1.00  0.00    -0.460 OA
BRANCH  38  39
ATOM     39  C   UNL A   1      39.762  34.269  32.704  1.00  0.00     0.338 C 
ATOM     40  O   UNL A   1      39.755  34.896  33.753  1.00  0.00    -0.246 OA
BRANCH  39  41
ATOM     41  C   UNL A   1      40.979  34.143  31.840  1.00  0.00     0.060 A 
ATOM     42  C   UNL A   1      40.887  34.404  30.462  1.00  0.00     0.016 A 
ATOM     43  C   UNL A   1      42.094  33.467  32.322  1.00  0.00     0.016 A 
ATOM     44  C   UNL A   1      41.819  33.849  29.561  1.00  0.00     0.010 A 
ATOM     45  C   UNL A   1      42.948  32.844  31.422  1.00  0.00     0.010 A 
ATOM     46  C   UNL A   1      42.810  32.980  30.028  1.00  0.00    -0.014 A 
BRANCH  46  47
ATOM     47  C   UNL A   1      43.555  31.987  29.187  1.00  0.00     0.031 A 
ATOM     48  C   UNL A   1      43.173  30.503  29.234  1.00  0.00     0.074 A 
ATOM     49  C   UNL A   1      44.201  32.532  28.118  1.00  0.00     0.049 A 
ATOM     50  N   UNL A   1      43.681  29.524  28.539  1.00  0.00    -0.248 NA
ATOM     51  C   UNL A   1      42.166  29.999  30.177  1.00  0.00     0.031 C 
ATOM     52  C   UNL A   1      44.118  32.175  26.719  1.00  0.00     0.029 A 
ATOM     53  N   UNL A   1      45.096  33.592  28.058  1.00  0.00    -0.354 N 
ATOM     54  C   UNL A   1      42.889  28.369  28.722  1.00  0.00     0.074 A 
ATOM     55  C   UNL A   1      42.028  28.719  29.821  1.00  0.00     0.031 C 
ATOM     56  C   UNL A   1      45.114  32.674  25.991  1.00  0.00     0.029 A 
ATOM     57  C   UNL A   1      45.896  33.436  26.896  1.00  0.00     0.049 A 
ATOM     58  H   UNL A   1      45.163  34.328  28.710  1.00  0.00     0.167 HD
ATOM     59  C   UNL A   1      42.925  27.297  27.845  1.00  0.00     0.037 A 
ATOM     60  C   UNL A   1      47.245  33.404  26.940  1.00  0.00     0.037 A 
ATOM     61  C   UNL A   1      44.077  27.357  26.905  1.00  0.00     0.049 A 
ATOM     62  C   UNL A   1      47.782  31.974  26.897  1.00  0.00     0.074 A 
ATOM     63  C   UNL A   1      44.337  26.989  25.587  1.00  0.00     0.029 A 
ATOM     64  N   UNL A   1      45.232  28.021  27.300  1.00  0.00    -0.354 N 
ATOM     65  N   UNL A   1      47.107  30.887  26.565  1.00  0.00    -0.248 NA
ATOM     66  C   UNL A   1      49.154  31.666  27.289  1.00  0.00     0.031 C 
ATOM     67  C   UNL A   1      45.614  27.498  25.198  1.00  0.00     0.029 A 
ATOM     68  C   UNL A   1      46.173  28.100  26.305  1.00  0.00     0.049 A 
ATOM     69  H   UNL A   1      45.361  28.397  28.201  1.00  0.00     0.167 HD
ATOM     70  C   UNL A   1      47.896  29.770  26.798  1.00  0.00     0.074 A 
ATOM     71  C   UNL A   1      49.166  30.325  27.236  1.00  0.00     0.031 C 
ATOM     72  C   UNL A   1      47.516  28.455  26.693  1.00  0.00     0.037 A 
BRANCH  59  73
ATOM     73  C   UNL A   1      41.781  26.238  27.642  1.00  0.00     0.057 A 
ATOM     74  C   UNL A   1      40.474  26.634  27.255  1.00  0.00     0.134 A 
ATOM     75  C   UNL A   1      41.838  24.858  27.948  1.00  0.00     0.134 A 
ATOM     76  F   UNL A   1      40.227  27.853  26.759  1.00  0.00    -0.206 F 
ATOM     77  C   UNL A   1      39.335  25.802  27.309  1.00  0.00     0.040 A 
ATOM     78  C   UNL A   1      40.722  23.988  27.907  1.00  0.00     0.040 A 
ATOM     79  F   UNL A   1      42.960  24.251  28.337  1.00  0.00    -0.206 F 
ATOM     80  C   UNL A   1      39.454  24.465  27.631  1.00  0.00     0.006 A 
ENDBRANCH  59  73
BRANCH  60  81
ATOM     81  C   UNL A   1      47.676  34.696  27.583  1.00  0.00     0.057 A 
ATOM     82  C   UNL A   1      48.300  34.480  28.843  1.00  0.00     0.134 A 
ATOM     83  C   UNL A   1      48.252  35.691  26.778  1.00  0.00     0.134 A 
ATOM     84  F   UNL A   1      47.789  33.575  29.695  1.00  0.00    -0.206 F 
ATOM     85  C   UNL A   1      49.592  34.953  29.119  1.00  0.00     0.040 A 
ATOM     86  C   UNL A   1      49.542  36.183  27.057  1.00  0.00     0.040 A 
ATOM     87  F   UNL A   1      47.718  35.976  25.582  1.00  0.00    -0.206 F 
ATOM     88  C   UNL A   1      50.242  35.755  28.188  1.00  0.00     0.006 A 
ENDBRANCH  60  81
BRANCH  72  89
ATOM     89  C   UNL A   1      48.378  27.261  27.060  1.00  0.00     0.057 A 
ATOM     90  C   UNL A   1      49.170  26.576  26.142  1.00  0.00     0.134 A 
ATOM     91  C   UNL A   1      48.318  26.684  28.358  1.00  0.00     0.134 A 
ATOM     92  F   UNL A   1      49.204  26.943  24.853  1.00  0.00    -0.206 F 
ATOM     93  C   UNL A   1      49.938  25.463  26.513  1.00  0.00     0.040 A 
ATOM     94  C   UNL A   1      49.025  25.540  28.720  1.00  0.00     0.040 A 
ATOM     95  F   UNL A   1      47.577  27.206  29.345  1.00  0.00    -0.206 F 
ATOM     96  C   UNL A   1      49.870  24.943  27.803  1.00  0.00     0.006 A 
ENDBRANCH  72  89
ENDBRANCH  46  47
ENDBRANCH  39  41
ENDBRANCH  38  39
ENDBRANCH  37  38
ENDBRANCH  36  37
ENDBRANCH  35  36
ENDBRANCH  34  35
ENDBRANCH  33  34
ENDBRANCH   1  33
TORSDOF 23
ENDMDL
MODEL 3
REMARK VINA RESULT:      -9.2      3.346      8.053
REMARK SMILES Cc1ccccc1C(=O)Nc1ccc(N2CCCCC2)cc1C(=O)OCCOCCOCCOCCOC(=O)c1ccc(-c2c3nc(c(-c4c(F)cccc4F)c4ccc([nH]4)c(-c4c(F)cccc4F)c4nc(c(-c5c(F)cccc5F)c5ccc2[nH]5)C=C4)C=C3)cc1
REMARK SMILES IDX 31 1 30 2 29 3 28 4 27 5 26 6 25 7 23 8 24 9 22 10 11 11
REMARK SMILES IDX 12 12 13 13 21 14 14 15 10 16 8 17 9 18 7 20 1 21 2 22 3 23
REMARK SMILES IDX 4 24 6 25 5 26 15 27 16 28 20 29 17 30 19 31 18 32 32 33
REMARK SMILES IDX 33 34 34 35 35 36 36 37 37 38 38 39 39 40 40 41 41 42 93 43
REMARK SMILES IDX 42 44 92 45 43 46 44 47 45 48 86 49 46 50 91 51 85 52 87 53
REMARK SMILES IDX 47 54 90 55 84 56 83 57 48 59 74 60 57 61 73 62 58 63 61 64
REMARK SMILES IDX 72 65 88 66 59 67 60 68 71 70 89 71 62 72 49 73 50 74 55 75
REMARK SMILES IDX 51 76 52 77 54 78 56 79 53 80 75 81 76 82 81 83 77 84 78 85
REMARK SMILES IDX 80 86 82 87 79 88 63 89 64 90 69 91 65 92 66 93 68 94 70 95
REMARK SMILES IDX 67 96
REMARK H PARENT 10 19 87 58 61 69
REMARK Flexibility Score: inf
ROOT
ATOM      1  O   UNL A   1      31.946  26.814  26.782  1.00  0.00    -0.377 OA
ENDROOT
BRANCH   1   2
ATOM      2  C   UNL A   1      30.846  26.908  25.861  1.00  0.00     0.188 C 
BRANCH   2   3
ATOM      3  C   UNL A   1      30.083  25.586  25.829  1.00  0.00     0.188 C 
BRANCH   3   4
ATOM      4  O   UNL A   1      29.214  25.212  26.878  1.00  0.00    -0.376 OA
BRANCH   4   5
ATOM      5  C   UNL A   1      28.853  23.856  26.878  1.00  0.00     0.202 C 
BRANCH   5   6
ATOM      6  C   UNL A   1      29.854  22.786  27.343  1.00  0.00     0.261 C 
BRANCH   6   7
ATOM      7  O   UNL A   1      30.980  22.508  26.527  1.00  0.00    -0.460 OA
BRANCH   7   8
ATOM      8  C   UNL A   1      32.140  22.633  27.202  1.00  0.00     0.340 C 
ATOM      9  O   UNL A   1      32.339  22.511  28.405  1.00  0.00    -0.246 OA
BRANCH   8  10
ATOM     10  C   UNL A   1      33.222  22.705  26.237  1.00  0.00     0.085 A 
ATOM     11  C   UNL A   1      33.848  21.504  25.889  1.00  0.00     0.056 A 
ATOM     12  C   UNL A   1      34.943  21.531  25.054  1.00  0.00     0.029 A 
ATOM     13  C   UNL A   1      35.203  22.695  24.346  1.00  0.00     0.028 A 
ATOM     14  C   UNL A   1      33.407  23.844  25.444  1.00  0.00     0.043 A 
ATOM     15  C   UNL A   1      34.298  23.776  24.367  1.00  0.00     0.038 A 
BRANCH  11  16
ATOM     16  N   UNL A   1      33.282  20.284  26.256  1.00  0.00    -0.321 N 
ATOM     17  C   UNL A   1      33.112  19.135  25.510  1.00  0.00     0.255 C 
ATOM     18  O   UNL A   1      33.085  18.082  26.163  1.00  0.00    -0.269 OA
ATOM     19  H   UNL A   1      32.957  20.234  27.182  1.00  0.00     0.170 HD
BRANCH  17  20
ATOM     20  C   UNL A   1      32.717  19.062  24.012  1.00  0.00     0.043 A 
ATOM     21  C   UNL A   1      33.741  16.856  23.048  1.00  0.00     0.045 C 
ATOM     22  C   UNL A   1      32.884  18.077  23.011  1.00  0.00    -0.038 A 
ATOM     23  C   UNL A   1      32.352  18.266  21.709  1.00  0.00     0.004 A 
ATOM     24  C   UNL A   1      31.906  19.501  21.286  1.00  0.00     0.000 A 
ATOM     25  C   UNL A   1      32.317  20.330  23.510  1.00  0.00     0.014 A 
ATOM     26  C   UNL A   1      31.966  20.557  22.172  1.00  0.00     0.001 A 
ENDBRANCH  17  20
ENDBRANCH  11  16
BRANCH  15  27
ATOM     27  N   UNL A   1      34.170  24.572  23.247  1.00  0.00    -0.372 N 
ATOM     28  C   UNL A   1      34.468  26.011  23.310  1.00  0.00     0.116 C 
ATOM     29  C   UNL A   1      33.903  24.085  21.902  1.00  0.00     0.116 C 
ATOM     30  C   UNL A   1      33.223  26.776  22.903  1.00  0.00     0.021 C 
ATOM     31  C   UNL A   1      32.606  24.762  21.460  1.00  0.00     0.021 C 
ATOM     32  C   UNL A   1      32.703  26.293  21.548  1.00  0.00     0.004 C 
ENDBRANCH  15  27
ENDBRANCH   8  10
ENDBRANCH   7   8
ENDBRANCH   6   7
ENDBRANCH   5   6
ENDBRANCH   4   5
ENDBRANCH   3   4
ENDBRANCH   2   3
ENDBRANCH   1   2
BRANCH   1  33
ATOM     33  C   UNL A   1      32.358  28.035  27.395  1.00  0.00     0.188 C 
BRANCH  33  34
ATOM     34  C   UNL A   1      33.793  28.455  27.101  1.00  0.00     0.188 C 
BRANCH  34  35
ATOM     35  O   UNL A   1      33.762  29.646  26.329  1.00  0.00    -0.376 OA
BRANCH  35  36
ATOM     36  C   UNL A   1      32.893  30.670  26.787  1.00  0.00     0.202 C 
BRANCH  36  37
ATOM     37  C   UNL A   1      33.617  31.626  27.734  1.00  0.00     0.261 C 
BRANCH  37  38
ATOM     38  O   UNL A   1      35.020  31.620  27.385  1.00  0.00    -0.460 OA
BRANCH  38  39
ATOM     39  C   UNL A   1      35.879  31.688  28.438  1.00  0.00     0.338 C 
ATOM     40  O   UNL A   1      36.133  32.702  29.071  1.00  0.00    -0.246 OA
BRANCH  39  41
ATOM     41  C   UNL A   1      36.689  30.433  28.552  1.00  0.00     0.060 A 
ATOM     42  C   UNL A   1      36.654  29.686  29.741  1.00  0.00     0.016 A 
ATOM     43  C   UNL A   1      37.703  30.187  27.634  1.00  0.00     0.016 A 
ATOM     44  C   UNL A   1      37.715  28.822  30.079  1.00  0.00     0.010 A 
ATOM     45  C   UNL A   1      38.789  29.411  28.018  1.00  0.00     0.010 A 
ATOM     46  C   UNL A   1      38.845  28.748  29.258  1.00  0.00    -0.014 A 
BRANCH  46  47
ATOM     47  C   UNL A   1      40.194  28.257  29.688  1.00  0.00     0.031 A 
ATOM     48  C   UNL A   1      40.722  26.914  29.168  1.00  0.00     0.074 A 
ATOM     49  C   UNL A   1      41.029  29.234  30.140  1.00  0.00     0.049 A 
ATOM     50  N   UNL A   1      41.882  26.367  29.403  1.00  0.00    -0.248 NA
ATOM     51  C   UNL A   1      39.890  26.028  28.344  1.00  0.00     0.031 C 
ATOM     52  C   UNL A   1      42.372  29.560  29.714  1.00  0.00     0.029 A 
ATOM     53  N   UNL A   1      40.826  30.208  31.109  1.00  0.00    -0.354 N 
ATOM     54  C   UNL A   1      42.047  25.252  28.550  1.00  0.00     0.074 A 
ATOM     55  C   UNL A   1      40.734  25.054  27.994  1.00  0.00     0.031 C 
ATOM     56  C   UNL A   1      43.020  30.341  30.574  1.00  0.00     0.029 A 
ATOM     57  C   UNL A   1      42.091  30.607  31.613  1.00  0.00     0.049 A 
ATOM     58  H   UNL A   1      39.953  30.563  31.397  1.00  0.00     0.167 HD
ATOM     59  C   UNL A   1      43.289  24.703  28.277  1.00  0.00     0.037 A 
ATOM     60  C   UNL A   1      42.398  30.565  32.927  1.00  0.00     0.037 A 
ATOM     61  C   UNL A   1      44.353  25.194  29.195  1.00  0.00     0.049 A 
ATOM     62  C   UNL A   1      43.204  29.317  33.284  1.00  0.00     0.074 A 
ATOM     63  C   UNL A   1      45.715  25.474  29.118  1.00  0.00     0.029 A 
ATOM     64  N   UNL A   1      43.998  25.608  30.472  1.00  0.00    -0.354 N 
ATOM     65  N   UNL A   1      43.811  28.501  32.439  1.00  0.00    -0.248 NA
ATOM     66  C   UNL A   1      43.340  28.870  34.667  1.00  0.00     0.031 C 
ATOM     67  C   UNL A   1      46.136  26.110  30.326  1.00  0.00     0.029 A 
ATOM     68  C   UNL A   1      45.050  26.140  31.176  1.00  0.00     0.049 A 
ATOM     69  H   UNL A   1      43.086  25.529  30.836  1.00  0.00     0.167 HD
ATOM     70  C   UNL A   1      44.301  27.406  33.135  1.00  0.00     0.074 A 
ATOM     71  C   UNL A   1      43.987  27.704  34.522  1.00  0.00     0.031 C 
ATOM     72  C   UNL A   1      44.886  26.283  32.601  1.00  0.00     0.037 A 
BRANCH  59  73
ATOM     73  C   UNL A   1      43.657  23.850  27.008  1.00  0.00     0.057 A 
ATOM     74  C   UNL A   1      44.218  24.456  25.854  1.00  0.00     0.134 A 
ATOM     75  C   UNL A   1      43.356  22.485  26.787  1.00  0.00     0.134 A 
ATOM     76  F   UNL A   1      44.734  25.691  25.888  1.00  0.00    -0.206 F 
ATOM     77  C   UNL A   1      44.329  23.830  24.594  1.00  0.00     0.040 A 
ATOM     78  C   UNL A   1      43.559  21.816  25.556  1.00  0.00     0.040 A 
ATOM     79  F   UNL A   1      42.821  21.703  27.726  1.00  0.00    -0.206 F 
ATOM     80  C   UNL A   1      44.003  22.497  24.438  1.00  0.00     0.006 A 
ENDBRANCH  59  73
BRANCH  60  81
ATOM     81  C   UNL A   1      41.372  31.419  33.625  1.00  0.00     0.057 A 
ATOM     82  C   UNL A   1      40.515  30.647  34.458  1.00  0.00     0.134 A 
ATOM     83  C   UNL A   1      41.770  32.662  34.142  1.00  0.00     0.134 A 
ATOM     84  F   UNL A   1      40.054  29.462  34.024  1.00  0.00    -0.206 F 
ATOM     85  C   UNL A   1      40.366  30.925  35.825  1.00  0.00     0.040 A 
ATOM     86  C   UNL A   1      41.609  32.956  35.511  1.00  0.00     0.040 A 
ATOM     87  F   UNL A   1      42.562  33.466  33.418  1.00  0.00    -0.206 F 
ATOM     88  C   UNL A   1      40.974  32.052  36.367  1.00  0.00     0.006 A 
ENDBRANCH  60  81
BRANCH  72  89
ATOM     89  C   UNL A   1      45.313  25.058  33.388  1.00  0.00     0.057 A 
ATOM     90  C   UNL A   1      44.416  24.212  34.037  1.00  0.00     0.134 A 
ATOM     91  C   UNL A   1      46.686  24.779  33.624  1.00  0.00     0.134 A 
ATOM     92  F   UNL A   1      43.097  24.451  34.002  1.00  0.00    -0.206 F 
ATOM     93  C   UNL A   1      44.848  23.101  34.774  1.00  0.00     0.040 A 
ATOM     94  C   UNL A   1      47.128  23.716  34.408  1.00  0.00     0.040 A 
ATOM     95  F   UNL A   1      47.673  25.517  33.095  1.00  0.00    -0.206 F 
ATOM     96  C   UNL A   1      46.205  22.848  34.960  1.00  0.00     0.006 A 
ENDBRANCH  72  89
ENDBRANCH  46  47
ENDBRANCH  39  41
ENDBRANCH  38  39
ENDBRANCH  37  38
ENDBRANCH  36  37
ENDBRANCH  35  36
ENDBRANCH  34  35
ENDBRANCH  33  34
ENDBRANCH   1  33
TORSDOF 23
ENDMDL
