MODEL 1
REMARK VINA RESULT:      -9.9      0.000      0.000
REMARK SMILES O=C(OCCOCCOCCOCCOC(=O)c1cnc2c(C(F)(F)F)cccc2c1NCc1cccnc1)c1ccc(-c2c3nc(c(-c4c(F)cccc4F)c4ccc([nH]4)c(-c4c(F)cccc4F)c4nc(c(-c5c(F)cccc5F)c5ccc2[nH]5)C=C4)C=C3)cc1
REMARK SMILES IDX 10 1 9 2 8 3 7 4 6 5 5 6 4 7 3 8 2 9 1 10 40 11 41 12 93 13
REMARK SMILES IDX 42 14 92 15 43 16 44 17 45 18 86 19 46 20 91 21 85 22 87 23
REMARK SMILES IDX 47 24 90 25 84 26 83 27 48 29 74 30 57 31 73 32 58 33 61 34
REMARK SMILES IDX 72 35 88 36 59 37 60 38 71 40 89 41 62 42 49 43 50 44 55 45
REMARK SMILES IDX 51 46 52 47 54 48 56 49 53 50 75 51 76 52 81 53 77 54 78 55
REMARK SMILES IDX 80 56 82 57 79 58 63 59 64 60 69 61 65 62 66 63 68 64 70 65
REMARK SMILES IDX 67 66 11 67 12 68 13 69 14 70 15 71 16 72 17 73 18 74 19 75
REMARK SMILES IDX 31 76 20 77 30 78 21 79 29 80 22 81 28 82 27 83 32 84 33 86
REMARK SMILES IDX 34 87 35 88 39 89 36 90 38 91 37 92 23 93 24 94 25 95 26 96
REMARK H PARENT 87 28 61 39 32 85
REMARK Flexibility Score: inf
ROOT
ATOM      1  C   UNL A   1      37.836  22.821  26.295  1.00  0.00     0.188 C 
ENDROOT
BRANCH   1   2
ATOM      2  O   UNL A   1      39.144  22.656  25.778  1.00  0.00    -0.377 OA
BRANCH   2   3
ATOM      3  C   UNL A   1      40.163  22.204  26.659  1.00  0.00     0.188 C 
BRANCH   3   4
ATOM      4  C   UNL A   1      40.537  20.731  26.509  1.00  0.00     0.188 C 
BRANCH   4   5
ATOM      5  O   UNL A   1      41.934  20.538  26.301  1.00  0.00    -0.376 OA
BRANCH   5   6
ATOM      6  C   UNL A   1      42.459  19.287  26.725  1.00  0.00     0.202 C 
BRANCH   6   7
ATOM      7  C   UNL A   1      42.913  18.494  25.496  1.00  0.00     0.261 C 
BRANCH   7   8
ATOM      8  O   UNL A   1      44.333  18.513  25.225  1.00  0.00    -0.460 OA
BRANCH   8   9
ATOM      9  C   UNL A   1      44.829  19.331  24.262  1.00  0.00     0.338 C 
ATOM     10  O   UNL A   1      44.894  18.999  23.086  1.00  0.00    -0.246 OA
BRANCH   9  11
ATOM     11  C   UNL A   1      44.978  20.755  24.684  1.00  0.00     0.060 A 
ATOM     12  C   UNL A   1      45.501  21.146  25.923  1.00  0.00     0.016 A 
ATOM     13  C   UNL A   1      44.638  21.744  23.754  1.00  0.00     0.016 A 
ATOM     14  C   UNL A   1      45.670  22.494  26.239  1.00  0.00     0.010 A 
ATOM     15  C   UNL A   1      44.795  23.097  24.069  1.00  0.00     0.010 A 
ATOM     16  C   UNL A   1      45.306  23.477  25.319  1.00  0.00    -0.014 A 
BRANCH  16  17
ATOM     17  C   UNL A   1      45.376  24.906  25.690  1.00  0.00     0.031 A 
ATOM     18  C   UNL A   1      46.698  25.606  25.606  1.00  0.00     0.074 A 
ATOM     19  C   UNL A   1      44.276  25.566  26.094  1.00  0.00     0.049 A 
ATOM     20  N   UNL A   1      47.036  26.794  26.035  1.00  0.00    -0.248 NA
ATOM     21  C   UNL A   1      47.787  24.869  24.945  1.00  0.00     0.031 C 
ATOM     22  C   UNL A   1      42.922  25.012  26.139  1.00  0.00     0.029 A 
ATOM     23  N   UNL A   1      44.132  26.847  26.564  1.00  0.00    -0.354 N 
ATOM     24  C   UNL A   1      48.384  26.932  25.731  1.00  0.00     0.074 A 
ATOM     25  C   UNL A   1      48.799  25.714  25.067  1.00  0.00     0.031 C 
ATOM     26  C   UNL A   1      42.088  25.943  26.636  1.00  0.00     0.029 A 
ATOM     27  C   UNL A   1      42.858  27.132  26.992  1.00  0.00     0.049 A 
ATOM     28  H   UNL A   1      44.869  27.499  26.591  1.00  0.00     0.167 HD
ATOM     29  C   UNL A   1      49.200  27.976  25.996  1.00  0.00     0.037 A 
ATOM     30  C   UNL A   1      42.385  28.212  27.645  1.00  0.00     0.037 A 
ATOM     31  C   UNL A   1      48.777  29.185  26.649  1.00  0.00     0.049 A 
ATOM     32  C   UNL A   1      43.334  29.326  28.002  1.00  0.00     0.074 A 
ATOM     33  C   UNL A   1      49.524  30.306  26.959  1.00  0.00     0.029 A 
ATOM     34  N   UNL A   1      47.487  29.423  27.099  1.00  0.00    -0.354 N 
ATOM     35  N   UNL A   1      44.610  29.448  27.724  1.00  0.00    -0.248 NA
ATOM     36  C   UNL A   1      42.784  30.443  28.786  1.00  0.00     0.031 C 
ATOM     37  C   UNL A   1      48.694  31.209  27.632  1.00  0.00     0.029 A 
ATOM     38  C   UNL A   1      47.423  30.662  27.710  1.00  0.00     0.049 A 
ATOM     39  H   UNL A   1      46.730  28.802  26.999  1.00  0.00     0.167 HD
ATOM     40  C   UNL A   1      45.011  30.651  28.292  1.00  0.00     0.074 A 
ATOM     41  C   UNL A   1      43.838  31.237  28.907  1.00  0.00     0.031 C 
ATOM     42  C   UNL A   1      46.241  31.221  28.312  1.00  0.00     0.037 A 
BRANCH  29  43
ATOM     43  C   UNL A   1      50.643  27.835  25.624  1.00  0.00     0.057 A 
ATOM     44  C   UNL A   1      51.621  27.498  26.566  1.00  0.00     0.134 A 
ATOM     45  C   UNL A   1      51.052  28.019  24.297  1.00  0.00     0.134 A 
ATOM     46  F   UNL A   1      51.295  27.332  27.857  1.00  0.00    -0.206 F 
ATOM     47  C   UNL A   1      52.962  27.359  26.202  1.00  0.00     0.040 A 
ATOM     48  C   UNL A   1      52.385  27.865  23.918  1.00  0.00     0.040 A 
ATOM     49  F   UNL A   1      50.160  28.348  23.350  1.00  0.00    -0.206 F 
ATOM     50  C   UNL A   1      53.344  27.536  24.873  1.00  0.00     0.006 A 
ENDBRANCH  29  43
BRANCH  30  51
ATOM     51  C   UNL A   1      40.964  28.272  28.075  1.00  0.00     0.057 A 
ATOM     52  C   UNL A   1      39.984  28.854  27.262  1.00  0.00     0.134 A 
ATOM     53  C   UNL A   1      40.561  27.798  29.330  1.00  0.00     0.134 A 
ATOM     54  F   UNL A   1      40.312  29.355  26.062  1.00  0.00    -0.206 F 
ATOM     55  C   UNL A   1      38.661  28.983  27.690  1.00  0.00     0.040 A 
ATOM     56  C   UNL A   1      39.237  27.896  29.759  1.00  0.00     0.040 A 
ATOM     57  F   UNL A   1      41.453  27.238  30.160  1.00  0.00    -0.206 F 
ATOM     58  C   UNL A   1      38.284  28.499  28.942  1.00  0.00     0.006 A 
ENDBRANCH  30  51
BRANCH  42  59
ATOM     59  C   UNL A   1      46.375  32.537  29.015  1.00  0.00     0.057 A 
ATOM     60  C   UNL A   1      46.731  32.611  30.367  1.00  0.00     0.134 A 
ATOM     61  C   UNL A   1      46.203  33.740  28.320  1.00  0.00     0.134 A 
ATOM     62  F   UNL A   1      46.897  31.491  31.088  1.00  0.00    -0.206 F 
ATOM     63  C   UNL A   1      46.898  33.838  31.008  1.00  0.00     0.040 A 
ATOM     64  C   UNL A   1      46.389  34.974  28.946  1.00  0.00     0.040 A 
ATOM     65  F   UNL A   1      45.871  33.735  27.020  1.00  0.00    -0.206 F 
ATOM     66  C   UNL A   1      46.735  35.024  30.294  1.00  0.00     0.006 A 
ENDBRANCH  42  59
ENDBRANCH  16  17
ENDBRANCH   9  11
ENDBRANCH   8   9
ENDBRANCH   7   8
ENDBRANCH   6   7
ENDBRANCH   5   6
ENDBRANCH   4   5
ENDBRANCH   3   4
ENDBRANCH   2   3
ENDBRANCH   1   2
BRANCH   1  67
ATOM     67  C   UNL A   1      36.875  23.487  25.292  1.00  0.00     0.188 C 
BRANCH  67  68
ATOM     68  O   UNL A   1      35.857  24.326  25.822  1.00  0.00    -0.376 OA
BRANCH  68  69
ATOM     69  C   UNL A   1      34.526  24.118  25.331  1.00  0.00     0.202 C 
BRANCH  69  70
ATOM     70  C   UNL A   1      33.855  25.292  24.596  1.00  0.00     0.261 C 
BRANCH  70  71
ATOM     71  O   UNL A   1      33.747  26.473  25.428  1.00  0.00    -0.460 OA
BRANCH  71  72
ATOM     72  C   UNL A   1      33.787  27.690  24.837  1.00  0.00     0.341 C 
ATOM     73  O   UNL A   1      33.920  27.898  23.627  1.00  0.00    -0.246 OA
BRANCH  72  74
ATOM     74  C   UNL A   1      33.688  28.768  25.845  1.00  0.00     0.102 A 
ATOM     75  C   UNL A   1      34.700  28.748  26.798  1.00  0.00     0.129 A 
ATOM     76  C   UNL A   1      32.835  29.893  25.803  1.00  0.00     0.060 A 
ATOM     77  N   UNL A   1      34.977  29.751  27.656  1.00  0.00    -0.255 NA
ATOM     78  C   UNL A   1      33.108  30.960  26.748  1.00  0.00     0.025 A 
ATOM     79  C   UNL A   1      34.230  30.857  27.613  1.00  0.00     0.085 A 
ATOM     80  C   UNL A   1      32.321  32.140  26.850  1.00  0.00     0.012 A 
ATOM     81  C   UNL A   1      34.586  31.931  28.428  1.00  0.00     0.082 A 
ATOM     82  C   UNL A   1      32.668  33.198  27.687  1.00  0.00     0.001 A 
ATOM     83  C   UNL A   1      33.811  33.102  28.460  1.00  0.00     0.015 A 
BRANCH  76  84
ATOM     84  N   UNL A   1      31.728  30.072  24.972  1.00  0.00    -0.380 N 
ATOM     85  H   UNL A   1      31.462  31.011  24.851  1.00  0.00     0.160 HD
BRANCH  84  86
ATOM     86  C   UNL A   1      30.896  29.124  24.255  1.00  0.00     0.150 C 
BRANCH  86  87
ATOM     87  C   UNL A   1      29.788  29.777  23.459  1.00  0.00    -0.011 A 
ATOM     88  C   UNL A   1      29.328  31.048  23.835  1.00  0.00     0.009 A 
ATOM     89  C   UNL A   1      29.200  29.213  22.331  1.00  0.00     0.116 A 
ATOM     90  C   UNL A   1      28.302  31.666  23.120  1.00  0.00     0.020 A 
ATOM     91  N   UNL A   1      28.213  29.800  21.605  1.00  0.00    -0.264 NA
ATOM     92  C   UNL A   1      27.775  31.003  22.029  1.00  0.00     0.111 A 
ENDBRANCH  86  87
ENDBRANCH  84  86
ENDBRANCH  76  84
BRANCH  81  93
ATOM     93  C   UNL A   1      35.834  31.842  29.269  1.00  0.00     0.418 C 
ATOM     94  F   UNL A   1      36.984  31.859  28.542  1.00  0.00    -0.166 F 
ATOM     95  F   UNL A   1      35.942  32.829  30.203  1.00  0.00    -0.166 F 
ATOM     96  F   UNL A   1      35.892  30.678  29.990  1.00  0.00    -0.166 F 
ENDBRANCH  81  93
ENDBRANCH  72  74
ENDBRANCH  71  72
ENDBRANCH  70  71
ENDBRANCH  69  70
ENDBRANCH  68  69
ENDBRANCH  67  68
ENDBRANCH   1  67
TORSDOF 24
ENDMDL
MODEL 2
REMARK VINA RESULT:      -9.6      2.122      3.870
REMARK SMILES O=C(OCCOCCOCCOCCOC(=O)c1cnc2c(C(F)(F)F)cccc2c1NCc1cccnc1)c1ccc(-c2c3nc(c(-c4c(F)cccc4F)c4ccc([nH]4)c(-c4c(F)cccc4F)c4nc(c(-c5c(F)cccc5F)c5ccc2[nH]5)C=C4)C=C3)cc1
REMARK SMILES IDX 10 1 9 2 8 3 7 4 6 5 5 6 4 7 3 8 2 9 1 10 40 11 41 12 93 13
REMARK SMILES IDX 42 14 92 15 43 16 44 17 45 18 86 19 46 20 91 21 85 22 87 23
REMARK SMILES IDX 47 24 90 25 84 26 83 27 48 29 74 30 57 31 73 32 58 33 61 34
REMARK SMILES IDX 72 35 88 36 59 37 60 38 71 40 89 41 62 42 49 43 50 44 55 45
REMARK SMILES IDX 51 46 52 47 54 48 56 49 53 50 75 51 76 52 81 53 77 54 78 55
REMARK SMILES IDX 80 56 82 57 79 58 63 59 64 60 69 61 65 62 66 63 68 64 70 65
REMARK SMILES IDX 67 66 11 67 12 68 13 69 14 70 15 71 16 72 17 73 18 74 19 75
REMARK SMILES IDX 31 76 20 77 30 78 21 79 29 80 22 81 28 82 27 83 32 84 33 86
REMARK SMILES IDX 34 87 35 88 39 89 36 90 38 91 37 92 23 93 24 94 25 95 26 96
REMARK H PARENT 87 28 61 39 32 85
REMARK Flexibility Score: inf
ROOT
ATOM      1  C   UNL A   1      37.789  22.748  26.171  1.00  0.00     0.188 C 
ENDROOT
BRANCH   1   2
ATOM      2  O   UNL A   1      39.191  22.878  26.023  1.00  0.00    -0.377 OA
BRANCH   2   3
ATOM      3  C   UNL A   1      40.031  22.173  26.928  1.00  0.00     0.188 C 
BRANCH   3   4
ATOM      4  C   UNL A   1      40.398  20.755  26.494  1.00  0.00     0.188 C 
BRANCH   4   5
ATOM      5  O   UNL A   1      41.769  20.634  26.124  1.00  0.00    -0.376 OA
BRANCH   5   6
ATOM      6  C   UNL A   1      42.444  19.479  26.608  1.00  0.00     0.202 C 
BRANCH   6   7
ATOM      7  C   UNL A   1      42.788  18.571  25.425  1.00  0.00     0.261 C 
BRANCH   7   8
ATOM      8  O   UNL A   1      44.195  18.439  25.121  1.00  0.00    -0.460 OA
BRANCH   8   9
ATOM      9  C   UNL A   1      44.760  19.224  24.170  1.00  0.00     0.338 C 
ATOM     10  O   UNL A   1      44.869  18.871  23.003  1.00  0.00    -0.246 OA
BRANCH   9  11
ATOM     11  C   UNL A   1      44.934  20.651  24.577  1.00  0.00     0.060 A 
ATOM     12  C   UNL A   1      45.531  21.046  25.780  1.00  0.00     0.016 A 
ATOM     13  C   UNL A   1      44.538  21.636  23.664  1.00  0.00     0.016 A 
ATOM     14  C   UNL A   1      45.718  22.395  26.080  1.00  0.00     0.010 A 
ATOM     15  C   UNL A   1      44.714  22.989  23.964  1.00  0.00     0.010 A 
ATOM     16  C   UNL A   1      45.298  23.375  25.179  1.00  0.00    -0.014 A 
BRANCH  16  17
ATOM     17  C   UNL A   1      45.391  24.805  25.540  1.00  0.00     0.031 A 
ATOM     18  C   UNL A   1      46.713  25.498  25.403  1.00  0.00     0.074 A 
ATOM     19  C   UNL A   1      44.310  25.474  25.981  1.00  0.00     0.049 A 
ATOM     20  N   UNL A   1      47.073  26.685  25.812  1.00  0.00    -0.248 NA
ATOM     21  C   UNL A   1      47.772  24.750  24.705  1.00  0.00     0.031 C 
ATOM     22  C   UNL A   1      42.956  24.928  26.079  1.00  0.00     0.029 A 
ATOM     23  N   UNL A   1      44.191  26.759  26.449  1.00  0.00    -0.354 N 
ATOM     24  C   UNL A   1      48.409  26.814  25.457  1.00  0.00     0.074 A 
ATOM     25  C   UNL A   1      48.793  25.590  24.785  1.00  0.00     0.031 C 
ATOM     26  C   UNL A   1      42.147  25.866  26.602  1.00  0.00     0.029 A 
ATOM     27  C   UNL A   1      42.935  27.053  26.922  1.00  0.00     0.049 A 
ATOM     28  H   UNL A   1      44.933  27.406  26.445  1.00  0.00     0.167 HD
ATOM     29  C   UNL A   1      49.240  27.855  25.686  1.00  0.00     0.037 A 
ATOM     30  C   UNL A   1      42.493  28.139  27.587  1.00  0.00     0.037 A 
ATOM     31  C   UNL A   1      48.849  29.070  26.348  1.00  0.00     0.049 A 
ATOM     32  C   UNL A   1      43.461  29.250  27.902  1.00  0.00     0.074 A 
ATOM     33  C   UNL A   1      49.613  30.188  26.624  1.00  0.00     0.029 A 
ATOM     34  N   UNL A   1      47.578  29.317  26.844  1.00  0.00    -0.354 N 
ATOM     35  N   UNL A   1      44.727  29.362  27.576  1.00  0.00    -0.248 NA
ATOM     36  C   UNL A   1      42.947  30.373  28.699  1.00  0.00     0.031 C 
ATOM     37  C   UNL A   1      48.815  31.099  27.322  1.00  0.00     0.029 A 
ATOM     38  C   UNL A   1      47.544  30.560  27.451  1.00  0.00     0.049 A 
ATOM     39  H   UNL A   1      46.814  28.700  26.776  1.00  0.00     0.167 HD
ATOM     40  C   UNL A   1      45.155  30.567  28.122  1.00  0.00     0.074 A 
ATOM     41  C   UNL A   1      44.010  31.162  28.777  1.00  0.00     0.031 C 
ATOM     42  C   UNL A   1      46.388  31.128  28.093  1.00  0.00     0.037 A 
BRANCH  29  43
ATOM     43  C   UNL A   1      50.668  27.703  25.261  1.00  0.00     0.057 A 
ATOM     44  C   UNL A   1      51.075  27.916  23.940  1.00  0.00     0.134 A 
ATOM     45  C   UNL A   1      51.650  27.361  26.198  1.00  0.00     0.134 A 
ATOM     46  F   UNL A   1      50.177  28.224  22.992  1.00  0.00    -0.206 F 
ATOM     47  C   UNL A   1      52.412  27.783  23.562  1.00  0.00     0.040 A 
ATOM     48  C   UNL A   1      52.992  27.242  25.837  1.00  0.00     0.040 A 
ATOM     49  F   UNL A   1      51.320  27.140  27.480  1.00  0.00    -0.206 F 
ATOM     50  C   UNL A   1      53.375  27.451  24.514  1.00  0.00     0.006 A 
ENDBRANCH  29  43
BRANCH  30  51
ATOM     51  C   UNL A   1      41.089  28.210  28.068  1.00  0.00     0.057 A 
ATOM     52  C   UNL A   1      40.715  27.657  29.299  1.00  0.00     0.134 A 
ATOM     53  C   UNL A   1      40.078  28.784  27.287  1.00  0.00     0.134 A 
ATOM     54  F   UNL A   1      41.632  27.065  30.079  1.00  0.00    -0.206 F 
ATOM     55  C   UNL A   1      39.385  27.652  29.724  1.00  0.00     0.040 A 
ATOM     56  C   UNL A   1      38.750  28.810  27.712  1.00  0.00     0.040 A 
ATOM     57  F   UNL A   1      40.369  29.323  26.094  1.00  0.00    -0.206 F 
ATOM     58  C   UNL A   1      38.398  28.235  28.930  1.00  0.00     0.006 A 
ENDBRANCH  30  51
BRANCH  42  59
ATOM     59  C   UNL A   1      46.556  32.448  28.783  1.00  0.00     0.057 A 
ATOM     60  C   UNL A   1      46.307  33.656  28.120  1.00  0.00     0.134 A 
ATOM     61  C   UNL A   1      46.914  32.509  30.135  1.00  0.00     0.134 A 
ATOM     62  F   UNL A   1      45.973  33.661  26.821  1.00  0.00    -0.206 F 
ATOM     63  C   UNL A   1      46.422  34.882  28.776  1.00  0.00     0.040 A 
ATOM     64  C   UNL A   1      47.010  33.728  30.807  1.00  0.00     0.040 A 
ATOM     65  F   UNL A   1      47.157  31.385  30.827  1.00  0.00    -0.206 F 
ATOM     66  C   UNL A   1      46.766  34.918  30.126  1.00  0.00     0.006 A 
ENDBRANCH  42  59
ENDBRANCH  16  17
ENDBRANCH   9  11
ENDBRANCH   8   9
ENDBRANCH   7   8
ENDBRANCH   6   7
ENDBRANCH   5   6
ENDBRANCH   4   5
ENDBRANCH   3   4
ENDBRANCH   2   3
ENDBRANCH   1   2
BRANCH   1  67
ATOM     67  C   UNL A   1      37.008  23.265  24.947  1.00  0.00     0.188 C 
BRANCH  67  68
ATOM     68  O   UNL A   1      35.588  23.238  25.021  1.00  0.00    -0.376 OA
BRANCH  68  69
ATOM     69  C   UNL A   1      34.873  23.437  23.795  1.00  0.00     0.202 C 
BRANCH  69  70
ATOM     70  C   UNL A   1      33.570  24.255  23.865  1.00  0.00     0.261 C 
BRANCH  70  71
ATOM     71  O   UNL A   1      33.818  25.678  23.976  1.00  0.00    -0.460 OA
BRANCH  71  72
ATOM     72  C   UNL A   1      33.379  26.330  25.078  1.00  0.00     0.341 C 
ATOM     73  O   UNL A   1      33.514  25.944  26.244  1.00  0.00    -0.246 OA
BRANCH  72  74
ATOM     74  C   UNL A   1      32.667  27.571  24.705  1.00  0.00     0.102 A 
ATOM     75  C   UNL A   1      31.911  27.465  23.543  1.00  0.00     0.129 A 
ATOM     76  C   UNL A   1      32.509  28.729  25.498  1.00  0.00     0.060 A 
ATOM     77  N   UNL A   1      30.985  28.357  23.137  1.00  0.00    -0.255 NA
ATOM     78  C   UNL A   1      31.538  29.709  25.046  1.00  0.00     0.025 A 
ATOM     79  C   UNL A   1      30.764  29.439  23.887  1.00  0.00     0.085 A 
ATOM     80  C   UNL A   1      31.289  30.937  25.717  1.00  0.00     0.012 A 
ATOM     81  C   UNL A   1      29.732  30.303  23.517  1.00  0.00     0.082 A 
ATOM     82  C   UNL A   1      30.275  31.809  25.327  1.00  0.00     0.001 A 
ATOM     83  C   UNL A   1      29.484  31.482  24.241  1.00  0.00     0.015 A 
BRANCH  76  84
ATOM     84  N   UNL A   1      33.220  29.053  26.656  1.00  0.00    -0.380 N 
ATOM     85  H   UNL A   1      32.661  29.132  27.463  1.00  0.00     0.160 HD
BRANCH  84  86
ATOM     86  C   UNL A   1      34.631  29.295  26.886  1.00  0.00     0.150 C 
BRANCH  86  87
ATOM     87  C   UNL A   1      34.917  30.639  27.518  1.00  0.00    -0.011 A 
ATOM     88  C   UNL A   1      33.869  31.557  27.685  1.00  0.00     0.009 A 
ATOM     89  C   UNL A   1      36.165  31.032  27.990  1.00  0.00     0.116 A 
ATOM     90  C   UNL A   1      34.110  32.805  28.258  1.00  0.00     0.020 A 
ATOM     91  N   UNL A   1      36.424  32.232  28.569  1.00  0.00    -0.264 NA
ATOM     92  C   UNL A   1      35.395  33.098  28.671  1.00  0.00     0.111 A 
ENDBRANCH  86  87
ENDBRANCH  84  86
ENDBRANCH  76  84
BRANCH  81  93
ATOM     93  C   UNL A   1      28.859  29.955  22.340  1.00  0.00     0.418 C 
ATOM     94  F   UNL A   1      29.355  30.383  21.147  1.00  0.00    -0.166 F 
ATOM     95  F   UNL A   1      28.616  28.620  22.210  1.00  0.00    -0.166 F 
ATOM     96  F   UNL A   1      27.615  30.523  22.428  1.00  0.00    -0.166 F 
ENDBRANCH  81  93
ENDBRANCH  72  74
ENDBRANCH  71  72
ENDBRANCH  70  71
ENDBRANCH  69  70
ENDBRANCH  68  69
ENDBRANCH  67  68
ENDBRANCH   1  67
TORSDOF 24
ENDMDL
MODEL 3
REMARK VINA RESULT:      -8.9      3.377      6.035
REMARK SMILES O=C(OCCOCCOCCOCCOC(=O)c1cnc2c(C(F)(F)F)cccc2c1NCc1cccnc1)c1ccc(-c2c3nc(c(-c4c(F)cccc4F)c4ccc([nH]4)c(-c4c(F)cccc4F)c4nc(c(-c5c(F)cccc5F)c5ccc2[nH]5)C=C4)C=C3)cc1
REMARK SMILES IDX 10 1 9 2 8 3 7 4 6 5 5 6 4 7 3 8 2 9 1 10 40 11 41 12 93 13
REMARK SMILES IDX 42 14 92 15 43 16 44 17 45 18 86 19 46 20 91 21 85 22 87 23
REMARK SMILES IDX 47 24 90 25 84 26 83 27 48 29 74 30 57 31 73 32 58 33 61 34
REMARK SMILES IDX 72 35 88 36 59 37 60 38 71 40 89 41 62 42 49 43 50 44 55 45
REMARK SMILES IDX 51 46 52 47 54 48 56 49 53 50 75 51 76 52 81 53 77 54 78 55
REMARK SMILES IDX 80 56 82 57 79 58 63 59 64 60 69 61 65 62 66 63 68 64 70 65
REMARK SMILES IDX 67 66 11 67 12 68 13 69 14 70 15 71 16 72 17 73 18 74 19 75
REMARK SMILES IDX 31 76 20 77 30 78 21 79 29 80 22 81 28 82 27 83 32 84 33 86
REMARK SMILES IDX 34 87 35 88 39 89 36 90 38 91 37 92 23 93 24 94 25 95 26 96
REMARK H PARENT 87 28 61 39 32 85
REMARK Flexibility Score: inf
ROOT
ATOM      1  C   UNL A   1      37.309  31.953  29.266  1.00  0.00     0.188 C 
ENDROOT
BRANCH   1   2
ATOM      2  O   UNL A   1      37.728  30.668  29.689  1.00  0.00    -0.377 OA
BRANCH   2   3
ATOM      3  C   UNL A   1      38.694  29.984  28.902  1.00  0.00     0.188 C 
BRANCH   3   4
ATOM      4  C   UNL A   1      38.812  28.488  29.186  1.00  0.00     0.188 C 
BRANCH   4   5
ATOM      5  O   UNL A   1      39.743  27.839  28.323  1.00  0.00    -0.376 OA
BRANCH   5   6
ATOM      6  C   UNL A   1      39.317  26.601  27.768  1.00  0.00     0.202 C 
BRANCH   6   7
ATOM      7  C   UNL A   1      39.913  25.454  28.590  1.00  0.00     0.261 C 
BRANCH   7   8
ATOM      8  O   UNL A   1      40.512  24.381  27.830  1.00  0.00    -0.460 OA
BRANCH   8   9
ATOM      9  C   UNL A   1      41.797  24.014  28.071  1.00  0.00     0.338 C 
ATOM     10  O   UNL A   1      42.131  22.847  28.222  1.00  0.00    -0.246 OA
BRANCH   9  11
ATOM     11  C   UNL A   1      42.799  25.090  27.813  1.00  0.00     0.060 A 
ATOM     12  C   UNL A   1      43.558  25.700  28.820  1.00  0.00     0.016 A 
ATOM     13  C   UNL A   1      43.033  25.450  26.481  1.00  0.00     0.016 A 
ATOM     14  C   UNL A   1      44.522  26.660  28.512  1.00  0.00     0.010 A 
ATOM     15  C   UNL A   1      43.990  26.419  26.168  1.00  0.00     0.010 A 
ATOM     16  C   UNL A   1      44.734  27.035  27.185  1.00  0.00    -0.014 A 
BRANCH  16  17
ATOM     17  C   UNL A   1      45.671  28.131  26.863  1.00  0.00     0.031 A 
ATOM     18  C   UNL A   1      47.112  27.796  26.617  1.00  0.00     0.074 A 
ATOM     19  C   UNL A   1      45.242  29.403  26.789  1.00  0.00     0.049 A 
ATOM     20  N   UNL A   1      48.138  28.595  26.487  1.00  0.00    -0.248 NA
ATOM     21  C   UNL A   1      47.439  26.366  26.499  1.00  0.00     0.031 C 
ATOM     22  C   UNL A   1      43.852  29.840  26.928  1.00  0.00     0.029 A 
ATOM     23  N   UNL A   1      45.943  30.568  26.597  1.00  0.00    -0.354 N 
ATOM     24  C   UNL A   1      49.237  27.766  26.309  1.00  0.00     0.074 A 
ATOM     25  C   UNL A   1      48.752  26.402  26.333  1.00  0.00     0.031 C 
ATOM     26  C   UNL A   1      43.807  31.181  26.843  1.00  0.00     0.029 A 
ATOM     27  C   UNL A   1      45.166  31.696  26.697  1.00  0.00     0.049 A 
ATOM     28  H   UNL A   1      46.908  30.591  26.405  1.00  0.00     0.167 HD
ATOM     29  C   UNL A   1      50.534  28.115  26.156  1.00  0.00     0.037 A 
ATOM     30  C   UNL A   1      45.525  32.995  26.721  1.00  0.00     0.037 A 
ATOM     31  C   UNL A   1      51.006  29.473  26.127  1.00  0.00     0.049 A 
ATOM     32  C   UNL A   1      46.985  33.353  26.631  1.00  0.00     0.074 A 
ATOM     33  C   UNL A   1      52.299  29.935  25.969  1.00  0.00     0.029 A 
ATOM     34  N   UNL A   1      50.193  30.588  26.266  1.00  0.00    -0.354 N 
ATOM     35  N   UNL A   1      48.023  32.566  26.476  1.00  0.00    -0.248 NA
ATOM     36  C   UNL A   1      47.328  34.779  26.744  1.00  0.00     0.031 C 
ATOM     37  C   UNL A   1      52.276  31.330  26.052  1.00  0.00     0.029 A 
ATOM     38  C   UNL A   1      50.962  31.737  26.227  1.00  0.00     0.049 A 
ATOM     39  H   UNL A   1      49.215  30.565  26.377  1.00  0.00     0.167 HD
ATOM     40  C   UNL A   1      49.135  33.399  26.468  1.00  0.00     0.074 A 
ATOM     41  C   UNL A   1      48.646  34.755  26.606  1.00  0.00     0.031 C 
ATOM     42  C   UNL A   1      50.448  33.074  26.365  1.00  0.00     0.037 A 
BRANCH  29  43
ATOM     43  C   UNL A   1      51.538  27.010  26.058  1.00  0.00     0.057 A 
ATOM     44  C   UNL A   1      52.150  26.462  27.192  1.00  0.00     0.134 A 
ATOM     45  C   UNL A   1      51.880  26.474  24.810  1.00  0.00     0.134 A 
ATOM     46  F   UNL A   1      51.881  26.948  28.413  1.00  0.00    -0.206 F 
ATOM     47  C   UNL A   1      53.076  25.423  27.086  1.00  0.00     0.040 A 
ATOM     48  C   UNL A   1      52.791  25.424  24.693  1.00  0.00     0.040 A 
ATOM     49  F   UNL A   1      51.330  26.961  23.687  1.00  0.00    -0.206 F 
ATOM     50  C   UNL A   1      53.393  24.897  25.833  1.00  0.00     0.006 A 
ENDBRANCH  29  43
BRANCH  30  51
ATOM     51  C   UNL A   1      44.503  34.057  26.909  1.00  0.00     0.057 A 
ATOM     52  C   UNL A   1      44.213  34.568  28.179  1.00  0.00     0.134 A 
ATOM     53  C   UNL A   1      43.755  34.548  25.831  1.00  0.00     0.134 A 
ATOM     54  F   UNL A   1      44.872  34.116  29.255  1.00  0.00    -0.206 F 
ATOM     55  C   UNL A   1      43.201  35.512  28.374  1.00  0.00     0.040 A 
ATOM     56  C   UNL A   1      42.760  35.510  26.008  1.00  0.00     0.040 A 
ATOM     57  F   UNL A   1      43.978  34.093  24.589  1.00  0.00    -0.206 F 
ATOM     58  C   UNL A   1      42.474  35.988  27.284  1.00  0.00     0.006 A 
ENDBRANCH  30  51
BRANCH  42  59
ATOM     59  C   UNL A   1      51.436  34.199  26.393  1.00  0.00     0.057 A 
ATOM     60  C   UNL A   1      51.822  34.862  25.221  1.00  0.00     0.134 A 
ATOM     61  C   UNL A   1      51.963  34.660  27.605  1.00  0.00     0.134 A 
ATOM     62  F   UNL A   1      51.361  34.458  24.028  1.00  0.00    -0.206 F 
ATOM     63  C   UNL A   1      52.710  35.938  25.254  1.00  0.00     0.040 A 
ATOM     64  C   UNL A   1      52.834  35.749  27.653  1.00  0.00     0.040 A 
ATOM     65  F   UNL A   1      51.624  34.072  28.763  1.00  0.00    -0.206 F 
ATOM     66  C   UNL A   1      53.211  36.390  26.474  1.00  0.00     0.006 A 
ENDBRANCH  42  59
ENDBRANCH  16  17
ENDBRANCH   9  11
ENDBRANCH   8   9
ENDBRANCH   7   8
ENDBRANCH   6   7
ENDBRANCH   5   6
ENDBRANCH   4   5
ENDBRANCH   3   4
ENDBRANCH   2   3
ENDBRANCH   1   2
BRANCH   1  67
ATOM     67  C   UNL A   1      36.247  31.899  28.150  1.00  0.00     0.188 C 
BRANCH  67  68
ATOM     68  O   UNL A   1      34.954  32.406  28.455  1.00  0.00    -0.376 OA
BRANCH  68  69
ATOM     69  C   UNL A   1      33.834  31.638  27.997  1.00  0.00     0.202 C 
BRANCH  69  70
ATOM     70  C   UNL A   1      34.137  30.324  27.254  1.00  0.00     0.261 C 
BRANCH  70  71
ATOM     71  O   UNL A   1      32.985  29.446  27.196  1.00  0.00    -0.460 OA
BRANCH  71  72
ATOM     72  C   UNL A   1      32.279  29.375  26.044  1.00  0.00     0.341 C 
ATOM     73  O   UNL A   1      31.657  30.307  25.523  1.00  0.00    -0.246 OA
BRANCH  72  74
ATOM     74  C   UNL A   1      32.313  28.004  25.491  1.00  0.00     0.102 A 
ATOM     75  C   UNL A   1      33.269  27.180  26.074  1.00  0.00     0.129 A 
ATOM     76  C   UNL A   1      31.363  27.415  24.627  1.00  0.00     0.060 A 
ATOM     77  N   UNL A   1      33.328  25.840  25.930  1.00  0.00    -0.255 NA
ATOM     78  C   UNL A   1      31.446  25.978  24.442  1.00  0.00     0.025 A 
ATOM     79  C   UNL A   1      32.415  25.235  25.166  1.00  0.00     0.085 A 
ATOM     80  C   UNL A   1      30.583  25.245  23.581  1.00  0.00     0.012 A 
ATOM     81  C   UNL A   1      32.418  23.841  25.106  1.00  0.00     0.082 A 
ATOM     82  C   UNL A   1      30.610  23.854  23.505  1.00  0.00     0.001 A 
ATOM     83  C   UNL A   1      31.512  23.152  24.283  1.00  0.00     0.015 A 
BRANCH  76  84
ATOM     84  N   UNL A   1      30.373  28.076  23.897  1.00  0.00    -0.380 N 
ATOM     85  H   UNL A   1      29.518  28.174  24.374  1.00  0.00     0.160 HD
BRANCH  84  86
ATOM     86  C   UNL A   1      30.375  28.644  22.562  1.00  0.00     0.150 C 
BRANCH  86  87
ATOM     87  C   UNL A   1      29.445  29.828  22.410  1.00  0.00    -0.011 A 
ATOM     88  C   UNL A   1      28.738  30.295  23.528  1.00  0.00     0.009 A 
ATOM     89  C   UNL A   1      29.260  30.528  21.223  1.00  0.00     0.116 A 
ATOM     90  C   UNL A   1      27.870  31.380  23.410  1.00  0.00     0.020 A 
ATOM     91  N   UNL A   1      28.436  31.598  21.084  1.00  0.00    -0.264 NA
ATOM     92  C   UNL A   1      27.746  31.986  22.175  1.00  0.00     0.111 A 
ENDBRANCH  86  87
ENDBRANCH  84  86
ENDBRANCH  76  84
BRANCH  81  93
ATOM     93  C   UNL A   1      33.392  23.065  25.955  1.00  0.00     0.418 C 
ATOM     94  F   UNL A   1      33.875  21.947  25.346  1.00  0.00    -0.166 F 
ATOM     95  F   UNL A   1      34.472  23.791  26.360  1.00  0.00    -0.166 F 
ATOM     96  F   UNL A   1      32.825  22.614  27.118  1.00  0.00    -0.166 F 
ENDBRANCH  81  93
ENDBRANCH  72  74
ENDBRANCH  71  72
ENDBRANCH  70  71
ENDBRANCH  69  70
ENDBRANCH  68  69
ENDBRANCH  67  68
ENDBRANCH   1  67
TORSDOF 24
ENDMDL
