MODEL 1
REMARK VINA RESULT:     -10.7      0.000      0.000
REMARK SMILES O=C(OCCOCCOCCOCCOC(=O)c1nnn(-c2cccc(C(F)(F)F)c2)c1[C@@H]1COc2ccccc2O1)c1ccc(-c2c3nc(c(-c4c(F)cccc4F)c4ccc([nH]4)c(-c4c(F)cccc4F)c4nc(c(-c5c(F)cccc5F)c5ccc2[nH]5)C=C4)C=C3)cc1
REMARK SMILES IDX 9 1 8 2 7 3 6 4 5 5 4 6 3 7 2 8 1 9 43 10 44 11 96 12 45 13
REMARK SMILES IDX 95 14 46 15 47 16 48 17 89 18 49 19 94 20 88 21 90 22 50 23
REMARK SMILES IDX 93 24 87 25 86 26 51 28 77 29 60 30 76 31 61 32 64 33 75 34
REMARK SMILES IDX 91 35 62 36 63 37 74 39 92 40 65 41 52 42 53 43 58 44 54 45
REMARK SMILES IDX 55 46 57 47 59 48 56 49 78 50 79 51 84 52 80 53 81 54 83 55
REMARK SMILES IDX 85 56 82 57 66 58 67 59 72 60 68 61 69 62 71 63 73 64 70 65
REMARK SMILES IDX 10 66 11 67 12 68 13 69 14 70 15 71 16 72 17 73 18 74 19 75
REMARK SMILES IDX 32 76 20 77 21 78 33 79 34 80 42 81 35 82 41 83 36 84 40 85
REMARK SMILES IDX 37 86 39 87 38 88 22 89 23 90 31 91 24 92 26 93 25 94 27 95
REMARK SMILES IDX 28 96 29 97 30 98
REMARK H PARENT 90 27 64 38
REMARK Flexibility Score: inf
ROOT
ATOM      1  O   UNL A   1      34.490  21.248  24.937  1.00  0.00    -0.377 OA
ENDROOT
BRANCH   1   2
ATOM      2  C   UNL A   1      35.813  20.731  24.967  1.00  0.00     0.188 C 
BRANCH   2   3
ATOM      3  C   UNL A   1      36.927  21.692  24.518  1.00  0.00     0.188 C 
BRANCH   3   4
ATOM      4  O   UNL A   1      36.980  23.089  24.784  1.00  0.00    -0.376 OA
BRANCH   4   5
ATOM      5  C   UNL A   1      37.707  23.730  25.807  1.00  0.00     0.202 C 
BRANCH   5   6
ATOM      6  C   UNL A   1      38.902  23.046  26.474  1.00  0.00     0.261 C 
BRANCH   6   7
ATOM      7  O   UNL A   1      40.014  23.888  26.777  1.00  0.00    -0.460 OA
BRANCH   7   8
ATOM      8  C   UNL A   1      40.235  25.178  26.455  1.00  0.00     0.338 C 
ATOM      9  O   UNL A   1      40.722  25.414  25.349  1.00  0.00    -0.246 OA
BRANCH   8  10
ATOM     10  C   UNL A   1      39.979  26.336  27.358  1.00  0.00     0.060 A 
ATOM     11  C   UNL A   1      40.133  27.686  27.038  1.00  0.00     0.016 A 
ATOM     12  C   UNL A   1      39.573  25.999  28.666  1.00  0.00     0.016 A 
ATOM     13  C   UNL A   1      40.052  28.656  28.019  1.00  0.00     0.010 A 
ATOM     14  C   UNL A   1      39.464  26.968  29.650  1.00  0.00     0.010 A 
ATOM     15  C   UNL A   1      39.792  28.279  29.330  1.00  0.00    -0.014 A 
BRANCH  15  16
ATOM     16  C   UNL A   1      39.992  29.294  30.345  1.00  0.00     0.031 A 
ATOM     17  C   UNL A   1      38.864  30.217  30.611  1.00  0.00     0.074 A 
ATOM     18  C   UNL A   1      41.161  29.366  31.007  1.00  0.00     0.049 A 
ATOM     19  N   UNL A   1      38.839  31.506  30.499  1.00  0.00    -0.248 NA
ATOM     20  C   UNL A   1      37.578  29.619  30.997  1.00  0.00     0.031 C 
ATOM     21  C   UNL A   1      42.250  28.382  31.023  1.00  0.00     0.029 A 
ATOM     22  N   UNL A   1      41.572  30.301  31.902  1.00  0.00    -0.354 N 
ATOM     23  C   UNL A   1      37.589  31.906  30.964  1.00  0.00     0.074 A 
ATOM     24  C   UNL A   1      36.818  30.702  31.154  1.00  0.00     0.031 C 
ATOM     25  C   UNL A   1      43.073  28.657  32.056  1.00  0.00     0.029 A 
ATOM     26  C   UNL A   1      42.642  29.896  32.680  1.00  0.00     0.049 A 
ATOM     27  H   UNL A   1      41.148  31.185  31.990  1.00  0.00     0.167 HD
ATOM     28  C   UNL A   1      37.331  33.186  31.345  1.00  0.00     0.037 A 
ATOM     29  C   UNL A   1      43.079  30.492  33.813  1.00  0.00     0.037 A 
ATOM     30  C   UNL A   1      38.285  34.117  30.810  1.00  0.00     0.049 A 
ATOM     31  C   UNL A   1      42.563  31.882  33.828  1.00  0.00     0.074 A 
ATOM     32  C   UNL A   1      38.663  34.500  29.537  1.00  0.00     0.029 A 
ATOM     33  N   UNL A   1      39.249  34.618  31.648  1.00  0.00    -0.354 N 
ATOM     34  N   UNL A   1      42.972  32.826  33.027  1.00  0.00    -0.248 NA
ATOM     35  C   UNL A   1      41.280  32.127  34.471  1.00  0.00     0.031 C 
ATOM     36  C   UNL A   1      40.057  34.783  29.633  1.00  0.00     0.029 A 
ATOM     37  C   UNL A   1      40.433  34.574  30.960  1.00  0.00     0.049 A 
ATOM     38  H   UNL A   1      39.115  34.948  32.566  1.00  0.00     0.167 HD
ATOM     39  C   UNL A   1      41.836  33.570  32.745  1.00  0.00     0.074 A 
ATOM     40  C   UNL A   1      40.854  33.161  33.743  1.00  0.00     0.031 C 
ATOM     41  C   UNL A   1      41.702  34.239  31.561  1.00  0.00     0.037 A 
BRANCH  28  42
ATOM     42  C   UNL A   1      36.398  33.552  32.467  1.00  0.00     0.057 A 
ATOM     43  C   UNL A   1      35.380  34.497  32.253  1.00  0.00     0.134 A 
ATOM     44  C   UNL A   1      36.647  33.227  33.815  1.00  0.00     0.134 A 
ATOM     45  F   UNL A   1      35.074  34.909  31.013  1.00  0.00    -0.206 F 
ATOM     46  C   UNL A   1      34.694  35.110  33.308  1.00  0.00     0.040 A 
ATOM     47  C   UNL A   1      35.935  33.797  34.873  1.00  0.00     0.040 A 
ATOM     48  F   UNL A   1      37.657  32.425  34.179  1.00  0.00    -0.206 F 
ATOM     49  C   UNL A   1      34.974  34.763  34.624  1.00  0.00     0.006 A 
ENDBRANCH  28  42
BRANCH  29  50
ATOM     50  C   UNL A   1      43.658  29.832  35.001  1.00  0.00     0.057 A 
ATOM     51  C   UNL A   1      42.959  28.832  35.686  1.00  0.00     0.134 A 
ATOM     52  C   UNL A   1      45.012  29.994  35.353  1.00  0.00     0.134 A 
ATOM     53  F   UNL A   1      41.680  28.569  35.387  1.00  0.00    -0.206 F 
ATOM     54  C   UNL A   1      43.572  28.031  36.658  1.00  0.00     0.040 A 
ATOM     55  C   UNL A   1      45.631  29.213  36.332  1.00  0.00     0.040 A 
ATOM     56  F   UNL A   1      45.803  30.858  34.702  1.00  0.00    -0.206 F 
ATOM     57  C   UNL A   1      44.914  28.218  36.980  1.00  0.00     0.006 A 
ENDBRANCH  29  50
BRANCH  41  58
ATOM     58  C   UNL A   1      42.917  34.374  30.690  1.00  0.00     0.057 A 
ATOM     59  C   UNL A   1      43.283  33.434  29.716  1.00  0.00     0.134 A 
ATOM     60  C   UNL A   1      43.652  35.565  30.731  1.00  0.00     0.134 A 
ATOM     61  F   UNL A   1      42.569  32.315  29.531  1.00  0.00    -0.206 F 
ATOM     62  C   UNL A   1      44.362  33.648  28.855  1.00  0.00     0.040 A 
ATOM     63  C   UNL A   1      44.712  35.805  29.853  1.00  0.00     0.040 A 
ATOM     64  F   UNL A   1      43.317  36.538  31.592  1.00  0.00    -0.206 F 
ATOM     65  C   UNL A   1      45.078  34.840  28.918  1.00  0.00     0.006 A 
ENDBRANCH  41  58
ENDBRANCH  15  16
ENDBRANCH   8  10
ENDBRANCH   7   8
ENDBRANCH   6   7
ENDBRANCH   5   6
ENDBRANCH   4   5
ENDBRANCH   3   4
ENDBRANCH   2   3
ENDBRANCH   1   2
BRANCH   1  66
ATOM     66  C   UNL A   1      33.926  21.492  26.204  1.00  0.00     0.188 C 
BRANCH  66  67
ATOM     67  C   UNL A   1      33.755  22.975  26.576  1.00  0.00     0.188 C 
BRANCH  67  68
ATOM     68  O   UNL A   1      32.514  23.526  27.000  1.00  0.00    -0.376 OA
BRANCH  68  69
ATOM     69  C   UNL A   1      31.465  23.826  26.099  1.00  0.00     0.202 C 
BRANCH  69  70
ATOM     70  C   UNL A   1      30.867  25.236  26.098  1.00  0.00     0.261 C 
BRANCH  70  71
ATOM     71  O   UNL A   1      30.749  25.837  24.806  1.00  0.00    -0.458 OA
BRANCH  71  72
ATOM     72  C   UNL A   1      30.844  27.196  24.778  1.00  0.00     0.361 C 
ATOM     73  O   UNL A   1      30.208  27.920  24.020  1.00  0.00    -0.244 OA
BRANCH  72  74
ATOM     74  C   UNL A   1      31.719  27.708  25.822  1.00  0.00     0.198 A 
ATOM     75  N   UNL A   1      31.233  27.971  27.079  1.00  0.00    -0.122 NA
ATOM     76  C   UNL A   1      33.098  27.901  25.827  1.00  0.00     0.123 A 
ATOM     77  N   UNL A   1      32.243  28.337  27.849  1.00  0.00    -0.061 NA
ATOM     78  N   UNL A   1      33.327  28.503  27.056  1.00  0.00    -0.213 N 
BRANCH  76  79
ATOM     79  C   UNL A   1      34.168  27.522  24.842  1.00  0.00     0.262 C 
ATOM     80  C   UNL A   1      34.100  28.293  23.515  1.00  0.00     0.281 C 
ATOM     81  O   UNL A   1      34.211  26.100  24.683  1.00  0.00    -0.477 OA
ATOM     82  O   UNL A   1      33.046  27.824  22.672  1.00  0.00    -0.485 OA
ATOM     83  C   UNL A   1      33.764  25.649  23.467  1.00  0.00     0.162 A 
ATOM     84  C   UNL A   1      33.166  26.470  22.508  1.00  0.00     0.161 A 
ATOM     85  C   UNL A   1      33.857  24.277  23.241  1.00  0.00     0.050 A 
ATOM     86  C   UNL A   1      32.606  25.920  21.357  1.00  0.00     0.050 A 
ATOM     87  C   UNL A   1      33.323  23.726  22.075  1.00  0.00     0.004 A 
ATOM     88  C   UNL A   1      32.687  24.545  21.140  1.00  0.00     0.004 A 
ENDBRANCH  76  79
BRANCH  78  89
ATOM     89  C   UNL A   1      34.160  29.602  27.330  1.00  0.00     0.067 A 
ATOM     90  C   UNL A   1      35.533  29.420  27.475  1.00  0.00     0.028 A 
ATOM     91  C   UNL A   1      33.566  30.859  27.502  1.00  0.00     0.041 A 
ATOM     92  C   UNL A   1      36.334  30.538  27.703  1.00  0.00     0.003 A 
ATOM     93  C   UNL A   1      34.362  31.972  27.784  1.00  0.00     0.058 A 
ATOM     94  C   UNL A   1      35.755  31.804  27.852  1.00  0.00     0.013 A 
BRANCH  93  95
ATOM     95  C   UNL A   1      33.732  33.326  27.983  1.00  0.00     0.416 C 
ATOM     96  F   UNL A   1      32.504  33.427  27.404  1.00  0.00    -0.166 F 
ATOM     97  F   UNL A   1      33.554  33.629  29.299  1.00  0.00    -0.166 F 
ATOM     98  F   UNL A   1      34.471  34.347  27.464  1.00  0.00    -0.166 F 
ENDBRANCH  93  95
ENDBRANCH  78  89
ENDBRANCH  72  74
ENDBRANCH  71  72
ENDBRANCH  70  71
ENDBRANCH  69  70
ENDBRANCH  68  69
ENDBRANCH  67  68
ENDBRANCH  66  67
ENDBRANCH   1  66
TORSDOF 23
ENDMDL
MODEL 2
REMARK VINA RESULT:     -10.6      3.767      8.010
REMARK SMILES O=C(OCCOCCOCCOCCOC(=O)c1nnn(-c2cccc(C(F)(F)F)c2)c1[C@@H]1COc2ccccc2O1)c1ccc(-c2c3nc(c(-c4c(F)cccc4F)c4ccc([nH]4)c(-c4c(F)cccc4F)c4nc(c(-c5c(F)cccc5F)c5ccc2[nH]5)C=C4)C=C3)cc1
REMARK SMILES IDX 9 1 8 2 7 3 6 4 5 5 4 6 3 7 2 8 1 9 43 10 44 11 96 12 45 13
REMARK SMILES IDX 95 14 46 15 47 16 48 17 89 18 49 19 94 20 88 21 90 22 50 23
REMARK SMILES IDX 93 24 87 25 86 26 51 28 77 29 60 30 76 31 61 32 64 33 75 34
REMARK SMILES IDX 91 35 62 36 63 37 74 39 92 40 65 41 52 42 53 43 58 44 54 45
REMARK SMILES IDX 55 46 57 47 59 48 56 49 78 50 79 51 84 52 80 53 81 54 83 55
REMARK SMILES IDX 85 56 82 57 66 58 67 59 72 60 68 61 69 62 71 63 73 64 70 65
REMARK SMILES IDX 10 66 11 67 12 68 13 69 14 70 15 71 16 72 17 73 18 74 19 75
REMARK SMILES IDX 32 76 20 77 21 78 33 79 34 80 42 81 35 82 41 83 36 84 40 85
REMARK SMILES IDX 37 86 39 87 38 88 22 89 23 90 31 91 24 92 26 93 25 94 27 95
REMARK SMILES IDX 28 96 29 97 30 98
REMARK H PARENT 90 27 64 38
REMARK Flexibility Score: inf
ROOT
ATOM      1  O   UNL A   1      35.723  32.501  28.051  1.00  0.00    -0.377 OA
ENDROOT
BRANCH   1   2
ATOM      2  C   UNL A   1      35.163  33.716  28.528  1.00  0.00     0.188 C 
BRANCH   2   3
ATOM      3  C   UNL A   1      33.691  33.974  28.162  1.00  0.00     0.188 C 
BRANCH   3   4
ATOM      4  O   UNL A   1      32.759  34.724  28.932  1.00  0.00    -0.376 OA
BRANCH   4   5
ATOM      5  C   UNL A   1      32.898  36.057  29.369  1.00  0.00     0.202 C 
BRANCH   5   6
ATOM      6  C   UNL A   1      33.066  36.387  30.854  1.00  0.00     0.261 C 
BRANCH   6   7
ATOM      7  O   UNL A   1      34.189  35.791  31.503  1.00  0.00    -0.460 OA
BRANCH   7   8
ATOM      8  C   UNL A   1      34.281  34.626  32.174  1.00  0.00     0.338 C 
ATOM      9  O   UNL A   1      33.253  34.177  32.681  1.00  0.00    -0.246 OA
BRANCH   8  10
ATOM     10  C   UNL A   1      35.547  33.868  32.390  1.00  0.00     0.060 A 
ATOM     11  C   UNL A   1      36.840  34.392  32.366  1.00  0.00     0.016 A 
ATOM     12  C   UNL A   1      35.388  32.484  32.609  1.00  0.00     0.016 A 
ATOM     13  C   UNL A   1      37.940  33.555  32.388  1.00  0.00     0.010 A 
ATOM     14  C   UNL A   1      36.485  31.640  32.658  1.00  0.00     0.010 A 
ATOM     15  C   UNL A   1      37.749  32.182  32.458  1.00  0.00    -0.014 A 
BRANCH  15  16
ATOM     16  C   UNL A   1      38.911  31.355  32.201  1.00  0.00     0.031 A 
ATOM     17  C   UNL A   1      39.789  31.043  33.354  1.00  0.00     0.074 A 
ATOM     18  C   UNL A   1      39.152  30.896  30.959  1.00  0.00     0.049 A 
ATOM     19  N   UNL A   1      41.044  31.320  33.503  1.00  0.00    -0.248 NA
ATOM     20  C   UNL A   1      39.172  30.386  34.515  1.00  0.00     0.031 C 
ATOM     21  C   UNL A   1      38.253  30.918  29.800  1.00  0.00     0.029 A 
ATOM     22  N   UNL A   1      40.232  30.209  30.504  1.00  0.00    -0.354 N 
ATOM     23  C   UNL A   1      41.426  30.725  34.703  1.00  0.00     0.074 A 
ATOM     24  C   UNL A   1      40.216  30.259  35.333  1.00  0.00     0.031 C 
ATOM     25  C   UNL A   1      38.726  30.071  28.863  1.00  0.00     0.029 A 
ATOM     26  C   UNL A   1      40.012  29.559  29.302  1.00  0.00     0.049 A 
ATOM     27  H   UNL A   1      41.090  30.176  30.985  1.00  0.00     0.167 HD
ATOM     28  C   UNL A   1      42.729  30.483  35.011  1.00  0.00     0.037 A 
ATOM     29  C   UNL A   1      40.793  28.597  28.759  1.00  0.00     0.037 A 
ATOM     30  C   UNL A   1      43.631  31.279  34.226  1.00  0.00     0.049 A 
ATOM     31  C   UNL A   1      42.134  28.688  29.384  1.00  0.00     0.074 A 
ATOM     32  C   UNL A   1      43.850  32.634  34.070  1.00  0.00     0.029 A 
ATOM     33  N   UNL A   1      44.309  30.675  33.198  1.00  0.00    -0.354 N 
ATOM     34  N   UNL A   1      42.977  29.662  29.176  1.00  0.00    -0.248 NA
ATOM     35  C   UNL A   1      42.387  27.893  30.577  1.00  0.00     0.031 C 
ATOM     36  C   UNL A   1      44.231  32.794  32.706  1.00  0.00     0.029 A 
ATOM     37  C   UNL A   1      44.241  31.526  32.126  1.00  0.00     0.049 A 
ATOM     38  H   UNL A   1      44.759  29.799  33.226  1.00  0.00     0.167 HD
ATOM     39  C   UNL A   1      43.598  29.862  30.400  1.00  0.00     0.074 A 
ATOM     40  C   UNL A   1      43.276  28.677  31.190  1.00  0.00     0.031 C 
ATOM     41  C   UNL A   1      44.078  31.089  30.760  1.00  0.00     0.037 A 
BRANCH  28  42
ATOM     42  C   UNL A   1      43.193  29.289  35.799  1.00  0.00     0.057 A 
ATOM     43  C   UNL A   1      44.047  29.466  36.902  1.00  0.00     0.134 A 
ATOM     44  C   UNL A   1      43.064  27.963  35.341  1.00  0.00     0.134 A 
ATOM     45  F   UNL A   1      44.273  30.688  37.408  1.00  0.00    -0.206 F 
ATOM     46  C   UNL A   1      44.760  28.405  37.473  1.00  0.00     0.040 A 
ATOM     47  C   UNL A   1      43.732  26.890  35.935  1.00  0.00     0.040 A 
ATOM     48  F   UNL A   1      42.370  27.657  34.237  1.00  0.00    -0.206 F 
ATOM     49  C   UNL A   1      44.606  27.113  36.987  1.00  0.00     0.006 A 
ENDBRANCH  28  42
BRANCH  29  50
ATOM     50  C   UNL A   1      40.350  27.436  27.960  1.00  0.00     0.057 A 
ATOM     51  C   UNL A   1      40.888  27.182  26.693  1.00  0.00     0.134 A 
ATOM     52  C   UNL A   1      39.564  26.409  28.518  1.00  0.00     0.134 A 
ATOM     53  F   UNL A   1      41.688  28.079  26.101  1.00  0.00    -0.206 F 
ATOM     54  C   UNL A   1      40.666  25.972  26.022  1.00  0.00     0.040 A 
ATOM     55  C   UNL A   1      39.323  25.204  27.853  1.00  0.00     0.040 A 
ATOM     56  F   UNL A   1      39.074  26.504  29.762  1.00  0.00    -0.206 F 
ATOM     57  C   UNL A   1      39.885  24.977  26.605  1.00  0.00     0.006 A 
ENDBRANCH  29  50
BRANCH  41  58
ATOM     58  C   UNL A   1      44.164  32.147  29.699  1.00  0.00     0.057 A 
ATOM     59  C   UNL A   1      43.117  33.032  29.399  1.00  0.00     0.134 A 
ATOM     60  C   UNL A   1      45.393  32.381  29.071  1.00  0.00     0.134 A 
ATOM     61  F   UNL A   1      41.941  32.953  30.034  1.00  0.00    -0.206 F 
ATOM     62  C   UNL A   1      43.273  34.071  28.478  1.00  0.00     0.040 A 
ATOM     63  C   UNL A   1      45.570  33.437  28.173  1.00  0.00     0.040 A 
ATOM     64  F   UNL A   1      46.457  31.616  29.359  1.00  0.00    -0.206 F 
ATOM     65  C   UNL A   1      44.505  34.279  27.864  1.00  0.00     0.006 A 
ENDBRANCH  41  58
ENDBRANCH  15  16
ENDBRANCH   8  10
ENDBRANCH   7   8
ENDBRANCH   6   7
ENDBRANCH   5   6
ENDBRANCH   4   5
ENDBRANCH   3   4
ENDBRANCH   2   3
ENDBRANCH   1   2
BRANCH   1  66
ATOM     66  C   UNL A   1      35.040  31.339  28.463  1.00  0.00     0.188 C 
BRANCH  66  67
ATOM     67  C   UNL A   1      34.484  30.463  27.326  1.00  0.00     0.188 C 
BRANCH  67  68
ATOM     68  O   UNL A   1      33.117  30.486  26.934  1.00  0.00    -0.376 OA
BRANCH  68  69
ATOM     69  C   UNL A   1      32.672  29.976  25.691  1.00  0.00     0.202 C 
BRANCH  69  70
ATOM     70  C   UNL A   1      31.484  29.009  25.666  1.00  0.00     0.261 C 
BRANCH  70  71
ATOM     71  O   UNL A   1      30.505  29.286  24.662  1.00  0.00    -0.458 OA
BRANCH  71  72
ATOM     72  C   UNL A   1      30.697  28.662  23.465  1.00  0.00     0.361 C 
ATOM     73  O   UNL A   1      30.916  29.242  22.408  1.00  0.00    -0.244 OA
BRANCH  72  74
ATOM     74  C   UNL A   1      30.712  27.212  23.597  1.00  0.00     0.198 A 
ATOM     75  N   UNL A   1      29.543  26.493  23.563  1.00  0.00    -0.122 NA
ATOM     76  C   UNL A   1      31.783  26.325  23.651  1.00  0.00     0.123 A 
ATOM     77  N   UNL A   1      29.844  25.206  23.615  1.00  0.00    -0.061 NA
ATOM     78  N   UNL A   1      31.167  25.103  23.882  1.00  0.00    -0.213 N 
BRANCH  76  79
ATOM     79  C   UNL A   1      33.259  26.518  23.447  1.00  0.00     0.262 C 
ATOM     80  C   UNL A   1      33.792  25.933  22.130  1.00  0.00     0.281 C 
ATOM     81  O   UNL A   1      33.979  26.083  24.606  1.00  0.00    -0.477 OA
ATOM     82  O   UNL A   1      33.903  24.509  22.179  1.00  0.00    -0.485 OA
ATOM     83  C   UNL A   1      34.707  24.935  24.426  1.00  0.00     0.162 A 
ATOM     84  C   UNL A   1      34.645  24.150  23.271  1.00  0.00     0.161 A 
ATOM     85  C   UNL A   1      35.481  24.515  25.505  1.00  0.00     0.050 A 
ATOM     86  C   UNL A   1      35.301  22.922  23.215  1.00  0.00     0.050 A 
ATOM     87  C   UNL A   1      36.164  23.299  25.441  1.00  0.00     0.004 A 
ATOM     88  C   UNL A   1      36.064  22.497  24.303  1.00  0.00     0.004 A 
ENDBRANCH  76  79
BRANCH  78  89
ATOM     89  C   UNL A   1      31.562  24.101  24.786  1.00  0.00     0.067 A 
ATOM     90  C   UNL A   1      31.723  24.401  26.136  1.00  0.00     0.028 A 
ATOM     91  C   UNL A   1      31.836  22.823  24.283  1.00  0.00     0.041 A 
ATOM     92  C   UNL A   1      32.074  23.374  27.011  1.00  0.00     0.003 A 
ATOM     93  C   UNL A   1      32.240  21.805  25.151  1.00  0.00     0.058 A 
ATOM     94  C   UNL A   1      32.326  22.086  26.525  1.00  0.00     0.013 A 
BRANCH  93  95
ATOM     95  C   UNL A   1      32.549  20.430  24.618  1.00  0.00     0.416 C 
ATOM     96  F   UNL A   1      32.053  19.435  25.404  1.00  0.00    -0.166 F 
ATOM     97  F   UNL A   1      32.028  20.224  23.376  1.00  0.00    -0.166 F 
ATOM     98  F   UNL A   1      33.884  20.182  24.505  1.00  0.00    -0.166 F 
ENDBRANCH  93  95
ENDBRANCH  78  89
ENDBRANCH  72  74
ENDBRANCH  71  72
ENDBRANCH  70  71
ENDBRANCH  69  70
ENDBRANCH  68  69
ENDBRANCH  67  68
ENDBRANCH  66  67
ENDBRANCH   1  66
TORSDOF 23
ENDMDL
MODEL 3
REMARK VINA RESULT:     -10.3      4.121      8.417
REMARK SMILES O=C(OCCOCCOCCOCCOC(=O)c1nnn(-c2cccc(C(F)(F)F)c2)c1[C@@H]1COc2ccccc2O1)c1ccc(-c2c3nc(c(-c4c(F)cccc4F)c4ccc([nH]4)c(-c4c(F)cccc4F)c4nc(c(-c5c(F)cccc5F)c5ccc2[nH]5)C=C4)C=C3)cc1
REMARK SMILES IDX 9 1 8 2 7 3 6 4 5 5 4 6 3 7 2 8 1 9 43 10 44 11 96 12 45 13
REMARK SMILES IDX 95 14 46 15 47 16 48 17 89 18 49 19 94 20 88 21 90 22 50 23
REMARK SMILES IDX 93 24 87 25 86 26 51 28 77 29 60 30 76 31 61 32 64 33 75 34
REMARK SMILES IDX 91 35 62 36 63 37 74 39 92 40 65 41 52 42 53 43 58 44 54 45
REMARK SMILES IDX 55 46 57 47 59 48 56 49 78 50 79 51 84 52 80 53 81 54 83 55
REMARK SMILES IDX 85 56 82 57 66 58 67 59 72 60 68 61 69 62 71 63 73 64 70 65
REMARK SMILES IDX 10 66 11 67 12 68 13 69 14 70 15 71 16 72 17 73 18 74 19 75
REMARK SMILES IDX 32 76 20 77 21 78 33 79 34 80 42 81 35 82 41 83 36 84 40 85
REMARK SMILES IDX 37 86 39 87 38 88 22 89 23 90 31 91 24 92 26 93 25 94 27 95
REMARK SMILES IDX 28 96 29 97 30 98
REMARK H PARENT 90 27 64 38
REMARK Flexibility Score: inf
ROOT
ATOM      1  O   UNL A   1      34.768  32.770  27.418  1.00  0.00    -0.377 OA
ENDROOT
BRANCH   1   2
ATOM      2  C   UNL A   1      34.691  33.778  28.415  1.00  0.00     0.188 C 
BRANCH   2   3
ATOM      3  C   UNL A   1      33.337  34.495  28.551  1.00  0.00     0.188 C 
BRANCH   3   4
ATOM      4  O   UNL A   1      32.746  34.937  29.768  1.00  0.00    -0.376 OA
BRANCH   4   5
ATOM      5  C   UNL A   1      32.715  36.256  30.266  1.00  0.00     0.202 C 
BRANCH   5   6
ATOM      6  C   UNL A   1      33.061  36.556  31.726  1.00  0.00     0.261 C 
BRANCH   6   7
ATOM      7  O   UNL A   1      34.184  35.856  32.258  1.00  0.00    -0.460 OA
BRANCH   7   8
ATOM      8  C   UNL A   1      34.304  34.564  32.623  1.00  0.00     0.338 C 
ATOM      9  O   UNL A   1      33.271  33.950  32.893  1.00  0.00    -0.246 OA
BRANCH   8  10
ATOM     10  C   UNL A   1      35.598  33.839  32.773  1.00  0.00     0.060 A 
ATOM     11  C   UNL A   1      36.874  34.401  32.709  1.00  0.00     0.016 A 
ATOM     12  C   UNL A   1      35.488  32.447  32.968  1.00  0.00     0.016 A 
ATOM     13  C   UNL A   1      37.998  33.597  32.669  1.00  0.00     0.010 A 
ATOM     14  C   UNL A   1      36.610  31.635  32.956  1.00  0.00     0.010 A 
ATOM     15  C   UNL A   1      37.849  32.218  32.718  1.00  0.00    -0.014 A 
BRANCH  15  16
ATOM     16  C   UNL A   1      39.023  31.430  32.397  1.00  0.00     0.031 A 
ATOM     17  C   UNL A   1      39.958  31.127  33.506  1.00  0.00     0.074 A 
ATOM     18  C   UNL A   1      39.224  30.999  31.138  1.00  0.00     0.049 A 
ATOM     19  N   UNL A   1      41.210  31.440  33.606  1.00  0.00    -0.248 NA
ATOM     20  C   UNL A   1      39.412  30.434  34.680  1.00  0.00     0.031 C 
ATOM     21  C   UNL A   1      38.275  31.012  30.019  1.00  0.00     0.029 A 
ATOM     22  N   UNL A   1      40.302  30.352  30.626  1.00  0.00    -0.354 N 
ATOM     23  C   UNL A   1      41.661  30.839  34.778  1.00  0.00     0.074 A 
ATOM     24  C   UNL A   1      40.494  30.326  35.452  1.00  0.00     0.031 C 
ATOM     25  C   UNL A   1      38.732  30.194  29.048  1.00  0.00     0.029 A 
ATOM     26  C   UNL A   1      40.050  29.714  29.424  1.00  0.00     0.049 A 
ATOM     27  H   UNL A   1      41.181  30.337  31.069  1.00  0.00     0.167 HD
ATOM     28  C   UNL A   1      42.983  30.632  35.025  1.00  0.00     0.037 A 
ATOM     29  C   UNL A   1      40.835  28.786  28.831  1.00  0.00     0.037 A 
ATOM     30  C   UNL A   1      43.826  31.467  34.217  1.00  0.00     0.049 A 
ATOM     31  C   UNL A   1      42.199  28.908  29.400  1.00  0.00     0.074 A 
ATOM     32  C   UNL A   1      43.997  32.830  34.075  1.00  0.00     0.029 A 
ATOM     33  N   UNL A   1      44.476  30.900  33.150  1.00  0.00    -0.354 N 
ATOM     34  N   UNL A   1      43.002  29.910  29.173  1.00  0.00    -0.248 NA
ATOM     35  C   UNL A   1      42.527  28.102  30.567  1.00  0.00     0.031 C 
ATOM     36  C   UNL A   1      44.315  33.023  32.698  1.00  0.00     0.029 A 
ATOM     37  C   UNL A   1      44.337  31.765  32.097  1.00  0.00     0.049 A 
ATOM     38  H   UNL A   1      44.953  30.038  33.144  1.00  0.00     0.167 HD
ATOM     39  C   UNL A   1      43.670  30.109  30.372  1.00  0.00     0.074 A 
ATOM     40  C   UNL A   1      43.418  28.903  31.155  1.00  0.00     0.031 C 
ATOM     41  C   UNL A   1      44.128  31.344  30.732  1.00  0.00     0.037 A 
BRANCH  28  42
ATOM     42  C   UNL A   1      43.515  29.440  35.774  1.00  0.00     0.057 A 
ATOM     43  C   UNL A   1      44.346  29.628  36.892  1.00  0.00     0.134 A 
ATOM     44  C   UNL A   1      43.477  28.128  35.263  1.00  0.00     0.134 A 
ATOM     45  F   UNL A   1      44.489  30.841  37.446  1.00  0.00    -0.206 F 
ATOM     46  C   UNL A   1      45.122  28.594  37.430  1.00  0.00     0.040 A 
ATOM     47  C   UNL A   1      44.208  27.077  35.824  1.00  0.00     0.040 A 
ATOM     48  F   UNL A   1      42.814  27.820  34.140  1.00  0.00    -0.206 F 
ATOM     49  C   UNL A   1      45.056  27.314  36.893  1.00  0.00     0.006 A 
ENDBRANCH  28  42
BRANCH  29  50
ATOM     50  C   UNL A   1      40.393  27.624  28.033  1.00  0.00     0.057 A 
ATOM     51  C   UNL A   1      40.909  27.387  26.754  1.00  0.00     0.134 A 
ATOM     52  C   UNL A   1      39.633  26.582  28.598  1.00  0.00     0.134 A 
ATOM     53  F   UNL A   1      41.685  28.300  26.153  1.00  0.00    -0.206 F 
ATOM     54  C   UNL A   1      40.691  26.179  26.078  1.00  0.00     0.040 A 
ATOM     55  C   UNL A   1      39.395  25.379  27.928  1.00  0.00     0.040 A 
ATOM     56  F   UNL A   1      39.166  26.661  29.852  1.00  0.00    -0.206 F 
ATOM     57  C   UNL A   1      39.936  25.169  26.668  1.00  0.00     0.006 A 
ENDBRANCH  29  50
BRANCH  41  58
ATOM     58  C   UNL A   1      44.136  32.422  29.686  1.00  0.00     0.057 A 
ATOM     59  C   UNL A   1      43.043  33.262  29.429  1.00  0.00     0.134 A 
ATOM     60  C   UNL A   1      45.336  32.721  29.029  1.00  0.00     0.134 A 
ATOM     61  F   UNL A   1      41.889  33.120  30.094  1.00  0.00    -0.206 F 
ATOM     62  C   UNL A   1      43.126  34.320  28.521  1.00  0.00     0.040 A 
ATOM     63  C   UNL A   1      45.440  33.797  28.144  1.00  0.00     0.040 A 
ATOM     64  F   UNL A   1      46.441  32.001  29.276  1.00  0.00    -0.206 F 
ATOM     65  C   UNL A   1      44.329  34.594  27.878  1.00  0.00     0.006 A 
ENDBRANCH  41  58
ENDBRANCH  15  16
ENDBRANCH   8  10
ENDBRANCH   7   8
ENDBRANCH   6   7
ENDBRANCH   5   6
ENDBRANCH   4   5
ENDBRANCH   3   4
ENDBRANCH   2   3
ENDBRANCH   1   2
BRANCH   1  66
ATOM     66  C   UNL A   1      35.120  31.493  27.899  1.00  0.00     0.188 C 
BRANCH  66  67
ATOM     67  C   UNL A   1      34.268  30.328  27.366  1.00  0.00     0.188 C 
BRANCH  67  68
ATOM     68  O   UNL A   1      32.874  30.212  27.621  1.00  0.00    -0.376 OA
BRANCH  68  69
ATOM     69  C   UNL A   1      32.117  29.085  27.220  1.00  0.00     0.202 C 
BRANCH  69  70
ATOM     70  C   UNL A   1      32.743  28.074  26.255  1.00  0.00     0.261 C 
BRANCH  70  71
ATOM     71  O   UNL A   1      32.592  26.705  26.640  1.00  0.00    -0.458 OA
BRANCH  71  72
ATOM     72  C   UNL A   1      31.434  26.107  26.243  1.00  0.00     0.361 C 
ATOM     73  O   UNL A   1      30.414  26.711  25.928  1.00  0.00    -0.244 OA
BRANCH  72  74
ATOM     74  C   UNL A   1      31.569  24.661  26.139  1.00  0.00     0.198 A 
ATOM     75  N   UNL A   1      31.276  23.850  27.207  1.00  0.00    -0.122 NA
ATOM     76  C   UNL A   1      31.862  23.862  25.037  1.00  0.00     0.123 A 
ATOM     77  N   UNL A   1      31.397  22.591  26.820  1.00  0.00    -0.061 NA
ATOM     78  N   UNL A   1      31.952  22.591  25.586  1.00  0.00    -0.213 N 
BRANCH  76  79
ATOM     79  C   UNL A   1      31.990  24.178  23.574  1.00  0.00     0.262 C 
ATOM     80  C   UNL A   1      33.437  24.390  23.102  1.00  0.00     0.281 C 
ATOM     81  O   UNL A   1      31.105  25.246  23.218  1.00  0.00    -0.477 OA
ATOM     82  O   UNL A   1      33.955  25.659  23.505  1.00  0.00    -0.485 OA
ATOM     83  C   UNL A   1      31.731  26.429  22.921  1.00  0.00     0.162 A 
ATOM     84  C   UNL A   1      33.101  26.647  23.093  1.00  0.00     0.161 A 
ATOM     85  C   UNL A   1      30.913  27.475  22.499  1.00  0.00     0.050 A 
ATOM     86  C   UNL A   1      33.643  27.917  22.908  1.00  0.00     0.050 A 
ATOM     87  C   UNL A   1      31.459  28.742  22.284  1.00  0.00     0.004 A 
ATOM     88  C   UNL A   1      32.820  28.966  22.500  1.00  0.00     0.004 A 
ENDBRANCH  76  79
BRANCH  78  89
ATOM     89  C   UNL A   1      32.923  21.610  25.320  1.00  0.00     0.067 A 
ATOM     90  C   UNL A   1      34.269  21.873  25.567  1.00  0.00     0.028 A 
ATOM     91  C   UNL A   1      32.506  20.398  24.757  1.00  0.00     0.041 A 
ATOM     92  C   UNL A   1      35.200  20.863  25.332  1.00  0.00     0.003 A 
ATOM     93  C   UNL A   1      33.445  19.403  24.470  1.00  0.00     0.058 A 
ATOM     94  C   UNL A   1      34.792  19.636  24.793  1.00  0.00     0.013 A 
BRANCH  93  95
ATOM     95  C   UNL A   1      33.008  18.100  23.853  1.00  0.00     0.416 C 
ATOM     96  F   UNL A   1      33.913  17.606  22.965  1.00  0.00    -0.166 F 
ATOM     97  F   UNL A   1      32.819  17.122  24.782  1.00  0.00    -0.166 F 
ATOM     98  F   UNL A   1      31.832  18.194  23.170  1.00  0.00    -0.166 F 
ENDBRANCH  93  95
ENDBRANCH  78  89
ENDBRANCH  72  74
ENDBRANCH  71  72
ENDBRANCH  70  71
ENDBRANCH  69  70
ENDBRANCH  68  69
ENDBRANCH  67  68
ENDBRANCH  66  67
ENDBRANCH   1  66
TORSDOF 23
ENDMDL
