MODEL 1
REMARK VINA RESULT:     -10.5      0.000      0.000
REMARK SMILES Cc1ccc(-c2ncccc2C(=O)OCCOCCOCCOCCOC(=O)c2ccc(-c3c4nc(c(-c5c(F)cccc5F)c5ccc([nH]5)c(-c5c(F)cccc5F)c5nc(c(-c6c(F)cccc6F)c6ccc3[nH]6)C=C5)C=C4)cc2)c(C)c1
REMARK SMILES IDX 21 1 20 2 19 3 18 4 17 5 16 6 15 7 14 8 12 9 13 10 11 11
REMARK SMILES IDX 6 12 7 13 8 14 10 15 9 16 5 17 1 18 2 19 3 20 85 21 4 22
REMARK SMILES IDX 83 23 84 24 22 25 23 26 24 27 25 28 26 29 27 30 28 31 29 32
REMARK SMILES IDX 30 33 82 34 31 35 81 36 32 37 33 38 34 39 75 40 35 41 80 42
REMARK SMILES IDX 74 43 76 44 36 45 79 46 73 47 72 48 37 50 63 51 46 52 62 53
REMARK SMILES IDX 47 54 50 55 61 56 77 57 48 58 49 59 60 61 78 62 51 63 38 64
REMARK SMILES IDX 39 65 44 66 40 67 41 68 43 69 45 70 42 71 64 72 65 73 70 74
REMARK SMILES IDX 66 75 67 76 69 77 71 78 68 79 52 80 53 81 58 82 54 83 55 84
REMARK SMILES IDX 57 85 59 86 56 87
REMARK H PARENT 76 49 50 60
REMARK Flexibility Score: inf
ROOT
ATOM      1  C   UNL A   1      32.920  35.785  29.513  1.00  0.00     0.188 C 
ENDROOT
BRANCH   1   2
ATOM      2  O   UNL A   1      32.629  34.465  29.071  1.00  0.00    -0.377 OA
BRANCH   2   3
ATOM      3  C   UNL A   1      33.393  33.912  28.006  1.00  0.00     0.188 C 
BRANCH   3   4
ATOM      4  C   UNL A   1      34.613  33.005  28.301  1.00  0.00     0.188 C 
BRANCH   4   5
ATOM      5  O   UNL A   1      34.752  31.925  27.392  1.00  0.00    -0.376 OA
BRANCH   5   6
ATOM      6  C   UNL A   1      34.106  30.718  27.744  1.00  0.00     0.202 C 
BRANCH   6   7
ATOM      7  C   UNL A   1      34.500  29.477  26.932  1.00  0.00     0.261 C 
BRANCH   7   8
ATOM      8  O   UNL A   1      33.677  29.179  25.792  1.00  0.00    -0.460 OA
BRANCH   8   9
ATOM      9  C   UNL A   1      32.585  28.390  25.957  1.00  0.00     0.340 C 
ATOM     10  O   UNL A   1      31.579  28.679  26.576  1.00  0.00    -0.246 OA
BRANCH   9  11
ATOM     11  C   UNL A   1      32.825  27.130  25.204  1.00  0.00     0.086 A 
ATOM     12  C   UNL A   1      32.070  26.743  24.085  1.00  0.00     0.085 A 
ATOM     13  N   UNL A   1      32.341  25.599  23.394  1.00  0.00    -0.255 NA
ATOM     14  C   UNL A   1      33.376  24.835  23.810  1.00  0.00     0.112 A 
ATOM     15  C   UNL A   1      33.911  26.326  25.584  1.00  0.00     0.019 A 
ATOM     16  C   UNL A   1      34.192  25.163  24.877  1.00  0.00     0.021 A 
BRANCH  12  17
ATOM     17  C   UNL A   1      31.024  27.569  23.453  1.00  0.00     0.004 A 
ATOM     18  C   UNL A   1      28.120  30.427  21.981  1.00  0.00     0.044 C 
ATOM     19  C   UNL A   1      29.129  29.415  22.436  1.00  0.00    -0.051 A 
ATOM     20  C   UNL A   1      30.483  29.576  22.151  1.00  0.00     0.004 A 
ATOM     21  C   UNL A   1      28.718  28.265  23.121  1.00  0.00     0.007 A 
ATOM     22  C   UNL A   1      31.411  28.652  22.638  1.00  0.00     0.011 A 
ATOM     23  C   UNL A   1      29.649  27.332  23.621  1.00  0.00    -0.041 A 
ATOM     24  C   UNL A   1      29.121  26.074  24.253  1.00  0.00     0.045 C 
ENDBRANCH  12  17
ENDBRANCH   9  11
ENDBRANCH   8   9
ENDBRANCH   7   8
ENDBRANCH   6   7
ENDBRANCH   5   6
ENDBRANCH   4   5
ENDBRANCH   3   4
ENDBRANCH   2   3
ENDBRANCH   1   2
BRANCH   1  25
ATOM     25  C   UNL A   1      32.610  36.164  30.979  1.00  0.00     0.188 C 
BRANCH  25  26
ATOM     26  O   UNL A   1      33.731  36.112  31.847  1.00  0.00    -0.376 OA
BRANCH  26  27
ATOM     27  C   UNL A   1      34.132  34.855  32.361  1.00  0.00     0.202 C 
BRANCH  27  28
ATOM     28  C   UNL A   1      35.538  34.346  32.014  1.00  0.00     0.261 C 
BRANCH  28  29
ATOM     29  O   UNL A   1      35.667  32.935  31.794  1.00  0.00    -0.460 OA
BRANCH  29  30
ATOM     30  C   UNL A   1      36.395  32.236  32.687  1.00  0.00     0.338 C 
ATOM     31  O   UNL A   1      36.190  32.129  33.887  1.00  0.00    -0.246 OA
BRANCH  30  32
ATOM     32  C   UNL A   1      37.388  31.443  31.937  1.00  0.00     0.060 A 
ATOM     33  C   UNL A   1      38.378  30.753  32.650  1.00  0.00     0.016 A 
ATOM     34  C   UNL A   1      37.339  31.375  30.542  1.00  0.00     0.016 A 
ATOM     35  C   UNL A   1      39.360  30.044  31.966  1.00  0.00     0.010 A 
ATOM     36  C   UNL A   1      38.343  30.688  29.854  1.00  0.00     0.010 A 
ATOM     37  C   UNL A   1      39.386  30.070  30.566  1.00  0.00    -0.014 A 
BRANCH  37  38
ATOM     38  C   UNL A   1      40.652  29.712  29.883  1.00  0.00     0.031 A 
ATOM     39  C   UNL A   1      40.769  28.319  29.319  1.00  0.00     0.074 A 
ATOM     40  C   UNL A   1      41.627  30.614  29.680  1.00  0.00     0.049 A 
ATOM     41  N   UNL A   1      41.748  27.769  28.650  1.00  0.00    -0.248 NA
ATOM     42  C   UNL A   1      39.616  27.427  29.540  1.00  0.00     0.031 C 
ATOM     43  C   UNL A   1      41.604  32.006  30.126  1.00  0.00     0.029 A 
ATOM     44  N   UNL A   1      42.827  30.487  29.028  1.00  0.00    -0.354 N 
ATOM     45  C   UNL A   1      41.324  26.477  28.362  1.00  0.00     0.074 A 
ATOM     46  C   UNL A   1      40.027  26.304  28.973  1.00  0.00     0.031 C 
ATOM     47  C   UNL A   1      42.742  32.607  29.733  1.00  0.00     0.029 A 
ATOM     48  C   UNL A   1      43.579  31.636  29.030  1.00  0.00     0.049 A 
ATOM     49  H   UNL A   1      43.123  29.651  28.600  1.00  0.00     0.167 HD
ATOM     50  C   UNL A   1      41.949  25.524  27.633  1.00  0.00     0.037 A 
ATOM     51  C   UNL A   1      44.809  31.864  28.528  1.00  0.00     0.037 A 
ATOM     52  C   UNL A   1      43.243  25.692  27.030  1.00  0.00     0.049 A 
ATOM     53  C   UNL A   1      45.527  30.750  27.808  1.00  0.00     0.074 A 
ATOM     54  C   UNL A   1      43.974  24.784  26.287  1.00  0.00     0.029 A 
ATOM     55  N   UNL A   1      43.999  26.853  27.104  1.00  0.00    -0.354 N 
ATOM     56  N   UNL A   1      45.113  29.536  27.528  1.00  0.00    -0.248 NA
ATOM     57  C   UNL A   1      46.883  31.044  27.324  1.00  0.00     0.031 C 
ATOM     58  C   UNL A   1      45.196  25.377  25.952  1.00  0.00     0.029 A 
ATOM     59  C   UNL A   1      45.198  26.676  26.436  1.00  0.00     0.049 A 
ATOM     60  H   UNL A   1      43.724  27.678  27.564  1.00  0.00     0.167 HD
ATOM     61  C   UNL A   1      46.140  28.940  26.805  1.00  0.00     0.074 A 
ATOM     62  C   UNL A   1      47.185  29.934  26.669  1.00  0.00     0.031 C 
ATOM     63  C   UNL A   1      46.219  27.683  26.299  1.00  0.00     0.037 A 
BRANCH  50  64
ATOM     64  C   UNL A   1      41.242  24.211  27.463  1.00  0.00     0.057 A 
ATOM     65  C   UNL A   1      40.161  24.062  26.585  1.00  0.00     0.134 A 
ATOM     66  C   UNL A   1      41.662  23.076  28.169  1.00  0.00     0.134 A 
ATOM     67  F   UNL A   1      39.695  25.114  25.895  1.00  0.00    -0.206 F 
ATOM     68  C   UNL A   1      39.510  22.836  26.428  1.00  0.00     0.040 A 
ATOM     69  C   UNL A   1      41.039  21.839  27.998  1.00  0.00     0.040 A 
ATOM     70  F   UNL A   1      42.690  23.149  29.028  1.00  0.00    -0.206 F 
ATOM     71  C   UNL A   1      39.956  21.718  27.130  1.00  0.00     0.006 A 
ENDBRANCH  50  64
BRANCH  51  72
ATOM     72  C   UNL A   1      45.461  33.192  28.688  1.00  0.00     0.057 A 
ATOM     73  C   UNL A   1      45.332  34.189  27.712  1.00  0.00     0.134 A 
ATOM     74  C   UNL A   1      46.291  33.468  29.781  1.00  0.00     0.134 A 
ATOM     75  F   UNL A   1      44.571  33.978  26.628  1.00  0.00    -0.206 F 
ATOM     76  C   UNL A   1      46.034  35.393  27.797  1.00  0.00     0.040 A 
ATOM     77  C   UNL A   1      46.974  34.680  29.895  1.00  0.00     0.040 A 
ATOM     78  F   UNL A   1      46.460  32.558  30.752  1.00  0.00    -0.206 F 
ATOM     79  C   UNL A   1      46.857  35.641  28.894  1.00  0.00     0.006 A 
ENDBRANCH  51  72
BRANCH  63  80
ATOM     80  C   UNL A   1      47.451  27.336  25.512  1.00  0.00     0.057 A 
ATOM     81  C   UNL A   1      48.563  26.720  26.101  1.00  0.00     0.134 A 
ATOM     82  C   UNL A   1      47.519  27.610  24.139  1.00  0.00     0.134 A 
ATOM     83  F   UNL A   1      48.568  26.437  27.413  1.00  0.00    -0.206 F 
ATOM     84  C   UNL A   1      49.713  26.430  25.365  1.00  0.00     0.040 A 
ATOM     85  C   UNL A   1      48.649  27.291  23.384  1.00  0.00     0.040 A 
ATOM     86  F   UNL A   1      46.485  28.183  23.506  1.00  0.00    -0.206 F 
ATOM     87  C   UNL A   1      49.756  26.712  24.000  1.00  0.00     0.006 A 
ENDBRANCH  63  80
ENDBRANCH  37  38
ENDBRANCH  30  32
ENDBRANCH  29  30
ENDBRANCH  28  29
ENDBRANCH  27  28
ENDBRANCH  26  27
ENDBRANCH  25  26
ENDBRANCH   1  25
TORSDOF 21
ENDMDL
MODEL 2
REMARK VINA RESULT:     -10.4      1.138      6.602
REMARK SMILES Cc1ccc(-c2ncccc2C(=O)OCCOCCOCCOCCOC(=O)c2ccc(-c3c4nc(c(-c5c(F)cccc5F)c5ccc([nH]5)c(-c5c(F)cccc5F)c5nc(c(-c6c(F)cccc6F)c6ccc3[nH]6)C=C5)C=C4)cc2)c(C)c1
REMARK SMILES IDX 21 1 20 2 19 3 18 4 17 5 16 6 15 7 14 8 12 9 13 10 11 11
REMARK SMILES IDX 6 12 7 13 8 14 10 15 9 16 5 17 1 18 2 19 3 20 85 21 4 22
REMARK SMILES IDX 83 23 84 24 22 25 23 26 24 27 25 28 26 29 27 30 28 31 29 32
REMARK SMILES IDX 30 33 82 34 31 35 81 36 32 37 33 38 34 39 75 40 35 41 80 42
REMARK SMILES IDX 74 43 76 44 36 45 79 46 73 47 72 48 37 50 63 51 46 52 62 53
REMARK SMILES IDX 47 54 50 55 61 56 77 57 48 58 49 59 60 61 78 62 51 63 38 64
REMARK SMILES IDX 39 65 44 66 40 67 41 68 43 69 45 70 42 71 64 72 65 73 70 74
REMARK SMILES IDX 66 75 67 76 69 77 71 78 68 79 52 80 53 81 58 82 54 83 55 84
REMARK SMILES IDX 57 85 59 86 56 87
REMARK H PARENT 76 49 50 60
REMARK Flexibility Score: inf
ROOT
ATOM      1  C   UNL A   1      34.183  34.898  28.802  1.00  0.00     0.188 C 
ENDROOT
BRANCH   1   2
ATOM      2  O   UNL A   1      33.737  33.717  28.148  1.00  0.00    -0.377 OA
BRANCH   2   3
ATOM      3  C   UNL A   1      34.686  32.705  27.833  1.00  0.00     0.188 C 
BRANCH   3   4
ATOM      4  C   UNL A   1      34.335  31.209  28.026  1.00  0.00     0.188 C 
BRANCH   4   5
ATOM      5  O   UNL A   1      33.090  30.840  27.457  1.00  0.00    -0.376 OA
BRANCH   5   6
ATOM      6  C   UNL A   1      33.136  29.933  26.373  1.00  0.00     0.202 C 
BRANCH   6   7
ATOM      7  C   UNL A   1      32.860  28.462  26.708  1.00  0.00     0.261 C 
BRANCH   7   8
ATOM      8  O   UNL A   1      31.485  28.044  26.634  1.00  0.00    -0.460 OA
BRANCH   8   9
ATOM      9  C   UNL A   1      31.200  26.796  26.187  1.00  0.00     0.340 C 
ATOM     10  O   UNL A   1      30.880  25.844  26.873  1.00  0.00    -0.246 OA
BRANCH   9  11
ATOM     11  C   UNL A   1      31.305  26.816  24.703  1.00  0.00     0.086 A 
ATOM     12  C   UNL A   1      32.194  26.005  23.980  1.00  0.00     0.085 A 
ATOM     13  N   UNL A   1      32.237  26.021  22.617  1.00  0.00    -0.255 NA
ATOM     14  C   UNL A   1      31.385  26.842  21.963  1.00  0.00     0.112 A 
ATOM     15  C   UNL A   1      30.414  27.631  23.986  1.00  0.00     0.019 A 
ATOM     16  C   UNL A   1      30.454  27.644  22.597  1.00  0.00     0.021 A 
BRANCH  12  17
ATOM     17  C   UNL A   1      33.054  24.966  24.576  1.00  0.00     0.004 A 
ATOM     18  C   UNL A   1      35.917  21.968  25.834  1.00  0.00     0.044 C 
ATOM     19  C   UNL A   1      34.918  23.020  25.455  1.00  0.00    -0.051 A 
ATOM     20  C   UNL A   1      35.263  24.369  25.458  1.00  0.00     0.004 A 
ATOM     21  C   UNL A   1      33.603  22.663  25.133  1.00  0.00     0.007 A 
ATOM     22  C   UNL A   1      34.334  25.327  25.043  1.00  0.00     0.011 A 
ATOM     23  C   UNL A   1      32.662  23.622  24.706  1.00  0.00    -0.041 A 
ATOM     24  C   UNL A   1      31.246  23.172  24.478  1.00  0.00     0.045 C 
ENDBRANCH  12  17
ENDBRANCH   9  11
ENDBRANCH   8   9
ENDBRANCH   7   8
ENDBRANCH   6   7
ENDBRANCH   5   6
ENDBRANCH   4   5
ENDBRANCH   3   4
ENDBRANCH   2   3
ENDBRANCH   1   2
BRANCH   1  25
ATOM     25  C   UNL A   1      33.150  35.764  29.559  1.00  0.00     0.188 C 
BRANCH  25  26
ATOM     26  O   UNL A   1      33.544  36.136  30.870  1.00  0.00    -0.376 OA
BRANCH  26  27
ATOM     27  C   UNL A   1      33.573  35.140  31.876  1.00  0.00     0.202 C 
BRANCH  27  28
ATOM     28  C   UNL A   1      34.941  34.620  32.340  1.00  0.00     0.261 C 
BRANCH  28  29
ATOM     29  O   UNL A   1      35.164  33.210  32.204  1.00  0.00    -0.460 OA
BRANCH  29  30
ATOM     30  C   UNL A   1      36.070  32.647  33.029  1.00  0.00     0.338 C 
ATOM     31  O   UNL A   1      36.092  32.700  34.249  1.00  0.00    -0.246 OA
BRANCH  30  32
ATOM     32  C   UNL A   1      36.937  31.772  32.216  1.00  0.00     0.060 A 
ATOM     33  C   UNL A   1      37.876  30.961  32.867  1.00  0.00     0.016 A 
ATOM     34  C   UNL A   1      36.819  31.746  30.824  1.00  0.00     0.016 A 
ATOM     35  C   UNL A   1      38.745  30.169  32.123  1.00  0.00     0.010 A 
ATOM     36  C   UNL A   1      37.711  30.974  30.075  1.00  0.00     0.010 A 
ATOM     37  C   UNL A   1      38.711  30.229  30.724  1.00  0.00    -0.014 A 
BRANCH  37  38
ATOM     38  C   UNL A   1      39.899  29.755  29.975  1.00  0.00     0.031 A 
ATOM     39  C   UNL A   1      41.042  30.722  29.800  1.00  0.00     0.074 A 
ATOM     40  C   UNL A   1      40.009  28.485  29.549  1.00  0.00     0.049 A 
ATOM     41  N   UNL A   1      42.201  30.548  29.222  1.00  0.00    -0.248 NA
ATOM     42  C   UNL A   1      40.848  32.072  30.362  1.00  0.00     0.031 C 
ATOM     43  C   UNL A   1      38.997  27.444  29.712  1.00  0.00     0.029 A 
ATOM     44  N   UNL A   1      41.041  27.856  28.900  1.00  0.00    -0.354 N 
ATOM     45  C   UNL A   1      42.874  31.757  29.360  1.00  0.00     0.074 A 
ATOM     46  C   UNL A   1      41.977  32.673  30.026  1.00  0.00     0.031 C 
ATOM     47  C   UNL A   1      39.460  26.300  29.175  1.00  0.00     0.029 A 
ATOM     48  C   UNL A   1      40.788  26.538  28.612  1.00  0.00     0.049 A 
ATOM     49  H   UNL A   1      41.883  28.308  28.662  1.00  0.00     0.167 HD
ATOM     50  C   UNL A   1      44.135  32.072  28.986  1.00  0.00     0.037 A 
ATOM     51  C   UNL A   1      41.546  25.637  27.957  1.00  0.00     0.037 A 
ATOM     52  C   UNL A   1      45.026  31.164  28.317  1.00  0.00     0.049 A 
ATOM     53  C   UNL A   1      42.910  26.046  27.460  1.00  0.00     0.074 A 
ATOM     54  C   UNL A   1      46.317  31.388  27.878  1.00  0.00     0.029 A 
ATOM     55  N   UNL A   1      44.711  29.853  27.989  1.00  0.00    -0.354 N 
ATOM     56  N   UNL A   1      43.543  27.186  27.607  1.00  0.00    -0.248 NA
ATOM     57  C   UNL A   1      43.670  25.035  26.712  1.00  0.00     0.031 C 
ATOM     58  C   UNL A   1      46.769  30.227  27.240  1.00  0.00     0.029 A 
ATOM     59  C   UNL A   1      45.779  29.262  27.337  1.00  0.00     0.049 A 
ATOM     60  H   UNL A   1      43.856  29.410  28.192  1.00  0.00     0.167 HD
ATOM     61  C   UNL A   1      44.785  27.015  27.006  1.00  0.00     0.074 A 
ATOM     62  C   UNL A   1      44.824  25.653  26.514  1.00  0.00     0.031 C 
ATOM     63  C   UNL A   1      45.803  27.900  26.867  1.00  0.00     0.037 A 
BRANCH  50  64
ATOM     64  C   UNL A   1      44.616  33.463  29.283  1.00  0.00     0.057 A 
ATOM     65  C   UNL A   1      45.279  33.776  30.476  1.00  0.00     0.134 A 
ATOM     66  C   UNL A   1      44.434  34.496  28.354  1.00  0.00     0.134 A 
ATOM     67  F   UNL A   1      45.466  32.838  31.417  1.00  0.00    -0.206 F 
ATOM     68  C   UNL A   1      45.728  35.071  30.744  1.00  0.00     0.040 A 
ATOM     69  C   UNL A   1      44.905  35.786  28.598  1.00  0.00     0.040 A 
ATOM     70  F   UNL A   1      43.806  34.265  27.192  1.00  0.00    -0.206 F 
ATOM     71  C   UNL A   1      45.549  36.079  29.799  1.00  0.00     0.006 A 
ENDBRANCH  50  64
BRANCH  51  72
ATOM     72  C   UNL A   1      41.046  24.257  27.713  1.00  0.00     0.057 A 
ATOM     73  C   UNL A   1      41.550  23.163  28.428  1.00  0.00     0.134 A 
ATOM     74  C   UNL A   1      40.110  23.988  26.708  1.00  0.00     0.134 A 
ATOM     75  F   UNL A   1      42.467  23.349  29.388  1.00  0.00    -0.206 F 
ATOM     76  C   UNL A   1      41.173  21.853  28.127  1.00  0.00     0.040 A 
ATOM     77  C   UNL A   1      39.699  22.687  26.416  1.00  0.00     0.040 A 
ATOM     78  F   UNL A   1      39.586  24.990  25.983  1.00  0.00    -0.206 F 
ATOM     79  C   UNL A   1      40.242  21.613  27.118  1.00  0.00     0.006 A 
ENDBRANCH  51  72
BRANCH  63  80
ATOM     80  C   UNL A   1      47.058  27.406  26.204  1.00  0.00     0.057 A 
ATOM     81  C   UNL A   1      48.132  26.884  26.937  1.00  0.00     0.134 A 
ATOM     82  C   UNL A   1      47.185  27.440  24.809  1.00  0.00     0.134 A 
ATOM     83  F   UNL A   1      48.079  26.830  28.277  1.00  0.00    -0.206 F 
ATOM     84  C   UNL A   1      49.304  26.456  26.310  1.00  0.00     0.040 A 
ATOM     85  C   UNL A   1      48.337  26.980  24.168  1.00  0.00     0.040 A 
ATOM     86  F   UNL A   1      46.190  27.910  24.044  1.00  0.00    -0.206 F 
ATOM     87  C   UNL A   1      49.407  26.500  24.921  1.00  0.00     0.006 A 
ENDBRANCH  63  80
ENDBRANCH  37  38
ENDBRANCH  30  32
ENDBRANCH  29  30
ENDBRANCH  28  29
ENDBRANCH  27  28
ENDBRANCH  26  27
ENDBRANCH  25  26
ENDBRANCH   1  25
TORSDOF 21
ENDMDL
MODEL 3
REMARK VINA RESULT:     -10.4      0.871      6.206
REMARK SMILES Cc1ccc(-c2ncccc2C(=O)OCCOCCOCCOCCOC(=O)c2ccc(-c3c4nc(c(-c5c(F)cccc5F)c5ccc([nH]5)c(-c5c(F)cccc5F)c5nc(c(-c6c(F)cccc6F)c6ccc3[nH]6)C=C5)C=C4)cc2)c(C)c1
REMARK SMILES IDX 21 1 20 2 19 3 18 4 17 5 16 6 15 7 14 8 12 9 13 10 11 11
REMARK SMILES IDX 6 12 7 13 8 14 10 15 9 16 5 17 1 18 2 19 3 20 85 21 4 22
REMARK SMILES IDX 83 23 84 24 22 25 23 26 24 27 25 28 26 29 27 30 28 31 29 32
REMARK SMILES IDX 30 33 82 34 31 35 81 36 32 37 33 38 34 39 75 40 35 41 80 42
REMARK SMILES IDX 74 43 76 44 36 45 79 46 73 47 72 48 37 50 63 51 46 52 62 53
REMARK SMILES IDX 47 54 50 55 61 56 77 57 48 58 49 59 60 61 78 62 51 63 38 64
REMARK SMILES IDX 39 65 44 66 40 67 41 68 43 69 45 70 42 71 64 72 65 73 70 74
REMARK SMILES IDX 66 75 67 76 69 77 71 78 68 79 52 80 53 81 58 82 54 83 55 84
REMARK SMILES IDX 57 85 59 86 56 87
REMARK H PARENT 76 49 50 60
REMARK Flexibility Score: inf
ROOT
ATOM      1  C   UNL A   1      34.248  34.617  29.010  1.00  0.00     0.188 C 
ENDROOT
BRANCH   1   2
ATOM      2  O   UNL A   1      33.937  33.335  28.481  1.00  0.00    -0.377 OA
BRANCH   2   3
ATOM      3  C   UNL A   1      34.954  32.603  27.807  1.00  0.00     0.188 C 
BRANCH   3   4
ATOM      4  C   UNL A   1      34.979  31.056  27.864  1.00  0.00     0.188 C 
BRANCH   4   5
ATOM      5  O   UNL A   1      33.711  30.459  27.645  1.00  0.00    -0.376 OA
BRANCH   5   6
ATOM      6  C   UNL A   1      33.575  29.681  26.472  1.00  0.00     0.202 C 
BRANCH   6   7
ATOM      7  C   UNL A   1      33.245  28.197  26.678  1.00  0.00     0.261 C 
BRANCH   7   8
ATOM      8  O   UNL A   1      32.086  27.705  25.984  1.00  0.00    -0.460 OA
BRANCH   8   9
ATOM      9  C   UNL A   1      31.806  26.378  26.029  1.00  0.00     0.340 C 
ATOM     10  O   UNL A   1      31.233  25.796  26.931  1.00  0.00    -0.246 OA
BRANCH   9  11
ATOM     11  C   UNL A   1      32.283  25.776  24.755  1.00  0.00     0.086 A 
ATOM     12  C   UNL A   1      31.797  26.152  23.492  1.00  0.00     0.085 A 
ATOM     13  N   UNL A   1      32.285  25.605  22.342  1.00  0.00    -0.255 NA
ATOM     14  C   UNL A   1      33.270  24.686  22.442  1.00  0.00     0.112 A 
ATOM     15  C   UNL A   1      33.329  24.841  24.814  1.00  0.00     0.019 A 
ATOM     16  C   UNL A   1      33.830  24.289  23.641  1.00  0.00     0.021 A 
BRANCH  12  17
ATOM     17  C   UNL A   1      30.840  27.248  23.256  1.00  0.00     0.004 A 
ATOM     18  C   UNL A   1      27.840  30.149  22.091  1.00  0.00     0.044 C 
ATOM     19  C   UNL A   1      28.870  29.160  22.550  1.00  0.00    -0.051 A 
ATOM     20  C   UNL A   1      28.494  27.953  23.133  1.00  0.00     0.004 A 
ATOM     21  C   UNL A   1      30.234  29.458  22.439  1.00  0.00     0.007 A 
ATOM     22  C   UNL A   1      29.470  27.022  23.497  1.00  0.00     0.011 A 
ATOM     23  C   UNL A   1      31.224  28.521  22.799  1.00  0.00    -0.041 A 
ATOM     24  C   UNL A   1      32.663  28.956  22.746  1.00  0.00     0.045 C 
ENDBRANCH  12  17
ENDBRANCH   9  11
ENDBRANCH   8   9
ENDBRANCH   7   8
ENDBRANCH   6   7
ENDBRANCH   5   6
ENDBRANCH   4   5
ENDBRANCH   3   4
ENDBRANCH   2   3
ENDBRANCH   1   2
BRANCH   1  25
ATOM     25  C   UNL A   1      33.141  35.408  29.745  1.00  0.00     0.188 C 
BRANCH  25  26
ATOM     26  O   UNL A   1      33.516  35.887  31.027  1.00  0.00    -0.376 OA
BRANCH  26  27
ATOM     27  C   UNL A   1      33.636  34.958  32.089  1.00  0.00     0.202 C 
BRANCH  27  28
ATOM     28  C   UNL A   1      35.044  34.489  32.484  1.00  0.00     0.261 C 
BRANCH  28  29
ATOM     29  O   UNL A   1      35.299  33.082  32.377  1.00  0.00    -0.460 OA
BRANCH  29  30
ATOM     30  C   UNL A   1      36.260  32.568  33.170  1.00  0.00     0.338 C 
ATOM     31  O   UNL A   1      36.347  32.666  34.385  1.00  0.00    -0.246 OA
BRANCH  30  32
ATOM     32  C   UNL A   1      37.100  31.681  32.343  1.00  0.00     0.060 A 
ATOM     33  C   UNL A   1      38.084  30.906  32.970  1.00  0.00     0.016 A 
ATOM     34  C   UNL A   1      36.914  31.608  30.959  1.00  0.00     0.016 A 
ATOM     35  C   UNL A   1      38.929  30.104  32.209  1.00  0.00     0.010 A 
ATOM     36  C   UNL A   1      37.781  30.827  30.191  1.00  0.00     0.010 A 
ATOM     37  C   UNL A   1      38.825  30.119  30.812  1.00  0.00    -0.014 A 
BRANCH  37  38
ATOM     38  C   UNL A   1      39.982  29.640  30.020  1.00  0.00     0.031 A 
ATOM     39  C   UNL A   1      41.128  30.598  29.814  1.00  0.00     0.074 A 
ATOM     40  C   UNL A   1      40.065  28.373  29.580  1.00  0.00     0.049 A 
ATOM     41  N   UNL A   1      42.265  30.417  29.196  1.00  0.00    -0.248 NA
ATOM     42  C   UNL A   1      40.966  31.944  30.393  1.00  0.00     0.031 C 
ATOM     43  C   UNL A   1      39.049  27.340  29.769  1.00  0.00     0.029 A 
ATOM     44  N   UNL A   1      41.068  27.739  28.892  1.00  0.00    -0.354 N 
ATOM     45  C   UNL A   1      42.954  31.618  29.321  1.00  0.00     0.074 A 
ATOM     46  C   UNL A   1      42.089  32.537  30.024  1.00  0.00     0.031 C 
ATOM     47  C   UNL A   1      39.482  26.196  29.207  1.00  0.00     0.029 A 
ATOM     48  C   UNL A   1      40.793  26.426  28.602  1.00  0.00     0.049 A 
ATOM     49  H   UNL A   1      41.906  28.185  28.629  1.00  0.00     0.167 HD
ATOM     50  C   UNL A   1      44.205  31.925  28.907  1.00  0.00     0.037 A 
ATOM     51  C   UNL A   1      41.519  25.523  27.914  1.00  0.00     0.037 A 
ATOM     52  C   UNL A   1      45.064  31.013  28.201  1.00  0.00     0.049 A 
ATOM     53  C   UNL A   1      42.870  25.923  27.374  1.00  0.00     0.074 A 
ATOM     54  C   UNL A   1      46.342  31.229  27.721  1.00  0.00     0.029 A 
ATOM     55  N   UNL A   1      44.725  29.708  27.874  1.00  0.00    -0.354 N 
ATOM     56  N   UNL A   1      43.518  27.056  27.509  1.00  0.00    -0.248 NA
ATOM     57  C   UNL A   1      43.594  24.911  26.593  1.00  0.00     0.031 C 
ATOM     58  C   UNL A   1      46.760  30.069  27.059  1.00  0.00     0.029 A 
ATOM     59  C   UNL A   1      45.764  29.113  27.181  1.00  0.00     0.049 A 
ATOM     60  H   UNL A   1      43.873  29.272  28.101  1.00  0.00     0.167 HD
ATOM     61  C   UNL A   1      44.737  26.878  26.865  1.00  0.00     0.074 A 
ATOM     62  C   UNL A   1      44.746  25.520  26.361  1.00  0.00     0.031 C 
ATOM     63  C   UNL A   1      45.760  27.754  26.700  1.00  0.00     0.037 A 
BRANCH  50  64
ATOM     64  C   UNL A   1      44.709  33.308  29.199  1.00  0.00     0.057 A 
ATOM     65  C   UNL A   1      45.427  33.602  30.365  1.00  0.00     0.134 A 
ATOM     66  C   UNL A   1      44.495  34.353  28.292  1.00  0.00     0.134 A 
ATOM     67  F   UNL A   1      45.648  32.651  31.286  1.00  0.00    -0.206 F 
ATOM     68  C   UNL A   1      45.898  34.890  30.629  1.00  0.00     0.040 A 
ATOM     69  C   UNL A   1      44.985  35.637  28.530  1.00  0.00     0.040 A 
ATOM     70  F   UNL A   1      43.813  34.141  27.156  1.00  0.00    -0.206 F 
ATOM     71  C   UNL A   1      45.685  35.911  29.704  1.00  0.00     0.006 A 
ENDBRANCH  50  64
BRANCH  51  72
ATOM     72  C   UNL A   1      40.998  24.150  27.676  1.00  0.00     0.057 A 
ATOM     73  C   UNL A   1      41.569  23.035  28.303  1.00  0.00     0.134 A 
ATOM     74  C   UNL A   1      39.967  23.911  26.759  1.00  0.00     0.134 A 
ATOM     75  F   UNL A   1      42.577  23.193  29.174  1.00  0.00    -0.206 F 
ATOM     76  C   UNL A   1      41.164  21.734  27.998  1.00  0.00     0.040 A 
ATOM     77  C   UNL A   1      39.530  22.619  26.468  1.00  0.00     0.040 A 
ATOM     78  F   UNL A   1      39.375  24.933  26.122  1.00  0.00    -0.206 F 
ATOM     79  C   UNL A   1      40.139  21.524  27.078  1.00  0.00     0.006 A 
ENDBRANCH  51  72
BRANCH  63  80
ATOM     80  C   UNL A   1      46.986  27.254  25.991  1.00  0.00     0.057 A 
ATOM     81  C   UNL A   1      48.051  26.655  26.676  1.00  0.00     0.134 A 
ATOM     82  C   UNL A   1      47.095  27.360  24.597  1.00  0.00     0.134 A 
ATOM     83  F   UNL A   1      48.015  26.529  28.012  1.00  0.00    -0.206 F 
ATOM     84  C   UNL A   1      49.198  26.221  26.009  1.00  0.00     0.040 A 
ATOM     85  C   UNL A   1      48.221  26.897  23.915  1.00  0.00     0.040 A 
ATOM     86  F   UNL A   1      46.107  27.907  23.875  1.00  0.00    -0.206 F 
ATOM     87  C   UNL A   1      49.283  26.338  24.622  1.00  0.00     0.006 A 
ENDBRANCH  63  80
ENDBRANCH  37  38
ENDBRANCH  30  32
ENDBRANCH  29  30
ENDBRANCH  28  29
ENDBRANCH  27  28
ENDBRANCH  26  27
ENDBRANCH  25  26
ENDBRANCH   1  25
TORSDOF 21
ENDMDL
