MODEL 1
REMARK VINA RESULT:      -9.4      0.000      0.000
REMARK SMILES O=C(OCCOCCOCCOCCOC(=O)[C@@H](CCCCl)P(=O)(c1ccccc1)c1ccccc1)c1ccc(-c2c3nc(c(-c4c(F)cccc4F)c4ccc([nH]4)c(-c4c(F)cccc4F)c4nc(c(-c5c(F)cccc5F)c5ccc2[nH]5)C=C4)C=C3)cc1
REMARK SMILES IDX 10 1 9 2 8 3 7 4 6 5 5 6 4 7 3 8 2 9 1 10 37 11 38 12 90 13
REMARK SMILES IDX 39 14 89 15 40 16 41 17 42 18 83 19 43 20 88 21 82 22 84 23
REMARK SMILES IDX 44 24 87 25 81 26 80 27 45 29 71 30 54 31 70 32 55 33 58 34
REMARK SMILES IDX 69 35 85 36 56 37 57 38 68 40 86 41 59 42 46 43 47 44 52 45
REMARK SMILES IDX 48 46 49 47 51 48 53 49 50 50 72 51 73 52 78 53 74 54 75 55
REMARK SMILES IDX 77 56 79 57 76 58 60 59 61 60 66 61 62 62 63 63 65 64 67 65
REMARK SMILES IDX 64 66 11 67 12 68 13 69 14 70 15 71 16 72 17 73 18 74 19 75
REMARK SMILES IDX 20 76 21 77 22 78 23 79 24 80 25 81 26 82 30 83 27 84 29 85
REMARK SMILES IDX 28 86 31 87 32 88 36 89 33 90 35 91 34 92
REMARK H PARENT 84 28 58 39
REMARK Flexibility Score: inf
ROOT
ATOM      1  C   UNL A   1      39.341  23.824  26.457  1.00  0.00     0.188 C 
ENDROOT
BRANCH   1   2
ATOM      2  O   UNL A   1      40.001  23.306  27.612  1.00  0.00    -0.377 OA
BRANCH   2   3
ATOM      3  C   UNL A   1      40.989  22.292  27.445  1.00  0.00     0.188 C 
BRANCH   3   4
ATOM      4  C   UNL A   1      40.663  21.269  26.371  1.00  0.00     0.188 C 
BRANCH   4   5
ATOM      5  O   UNL A   1      40.796  19.961  26.899  1.00  0.00    -0.376 OA
BRANCH   5   6
ATOM      6  C   UNL A   1      42.112  19.507  27.175  1.00  0.00     0.202 C 
BRANCH   6   7
ATOM      7  C   UNL A   1      42.719  18.622  26.093  1.00  0.00     0.261 C 
BRANCH   7   8
ATOM      8  O   UNL A   1      43.139  19.310  24.899  1.00  0.00    -0.460 OA
BRANCH   8   9
ATOM      9  C   UNL A   1      44.265  19.992  24.595  1.00  0.00     0.338 C 
ATOM     10  O   UNL A   1      45.103  19.424  23.894  1.00  0.00    -0.246 OA
BRANCH   9  11
ATOM     11  C   UNL A   1      44.604  21.369  25.065  1.00  0.00     0.060 A 
ATOM     12  C   UNL A   1      45.020  21.704  26.349  1.00  0.00     0.016 A 
ATOM     13  C   UNL A   1      44.631  22.389  24.096  1.00  0.00     0.016 A 
ATOM     14  C   UNL A   1      45.460  22.971  26.683  1.00  0.00     0.010 A 
ATOM     15  C   UNL A   1      45.057  23.683  24.418  1.00  0.00     0.010 A 
ATOM     16  C   UNL A   1      45.469  23.968  25.722  1.00  0.00    -0.014 A 
BRANCH  16  17
ATOM     17  C   UNL A   1      45.728  25.328  26.205  1.00  0.00     0.031 A 
ATOM     18  C   UNL A   1      44.585  26.053  26.836  1.00  0.00     0.074 A 
ATOM     19  C   UNL A   1      46.990  25.791  26.253  1.00  0.00     0.049 A 
ATOM     20  N   UNL A   1      44.520  27.280  27.269  1.00  0.00    -0.248 NA
ATOM     21  C   UNL A   1      43.344  25.277  27.034  1.00  0.00     0.031 C 
ATOM     22  C   UNL A   1      48.183  25.041  25.849  1.00  0.00     0.029 A 
ATOM     23  N   UNL A   1      47.482  26.988  26.692  1.00  0.00    -0.354 N 
ATOM     24  C   UNL A   1      43.224  27.437  27.741  1.00  0.00     0.074 A 
ATOM     25  C   UNL A   1      42.539  26.179  27.573  1.00  0.00     0.031 C 
ATOM     26  C   UNL A   1      49.269  25.805  26.050  1.00  0.00     0.029 A 
ATOM     27  C   UNL A   1      48.838  27.116  26.515  1.00  0.00     0.049 A 
ATOM     28  H   UNL A   1      46.920  27.689  27.096  1.00  0.00     0.167 HD
ATOM     29  C   UNL A   1      42.664  28.559  28.242  1.00  0.00     0.037 A 
ATOM     30  C   UNL A   1      49.614  28.207  26.652  1.00  0.00     0.037 A 
ATOM     31  C   UNL A   1      43.394  29.785  28.391  1.00  0.00     0.049 A 
ATOM     32  C   UNL A   1      48.933  29.481  27.079  1.00  0.00     0.074 A 
ATOM     33  C   UNL A   1      42.943  31.018  28.813  1.00  0.00     0.029 A 
ATOM     34  N   UNL A   1      44.749  29.918  28.110  1.00  0.00    -0.354 N 
ATOM     35  N   UNL A   1      47.684  29.670  27.439  1.00  0.00    -0.248 NA
ATOM     36  C   UNL A   1      49.752  30.698  27.092  1.00  0.00     0.031 C 
ATOM     37  C   UNL A   1      44.015  31.913  28.735  1.00  0.00     0.029 A 
ATOM     38  C   UNL A   1      45.146  31.224  28.317  1.00  0.00     0.049 A 
ATOM     39  H   UNL A   1      45.338  29.190  27.809  1.00  0.00     0.167 HD
ATOM     40  C   UNL A   1      47.568  31.021  27.732  1.00  0.00     0.074 A 
ATOM     41  C   UNL A   1      48.885  31.597  27.535  1.00  0.00     0.031 C 
ATOM     42  C   UNL A   1      46.479  31.733  28.114  1.00  0.00     0.037 A 
BRANCH  29  43
ATOM     43  C   UNL A   1      41.199  28.520  28.542  1.00  0.00     0.057 A 
ATOM     44  C   UNL A   1      40.223  28.856  27.596  1.00  0.00     0.134 A 
ATOM     45  C   UNL A   1      40.761  28.163  29.825  1.00  0.00     0.134 A 
ATOM     46  F   UNL A   1      40.577  29.245  26.362  1.00  0.00    -0.206 F 
ATOM     47  C   UNL A   1      38.864  28.847  27.919  1.00  0.00     0.040 A 
ATOM     48  C   UNL A   1      39.406  28.132  30.153  1.00  0.00     0.040 A 
ATOM     49  F   UNL A   1      41.647  27.852  30.784  1.00  0.00    -0.206 F 
ATOM     50  C   UNL A   1      38.452  28.478  29.199  1.00  0.00     0.006 A 
ENDBRANCH  29  43
BRANCH  30  51
ATOM     51  C   UNL A   1      51.052  28.182  26.273  1.00  0.00     0.057 A 
ATOM     52  C   UNL A   1      52.065  28.102  27.236  1.00  0.00     0.134 A 
ATOM     53  C   UNL A   1      51.454  28.304  24.934  1.00  0.00     0.134 A 
ATOM     54  F   UNL A   1      51.755  28.005  28.536  1.00  0.00    -0.206 F 
ATOM     55  C   UNL A   1      53.417  28.177  26.887  1.00  0.00     0.040 A 
ATOM     56  C   UNL A   1      52.801  28.347  24.569  1.00  0.00     0.040 A 
ATOM     57  F   UNL A   1      50.542  28.389  23.956  1.00  0.00    -0.206 F 
ATOM     58  C   UNL A   1      53.788  28.299  25.549  1.00  0.00     0.006 A 
ENDBRANCH  30  51
BRANCH  42  59
ATOM     59  C   UNL A   1      46.688  33.193  28.364  1.00  0.00     0.057 A 
ATOM     60  C   UNL A   1      47.108  33.671  29.611  1.00  0.00     0.134 A 
ATOM     61  C   UNL A   1      46.527  34.118  27.326  1.00  0.00     0.134 A 
ATOM     62  F   UNL A   1      47.264  32.830  30.645  1.00  0.00    -0.206 F 
ATOM     63  C   UNL A   1      47.346  35.028  29.821  1.00  0.00     0.040 A 
ATOM     64  C   UNL A   1      46.794  35.473  27.516  1.00  0.00     0.040 A 
ATOM     65  F   UNL A   1      46.137  33.716  26.107  1.00  0.00    -0.206 F 
ATOM     66  C   UNL A   1      47.199  35.931  28.769  1.00  0.00     0.006 A 
ENDBRANCH  42  59
ENDBRANCH  16  17
ENDBRANCH   9  11
ENDBRANCH   8   9
ENDBRANCH   7   8
ENDBRANCH   6   7
ENDBRANCH   5   6
ENDBRANCH   4   5
ENDBRANCH   3   4
ENDBRANCH   2   3
ENDBRANCH   1   2
BRANCH   1  67
ATOM     67  C   UNL A   1      37.807  23.974  26.431  1.00  0.00     0.188 C 
BRANCH  67  68
ATOM     68  O   UNL A   1      37.183  23.756  25.172  1.00  0.00    -0.376 OA
BRANCH  68  69
ATOM     69  C   UNL A   1      35.763  23.749  25.199  1.00  0.00     0.202 C 
BRANCH  69  70
ATOM     70  C   UNL A   1      35.057  23.881  23.838  1.00  0.00     0.261 C 
BRANCH  70  71
ATOM     71  O   UNL A   1      34.132  24.964  23.635  1.00  0.00    -0.463 OA
BRANCH  71  72
ATOM     72  C   UNL A   1      33.202  24.803  22.678  1.00  0.00     0.317 C 
ATOM     73  O   UNL A   1      33.457  24.493  21.513  1.00  0.00    -0.251 OA
BRANCH  72  74
ATOM     74  C   UNL A   1      31.790  25.168  23.106  1.00  0.00     0.169 C 
BRANCH  74  75
ATOM     75  C   UNL A   1      30.852  24.181  23.807  1.00  0.00     0.025 C 
BRANCH  75  76
ATOM     76  C   UNL A   1      31.059  23.767  25.265  1.00  0.00     0.018 C 
BRANCH  76  77
ATOM     77  C   UNL A   1      31.769  22.441  25.484  1.00  0.00     0.109 C 
ATOM     78  Cl  UNL A   1      32.129  21.612  23.948  1.00  0.00    -0.127 Cl
ENDBRANCH  76  77
ENDBRANCH  75  76
ENDBRANCH  74  75
BRANCH  74  79
ATOM     79  P   UNL A   1      31.943  26.929  23.481  1.00  0.00     0.156 P 
ATOM     80  O   UNL A   1      32.895  27.535  22.461  1.00  0.00    -0.313 OA
BRANCH  79  81
ATOM     81  C   UNL A   1      30.244  27.507  23.264  1.00  0.00     0.017 A 
ATOM     82  C   UNL A   1      29.189  26.755  23.788  1.00  0.00     0.012 A 
ATOM     83  C   UNL A   1      29.974  28.743  22.653  1.00  0.00     0.012 A 
ATOM     84  C   UNL A   1      27.881  27.221  23.690  1.00  0.00     0.001 A 
ATOM     85  C   UNL A   1      28.666  29.211  22.564  1.00  0.00     0.001 A 
ATOM     86  C   UNL A   1      27.620  28.447  23.078  1.00  0.00     0.000 A 
ENDBRANCH  79  81
BRANCH  79  87
ATOM     87  C   UNL A   1      32.403  27.502  25.098  1.00  0.00     0.017 A 
ATOM     88  C   UNL A   1      31.639  27.504  26.260  1.00  0.00     0.012 A 
ATOM     89  C   UNL A   1      33.669  28.130  25.133  1.00  0.00     0.012 A 
ATOM     90  C   UNL A   1      32.136  28.107  27.423  1.00  0.00     0.001 A 
ATOM     91  C   UNL A   1      34.157  28.745  26.277  1.00  0.00     0.001 A 
ATOM     92  C   UNL A   1      33.386  28.732  27.429  1.00  0.00     0.000 A 
ENDBRANCH  79  87
ENDBRANCH  74  79
ENDBRANCH  72  74
ENDBRANCH  71  72
ENDBRANCH  70  71
ENDBRANCH  69  70
ENDBRANCH  68  69
ENDBRANCH  67  68
ENDBRANCH   1  67
TORSDOF 26
ENDMDL
MODEL 2
REMARK VINA RESULT:      -9.3      5.256      7.928
REMARK SMILES O=C(OCCOCCOCCOCCOC(=O)[C@@H](CCCCl)P(=O)(c1ccccc1)c1ccccc1)c1ccc(-c2c3nc(c(-c4c(F)cccc4F)c4ccc([nH]4)c(-c4c(F)cccc4F)c4nc(c(-c5c(F)cccc5F)c5ccc2[nH]5)C=C4)C=C3)cc1
REMARK SMILES IDX 10 1 9 2 8 3 7 4 6 5 5 6 4 7 3 8 2 9 1 10 37 11 38 12 90 13
REMARK SMILES IDX 39 14 89 15 40 16 41 17 42 18 83 19 43 20 88 21 82 22 84 23
REMARK SMILES IDX 44 24 87 25 81 26 80 27 45 29 71 30 54 31 70 32 55 33 58 34
REMARK SMILES IDX 69 35 85 36 56 37 57 38 68 40 86 41 59 42 46 43 47 44 52 45
REMARK SMILES IDX 48 46 49 47 51 48 53 49 50 50 72 51 73 52 78 53 74 54 75 55
REMARK SMILES IDX 77 56 79 57 76 58 60 59 61 60 66 61 62 62 63 63 65 64 67 65
REMARK SMILES IDX 64 66 11 67 12 68 13 69 14 70 15 71 16 72 17 73 18 74 19 75
REMARK SMILES IDX 20 76 21 77 22 78 23 79 24 80 25 81 26 82 30 83 27 84 29 85
REMARK SMILES IDX 28 86 31 87 32 88 36 89 33 90 35 91 34 92
REMARK H PARENT 84 28 58 39
REMARK Flexibility Score: inf
ROOT
ATOM      1  C   UNL A   1      36.725  21.195  25.662  1.00  0.00     0.188 C 
ENDROOT
BRANCH   1   2
ATOM      2  O   UNL A   1      37.519  22.170  24.986  1.00  0.00    -0.377 OA
BRANCH   2   3
ATOM      3  C   UNL A   1      38.201  23.158  25.755  1.00  0.00     0.188 C 
BRANCH   3   4
ATOM      4  C   UNL A   1      39.235  22.600  26.717  1.00  0.00     0.188 C 
BRANCH   4   5
ATOM      5  O   UNL A   1      40.125  21.744  26.021  1.00  0.00    -0.376 OA
BRANCH   5   6
ATOM      6  C   UNL A   1      41.514  21.998  26.170  1.00  0.00     0.202 C 
BRANCH   6   7
ATOM      7  C   UNL A   1      41.848  23.314  26.860  1.00  0.00     0.261 C 
BRANCH   7   8
ATOM      8  O   UNL A   1      42.308  24.366  25.990  1.00  0.00    -0.460 OA
BRANCH   8   9
ATOM      9  C   UNL A   1      42.020  25.685  25.932  1.00  0.00     0.338 C 
ATOM     10  O   UNL A   1      42.035  26.223  24.825  1.00  0.00    -0.246 OA
BRANCH   9  11
ATOM     11  C   UNL A   1      41.717  26.563  27.103  1.00  0.00     0.060 A 
ATOM     12  C   UNL A   1      42.346  27.769  27.391  1.00  0.00     0.016 A 
ATOM     13  C   UNL A   1      40.617  26.205  27.905  1.00  0.00     0.016 A 
ATOM     14  C   UNL A   1      41.921  28.607  28.405  1.00  0.00     0.010 A 
ATOM     15  C   UNL A   1      40.181  27.032  28.947  1.00  0.00     0.010 A 
ATOM     16  C   UNL A   1      40.846  28.237  29.193  1.00  0.00    -0.014 A 
BRANCH  16  17
ATOM     17  C   UNL A   1      40.601  29.060  30.382  1.00  0.00     0.031 A 
ATOM     18  C   UNL A   1      39.452  30.014  30.322  1.00  0.00     0.074 A 
ATOM     19  C   UNL A   1      41.261  28.798  31.524  1.00  0.00     0.049 A 
ATOM     20  N   UNL A   1      39.069  30.904  31.192  1.00  0.00    -0.248 NA
ATOM     21  C   UNL A   1      38.595  29.934  29.122  1.00  0.00     0.031 C 
ATOM     22  C   UNL A   1      42.248  27.729  31.706  1.00  0.00     0.029 A 
ATOM     23  N   UNL A   1      41.179  29.388  32.754  1.00  0.00    -0.354 N 
ATOM     24  C   UNL A   1      37.964  31.522  30.625  1.00  0.00     0.074 A 
ATOM     25  C   UNL A   1      37.713  30.892  29.352  1.00  0.00     0.031 C 
ATOM     26  C   UNL A   1      42.686  27.748  32.975  1.00  0.00     0.029 A 
ATOM     27  C   UNL A   1      42.076  28.878  33.662  1.00  0.00     0.049 A 
ATOM     28  H   UNL A   1      40.541  30.106  32.969  1.00  0.00     0.167 HD
ATOM     29  C   UNL A   1      37.249  32.550  31.131  1.00  0.00     0.037 A 
ATOM     30  C   UNL A   1      42.401  29.338  34.884  1.00  0.00     0.037 A 
ATOM     31  C   UNL A   1      37.541  33.138  32.407  1.00  0.00     0.049 A 
ATOM     32  C   UNL A   1      41.684  30.573  35.365  1.00  0.00     0.074 A 
ATOM     33  C   UNL A   1      36.955  34.227  33.016  1.00  0.00     0.029 A 
ATOM     34  N   UNL A   1      38.524  32.666  33.270  1.00  0.00    -0.354 N 
ATOM     35  N   UNL A   1      40.698  31.228  34.797  1.00  0.00    -0.248 NA
ATOM     36  C   UNL A   1      42.138  31.151  36.634  1.00  0.00     0.031 C 
ATOM     37  C   UNL A   1      37.620  34.449  34.225  1.00  0.00     0.029 A 
ATOM     38  C   UNL A   1      38.584  33.464  34.394  1.00  0.00     0.049 A 
ATOM     39  H   UNL A   1      39.092  31.879  33.104  1.00  0.00     0.167 HD
ATOM     40  C   UNL A   1      40.405  32.288  35.642  1.00  0.00     0.074 A 
ATOM     41  C   UNL A   1      41.301  32.168  36.776  1.00  0.00     0.031 C 
ATOM     42  C   UNL A   1      39.494  33.283  35.498  1.00  0.00     0.037 A 
BRANCH  29  43
ATOM     43  C   UNL A   1      36.191  33.147  30.257  1.00  0.00     0.057 A 
ATOM     44  C   UNL A   1      34.825  32.925  30.463  1.00  0.00     0.134 A 
ATOM     45  C   UNL A   1      36.560  33.941  29.163  1.00  0.00     0.134 A 
ATOM     46  F   UNL A   1      34.407  32.141  31.469  1.00  0.00    -0.206 F 
ATOM     47  C   UNL A   1      33.863  33.465  29.606  1.00  0.00     0.040 A 
ATOM     48  C   UNL A   1      35.608  34.501  28.312  1.00  0.00     0.040 A 
ATOM     49  F   UNL A   1      37.855  34.173  28.896  1.00  0.00    -0.206 F 
ATOM     50  C   UNL A   1      34.254  34.261  28.530  1.00  0.00     0.006 A 
ENDBRANCH  29  43
BRANCH  30  51
ATOM     51  C   UNL A   1      43.510  28.727  35.667  1.00  0.00     0.057 A 
ATOM     52  C   UNL A   1      44.843  29.107  35.474  1.00  0.00     0.134 A 
ATOM     53  C   UNL A   1      43.268  27.696  36.587  1.00  0.00     0.134 A 
ATOM     54  F   UNL A   1      45.150  30.071  34.596  1.00  0.00    -0.206 F 
ATOM     55  C   UNL A   1      45.893  28.466  36.139  1.00  0.00     0.040 A 
ATOM     56  C   UNL A   1      44.304  27.070  37.283  1.00  0.00     0.040 A 
ATOM     57  F   UNL A   1      42.017  27.275  36.823  1.00  0.00    -0.206 F 
ATOM     58  C   UNL A   1      45.624  27.444  37.048  1.00  0.00     0.006 A 
ENDBRANCH  30  51
BRANCH  42  59
ATOM     59  C   UNL A   1      39.416  34.285  36.606  1.00  0.00     0.057 A 
ATOM     60  C   UNL A   1      38.719  34.018  37.790  1.00  0.00     0.134 A 
ATOM     61  C   UNL A   1      40.101  35.502  36.507  1.00  0.00     0.134 A 
ATOM     62  F   UNL A   1      38.034  32.873  37.932  1.00  0.00    -0.206 F 
ATOM     63  C   UNL A   1      38.693  34.938  38.836  1.00  0.00     0.040 A 
ATOM     64  C   UNL A   1      40.108  36.416  37.559  1.00  0.00     0.040 A 
ATOM     65  F   UNL A   1      40.795  35.808  35.401  1.00  0.00    -0.206 F 
ATOM     66  C   UNL A   1      39.398  36.136  38.726  1.00  0.00     0.006 A 
ENDBRANCH  42  59
ENDBRANCH  16  17
ENDBRANCH   9  11
ENDBRANCH   8   9
ENDBRANCH   7   8
ENDBRANCH   6   7
ENDBRANCH   5   6
ENDBRANCH   4   5
ENDBRANCH   3   4
ENDBRANCH   2   3
ENDBRANCH   1   2
BRANCH   1  67
ATOM     67  C   UNL A   1      35.313  21.549  26.171  1.00  0.00     0.188 C 
BRANCH  67  68
ATOM     68  O   UNL A   1      34.409  22.051  25.196  1.00  0.00    -0.376 OA
BRANCH  68  69
ATOM     69  C   UNL A   1      33.316  22.794  25.718  1.00  0.00     0.202 C 
BRANCH  69  70
ATOM     70  C   UNL A   1      33.676  23.991  26.616  1.00  0.00     0.261 C 
BRANCH  70  71
ATOM     71  O   UNL A   1      33.893  25.277  26.009  1.00  0.00    -0.463 OA
BRANCH  71  72
ATOM     72  C   UNL A   1      32.821  25.887  25.470  1.00  0.00     0.317 C 
ATOM     73  O   UNL A   1      31.775  26.108  26.081  1.00  0.00    -0.251 OA
BRANCH  72  74
ATOM     74  C   UNL A   1      32.943  26.171  23.982  1.00  0.00     0.169 C 
BRANCH  74  75
ATOM     75  C   UNL A   1      32.322  25.271  22.910  1.00  0.00     0.025 C 
BRANCH  75  76
ATOM     76  C   UNL A   1      32.849  25.245  21.474  1.00  0.00     0.018 C 
BRANCH  76  77
ATOM     77  C   UNL A   1      31.992  25.954  20.438  1.00  0.00     0.109 C 
ATOM     78  Cl  UNL A   1      32.253  25.306  18.798  1.00  0.00    -0.127 Cl
ENDBRANCH  76  77
ENDBRANCH  75  76
ENDBRANCH  74  75
BRANCH  74  79
ATOM     79  P   UNL A   1      33.013  27.976  23.937  1.00  0.00     0.156 P 
ATOM     80  O   UNL A   1      34.139  28.369  22.991  1.00  0.00    -0.313 OA
BRANCH  79  81
ATOM     81  C   UNL A   1      31.384  28.398  23.279  1.00  0.00     0.017 A 
ATOM     82  C   UNL A   1      30.252  27.748  23.775  1.00  0.00     0.012 A 
ATOM     83  C   UNL A   1      31.230  29.430  22.338  1.00  0.00     0.012 A 
ATOM     84  C   UNL A   1      28.984  28.110  23.328  1.00  0.00     0.001 A 
ATOM     85  C   UNL A   1      29.960  29.797  21.900  1.00  0.00     0.001 A 
ATOM     86  C   UNL A   1      28.839  29.133  22.392  1.00  0.00     0.000 A 
ENDBRANCH  79  81
BRANCH  79  87
ATOM     87  C   UNL A   1      33.157  28.941  25.420  1.00  0.00     0.017 A 
ATOM     88  C   UNL A   1      32.277  29.901  25.910  1.00  0.00     0.012 A 
ATOM     89  C   UNL A   1      34.386  28.761  26.093  1.00  0.00     0.012 A 
ATOM     90  C   UNL A   1      32.618  30.647  27.047  1.00  0.00     0.001 A 
ATOM     91  C   UNL A   1      34.736  29.511  27.207  1.00  0.00     0.001 A 
ATOM     92  C   UNL A   1      33.845  30.459  27.687  1.00  0.00     0.000 A 
ENDBRANCH  79  87
ENDBRANCH  74  79
ENDBRANCH  72  74
ENDBRANCH  71  72
ENDBRANCH  70  71
ENDBRANCH  69  70
ENDBRANCH  68  69
ENDBRANCH  67  68
ENDBRANCH   1  67
TORSDOF 26
ENDMDL
MODEL 3
REMARK VINA RESULT:      -8.6      5.177      7.800
REMARK SMILES O=C(OCCOCCOCCOCCOC(=O)[C@@H](CCCCl)P(=O)(c1ccccc1)c1ccccc1)c1ccc(-c2c3nc(c(-c4c(F)cccc4F)c4ccc([nH]4)c(-c4c(F)cccc4F)c4nc(c(-c5c(F)cccc5F)c5ccc2[nH]5)C=C4)C=C3)cc1
REMARK SMILES IDX 10 1 9 2 8 3 7 4 6 5 5 6 4 7 3 8 2 9 1 10 37 11 38 12 90 13
REMARK SMILES IDX 39 14 89 15 40 16 41 17 42 18 83 19 43 20 88 21 82 22 84 23
REMARK SMILES IDX 44 24 87 25 81 26 80 27 45 29 71 30 54 31 70 32 55 33 58 34
REMARK SMILES IDX 69 35 85 36 56 37 57 38 68 40 86 41 59 42 46 43 47 44 52 45
REMARK SMILES IDX 48 46 49 47 51 48 53 49 50 50 72 51 73 52 78 53 74 54 75 55
REMARK SMILES IDX 77 56 79 57 76 58 60 59 61 60 66 61 62 62 63 63 65 64 67 65
REMARK SMILES IDX 64 66 11 67 12 68 13 69 14 70 15 71 16 72 17 73 18 74 19 75
REMARK SMILES IDX 20 76 21 77 22 78 23 79 24 80 25 81 26 82 30 83 27 84 29 85
REMARK SMILES IDX 28 86 31 87 32 88 36 89 33 90 35 91 34 92
REMARK H PARENT 84 28 58 39
REMARK Flexibility Score: inf
ROOT
ATOM      1  C   UNL A   1      40.356  19.372  25.872  1.00  0.00     0.188 C 
ENDROOT
BRANCH   1   2
ATOM      2  O   UNL A   1      41.697  19.400  25.383  1.00  0.00    -0.377 OA
BRANCH   2   3
ATOM      3  C   UNL A   1      42.744  19.798  26.264  1.00  0.00     0.188 C 
BRANCH   3   4
ATOM      4  C   UNL A   1      42.972  21.298  26.330  1.00  0.00     0.188 C 
BRANCH   4   5
ATOM      5  O   UNL A   1      44.312  21.595  25.978  1.00  0.00    -0.376 OA
BRANCH   5   6
ATOM      6  C   UNL A   1      44.544  22.815  25.292  1.00  0.00     0.202 C 
BRANCH   6   7
ATOM      7  C   UNL A   1      43.287  23.503  24.777  1.00  0.00     0.261 C 
BRANCH   7   8
ATOM      8  O   UNL A   1      42.774  24.556  25.615  1.00  0.00    -0.460 OA
BRANCH   8   9
ATOM      9  C   UNL A   1      43.260  25.775  25.939  1.00  0.00     0.338 C 
ATOM     10  O   UNL A   1      44.152  26.239  25.228  1.00  0.00    -0.246 OA
BRANCH   9  11
ATOM     11  C   UNL A   1      42.835  26.600  27.109  1.00  0.00     0.060 A 
ATOM     12  C   UNL A   1      43.254  27.899  27.376  1.00  0.00     0.016 A 
ATOM     13  C   UNL A   1      41.827  26.069  27.936  1.00  0.00     0.016 A 
ATOM     14  C   UNL A   1      42.712  28.663  28.392  1.00  0.00     0.010 A 
ATOM     15  C   UNL A   1      41.278  26.820  28.981  1.00  0.00     0.010 A 
ATOM     16  C   UNL A   1      41.731  28.123  29.206  1.00  0.00    -0.014 A 
BRANCH  16  17
ATOM     17  C   UNL A   1      41.373  28.905  30.393  1.00  0.00     0.031 A 
ATOM     18  C   UNL A   1      40.172  29.788  30.288  1.00  0.00     0.074 A 
ATOM     19  C   UNL A   1      41.986  28.661  31.565  1.00  0.00     0.049 A 
ATOM     20  N   UNL A   1      39.688  30.634  31.151  1.00  0.00    -0.248 NA
ATOM     21  C   UNL A   1      39.387  29.681  29.041  1.00  0.00     0.031 C 
ATOM     22  C   UNL A   1      43.026  27.649  31.782  1.00  0.00     0.029 A 
ATOM     23  N   UNL A   1      41.802  29.218  32.799  1.00  0.00    -0.354 N 
ATOM     24  C   UNL A   1      38.578  31.195  30.535  1.00  0.00     0.074 A 
ATOM     25  C   UNL A   1      38.435  30.578  29.239  1.00  0.00     0.031 C 
ATOM     26  C   UNL A   1      43.394  27.670  33.073  1.00  0.00     0.029 A 
ATOM     27  C   UNL A   1      42.679  28.746  33.746  1.00  0.00     0.049 A 
ATOM     28  H   UNL A   1      41.109  29.891  32.991  1.00  0.00     0.167 HD
ATOM     29  C   UNL A   1      37.775  32.167  31.019  1.00  0.00     0.037 A 
ATOM     30  C   UNL A   1      42.909  29.198  34.991  1.00  0.00     0.037 A 
ATOM     31  C   UNL A   1      37.962  32.745  32.319  1.00  0.00     0.049 A 
ATOM     32  C   UNL A   1      42.092  30.377  35.453  1.00  0.00     0.074 A 
ATOM     33  C   UNL A   1      37.277  33.784  32.914  1.00  0.00     0.029 A 
ATOM     34  N   UNL A   1      38.924  32.316  33.226  1.00  0.00    -0.354 N 
ATOM     35  N   UNL A   1      41.098  30.983  34.845  1.00  0.00    -0.248 NA
ATOM     36  C   UNL A   1      42.441  30.956  36.756  1.00  0.00     0.031 C 
ATOM     37  C   UNL A   1      37.862  34.021  34.162  1.00  0.00     0.029 A 
ATOM     38  C   UNL A   1      38.875  33.093  34.366  1.00  0.00     0.049 A 
ATOM     39  H   UNL A   1      39.548  31.569  33.078  1.00  0.00     0.167 HD
ATOM     40  C   UNL A   1      40.696  32.005  35.690  1.00  0.00     0.074 A 
ATOM     41  C   UNL A   1      41.536  31.917  36.870  1.00  0.00     0.031 C 
ATOM     42  C   UNL A   1      39.734  32.945  35.514  1.00  0.00     0.037 A 
BRANCH  29  43
ATOM     43  C   UNL A   1      36.731  32.716  30.099  1.00  0.00     0.057 A 
ATOM     44  C   UNL A   1      37.015  33.667  29.112  1.00  0.00     0.134 A 
ATOM     45  C   UNL A   1      35.400  32.299  30.232  1.00  0.00     0.134 A 
ATOM     46  F   UNL A   1      38.261  34.139  28.960  1.00  0.00    -0.206 F 
ATOM     47  C   UNL A   1      36.010  34.190  28.295  1.00  0.00     0.040 A 
ATOM     48  C   UNL A   1      34.391  32.798  29.408  1.00  0.00     0.040 A 
ATOM     49  F   UNL A   1      35.057  31.406  31.174  1.00  0.00    -0.206 F 
ATOM     50  C   UNL A   1      34.693  33.750  28.438  1.00  0.00     0.006 A 
ENDBRANCH  29  43
BRANCH  30  51
ATOM     51  C   UNL A   1      44.010  28.641  35.823  1.00  0.00     0.057 A 
ATOM     52  C   UNL A   1      43.782  27.630  36.763  1.00  0.00     0.134 A 
ATOM     53  C   UNL A   1      45.314  29.153  35.743  1.00  0.00     0.134 A 
ATOM     54  F   UNL A   1      42.557  27.107  36.909  1.00  0.00    -0.206 F 
ATOM     55  C   UNL A   1      44.795  27.174  37.612  1.00  0.00     0.040 A 
ATOM     56  C   UNL A   1      46.343  28.685  36.561  1.00  0.00     0.040 A 
ATOM     57  F   UNL A   1      45.609  30.126  34.868  1.00  0.00    -0.206 F 
ATOM     58  C   UNL A   1      46.081  27.702  37.511  1.00  0.00     0.006 A 
ENDBRANCH  30  51
BRANCH  42  59
ATOM     59  C   UNL A   1      39.535  33.917  36.634  1.00  0.00     0.057 A 
ATOM     60  C   UNL A   1      38.695  33.629  37.716  1.00  0.00     0.134 A 
ATOM     61  C   UNL A   1      40.243  35.125  36.655  1.00  0.00     0.134 A 
ATOM     62  F   UNL A   1      37.982  32.493  37.740  1.00  0.00    -0.206 F 
ATOM     63  C   UNL A   1      38.554  34.521  38.777  1.00  0.00     0.040 A 
ATOM     64  C   UNL A   1      40.133  36.009  37.726  1.00  0.00     0.040 A 
ATOM     65  F   UNL A   1      41.070  35.449  35.650  1.00  0.00    -0.206 F 
ATOM     66  C   UNL A   1      39.282  35.709  38.789  1.00  0.00     0.006 A 
ENDBRANCH  42  59
ENDBRANCH  16  17
ENDBRANCH   9  11
ENDBRANCH   8   9
ENDBRANCH   7   8
ENDBRANCH   6   7
ENDBRANCH   5   6
ENDBRANCH   4   5
ENDBRANCH   3   4
ENDBRANCH   2   3
ENDBRANCH   1   2
BRANCH   1  67
ATOM     67  C   UNL A   1      39.515  20.664  25.931  1.00  0.00     0.188 C 
BRANCH  67  68
ATOM     68  O   UNL A   1      38.196  20.570  25.410  1.00  0.00    -0.376 OA
BRANCH  68  69
ATOM     69  C   UNL A   1      37.605  21.810  25.046  1.00  0.00     0.202 C 
BRANCH  69  70
ATOM     70  C   UNL A   1      36.607  22.408  26.053  1.00  0.00     0.261 C 
BRANCH  70  71
ATOM     71  O   UNL A   1      35.239  21.963  26.025  1.00  0.00    -0.463 OA
BRANCH  71  72
ATOM     72  C   UNL A   1      34.303  22.837  26.436  1.00  0.00     0.317 C 
ATOM     73  O   UNL A   1      34.194  23.235  27.597  1.00  0.00    -0.251 OA
BRANCH  72  74
ATOM     74  C   UNL A   1      33.280  23.207  25.375  1.00  0.00     0.169 C 
BRANCH  74  75
ATOM     75  C   UNL A   1      31.880  22.590  25.319  1.00  0.00     0.025 C 
BRANCH  75  76
ATOM     76  C   UNL A   1      30.623  23.415  25.606  1.00  0.00     0.018 C 
BRANCH  76  77
ATOM     77  C   UNL A   1      30.124  23.387  27.041  1.00  0.00     0.109 C 
ATOM     78  Cl  UNL A   1      28.802  22.212  27.266  1.00  0.00    -0.127 Cl
ENDBRANCH  76  77
ENDBRANCH  75  76
ENDBRANCH  74  75
BRANCH  74  79
ATOM     79  P   UNL A   1      33.691  24.932  25.025  1.00  0.00     0.156 P 
ATOM     80  O   UNL A   1      35.207  25.060  25.062  1.00  0.00    -0.313 OA
BRANCH  79  81
ATOM     81  C   UNL A   1      33.023  25.146  23.360  1.00  0.00     0.017 A 
ATOM     82  C   UNL A   1      32.230  26.261  23.075  1.00  0.00     0.012 A 
ATOM     83  C   UNL A   1      33.359  24.256  22.327  1.00  0.00     0.012 A 
ATOM     84  C   UNL A   1      31.764  26.476  21.780  1.00  0.00     0.001 A 
ATOM     85  C   UNL A   1      32.901  24.479  21.031  1.00  0.00     0.001 A 
ATOM     86  C   UNL A   1      32.099  25.586  20.760  1.00  0.00     0.000 A 
ENDBRANCH  79  81
BRANCH  79  87
ATOM     87  C   UNL A   1      32.987  26.266  25.961  1.00  0.00     0.017 A 
ATOM     88  C   UNL A   1      31.656  26.454  26.324  1.00  0.00     0.012 A 
ATOM     89  C   UNL A   1      33.908  27.297  26.253  1.00  0.00     0.012 A 
ATOM     90  C   UNL A   1      31.269  27.636  26.970  1.00  0.00     0.001 A 
ATOM     91  C   UNL A   1      33.524  28.477  26.875  1.00  0.00     0.001 A 
ATOM     92  C   UNL A   1      32.196  28.646  27.236  1.00  0.00     0.000 A 
ENDBRANCH  79  87
ENDBRANCH  74  79
ENDBRANCH  72  74
ENDBRANCH  71  72
ENDBRANCH  70  71
ENDBRANCH  69  70
ENDBRANCH  68  69
ENDBRANCH  67  68
ENDBRANCH   1  67
TORSDOF 26
ENDMDL
