MODEL 1
REMARK VINA RESULT:      -9.2      0.000      0.000
REMARK SMILES CC(=O)N[C@@H](C(=O)N(CC(=O)OCCOCCOCCOCCOC(=O)c1ccc(-c2c3nc(c(-c4c(F)cccc4F)c4ccc([nH]4)c(-c4c(F)cccc4F)c4nc(c(-c5c(F)cccc5F)c5ccc2[nH]5)C=C4)C=C3)cc1)C(C)(C)C)C(C)C
REMARK SMILES IDX 17 1 16 2 15 3 14 4 13 5 12 6 10 7 11 8 9 9 8 10 6 11 7 12
REMARK SMILES IDX 5 13 4 14 1 15 2 16 3 17 85 19 86 20 87 21 81 22 82 23 83 24
REMARK SMILES IDX 84 25 18 26 19 27 20 28 21 29 22 30 23 31 24 32 25 33 26 34
REMARK SMILES IDX 27 35 28 36 80 37 29 38 79 39 30 40 31 41 32 42 73 43 33 44
REMARK SMILES IDX 78 45 72 46 74 47 34 48 77 49 71 50 70 51 35 53 61 54 44 55
REMARK SMILES IDX 60 56 45 57 48 58 59 59 75 60 46 61 47 62 58 64 76 65 49 66
REMARK SMILES IDX 36 67 37 68 42 69 38 70 39 71 41 72 43 73 40 74 62 75 63 76
REMARK SMILES IDX 68 77 64 78 65 79 67 80 69 81 66 82 50 83 51 84 56 85 52 86
REMARK SMILES IDX 53 87 55 88 57 89 54 90
REMARK H PARENT 4 18 74 52 48 63
REMARK Flexibility Score: inf
ROOT
ATOM      1  C   UNL A   1      34.183  31.325  27.884  1.00  0.00     0.188 C 
ENDROOT
BRANCH   1   2
ATOM      2  C   UNL A   1      34.296  30.022  27.074  1.00  0.00     0.188 C 
BRANCH   2   3
ATOM      3  O   UNL A   1      33.191  29.554  26.307  1.00  0.00    -0.376 OA
BRANCH   3   4
ATOM      4  C   UNL A   1      33.354  29.345  24.913  1.00  0.00     0.202 C 
BRANCH   4   5
ATOM      5  C   UNL A   1      32.584  28.175  24.268  1.00  0.00     0.261 C 
BRANCH   5   6
ATOM      6  O   UNL A   1      33.366  27.014  23.882  1.00  0.00    -0.462 OA
BRANCH   6   7
ATOM      7  C   UNL A   1      32.958  26.330  22.783  1.00  0.00     0.325 C 
ATOM      8  O   UNL A   1      33.472  26.450  21.672  1.00  0.00    -0.250 OA
BRANCH   7   9
ATOM      9  C   UNL A   1      31.800  25.305  23.000  1.00  0.00     0.242 C 
BRANCH   9  10
ATOM     10  N   UNL A   1      31.729  24.227  24.030  1.00  0.00    -0.325 N 
BRANCH  10  11
ATOM     11  C   UNL A   1      32.366  22.986  23.842  1.00  0.00     0.246 C 
ATOM     12  O   UNL A   1      31.868  22.115  23.122  1.00  0.00    -0.272 OA
BRANCH  11  13
ATOM     13  C   UNL A   1      33.706  22.685  24.578  1.00  0.00     0.174 C 
BRANCH  13  14
ATOM     14  N   UNL A   1      34.755  22.668  23.562  1.00  0.00    -0.344 N 
ATOM     15  C   UNL A   1      36.504  23.795  24.894  1.00  0.00     0.114 C 
ATOM     16  C   UNL A   1      36.039  23.115  23.635  1.00  0.00     0.217 C 
ATOM     17  O   UNL A   1      36.778  22.979  22.661  1.00  0.00    -0.275 OA
ATOM     18  H   UNL A   1      34.497  22.274  22.697  1.00  0.00     0.164 HD
ENDBRANCH  13  14
BRANCH  13  19
ATOM     19  C   UNL A   1      33.620  21.316  25.324  1.00  0.00     0.015 C 
ATOM     20  C   UNL A   1      34.651  20.299  24.828  1.00  0.00     0.010 C 
ATOM     21  C   UNL A   1      33.804  21.485  26.842  1.00  0.00     0.010 C 
ENDBRANCH  13  19
ENDBRANCH  11  13
ENDBRANCH  10  11
BRANCH  10  22
ATOM     22  C   UNL A   1      31.180  24.502  25.428  1.00  0.00     0.035 C 
ATOM     23  C   UNL A   1      32.289  24.989  26.398  1.00  0.00     0.034 C 
ATOM     24  C   UNL A   1      30.104  25.619  25.359  1.00  0.00     0.034 C 
ATOM     25  C   UNL A   1      30.440  23.307  26.082  1.00  0.00     0.034 C 
ENDBRANCH  10  22
ENDBRANCH   9  10
ENDBRANCH   7   9
ENDBRANCH   6   7
ENDBRANCH   5   6
ENDBRANCH   4   5
ENDBRANCH   3   4
ENDBRANCH   2   3
ENDBRANCH   1   2
BRANCH   1  26
ATOM     26  O   UNL A   1      33.095  32.140  27.504  1.00  0.00    -0.377 OA
BRANCH  26  27
ATOM     27  C   UNL A   1      33.194  33.494  27.894  1.00  0.00     0.188 C 
BRANCH  27  28
ATOM     28  C   UNL A   1      34.626  33.970  28.190  1.00  0.00     0.188 C 
BRANCH  28  29
ATOM     29  O   UNL A   1      34.683  34.853  29.298  1.00  0.00    -0.376 OA
BRANCH  29  30
ATOM     30  C   UNL A   1      33.902  34.661  30.458  1.00  0.00     0.202 C 
BRANCH  30  31
ATOM     31  C   UNL A   1      34.458  34.119  31.788  1.00  0.00     0.261 C 
BRANCH  31  32
ATOM     32  O   UNL A   1      34.784  32.732  31.861  1.00  0.00    -0.460 OA
BRANCH  32  33
ATOM     33  C   UNL A   1      35.803  32.400  32.682  1.00  0.00     0.338 C 
ATOM     34  O   UNL A   1      35.853  32.571  33.892  1.00  0.00    -0.246 OA
BRANCH  33  35
ATOM     35  C   UNL A   1      36.784  31.600  31.924  1.00  0.00     0.060 A 
ATOM     36  C   UNL A   1      37.756  30.901  32.652  1.00  0.00     0.016 A 
ATOM     37  C   UNL A   1      36.763  31.540  30.529  1.00  0.00     0.016 A 
ATOM     38  C   UNL A   1      38.729  30.161  31.988  1.00  0.00     0.010 A 
ATOM     39  C   UNL A   1      37.768  30.830  29.860  1.00  0.00     0.010 A 
ATOM     40  C   UNL A   1      38.773  30.170  30.590  1.00  0.00    -0.014 A 
BRANCH  40  41
ATOM     41  C   UNL A   1      40.009  29.700  29.924  1.00  0.00     0.031 A 
ATOM     42  C   UNL A   1      41.152  30.669  29.797  1.00  0.00     0.074 A 
ATOM     43  C   UNL A   1      40.147  28.429  29.510  1.00  0.00     0.049 A 
ATOM     44  N   UNL A   1      42.336  30.500  29.271  1.00  0.00    -0.248 NA
ATOM     45  C   UNL A   1      40.925  32.016  30.347  1.00  0.00     0.031 C 
ATOM     46  C   UNL A   1      39.135  27.384  29.638  1.00  0.00     0.029 A 
ATOM     47  N   UNL A   1      41.205  27.806  28.897  1.00  0.00    -0.354 N 
ATOM     48  C   UNL A   1      42.993  31.713  29.426  1.00  0.00     0.074 A 
ATOM     49  C   UNL A   1      42.067  32.622  30.063  1.00  0.00     0.031 C 
ATOM     50  C   UNL A   1      39.620  26.245  29.109  1.00  0.00     0.029 A 
ATOM     51  C   UNL A   1      40.961  26.494  28.582  1.00  0.00     0.049 A 
ATOM     52  H   UNL A   1      42.057  28.259  28.704  1.00  0.00     0.167 HD
ATOM     53  C   UNL A   1      44.259  32.041  29.077  1.00  0.00     0.037 A 
ATOM     54  C   UNL A   1      41.731  25.605  27.923  1.00  0.00     0.037 A 
ATOM     55  C   UNL A   1      45.173  31.138  28.428  1.00  0.00     0.049 A 
ATOM     56  C   UNL A   1      43.100  26.021  27.453  1.00  0.00     0.074 A 
ATOM     57  C   UNL A   1      46.477  31.369  28.028  1.00  0.00     0.029 A 
ATOM     58  N   UNL A   1      44.868  29.832  28.071  1.00  0.00    -0.354 N 
ATOM     59  N   UNL A   1      43.722  27.165  27.616  1.00  0.00    -0.248 NA
ATOM     60  C   UNL A   1      43.879  25.019  26.710  1.00  0.00     0.031 C 
ATOM     61  C   UNL A   1      46.941  30.223  27.375  1.00  0.00     0.029 A 
ATOM     62  C   UNL A   1      45.951  29.254  27.428  1.00  0.00     0.049 A 
ATOM     63  H   UNL A   1      44.011  29.382  28.248  1.00  0.00     0.167 HD
ATOM     64  C   UNL A   1      44.973  27.009  27.029  1.00  0.00     0.074 A 
ATOM     65  C   UNL A   1      45.024  25.656  26.515  1.00  0.00     0.031 C 
ATOM     66  C   UNL A   1      45.989  27.902  26.929  1.00  0.00     0.037 A 
BRANCH  53  67
ATOM     67  C   UNL A   1      44.707  33.446  29.354  1.00  0.00     0.057 A 
ATOM     68  C   UNL A   1      45.347  33.803  30.549  1.00  0.00     0.134 A 
ATOM     69  C   UNL A   1      44.493  34.459  28.410  1.00  0.00     0.134 A 
ATOM     70  F   UNL A   1      45.565  32.886  31.503  1.00  0.00    -0.206 F 
ATOM     71  C   UNL A   1      45.731  35.121  30.806  1.00  0.00     0.040 A 
ATOM     72  C   UNL A   1      44.900  35.773  28.644  1.00  0.00     0.040 A 
ATOM     73  F   UNL A   1      43.885  34.189  27.245  1.00  0.00    -0.206 F 
ATOM     74  C   UNL A   1      45.513  36.109  29.849  1.00  0.00     0.006 A 
ENDBRANCH  53  67
BRANCH  54  75
ATOM     75  C   UNL A   1      41.222  24.234  27.655  1.00  0.00     0.057 A 
ATOM     76  C   UNL A   1      40.238  24.000  26.688  1.00  0.00     0.134 A 
ATOM     77  C   UNL A   1      41.690  23.130  28.378  1.00  0.00     0.134 A 
ATOM     78  F   UNL A   1      39.730  25.020  25.980  1.00  0.00    -0.206 F 
ATOM     79  C   UNL A   1      39.725  22.721  26.461  1.00  0.00     0.040 A 
ATOM     80  C   UNL A   1      41.207  21.842  28.142  1.00  0.00     0.040 A 
ATOM     81  F   UNL A   1      42.630  23.287  29.322  1.00  0.00    -0.206 F 
ATOM     82  C   UNL A   1      40.215  21.636  27.187  1.00  0.00     0.006 A 
ENDBRANCH  54  75
BRANCH  66  83
ATOM     83  C   UNL A   1      47.260  27.434  26.279  1.00  0.00     0.057 A 
ATOM     84  C   UNL A   1      48.273  26.788  27.000  1.00  0.00     0.134 A 
ATOM     85  C   UNL A   1      47.453  27.594  24.900  1.00  0.00     0.134 A 
ATOM     86  F   UNL A   1      48.157  26.609  28.325  1.00  0.00    -0.206 F 
ATOM     87  C   UNL A   1      49.443  26.345  26.379  1.00  0.00     0.040 A 
ATOM     88  C   UNL A   1      48.604  27.127  24.262  1.00  0.00     0.040 A 
ATOM     89  F   UNL A   1      46.519  28.192  24.146  1.00  0.00    -0.206 F 
ATOM     90  C   UNL A   1      49.607  26.507  25.004  1.00  0.00     0.006 A 
ENDBRANCH  66  83
ENDBRANCH  40  41
ENDBRANCH  33  35
ENDBRANCH  32  33
ENDBRANCH  31  32
ENDBRANCH  30  31
ENDBRANCH  29  30
ENDBRANCH  28  29
ENDBRANCH  27  28
ENDBRANCH  26  27
ENDBRANCH   1  26
TORSDOF 26
ENDMDL
MODEL 2
REMARK VINA RESULT:      -8.8      4.328      9.811
REMARK SMILES CC(=O)N[C@@H](C(=O)N(CC(=O)OCCOCCOCCOCCOC(=O)c1ccc(-c2c3nc(c(-c4c(F)cccc4F)c4ccc([nH]4)c(-c4c(F)cccc4F)c4nc(c(-c5c(F)cccc5F)c5ccc2[nH]5)C=C4)C=C3)cc1)C(C)(C)C)C(C)C
REMARK SMILES IDX 17 1 16 2 15 3 14 4 13 5 12 6 10 7 11 8 9 9 8 10 6 11 7 12
REMARK SMILES IDX 5 13 4 14 1 15 2 16 3 17 85 19 86 20 87 21 81 22 82 23 83 24
REMARK SMILES IDX 84 25 18 26 19 27 20 28 21 29 22 30 23 31 24 32 25 33 26 34
REMARK SMILES IDX 27 35 28 36 80 37 29 38 79 39 30 40 31 41 32 42 73 43 33 44
REMARK SMILES IDX 78 45 72 46 74 47 34 48 77 49 71 50 70 51 35 53 61 54 44 55
REMARK SMILES IDX 60 56 45 57 48 58 59 59 75 60 46 61 47 62 58 64 76 65 49 66
REMARK SMILES IDX 36 67 37 68 42 69 38 70 39 71 41 72 43 73 40 74 62 75 63 76
REMARK SMILES IDX 68 77 64 78 65 79 67 80 69 81 66 82 50 83 51 84 56 85 52 86
REMARK SMILES IDX 53 87 55 88 57 89 54 90
REMARK H PARENT 4 18 74 52 48 63
REMARK Flexibility Score: inf
ROOT
ATOM      1  C   UNL A   1      37.628  21.074  25.041  1.00  0.00     0.188 C 
ENDROOT
BRANCH   1   2
ATOM      2  C   UNL A   1      36.196  21.607  25.218  1.00  0.00     0.188 C 
BRANCH   2   3
ATOM      3  O   UNL A   1      35.102  20.704  25.333  1.00  0.00    -0.376 OA
BRANCH   3   4
ATOM      4  C   UNL A   1      33.792  21.220  25.510  1.00  0.00     0.202 C 
BRANCH   4   5
ATOM      5  C   UNL A   1      33.602  22.748  25.405  1.00  0.00     0.261 C 
BRANCH   5   6
ATOM      6  O   UNL A   1      32.238  23.242  25.477  1.00  0.00    -0.462 OA
BRANCH   6   7
ATOM      7  C   UNL A   1      32.003  24.293  26.303  1.00  0.00     0.325 C 
ATOM      8  O   UNL A   1      31.295  24.229  27.306  1.00  0.00    -0.250 OA
BRANCH   7   9
ATOM      9  C   UNL A   1      32.737  25.624  25.950  1.00  0.00     0.242 C 
BRANCH   9  10
ATOM     10  N   UNL A   1      32.120  26.897  25.471  1.00  0.00    -0.325 N 
BRANCH  10  11
ATOM     11  C   UNL A   1      30.917  26.902  24.740  1.00  0.00     0.246 C 
ATOM     12  O   UNL A   1      29.882  26.419  25.211  1.00  0.00    -0.272 OA
BRANCH  11  13
ATOM     13  C   UNL A   1      30.888  27.494  23.300  1.00  0.00     0.174 C 
BRANCH  13  14
ATOM     14  N   UNL A   1      29.485  27.697  22.950  1.00  0.00    -0.344 N 
ATOM     15  C   UNL A   1      29.410  30.135  23.339  1.00  0.00     0.114 C 
ATOM     16  C   UNL A   1      28.758  28.848  22.912  1.00  0.00     0.217 C 
ATOM     17  O   UNL A   1      27.582  28.802  22.558  1.00  0.00    -0.275 OA
ATOM     18  H   UNL A   1      28.991  26.881  22.704  1.00  0.00     0.164 HD
ENDBRANCH  13  14
BRANCH  13  19
ATOM     19  C   UNL A   1      31.586  26.522  22.298  1.00  0.00     0.015 C 
ATOM     20  C   UNL A   1      33.105  26.708  22.244  1.00  0.00     0.010 C 
ATOM     21  C   UNL A   1      31.294  25.050  22.639  1.00  0.00     0.010 C 
ENDBRANCH  13  19
ENDBRANCH  11  13
ENDBRANCH  10  11
BRANCH  10  22
ATOM     22  C   UNL A   1      32.623  28.253  25.958  1.00  0.00     0.035 C 
ATOM     23  C   UNL A   1      32.882  28.258  27.488  1.00  0.00     0.034 C 
ATOM     24  C   UNL A   1      33.968  28.595  25.261  1.00  0.00     0.034 C 
ATOM     25  C   UNL A   1      31.703  29.451  25.608  1.00  0.00     0.034 C 
ENDBRANCH  10  22
ENDBRANCH   9  10
ENDBRANCH   7   9
ENDBRANCH   6   7
ENDBRANCH   5   6
ENDBRANCH   4   5
ENDBRANCH   3   4
ENDBRANCH   2   3
ENDBRANCH   1   2
BRANCH   1  26
ATOM     26  O   UNL A   1      38.623  21.921  25.575  1.00  0.00    -0.377 OA
BRANCH  26  27
ATOM     27  C   UNL A   1      39.732  21.260  26.149  1.00  0.00     0.188 C 
BRANCH  27  28
ATOM     28  C   UNL A   1      40.995  22.126  26.279  1.00  0.00     0.188 C 
BRANCH  28  29
ATOM     29  O   UNL A   1      42.086  21.607  25.536  1.00  0.00    -0.376 OA
BRANCH  29  30
ATOM     30  C   UNL A   1      43.035  22.440  24.906  1.00  0.00     0.202 C 
BRANCH  30  31
ATOM     31  C   UNL A   1      44.547  22.394  25.195  1.00  0.00     0.261 C 
BRANCH  31  32
ATOM     32  O   UNL A   1      45.025  23.058  26.364  1.00  0.00    -0.460 OA
BRANCH  32  33
ATOM     33  C   UNL A   1      45.354  24.358  26.219  1.00  0.00     0.338 C 
ATOM     34  O   UNL A   1      46.167  24.824  25.433  1.00  0.00    -0.246 OA
BRANCH  33  35
ATOM     35  C   UNL A   1      44.424  25.178  27.019  1.00  0.00     0.060 A 
ATOM     36  C   UNL A   1      44.622  26.565  27.032  1.00  0.00     0.016 A 
ATOM     37  C   UNL A   1      43.383  24.603  27.753  1.00  0.00     0.016 A 
ATOM     38  C   UNL A   1      43.798  27.382  27.798  1.00  0.00     0.010 A 
ATOM     39  C   UNL A   1      42.582  25.422  28.559  1.00  0.00     0.010 A 
ATOM     40  C   UNL A   1      42.813  26.808  28.609  1.00  0.00    -0.014 A 
BRANCH  40  41
ATOM     41  C   UNL A   1      42.214  27.638  29.679  1.00  0.00     0.031 A 
ATOM     42  C   UNL A   1      42.884  27.641  31.026  1.00  0.00     0.074 A 
ATOM     43  C   UNL A   1      41.151  28.427  29.447  1.00  0.00     0.049 A 
ATOM     44  N   UNL A   1      42.565  28.288  32.115  1.00  0.00    -0.248 NA
ATOM     45  C   UNL A   1      44.084  26.797  31.155  1.00  0.00     0.031 C 
ATOM     46  C   UNL A   1      40.458  28.558  28.169  1.00  0.00     0.029 A 
ATOM     47  N   UNL A   1      40.473  29.271  30.290  1.00  0.00    -0.354 N 
ATOM     48  C   UNL A   1      43.523  27.932  33.056  1.00  0.00     0.074 A 
ATOM     49  C   UNL A   1      44.413  26.986  32.424  1.00  0.00     0.031 C 
ATOM     50  C   UNL A   1      39.443  29.429  28.314  1.00  0.00     0.029 A 
ATOM     51  C   UNL A   1      39.400  29.889  29.701  1.00  0.00     0.049 A 
ATOM     52  H   UNL A   1      40.733  29.419  31.228  1.00  0.00     0.167 HD
ATOM     53  C   UNL A   1      43.654  28.362  34.334  1.00  0.00     0.037 A 
ATOM     54  C   UNL A   1      38.478  30.716  30.233  1.00  0.00     0.037 A 
ATOM     55  C   UNL A   1      42.756  29.292  34.965  1.00  0.00     0.049 A 
ATOM     56  C   UNL A   1      38.586  31.103  31.686  1.00  0.00     0.074 A 
ATOM     57  C   UNL A   1      42.796  29.790  36.255  1.00  0.00     0.029 A 
ATOM     58  N   UNL A   1      41.644  29.852  34.352  1.00  0.00    -0.354 N 
ATOM     59  N   UNL A   1      39.501  30.776  32.567  1.00  0.00    -0.248 NA
ATOM     60  C   UNL A   1      37.532  31.980  32.218  1.00  0.00     0.031 C 
ATOM     61  C   UNL A   1      41.676  30.605  36.442  1.00  0.00     0.029 A 
ATOM     62  C   UNL A   1      40.973  30.669  35.248  1.00  0.00     0.049 A 
ATOM     63  H   UNL A   1      41.372  29.693  33.420  1.00  0.00     0.167 HD
ATOM     64  C   UNL A   1      39.155  31.432  33.743  1.00  0.00     0.074 A 
ATOM     65  C   UNL A   1      37.950  32.184  33.458  1.00  0.00     0.031 C 
ATOM     66  C   UNL A   1      39.779  31.417  34.947  1.00  0.00     0.037 A 
BRANCH  53  67
ATOM     67  C   UNL A   1      44.787  27.792  35.137  1.00  0.00     0.057 A 
ATOM     68  C   UNL A   1      46.055  28.389  35.165  1.00  0.00     0.134 A 
ATOM     69  C   UNL A   1      44.606  26.627  35.893  1.00  0.00     0.134 A 
ATOM     70  F   UNL A   1      46.302  29.495  34.448  1.00  0.00    -0.206 F 
ATOM     71  C   UNL A   1      47.108  27.831  35.893  1.00  0.00     0.040 A 
ATOM     72  C   UNL A   1      45.643  26.078  36.648  1.00  0.00     0.040 A 
ATOM     73  F   UNL A   1      43.418  26.003  35.911  1.00  0.00    -0.206 F 
ATOM     74  C   UNL A   1      46.901  26.675  36.642  1.00  0.00     0.006 A 
ENDBRANCH  53  67
BRANCH  54  75
ATOM     75  C   UNL A   1      37.364  31.228  29.394  1.00  0.00     0.057 A 
ATOM     76  C   UNL A   1      37.394  32.520  28.855  1.00  0.00     0.134 A 
ATOM     77  C   UNL A   1      36.232  30.448  29.131  1.00  0.00     0.134 A 
ATOM     78  F   UNL A   1      38.439  33.327  29.092  1.00  0.00    -0.206 F 
ATOM     79  C   UNL A   1      36.332  33.023  28.100  1.00  0.00     0.040 A 
ATOM     80  C   UNL A   1      35.175  30.927  28.355  1.00  0.00     0.040 A 
ATOM     81  F   UNL A   1      36.139  29.202  29.621  1.00  0.00    -0.206 F 
ATOM     82  C   UNL A   1      35.220  32.222  27.844  1.00  0.00     0.006 A 
ENDBRANCH  54  75
BRANCH  66  83
ATOM     83  C   UNL A   1      39.199  32.275  36.036  1.00  0.00     0.057 A 
ATOM     84  C   UNL A   1      39.562  33.617  36.203  1.00  0.00     0.134 A 
ATOM     85  C   UNL A   1      38.229  31.757  36.906  1.00  0.00     0.134 A 
ATOM     86  F   UNL A   1      40.491  34.174  35.410  1.00  0.00    -0.206 F 
ATOM     87  C   UNL A   1      39.003  34.405  37.212  1.00  0.00     0.040 A 
ATOM     88  C   UNL A   1      37.640  32.543  37.897  1.00  0.00     0.040 A 
ATOM     89  F   UNL A   1      37.825  30.483  36.795  1.00  0.00    -0.206 F 
ATOM     90  C   UNL A   1      38.033  33.870  38.057  1.00  0.00     0.006 A 
ENDBRANCH  66  83
ENDBRANCH  40  41
ENDBRANCH  33  35
ENDBRANCH  32  33
ENDBRANCH  31  32
ENDBRANCH  30  31
ENDBRANCH  29  30
ENDBRANCH  28  29
ENDBRANCH  27  28
ENDBRANCH  26  27
ENDBRANCH   1  26
TORSDOF 26
ENDMDL
MODEL 3
REMARK VINA RESULT:      -8.5      4.503      9.340
REMARK SMILES CC(=O)N[C@@H](C(=O)N(CC(=O)OCCOCCOCCOCCOC(=O)c1ccc(-c2c3nc(c(-c4c(F)cccc4F)c4ccc([nH]4)c(-c4c(F)cccc4F)c4nc(c(-c5c(F)cccc5F)c5ccc2[nH]5)C=C4)C=C3)cc1)C(C)(C)C)C(C)C
REMARK SMILES IDX 17 1 16 2 15 3 14 4 13 5 12 6 10 7 11 8 9 9 8 10 6 11 7 12
REMARK SMILES IDX 5 13 4 14 1 15 2 16 3 17 85 19 86 20 87 21 81 22 82 23 83 24
REMARK SMILES IDX 84 25 18 26 19 27 20 28 21 29 22 30 23 31 24 32 25 33 26 34
REMARK SMILES IDX 27 35 28 36 80 37 29 38 79 39 30 40 31 41 32 42 73 43 33 44
REMARK SMILES IDX 78 45 72 46 74 47 34 48 77 49 71 50 70 51 35 53 61 54 44 55
REMARK SMILES IDX 60 56 45 57 48 58 59 59 75 60 46 61 47 62 58 64 76 65 49 66
REMARK SMILES IDX 36 67 37 68 42 69 38 70 39 71 41 72 43 73 40 74 62 75 63 76
REMARK SMILES IDX 68 77 64 78 65 79 67 80 69 81 66 82 50 83 51 84 56 85 52 86
REMARK SMILES IDX 53 87 55 88 57 89 54 90
REMARK H PARENT 4 18 74 52 48 63
REMARK Flexibility Score: inf
ROOT
ATOM      1  C   UNL A   1      34.036  25.696  25.708  1.00  0.00     0.188 C 
ENDROOT
BRANCH   1   2
ATOM      2  C   UNL A   1      34.497  24.381  25.056  1.00  0.00     0.188 C 
BRANCH   2   3
ATOM      3  O   UNL A   1      35.884  24.084  24.940  1.00  0.00    -0.376 OA
BRANCH   3   4
ATOM      4  C   UNL A   1      36.536  23.395  25.996  1.00  0.00     0.202 C 
BRANCH   4   5
ATOM      5  C   UNL A   1      38.053  23.616  26.169  1.00  0.00     0.261 C 
BRANCH   5   6
ATOM      6  O   UNL A   1      38.898  22.439  26.077  1.00  0.00    -0.462 OA
BRANCH   6   7
ATOM      7  C   UNL A   1      40.000  22.404  26.870  1.00  0.00     0.325 C 
ATOM      8  O   UNL A   1      40.047  21.820  27.950  1.00  0.00    -0.250 OA
BRANCH   7   9
ATOM      9  C   UNL A   1      41.272  23.117  26.311  1.00  0.00     0.242 C 
BRANCH   9  10
ATOM     10  N   UNL A   1      42.687  22.655  26.417  1.00  0.00    -0.325 N 
BRANCH  10  11
ATOM     11  C   UNL A   1      43.258  21.806  25.449  1.00  0.00     0.246 C 
ATOM     12  O   UNL A   1      43.440  22.191  24.290  1.00  0.00    -0.272 OA
BRANCH  11  13
ATOM     13  C   UNL A   1      43.638  20.344  25.830  1.00  0.00     0.174 C 
BRANCH  13  14
ATOM     14  N   UNL A   1      43.903  19.634  24.581  1.00  0.00    -0.344 N 
ATOM     15  C   UNL A   1      46.366  19.823  24.627  1.00  0.00     0.114 C 
ATOM     16  C   UNL A   1      45.094  19.333  23.992  1.00  0.00     0.217 C 
ATOM     17  O   UNL A   1      45.097  18.695  22.941  1.00  0.00    -0.275 OA
ATOM     18  H   UNL A   1      43.105  19.327  24.094  1.00  0.00     0.164 HD
ENDBRANCH  13  14
BRANCH  13  19
ATOM     19  C   UNL A   1      42.477  19.671  26.627  1.00  0.00     0.015 C 
ATOM     20  C   UNL A   1      41.271  19.325  25.749  1.00  0.00     0.010 C 
ATOM     21  C   UNL A   1      42.943  18.385  27.332  1.00  0.00     0.010 C 
ENDBRANCH  13  19
ENDBRANCH  11  13
ENDBRANCH  10  11
BRANCH  10  22
ATOM     22  C   UNL A   1      43.648  23.270  27.430  1.00  0.00     0.035 C 
ATOM     23  C   UNL A   1      43.463  24.806  27.543  1.00  0.00     0.034 C 
ATOM     24  C   UNL A   1      43.383  22.669  28.837  1.00  0.00     0.034 C 
ATOM     25  C   UNL A   1      45.147  22.971  27.169  1.00  0.00     0.034 C 
ENDBRANCH  10  22
ENDBRANCH   9  10
ENDBRANCH   7   9
ENDBRANCH   6   7
ENDBRANCH   5   6
ENDBRANCH   4   5
ENDBRANCH   3   4
ENDBRANCH   2   3
ENDBRANCH   1   2
BRANCH   1  26
ATOM     26  O   UNL A   1      33.879  26.762  24.795  1.00  0.00    -0.377 OA
BRANCH  26  27
ATOM     27  C   UNL A   1      32.980  27.773  25.200  1.00  0.00     0.188 C 
BRANCH  27  28
ATOM     28  C   UNL A   1      33.291  28.392  26.572  1.00  0.00     0.188 C 
BRANCH  28  29
ATOM     29  O   UNL A   1      33.649  29.761  26.479  1.00  0.00    -0.376 OA
BRANCH  29  30
ATOM     30  C   UNL A   1      33.506  30.655  27.563  1.00  0.00     0.202 C 
BRANCH  30  31
ATOM     31  C   UNL A   1      33.853  32.154  27.493  1.00  0.00     0.261 C 
BRANCH  31  32
ATOM     32  O   UNL A   1      32.837  33.092  27.843  1.00  0.00    -0.460 OA
BRANCH  32  33
ATOM     33  C   UNL A   1      33.252  34.220  28.456  1.00  0.00     0.338 C 
ATOM     34  O   UNL A   1      32.742  35.328  28.374  1.00  0.00    -0.246 OA
BRANCH  33  35
ATOM     35  C   UNL A   1      34.314  33.875  29.421  1.00  0.00     0.060 A 
ATOM     36  C   UNL A   1      35.624  34.265  29.117  1.00  0.00     0.016 A 
ATOM     37  C   UNL A   1      34.037  33.173  30.597  1.00  0.00     0.016 A 
ATOM     38  C   UNL A   1      36.669  33.934  29.973  1.00  0.00     0.010 A 
ATOM     39  C   UNL A   1      35.095  32.802  31.436  1.00  0.00     0.010 A 
ATOM     40  C   UNL A   1      36.416  33.151  31.105  1.00  0.00    -0.014 A 
BRANCH  40  41
ATOM     41  C   UNL A   1      37.564  32.503  31.781  1.00  0.00     0.031 A 
ATOM     42  C   UNL A   1      38.312  31.437  31.029  1.00  0.00     0.074 A 
ATOM     43  C   UNL A   1      37.981  32.899  32.996  1.00  0.00     0.049 A 
ATOM     44  N   UNL A   1      39.352  30.733  31.393  1.00  0.00    -0.248 NA
ATOM     45  C   UNL A   1      37.818  31.128  29.677  1.00  0.00     0.031 C 
ATOM     46  C   UNL A   1      37.378  33.964  33.792  1.00  0.00     0.029 A 
ATOM     47  N   UNL A   1      39.019  32.443  33.768  1.00  0.00    -0.354 N 
ATOM     48  C   UNL A   1      39.636  29.902  30.317  1.00  0.00     0.074 A 
ATOM     49  C   UNL A   1      38.640  30.161  29.302  1.00  0.00     0.031 C 
ATOM     50  C   UNL A   1      38.054  34.075  34.950  1.00  0.00     0.029 A 
ATOM     51  C   UNL A   1      39.115  33.070  34.984  1.00  0.00     0.049 A 
ATOM     52  H   UNL A   1      39.637  31.734  33.476  1.00  0.00     0.167 HD
ATOM     53  C   UNL A   1      40.642  29.006  30.183  1.00  0.00     0.037 A 
ATOM     54  C   UNL A   1      39.954  32.838  36.013  1.00  0.00     0.037 A 
ATOM     55  C   UNL A   1      41.621  28.740  31.203  1.00  0.00     0.049 A 
ATOM     56  C   UNL A   1      41.004  31.766  35.881  1.00  0.00     0.074 A 
ATOM     57  C   UNL A   1      42.681  27.850  31.171  1.00  0.00     0.029 A 
ATOM     58  N   UNL A   1      41.650  29.353  32.448  1.00  0.00    -0.354 N 
ATOM     59  N   UNL A   1      41.278  30.994  34.857  1.00  0.00    -0.248 NA
ATOM     60  C   UNL A   1      41.868  31.537  37.049  1.00  0.00     0.031 C 
ATOM     61  C   UNL A   1      43.314  27.882  32.418  1.00  0.00     0.029 A 
ATOM     62  C   UNL A   1      42.692  28.840  33.203  1.00  0.00     0.049 A 
ATOM     63  H   UNL A   1      41.023  30.051  32.749  1.00  0.00     0.167 HD
ATOM     64  C   UNL A   1      42.363  30.214  35.243  1.00  0.00     0.074 A 
ATOM     65  C   UNL A   1      42.703  30.615  36.593  1.00  0.00     0.031 C 
ATOM     66  C   UNL A   1      43.022  29.256  34.543  1.00  0.00     0.037 A 
BRANCH  53  67
ATOM     67  C   UNL A   1      40.700  28.224  28.904  1.00  0.00     0.057 A 
ATOM     68  C   UNL A   1      41.494  28.626  27.820  1.00  0.00     0.134 A 
ATOM     69  C   UNL A   1      39.950  27.051  28.753  1.00  0.00     0.134 A 
ATOM     70  F   UNL A   1      42.221  29.751  27.890  1.00  0.00    -0.206 F 
ATOM     71  C   UNL A   1      41.515  27.906  26.624  1.00  0.00     0.040 A 
ATOM     72  C   UNL A   1      39.987  26.307  27.573  1.00  0.00     0.040 A 
ATOM     73  F   UNL A   1      39.168  26.609  29.749  1.00  0.00    -0.206 F 
ATOM     74  C   UNL A   1      40.764  26.739  26.501  1.00  0.00     0.006 A 
ENDBRANCH  53  67
BRANCH  54  75
ATOM     75  C   UNL A   1      39.831  33.628  37.266  1.00  0.00     0.057 A 
ATOM     76  C   UNL A   1      38.981  33.222  38.301  1.00  0.00     0.134 A 
ATOM     77  C   UNL A   1      40.541  34.821  37.448  1.00  0.00     0.134 A 
ATOM     78  F   UNL A   1      38.254  32.101  38.178  1.00  0.00    -0.206 F 
ATOM     79  C   UNL A   1      38.829  33.980  39.463  1.00  0.00     0.040 A 
ATOM     80  C   UNL A   1      40.419  35.576  38.616  1.00  0.00     0.040 A 
ATOM     81  F   UNL A   1      41.369  35.269  36.492  1.00  0.00    -0.206 F 
ATOM     82  C   UNL A   1      39.554  35.160  39.625  1.00  0.00     0.006 A 
ENDBRANCH  54  75
BRANCH  66  83
ATOM     83  C   UNL A   1      44.205  28.607  35.204  1.00  0.00     0.057 A 
ATOM     84  C   UNL A   1      44.087  27.436  35.962  1.00  0.00     0.134 A 
ATOM     85  C   UNL A   1      45.490  29.143  35.041  1.00  0.00     0.134 A 
ATOM     86  F   UNL A   1      42.885  26.875  36.165  1.00  0.00    -0.206 F 
ATOM     87  C   UNL A   1      45.199  26.837  36.558  1.00  0.00     0.040 A 
ATOM     88  C   UNL A   1      46.613  28.536  35.605  1.00  0.00     0.040 A 
ATOM     89  F   UNL A   1      45.678  30.256  34.317  1.00  0.00    -0.206 F 
ATOM     90  C   UNL A   1      46.468  27.383  36.373  1.00  0.00     0.006 A 
ENDBRANCH  66  83
ENDBRANCH  40  41
ENDBRANCH  33  35
ENDBRANCH  32  33
ENDBRANCH  31  32
ENDBRANCH  30  31
ENDBRANCH  29  30
ENDBRANCH  28  29
ENDBRANCH  27  28
ENDBRANCH  26  27
ENDBRANCH   1  26
TORSDOF 26
ENDMDL
