MODEL 1
REMARK VINA RESULT:     -10.9      0.000      0.000
REMARK SMILES NS(=O)(=O)c1ccc(-n2nc(C(=O)OCCOCCOCCOCCOC(=O)c3ccc(-c4c5nc(c(-c6c(F)cccc6F)c6ccc([nH]6)c(-c6c(F)cccc6F)c6nc(c(-c7c(F)cccc7F)c7ccc4[nH]7)C=C6)C=C5)cc3)c(Cl)c2-c2ccc(Cl)cc2)cc1
REMARK SMILES IDX 19 1 18 2 17 3 16 4 15 5 14 6 12 7 13 8 11 9 9 10 10 11
REMARK SMILES IDX 85 12 83 13 84 14 8 15 5 16 6 17 94 18 7 19 93 20 2 21 3 22
REMARK SMILES IDX 4 23 1 24 86 27 87 28 92 29 88 30 91 31 89 32 90 33 20 34
REMARK SMILES IDX 21 35 22 36 23 37 24 38 25 39 26 40 27 41 28 42 29 43 30 44
REMARK SMILES IDX 82 45 31 46 81 47 32 48 33 49 34 50 75 51 35 52 80 53 74 54
REMARK SMILES IDX 76 55 36 56 79 57 73 58 72 59 37 61 63 62 46 63 62 64 47 65
REMARK SMILES IDX 50 66 61 67 77 68 48 69 49 70 60 72 78 73 51 74 38 75 39 76
REMARK SMILES IDX 44 77 40 78 41 79 43 80 45 81 42 82 64 83 65 84 70 85 66 86
REMARK SMILES IDX 67 87 69 88 71 89 68 90 52 91 53 92 58 93 54 94 55 95 57 96
REMARK SMILES IDX 59 97 56 98
REMARK H PARENT 1 25 1 26 76 60 50 71
REMARK Flexibility Score: inf
ROOT
ATOM      1  C   UNL A   1      31.799  30.231  26.320  1.00  0.00     0.188 C 
ENDROOT
BRANCH   1   2
ATOM      2  C   UNL A   1      32.207  28.761  26.567  1.00  0.00     0.188 C 
BRANCH   2   3
ATOM      3  O   UNL A   1      32.047  27.787  25.552  1.00  0.00    -0.376 OA
BRANCH   3   4
ATOM      4  C   UNL A   1      31.691  28.089  24.217  1.00  0.00     0.202 C 
BRANCH   4   5
ATOM      5  C   UNL A   1      32.681  28.304  23.068  1.00  0.00     0.261 C 
BRANCH   5   6
ATOM      6  O   UNL A   1      33.532  27.214  22.750  1.00  0.00    -0.458 OA
BRANCH   6   7
ATOM      7  C   UNL A   1      32.941  26.034  22.412  1.00  0.00     0.360 C 
ATOM      8  O   UNL A   1      32.166  25.894  21.474  1.00  0.00    -0.244 OA
BRANCH   7   9
ATOM      9  C   UNL A   1      33.408  24.944  23.276  1.00  0.00     0.190 A 
ATOM     10  N   UNL A   1      34.719  23.728  24.456  1.00  0.00    -0.231 N 
ATOM     11  N   UNL A   1      34.614  24.952  23.883  1.00  0.00    -0.159 NA
ATOM     12  C   UNL A   1      33.586  22.956  24.269  1.00  0.00     0.094 A 
ATOM     13  C   UNL A   1      32.690  23.771  23.608  1.00  0.00     0.102 A 
ATOM     14  Cl  UNL A   1      31.092  23.371  23.166  1.00  0.00    -0.079 Cl
BRANCH  10  15
ATOM     15  C   UNL A   1      35.977  23.277  24.912  1.00  0.00     0.065 A 
ATOM     16  C   UNL A   1      38.376  22.247  25.856  1.00  0.00     0.082 A 
ATOM     17  C   UNL A   1      37.787  23.334  26.513  1.00  0.00     0.024 A 
ATOM     18  C   UNL A   1      37.784  21.695  24.714  1.00  0.00     0.024 A 
ATOM     19  C   UNL A   1      36.586  23.870  26.025  1.00  0.00     0.030 A 
ATOM     20  C   UNL A   1      36.574  22.200  24.248  1.00  0.00     0.030 A 
BRANCH  16  21
ATOM     21  S   UNL A   1      39.888  21.510  26.404  1.00  0.00     0.238 S 
ATOM     22  O   UNL A   1      39.847  20.104  26.096  1.00  0.00    -0.207 OA
ATOM     23  O   UNL A   1      40.173  22.012  27.731  1.00  0.00    -0.207 OA
BRANCH  21  24
ATOM     24  N   UNL A   1      41.085  22.147  25.414  1.00  0.00    -0.225 NA
ATOM     25  H   UNL A   1      40.741  22.996  24.966  1.00  0.00     0.137 HD
ATOM     26  H   UNL A   1      41.336  21.463  24.699  1.00  0.00     0.137 HD
ENDBRANCH  21  24
ENDBRANCH  16  21
ENDBRANCH  10  15
BRANCH  12  27
ATOM     27  C   UNL A   1      33.419  21.552  24.622  1.00  0.00     0.002 A 
ATOM     28  C   UNL A   1      33.107  20.651  23.591  1.00  0.00     0.012 A 
ATOM     29  C   UNL A   1      33.465  21.099  25.943  1.00  0.00     0.012 A 
ATOM     30  C   UNL A   1      32.797  19.325  23.875  1.00  0.00     0.021 A 
ATOM     31  C   UNL A   1      33.164  19.762  26.225  1.00  0.00     0.021 A 
ATOM     32  C   UNL A   1      32.819  18.887  25.194  1.00  0.00     0.041 A 
ATOM     33  Cl  UNL A   1      32.393  17.260  25.550  1.00  0.00    -0.084 Cl
ENDBRANCH  12  27
ENDBRANCH   7   9
ENDBRANCH   6   7
ENDBRANCH   5   6
ENDBRANCH   4   5
ENDBRANCH   3   4
ENDBRANCH   2   3
ENDBRANCH   1   2
BRANCH   1  34
ATOM     34  O   UNL A   1      32.832  31.191  26.407  1.00  0.00    -0.377 OA
BRANCH  34  35
ATOM     35  C   UNL A   1      33.485  31.403  27.656  1.00  0.00     0.188 C 
BRANCH  35  36
ATOM     36  C   UNL A   1      34.406  32.621  27.930  1.00  0.00     0.188 C 
BRANCH  36  37
ATOM     37  O   UNL A   1      33.745  33.821  28.282  1.00  0.00    -0.376 OA
BRANCH  37  38
ATOM     38  C   UNL A   1      34.139  34.648  29.356  1.00  0.00     0.202 C 
BRANCH  38  39
ATOM     39  C   UNL A   1      33.092  35.520  30.034  1.00  0.00     0.261 C 
BRANCH  39  40
ATOM     40  O   UNL A   1      32.535  34.949  31.200  1.00  0.00    -0.460 OA
BRANCH  40  41
ATOM     41  C   UNL A   1      32.883  35.584  32.334  1.00  0.00     0.338 C 
ATOM     42  O   UNL A   1      32.447  36.640  32.756  1.00  0.00    -0.246 OA
BRANCH  41  43
ATOM     43  C   UNL A   1      34.035  34.884  32.898  1.00  0.00     0.060 A 
ATOM     44  C   UNL A   1      35.211  35.625  32.982  1.00  0.00     0.016 A 
ATOM     45  C   UNL A   1      34.014  33.481  32.939  1.00  0.00     0.016 A 
ATOM     46  C   UNL A   1      36.395  34.946  32.841  1.00  0.00     0.010 A 
ATOM     47  C   UNL A   1      35.194  32.807  32.776  1.00  0.00     0.010 A 
ATOM     48  C   UNL A   1      36.355  33.560  32.636  1.00  0.00    -0.014 A 
BRANCH  48  49
ATOM     49  C   UNL A   1      37.610  32.886  32.419  1.00  0.00     0.031 A 
ATOM     50  C   UNL A   1      38.419  32.871  33.652  1.00  0.00     0.074 A 
ATOM     51  C   UNL A   1      37.937  32.303  31.253  1.00  0.00     0.049 A 
ATOM     52  N   UNL A   1      39.483  33.560  33.883  1.00  0.00    -0.248 NA
ATOM     53  C   UNL A   1      37.856  32.207  34.840  1.00  0.00     0.031 C 
ATOM     54  C   UNL A   1      37.088  32.076  30.083  1.00  0.00     0.029 A 
ATOM     55  N   UNL A   1      39.105  31.703  30.902  1.00  0.00    -0.354 N 
ATOM     56  C   UNL A   1      39.867  33.207  35.168  1.00  0.00     0.074 A 
ATOM     57  C   UNL A   1      38.728  32.577  35.777  1.00  0.00     0.031 C 
ATOM     58  C   UNL A   1      37.696  31.193  29.257  1.00  0.00     0.029 A 
ATOM     59  C   UNL A   1      39.020  30.893  29.775  1.00  0.00     0.049 A 
ATOM     60  H   UNL A   1      39.942  31.831  31.405  1.00  0.00     0.167 HD
ATOM     61  C   UNL A   1      41.188  33.147  35.478  1.00  0.00     0.037 A 
ATOM     62  C   UNL A   1      39.955  29.998  29.366  1.00  0.00     0.037 A 
ATOM     63  C   UNL A   1      41.968  33.941  34.556  1.00  0.00     0.049 A 
ATOM     64  C   UNL A   1      41.237  30.370  30.017  1.00  0.00     0.074 A 
ATOM     65  C   UNL A   1      41.965  35.266  34.163  1.00  0.00     0.029 A 
ATOM     66  N   UNL A   1      42.681  33.266  33.595  1.00  0.00    -0.354 N 
ATOM     67  N   UNL A   1      41.920  31.438  29.714  1.00  0.00    -0.248 NA
ATOM     68  C   UNL A   1      41.529  29.794  31.321  1.00  0.00     0.031 C 
ATOM     69  C   UNL A   1      42.283  35.247  32.773  1.00  0.00     0.029 A 
ATOM     70  C   UNL A   1      42.529  33.924  32.404  1.00  0.00     0.049 A 
ATOM     71  H   UNL A   1      43.210  32.449  33.738  1.00  0.00     0.167 HD
ATOM     72  C   UNL A   1      42.368  31.923  30.933  1.00  0.00     0.074 A 
ATOM     73  C   UNL A   1      42.186  30.818  31.873  1.00  0.00     0.031 C 
ATOM     74  C   UNL A   1      42.556  33.262  31.121  1.00  0.00     0.037 A 
BRANCH  61  75
ATOM     75  C   UNL A   1      41.786  32.000  36.264  1.00  0.00     0.057 A 
ATOM     76  C   UNL A   1      42.707  32.302  37.280  1.00  0.00     0.134 A 
ATOM     77  C   UNL A   1      41.760  30.645  35.866  1.00  0.00     0.134 A 
ATOM     78  F   UNL A   1      42.832  33.554  37.745  1.00  0.00    -0.206 F 
ATOM     79  C   UNL A   1      43.610  31.355  37.779  1.00  0.00     0.040 A 
ATOM     80  C   UNL A   1      42.621  29.682  36.394  1.00  0.00     0.040 A 
ATOM     81  F   UNL A   1      40.984  30.186  34.878  1.00  0.00    -0.206 F 
ATOM     82  C   UNL A   1      43.577  30.043  37.325  1.00  0.00     0.006 A 
ENDBRANCH  61  75
BRANCH  62  83
ATOM     83  C   UNL A   1      39.771  28.680  28.712  1.00  0.00     0.057 A 
ATOM     84  C   UNL A   1      40.378  28.399  27.476  1.00  0.00     0.134 A 
ATOM     85  C   UNL A   1      39.251  27.573  29.403  1.00  0.00     0.134 A 
ATOM     86  F   UNL A   1      40.937  29.381  26.753  1.00  0.00    -0.206 F 
ATOM     87  C   UNL A   1      40.496  27.094  26.980  1.00  0.00     0.040 A 
ATOM     88  C   UNL A   1      39.355  26.265  28.915  1.00  0.00     0.040 A 
ATOM     89  F   UNL A   1      38.706  27.707  30.621  1.00  0.00    -0.206 F 
ATOM     90  C   UNL A   1      39.996  26.020  27.707  1.00  0.00     0.006 A 
ENDBRANCH  62  83
BRANCH  74  91
ATOM     91  C   UNL A   1      42.576  34.142  29.902  1.00  0.00     0.057 A 
ATOM     92  C   UNL A   1      43.690  34.320  29.066  1.00  0.00     0.134 A 
ATOM     93  C   UNL A   1      41.376  34.734  29.493  1.00  0.00     0.134 A 
ATOM     94  F   UNL A   1      44.856  33.714  29.322  1.00  0.00    -0.206 F 
ATOM     95  C   UNL A   1      43.618  35.094  27.903  1.00  0.00     0.040 A 
ATOM     96  C   UNL A   1      41.283  35.478  28.317  1.00  0.00     0.040 A 
ATOM     97  F   UNL A   1      40.258  34.561  30.217  1.00  0.00    -0.206 F 
ATOM     98  C   UNL A   1      42.410  35.670  27.522  1.00  0.00     0.006 A 
ENDBRANCH  74  91
ENDBRANCH  48  49
ENDBRANCH  41  43
ENDBRANCH  40  41
ENDBRANCH  39  40
ENDBRANCH  38  39
ENDBRANCH  37  38
ENDBRANCH  36  37
ENDBRANCH  35  36
ENDBRANCH  34  35
ENDBRANCH   1  34
TORSDOF 24
ENDMDL
MODEL 2
REMARK VINA RESULT:     -10.7      4.481      8.528
REMARK SMILES NS(=O)(=O)c1ccc(-n2nc(C(=O)OCCOCCOCCOCCOC(=O)c3ccc(-c4c5nc(c(-c6c(F)cccc6F)c6ccc([nH]6)c(-c6c(F)cccc6F)c6nc(c(-c7c(F)cccc7F)c7ccc4[nH]7)C=C6)C=C5)cc3)c(Cl)c2-c2ccc(Cl)cc2)cc1
REMARK SMILES IDX 19 1 18 2 17 3 16 4 15 5 14 6 12 7 13 8 11 9 9 10 10 11
REMARK SMILES IDX 85 12 83 13 84 14 8 15 5 16 6 17 94 18 7 19 93 20 2 21 3 22
REMARK SMILES IDX 4 23 1 24 86 27 87 28 92 29 88 30 91 31 89 32 90 33 20 34
REMARK SMILES IDX 21 35 22 36 23 37 24 38 25 39 26 40 27 41 28 42 29 43 30 44
REMARK SMILES IDX 82 45 31 46 81 47 32 48 33 49 34 50 75 51 35 52 80 53 74 54
REMARK SMILES IDX 76 55 36 56 79 57 73 58 72 59 37 61 63 62 46 63 62 64 47 65
REMARK SMILES IDX 50 66 61 67 77 68 48 69 49 70 60 72 78 73 51 74 38 75 39 76
REMARK SMILES IDX 44 77 40 78 41 79 43 80 45 81 42 82 64 83 65 84 70 85 66 86
REMARK SMILES IDX 67 87 69 88 71 89 68 90 52 91 53 92 58 93 54 94 55 95 57 96
REMARK SMILES IDX 59 97 56 98
REMARK H PARENT 1 25 1 26 76 60 50 71
REMARK Flexibility Score: inf
ROOT
ATOM      1  C   UNL A   1      33.320  30.460  26.725  1.00  0.00     0.188 C 
ENDROOT
BRANCH   1   2
ATOM      2  C   UNL A   1      33.726  29.016  27.095  1.00  0.00     0.188 C 
BRANCH   2   3
ATOM      3  O   UNL A   1      32.806  27.949  26.955  1.00  0.00    -0.376 OA
BRANCH   3   4
ATOM      4  C   UNL A   1      31.482  28.105  26.486  1.00  0.00     0.202 C 
BRANCH   4   5
ATOM      5  C   UNL A   1      31.085  28.319  25.021  1.00  0.00     0.261 C 
BRANCH   5   6
ATOM      6  O   UNL A   1      30.399  27.252  24.387  1.00  0.00    -0.458 OA
BRANCH   6   7
ATOM      7  C   UNL A   1      30.807  26.898  23.136  1.00  0.00     0.360 C 
ATOM      8  O   UNL A   1      30.452  27.463  22.109  1.00  0.00    -0.244 OA
BRANCH   7   9
ATOM      9  C   UNL A   1      31.778  25.799  23.189  1.00  0.00     0.190 A 
ATOM     10  N   UNL A   1      32.569  23.809  23.214  1.00  0.00    -0.231 N 
ATOM     11  N   UNL A   1      31.453  24.517  22.915  1.00  0.00    -0.159 NA
ATOM     12  C   UNL A   1      33.615  24.615  23.626  1.00  0.00     0.094 A 
ATOM     13  C   UNL A   1      33.152  25.909  23.504  1.00  0.00     0.102 A 
ATOM     14  Cl  UNL A   1      34.036  27.334  23.815  1.00  0.00    -0.079 Cl
BRANCH  10  15
ATOM     15  C   UNL A   1      32.490  22.404  23.341  1.00  0.00     0.065 A 
ATOM     16  C   UNL A   1      32.500  19.642  23.622  1.00  0.00     0.082 A 
ATOM     17  C   UNL A   1      32.246  20.206  22.365  1.00  0.00     0.024 A 
ATOM     18  C   UNL A   1      32.718  20.455  24.740  1.00  0.00     0.024 A 
ATOM     19  C   UNL A   1      32.220  21.602  22.225  1.00  0.00     0.030 A 
ATOM     20  C   UNL A   1      32.728  21.839  24.599  1.00  0.00     0.030 A 
BRANCH  16  21
ATOM     21  S   UNL A   1      32.552  17.894  23.886  1.00  0.00     0.238 S 
ATOM     22  O   UNL A   1      32.266  17.236  22.637  1.00  0.00    -0.207 OA
ATOM     23  O   UNL A   1      31.829  17.606  25.106  1.00  0.00    -0.207 OA
BRANCH  21  24
ATOM     24  N   UNL A   1      34.159  17.535  24.219  1.00  0.00    -0.225 NA
ATOM     25  H   UNL A   1      34.455  16.740  23.654  1.00  0.00     0.137 HD
ATOM     26  H   UNL A   1      34.258  17.305  25.208  1.00  0.00     0.137 HD
ENDBRANCH  21  24
ENDBRANCH  16  21
ENDBRANCH  10  15
BRANCH  12  27
ATOM     27  C   UNL A   1      34.899  24.174  24.158  1.00  0.00     0.002 A 
ATOM     28  C   UNL A   1      35.709  23.376  23.335  1.00  0.00     0.012 A 
ATOM     29  C   UNL A   1      35.297  24.437  25.471  1.00  0.00     0.012 A 
ATOM     30  C   UNL A   1      36.879  22.806  23.827  1.00  0.00     0.021 A 
ATOM     31  C   UNL A   1      36.480  23.872  25.961  1.00  0.00     0.021 A 
ATOM     32  C   UNL A   1      37.256  23.050  25.142  1.00  0.00     0.041 A 
ATOM     33  Cl  UNL A   1      38.677  22.310  25.764  1.00  0.00    -0.084 Cl
ENDBRANCH  12  27
ENDBRANCH   7   9
ENDBRANCH   6   7
ENDBRANCH   5   6
ENDBRANCH   4   5
ENDBRANCH   3   4
ENDBRANCH   2   3
ENDBRANCH   1   2
BRANCH   1  34
ATOM     34  O   UNL A   1      33.238  31.382  27.792  1.00  0.00    -0.377 OA
BRANCH  34  35
ATOM     35  C   UNL A   1      34.343  32.242  28.059  1.00  0.00     0.188 C 
BRANCH  35  36
ATOM     36  C   UNL A   1      34.652  32.803  29.472  1.00  0.00     0.188 C 
BRANCH  36  37
ATOM     37  O   UNL A   1      35.908  33.437  29.617  1.00  0.00    -0.376 OA
BRANCH  37  38
ATOM     38  C   UNL A   1      36.852  33.092  30.609  1.00  0.00     0.202 C 
BRANCH  38  39
ATOM     39  C   UNL A   1      37.614  31.781  30.472  1.00  0.00     0.261 C 
BRANCH  39  40
ATOM     40  O   UNL A   1      37.490  31.174  29.202  1.00  0.00    -0.460 OA
BRANCH  40  41
ATOM     41  C   UNL A   1      37.016  29.916  29.247  1.00  0.00     0.338 C 
ATOM     42  O   UNL A   1      35.987  29.529  29.774  1.00  0.00    -0.246 OA
BRANCH  41  43
ATOM     43  C   UNL A   1      38.051  29.033  28.715  1.00  0.00     0.060 A 
ATOM     44  C   UNL A   1      38.569  28.100  29.610  1.00  0.00     0.016 A 
ATOM     45  C   UNL A   1      38.718  29.413  27.539  1.00  0.00     0.016 A 
ATOM     46  C   UNL A   1      39.885  27.744  29.457  1.00  0.00     0.010 A 
ATOM     47  C   UNL A   1      40.037  29.073  27.401  1.00  0.00     0.010 A 
ATOM     48  C   UNL A   1      40.621  28.321  28.413  1.00  0.00    -0.014 A 
BRANCH  48  49
ATOM     49  C   UNL A   1      42.019  27.982  28.322  1.00  0.00     0.031 A 
ATOM     50  C   UNL A   1      42.202  26.677  27.660  1.00  0.00     0.074 A 
ATOM     51  C   UNL A   1      43.000  28.801  28.738  1.00  0.00     0.049 A 
ATOM     52  N   UNL A   1      42.558  25.572  28.221  1.00  0.00    -0.248 NA
ATOM     53  C   UNL A   1      41.706  26.526  26.282  1.00  0.00     0.031 C 
ATOM     54  C   UNL A   1      42.895  30.194  29.175  1.00  0.00     0.029 A 
ATOM     55  N   UNL A   1      44.340  28.572  28.771  1.00  0.00    -0.354 N 
ATOM     56  C   UNL A   1      42.581  24.640  27.194  1.00  0.00     0.074 A 
ATOM     57  C   UNL A   1      41.835  25.212  26.106  1.00  0.00     0.031 C 
ATOM     58  C   UNL A   1      44.131  30.745  29.205  1.00  0.00     0.029 A 
ATOM     59  C   UNL A   1      45.116  29.717  28.913  1.00  0.00     0.049 A 
ATOM     60  H   UNL A   1      44.729  27.670  28.700  1.00  0.00     0.167 HD
ATOM     61  C   UNL A   1      43.508  23.649  27.212  1.00  0.00     0.037 A 
ATOM     62  C   UNL A   1      46.458  29.797  28.725  1.00  0.00     0.037 A 
ATOM     63  C   UNL A   1      44.004  23.434  28.552  1.00  0.00     0.049 A 
ATOM     64  C   UNL A   1      47.001  28.418  28.822  1.00  0.00     0.074 A 
ATOM     65  C   UNL A   1      43.427  23.124  29.770  1.00  0.00     0.029 A 
ATOM     66  N   UNL A   1      45.256  23.921  28.844  1.00  0.00    -0.354 N 
ATOM     67  N   UNL A   1      47.053  27.737  29.932  1.00  0.00    -0.248 NA
ATOM     68  C   UNL A   1      47.067  27.627  27.603  1.00  0.00     0.031 C 
ATOM     69  C   UNL A   1      44.178  23.854  30.738  1.00  0.00     0.029 A 
ATOM     70  C   UNL A   1      45.211  24.516  30.075  1.00  0.00     0.049 A 
ATOM     71  H   UNL A   1      46.049  23.852  28.265  1.00  0.00     0.167 HD
ATOM     72  C   UNL A   1      46.696  26.448  29.568  1.00  0.00     0.074 A 
ATOM     73  C   UNL A   1      46.817  26.417  28.111  1.00  0.00     0.031 C 
ATOM     74  C   UNL A   1      46.049  25.631  30.450  1.00  0.00     0.037 A 
BRANCH  61  75
ATOM     75  C   UNL A   1      44.302  23.256  25.984  1.00  0.00     0.057 A 
ATOM     76  C   UNL A   1      44.407  21.891  25.671  1.00  0.00     0.134 A 
ATOM     77  C   UNL A   1      45.214  24.096  25.308  1.00  0.00     0.134 A 
ATOM     78  F   UNL A   1      43.600  20.989  26.249  1.00  0.00    -0.206 F 
ATOM     79  C   UNL A   1      45.416  21.389  24.840  1.00  0.00     0.040 A 
ATOM     80  C   UNL A   1      46.190  23.610  24.436  1.00  0.00     0.040 A 
ATOM     81  F   UNL A   1      45.293  25.414  25.519  1.00  0.00    -0.206 F 
ATOM     82  C   UNL A   1      46.320  22.249  24.230  1.00  0.00     0.006 A 
ENDBRANCH  61  75
BRANCH  62  83
ATOM     83  C   UNL A   1      47.263  30.910  28.167  1.00  0.00     0.057 A 
ATOM     84  C   UNL A   1      46.904  31.519  26.952  1.00  0.00     0.134 A 
ATOM     85  C   UNL A   1      48.216  31.598  28.936  1.00  0.00     0.134 A 
ATOM     86  F   UNL A   1      45.975  30.963  26.160  1.00  0.00    -0.206 F 
ATOM     87  C   UNL A   1      47.429  32.753  26.548  1.00  0.00     0.040 A 
ATOM     88  C   UNL A   1      48.756  32.828  28.541  1.00  0.00     0.040 A 
ATOM     89  F   UNL A   1      48.591  31.149  30.143  1.00  0.00    -0.206 F 
ATOM     90  C   UNL A   1      48.348  33.419  27.352  1.00  0.00     0.006 A 
ENDBRANCH  62  83
BRANCH  74  91
ATOM     91  C   UNL A   1      46.026  26.044  31.896  1.00  0.00     0.057 A 
ATOM     92  C   UNL A   1      44.953  26.699  32.521  1.00  0.00     0.134 A 
ATOM     93  C   UNL A   1      47.089  25.647  32.714  1.00  0.00     0.134 A 
ATOM     94  F   UNL A   1      43.850  27.032  31.840  1.00  0.00    -0.206 F 
ATOM     95  C   UNL A   1      44.966  26.987  33.889  1.00  0.00     0.040 A 
ATOM     96  C   UNL A   1      47.098  25.897  34.086  1.00  0.00     0.040 A 
ATOM     97  F   UNL A   1      48.126  24.970  32.193  1.00  0.00    -0.206 F 
ATOM     98  C   UNL A   1      46.038  26.579  34.678  1.00  0.00     0.006 A 
ENDBRANCH  74  91
ENDBRANCH  48  49
ENDBRANCH  41  43
ENDBRANCH  40  41
ENDBRANCH  39  40
ENDBRANCH  38  39
ENDBRANCH  37  38
ENDBRANCH  36  37
ENDBRANCH  35  36
ENDBRANCH  34  35
ENDBRANCH   1  34
TORSDOF 24
ENDMDL
MODEL 3
REMARK VINA RESULT:     -10.6      3.794      9.600
REMARK SMILES NS(=O)(=O)c1ccc(-n2nc(C(=O)OCCOCCOCCOCCOC(=O)c3ccc(-c4c5nc(c(-c6c(F)cccc6F)c6ccc([nH]6)c(-c6c(F)cccc6F)c6nc(c(-c7c(F)cccc7F)c7ccc4[nH]7)C=C6)C=C5)cc3)c(Cl)c2-c2ccc(Cl)cc2)cc1
REMARK SMILES IDX 19 1 18 2 17 3 16 4 15 5 14 6 12 7 13 8 11 9 9 10 10 11
REMARK SMILES IDX 85 12 83 13 84 14 8 15 5 16 6 17 94 18 7 19 93 20 2 21 3 22
REMARK SMILES IDX 4 23 1 24 86 27 87 28 92 29 88 30 91 31 89 32 90 33 20 34
REMARK SMILES IDX 21 35 22 36 23 37 24 38 25 39 26 40 27 41 28 42 29 43 30 44
REMARK SMILES IDX 82 45 31 46 81 47 32 48 33 49 34 50 75 51 35 52 80 53 74 54
REMARK SMILES IDX 76 55 36 56 79 57 73 58 72 59 37 61 63 62 46 63 62 64 47 65
REMARK SMILES IDX 50 66 61 67 77 68 48 69 49 70 60 72 78 73 51 74 38 75 39 76
REMARK SMILES IDX 44 77 40 78 41 79 43 80 45 81 42 82 64 83 65 84 70 85 66 86
REMARK SMILES IDX 67 87 69 88 71 89 68 90 52 91 53 92 58 93 54 94 55 95 57 96
REMARK SMILES IDX 59 97 56 98
REMARK H PARENT 1 25 1 26 76 60 50 71
REMARK Flexibility Score: inf
ROOT
ATOM      1  C   UNL A   1      33.765  21.424  26.589  1.00  0.00     0.188 C 
ENDROOT
BRANCH   1   2
ATOM      2  C   UNL A   1      33.134  20.165  25.954  1.00  0.00     0.188 C 
BRANCH   2   3
ATOM      3  O   UNL A   1      32.098  20.282  24.996  1.00  0.00    -0.376 OA
BRANCH   3   4
ATOM      4  C   UNL A   1      31.928  21.400  24.148  1.00  0.00     0.202 C 
BRANCH   4   5
ATOM      5  C   UNL A   1      32.288  21.438  22.659  1.00  0.00     0.261 C 
BRANCH   5   6
ATOM      6  O   UNL A   1      32.473  22.721  22.082  1.00  0.00    -0.458 OA
BRANCH   6   7
ATOM      7  C   UNL A   1      33.442  23.515  22.617  1.00  0.00     0.360 C 
ATOM      8  O   UNL A   1      34.644  23.303  22.513  1.00  0.00    -0.244 OA
BRANCH   7   9
ATOM      9  C   UNL A   1      32.858  24.691  23.273  1.00  0.00     0.190 A 
ATOM     10  N   UNL A   1      31.625  26.412  23.599  1.00  0.00    -0.231 N 
ATOM     11  N   UNL A   1      31.748  25.311  22.818  1.00  0.00    -0.159 NA
ATOM     12  C   UNL A   1      32.604  26.483  24.574  1.00  0.00     0.094 A 
ATOM     13  C   UNL A   1      33.336  25.320  24.446  1.00  0.00     0.102 A 
ATOM     14  Cl  UNL A   1      34.641  24.832  25.429  1.00  0.00    -0.079 Cl
BRANCH  10  15
ATOM     15  C   UNL A   1      30.754  27.452  23.206  1.00  0.00     0.065 A 
ATOM     16  C   UNL A   1      29.120  29.596  22.543  1.00  0.00     0.082 A 
ATOM     17  C   UNL A   1      28.575  28.499  23.221  1.00  0.00     0.024 A 
ATOM     18  C   UNL A   1      30.470  29.609  22.170  1.00  0.00     0.024 A 
ATOM     19  C   UNL A   1      29.394  27.405  23.538  1.00  0.00     0.030 A 
ATOM     20  C   UNL A   1      31.293  28.542  22.515  1.00  0.00     0.030 A 
BRANCH  16  21
ATOM     21  S   UNL A   1      28.160  31.016  22.105  1.00  0.00     0.238 S 
ATOM     22  O   UNL A   1      27.274  31.322  23.199  1.00  0.00    -0.207 OA
ATOM     23  O   UNL A   1      27.694  30.837  20.747  1.00  0.00    -0.207 OA
BRANCH  21  24
ATOM     24  N   UNL A   1      29.247  32.295  22.043  1.00  0.00    -0.225 NA
ATOM     25  H   UNL A   1      29.577  32.416  21.086  1.00  0.00     0.137 HD
ATOM     26  H   UNL A   1      30.040  32.097  22.654  1.00  0.00     0.137 HD
ENDBRANCH  21  24
ENDBRANCH  16  21
ENDBRANCH  10  15
BRANCH  12  27
ATOM     27  C   UNL A   1      32.854  27.597  25.480  1.00  0.00     0.002 A 
ATOM     28  C   UNL A   1      31.788  28.469  25.753  1.00  0.00     0.012 A 
ATOM     29  C   UNL A   1      34.122  27.874  25.998  1.00  0.00     0.012 A 
ATOM     30  C   UNL A   1      31.991  29.629  26.495  1.00  0.00     0.021 A 
ATOM     31  C   UNL A   1      34.321  29.034  26.754  1.00  0.00     0.021 A 
ATOM     32  C   UNL A   1      33.260  29.911  26.986  1.00  0.00     0.041 A 
ATOM     33  Cl  UNL A   1      33.521  31.365  27.864  1.00  0.00    -0.084 Cl
ENDBRANCH  12  27
ENDBRANCH   7   9
ENDBRANCH   6   7
ENDBRANCH   5   6
ENDBRANCH   4   5
ENDBRANCH   3   4
ENDBRANCH   2   3
ENDBRANCH   1   2
BRANCH   1  34
ATOM     34  O   UNL A   1      35.176  21.464  26.637  1.00  0.00    -0.377 OA
BRANCH  34  35
ATOM     35  C   UNL A   1      35.920  21.299  25.432  1.00  0.00     0.188 C 
BRANCH  35  36
ATOM     36  C   UNL A   1      36.491  19.932  24.974  1.00  0.00     0.188 C 
BRANCH  36  37
ATOM     37  O   UNL A   1      37.871  19.919  24.660  1.00  0.00    -0.376 OA
BRANCH  37  38
ATOM     38  C   UNL A   1      38.842  19.231  25.420  1.00  0.00     0.202 C 
BRANCH  38  39
ATOM     39  C   UNL A   1      39.909  20.034  26.149  1.00  0.00     0.261 C 
BRANCH  39  40
ATOM     40  O   UNL A   1      39.756  21.434  26.030  1.00  0.00    -0.460 OA
BRANCH  40  41
ATOM     41  C   UNL A   1      40.907  22.119  26.162  1.00  0.00     0.338 C 
ATOM     42  O   UNL A   1      41.976  21.882  25.628  1.00  0.00    -0.246 OA
BRANCH  41  43
ATOM     43  C   UNL A   1      40.717  23.102  27.226  1.00  0.00     0.060 A 
ATOM     44  C   UNL A   1      39.711  24.040  27.011  1.00  0.00     0.016 A 
ATOM     45  C   UNL A   1      41.754  23.297  28.153  1.00  0.00     0.016 A 
ATOM     46  C   UNL A   1      39.893  25.293  27.538  1.00  0.00     0.010 A 
ATOM     47  C   UNL A   1      41.946  24.554  28.660  1.00  0.00     0.010 A 
ATOM     48  C   UNL A   1      41.062  25.552  28.266  1.00  0.00    -0.014 A 
BRANCH  48  49
ATOM     49  C   UNL A   1      41.259  26.897  28.746  1.00  0.00     0.031 A 
ATOM     50  C   UNL A   1      42.481  27.487  28.168  1.00  0.00     0.074 A 
ATOM     51  C   UNL A   1      40.389  27.520  29.560  1.00  0.00     0.049 A 
ATOM     52  N   UNL A   1      43.590  27.716  28.783  1.00  0.00    -0.248 NA
ATOM     53  C   UNL A   1      42.560  27.614  26.704  1.00  0.00     0.031 C 
ATOM     54  C   UNL A   1      39.055  27.080  29.969  1.00  0.00     0.029 A 
ATOM     55  N   UNL A   1      40.493  28.748  30.133  1.00  0.00    -0.354 N 
ATOM     56  C   UNL A   1      44.426  28.265  27.821  1.00  0.00     0.074 A 
ATOM     57  C   UNL A   1      43.837  27.960  26.545  1.00  0.00     0.031 C 
ATOM     58  C   UNL A   1      38.394  28.122  30.526  1.00  0.00     0.029 A 
ATOM     59  C   UNL A   1      39.297  29.256  30.625  1.00  0.00     0.049 A 
ATOM     60  H   UNL A   1      41.346  29.237  30.193  1.00  0.00     0.167 HD
ATOM     61  C   UNL A   1      45.324  29.217  28.181  1.00  0.00     0.037 A 
ATOM     62  C   UNL A   1      39.075  30.539  31.010  1.00  0.00     0.037 A 
ATOM     63  C   UNL A   1      45.603  29.150  29.598  1.00  0.00     0.049 A 
ATOM     64  C   UNL A   1      40.401  31.158  31.269  1.00  0.00     0.074 A 
ATOM     65  C   UNL A   1      46.068  28.171  30.456  1.00  0.00     0.029 A 
ATOM     66  N   UNL A   1      45.028  30.108  30.397  1.00  0.00    -0.354 N 
ATOM     67  N   UNL A   1      41.165  30.838  32.275  1.00  0.00    -0.248 NA
ATOM     68  C   UNL A   1      41.077  31.807  30.155  1.00  0.00     0.031 C 
ATOM     69  C   UNL A   1      45.355  28.372  31.675  1.00  0.00     0.029 A 
ATOM     70  C   UNL A   1      44.545  29.497  31.523  1.00  0.00     0.049 A 
ATOM     71  H   UNL A   1      44.973  31.069  30.194  1.00  0.00     0.167 HD
ATOM     72  C   UNL A   1      42.447  30.816  31.746  1.00  0.00     0.074 A 
ATOM     73  C   UNL A   1      42.344  31.519  30.469  1.00  0.00     0.031 C 
ATOM     74  C   UNL A   1      43.392  29.971  32.252  1.00  0.00     0.037 A 
BRANCH  61  75
ATOM     75  C   UNL A   1      45.535  30.480  27.375  1.00  0.00     0.057 A 
ATOM     76  C   UNL A   1      46.853  30.909  27.147  1.00  0.00     0.134 A 
ATOM     77  C   UNL A   1      44.539  31.445  27.106  1.00  0.00     0.134 A 
ATOM     78  F   UNL A   1      47.891  30.088  27.368  1.00  0.00    -0.206 F 
ATOM     79  C   UNL A   1      47.161  32.227  26.791  1.00  0.00     0.040 A 
ATOM     80  C   UNL A   1      44.834  32.747  26.701  1.00  0.00     0.040 A 
ATOM     81  F   UNL A   1      43.236  31.231  27.314  1.00  0.00    -0.206 F 
ATOM     82  C   UNL A   1      46.150  33.155  26.580  1.00  0.00     0.006 A 
ENDBRANCH  61  75
BRANCH  62  83
ATOM     83  C   UNL A   1      37.849  31.361  30.876  1.00  0.00     0.057 A 
ATOM     84  C   UNL A   1      37.185  31.854  32.012  1.00  0.00     0.134 A 
ATOM     85  C   UNL A   1      37.464  31.929  29.650  1.00  0.00     0.134 A 
ATOM     86  F   UNL A   1      37.504  31.405  33.236  1.00  0.00    -0.206 F 
ATOM     87  C   UNL A   1      36.229  32.876  31.938  1.00  0.00     0.040 A 
ATOM     88  C   UNL A   1      36.504  32.944  29.560  1.00  0.00     0.040 A 
ATOM     89  F   UNL A   1      38.070  31.586  28.504  1.00  0.00    -0.206 F 
ATOM     90  C   UNL A   1      35.897  33.434  30.709  1.00  0.00     0.006 A 
ENDBRANCH  62  83
BRANCH  74  91
ATOM     91  C   UNL A   1      43.107  29.316  33.574  1.00  0.00     0.057 A 
ATOM     92  C   UNL A   1      43.390  29.887  34.825  1.00  0.00     0.134 A 
ATOM     93  C   UNL A   1      42.403  28.107  33.576  1.00  0.00     0.134 A 
ATOM     94  F   UNL A   1      43.975  31.088  34.925  1.00  0.00    -0.206 F 
ATOM     95  C   UNL A   1      43.029  29.256  36.019  1.00  0.00     0.040 A 
ATOM     96  C   UNL A   1      42.005  27.485  34.759  1.00  0.00     0.040 A 
ATOM     97  F   UNL A   1      42.052  27.529  32.415  1.00  0.00    -0.206 F 
ATOM     98  C   UNL A   1      42.328  28.054  35.988  1.00  0.00     0.006 A 
ENDBRANCH  74  91
ENDBRANCH  48  49
ENDBRANCH  41  43
ENDBRANCH  40  41
ENDBRANCH  39  40
ENDBRANCH  38  39
ENDBRANCH  37  38
ENDBRANCH  36  37
ENDBRANCH  35  36
ENDBRANCH  34  35
ENDBRANCH   1  34
TORSDOF 24
ENDMDL
