MODEL 1
REMARK VINA RESULT:     -10.1      0.000      0.000
REMARK SMILES Cc1cc(Cl)ccc1Oc1cc(C)c(N)c(C(=O)OCCOCCOCCOCCOC(=O)c2ccc(-c3c4nc(c(-c5c(F)cccc5F)c5ccc([nH]5)c(-c5c(F)cccc5F)c5nc(c(-c6c(F)cccc6F)c6ccc3[nH]6)C=C5)C=C4)cc2)c1
REMARK SMILES IDX 25 1 24 2 23 3 22 4 21 5 20 6 19 7 17 8 18 9 16 10 10 11
REMARK SMILES IDX 11 12 88 13 12 14 13 15 14 16 9 17 8 18 1 19 2 20 3 21 4 22
REMARK SMILES IDX 7 23 5 24 6 25 15 26 26 29 27 30 28 31 29 32 30 33 31 34
REMARK SMILES IDX 32 35 33 36 34 37 35 38 87 39 36 40 86 41 37 42 38 43 39 44
REMARK SMILES IDX 80 45 40 46 85 47 79 48 81 49 41 50 84 51 78 52 77 53 42 55
REMARK SMILES IDX 68 56 51 57 67 58 52 59 55 60 66 61 82 62 53 63 54 64 65 66
REMARK SMILES IDX 83 67 56 68 43 69 44 70 49 71 45 72 46 73 48 74 50 75 47 76
REMARK SMILES IDX 69 77 70 78 75 79 71 80 72 81 74 82 76 83 73 84 57 85 58 86
REMARK SMILES IDX 63 87 59 88 60 89 62 90 64 91 61 92
REMARK H PARENT 15 27 15 28 81 54 55 65
REMARK Flexibility Score: inf
ROOT
ATOM      1  O   UNL A   1      39.397  21.327  25.738  1.00  0.00    -0.377 OA
ENDROOT
BRANCH   1   2
ATOM      2  C   UNL A   1      39.260  22.515  26.507  1.00  0.00     0.188 C 
BRANCH   2   3
ATOM      3  C   UNL A   1      38.209  23.568  26.098  1.00  0.00     0.188 C 
BRANCH   3   4
ATOM      4  O   UNL A   1      37.291  23.120  25.111  1.00  0.00    -0.376 OA
BRANCH   4   5
ATOM      5  C   UNL A   1      36.057  23.802  25.001  1.00  0.00     0.202 C 
BRANCH   5   6
ATOM      6  C   UNL A   1      34.820  23.108  25.589  1.00  0.00     0.261 C 
BRANCH   6   7
ATOM      7  O   UNL A   1      33.986  22.415  24.649  1.00  0.00    -0.460 OA
BRANCH   7   8
ATOM      8  C   UNL A   1      32.671  22.738  24.630  1.00  0.00     0.340 C 
ATOM      9  O   UNL A   1      31.793  22.199  25.285  1.00  0.00    -0.246 OA
BRANCH   8  10
ATOM     10  C   UNL A   1      32.490  23.980  23.826  1.00  0.00     0.086 A 
ATOM     11  C   UNL A   1      31.804  26.303  23.714  1.00  0.00     0.128 A 
ATOM     12  C   UNL A   1      32.172  26.342  22.374  1.00  0.00     0.052 A 
ATOM     13  C   UNL A   1      32.021  25.143  24.454  1.00  0.00     0.065 A 
ATOM     14  C   UNL A   1      32.560  25.164  21.708  1.00  0.00    -0.024 A 
ATOM     15  C   UNL A   1      32.724  25.214  20.211  1.00  0.00     0.047 C 
ATOM     16  C   UNL A   1      32.712  23.960  22.430  1.00  0.00     0.049 A 
BRANCH  11  17
ATOM     17  O   UNL A   1      31.269  27.352  24.410  1.00  0.00    -0.457 OA
BRANCH  17  18
ATOM     18  C   UNL A   1      30.255  28.153  23.930  1.00  0.00     0.130 A 
ATOM     19  C   UNL A   1      28.285  26.471  23.771  1.00  0.00     0.048 C 
ATOM     20  C   UNL A   1      28.913  27.832  23.648  1.00  0.00    -0.007 A 
ATOM     21  C   UNL A   1      28.053  28.864  23.202  1.00  0.00     0.027 A 
ATOM     22  C   UNL A   1      28.487  30.185  23.116  1.00  0.00     0.041 A 
ATOM     23  C   UNL A   1      30.665  29.499  23.846  1.00  0.00     0.049 A 
ATOM     24  Cl  UNL A   1      27.392  31.416  22.618  1.00  0.00    -0.084 Cl
ATOM     25  C   UNL A   1      29.791  30.511  23.451  1.00  0.00     0.024 A 
ENDBRANCH  17  18
ENDBRANCH  11  17
BRANCH  16  26
ATOM     26  N   UNL A   1      32.879  22.753  21.745  1.00  0.00    -0.398 N 
ATOM     27  H   UNL A   1      33.783  22.421  21.543  1.00  0.00     0.156 HD
ATOM     28  H   UNL A   1      32.090  22.234  21.462  1.00  0.00     0.156 HD
ENDBRANCH  16  26
ENDBRANCH   8  10
ENDBRANCH   7   8
ENDBRANCH   6   7
ENDBRANCH   5   6
ENDBRANCH   4   5
ENDBRANCH   3   4
ENDBRANCH   2   3
ENDBRANCH   1   2
BRANCH   1  29
ATOM     29  C   UNL A   1      40.404  20.375  26.070  1.00  0.00     0.188 C 
BRANCH  29  30
ATOM     30  C   UNL A   1      41.205  20.478  27.390  1.00  0.00     0.188 C 
BRANCH  30  31
ATOM     31  O   UNL A   1      42.495  21.051  27.261  1.00  0.00    -0.376 OA
BRANCH  31  32
ATOM     32  C   UNL A   1      43.221  20.777  26.077  1.00  0.00     0.202 C 
BRANCH  32  33
ATOM     33  C   UNL A   1      43.696  21.997  25.275  1.00  0.00     0.261 C 
BRANCH  33  34
ATOM     34  O   UNL A   1      44.428  22.982  26.019  1.00  0.00    -0.460 OA
BRANCH  34  35
ATOM     35  C   UNL A   1      44.471  24.228  25.496  1.00  0.00     0.338 C 
ATOM     36  O   UNL A   1      44.953  24.565  24.434  1.00  0.00    -0.246 OA
BRANCH  35  37
ATOM     37  C   UNL A   1      43.649  25.106  26.354  1.00  0.00     0.060 A 
ATOM     38  C   UNL A   1      44.055  26.434  26.536  1.00  0.00     0.016 A 
ATOM     39  C   UNL A   1      42.498  24.621  26.980  1.00  0.00     0.016 A 
ATOM     40  C   UNL A   1      43.338  27.265  27.392  1.00  0.00     0.010 A 
ATOM     41  C   UNL A   1      41.790  25.451  27.852  1.00  0.00     0.010 A 
ATOM     42  C   UNL A   1      42.236  26.762  28.097  1.00  0.00    -0.014 A 
BRANCH  42  43
ATOM     43  C   UNL A   1      41.698  27.551  29.230  1.00  0.00     0.031 A 
ATOM     44  C   UNL A   1      42.395  27.463  30.561  1.00  0.00     0.074 A 
ATOM     45  C   UNL A   1      40.656  28.383  29.066  1.00  0.00     0.049 A 
ATOM     46  N   UNL A   1      42.153  28.111  31.670  1.00  0.00    -0.248 NA
ATOM     47  C   UNL A   1      43.514  26.513  30.651  1.00  0.00     0.031 C 
ATOM     48  C   UNL A   1      39.912  28.568  27.822  1.00  0.00     0.029 A 
ATOM     49  N   UNL A   1      40.049  29.232  29.955  1.00  0.00    -0.354 N 
ATOM     50  C   UNL A   1      43.086  27.645  32.589  1.00  0.00     0.074 A 
ATOM     51  C   UNL A   1      43.870  26.631  31.920  1.00  0.00     0.031 C 
ATOM     52  C   UNL A   1      38.941  29.474  28.030  1.00  0.00     0.029 A 
ATOM     53  C   UNL A   1      38.985  29.917  29.423  1.00  0.00     0.049 A 
ATOM     54  H   UNL A   1      40.347  29.340  30.888  1.00  0.00     0.167 HD
ATOM     55  C   UNL A   1      43.278  28.033  33.872  1.00  0.00     0.037 A 
ATOM     56  C   UNL A   1      38.139  30.792  29.999  1.00  0.00     0.037 A 
ATOM     57  C   UNL A   1      42.492  29.040  34.536  1.00  0.00     0.049 A 
ATOM     58  C   UNL A   1      38.348  31.185  31.437  1.00  0.00     0.074 A 
ATOM     59  C   UNL A   1      42.630  29.534  35.821  1.00  0.00     0.029 A 
ATOM     60  N   UNL A   1      41.409  29.696  33.969  1.00  0.00    -0.354 N 
ATOM     61  N   UNL A   1      39.265  30.780  32.282  1.00  0.00    -0.248 NA
ATOM     62  C   UNL A   1      37.412  32.170  31.997  1.00  0.00     0.031 C 
ATOM     63  C   UNL A   1      41.589  30.438  36.054  1.00  0.00     0.029 A 
ATOM     64  C   UNL A   1      40.847  30.565  34.892  1.00  0.00     0.049 A 
ATOM     65  H   UNL A   1      41.085  29.563  33.049  1.00  0.00     0.167 HD
ATOM     66  C   UNL A   1      39.037  31.480  33.461  1.00  0.00     0.074 A 
ATOM     67  C   UNL A   1      37.901  32.344  33.217  1.00  0.00     0.031 C 
ATOM     68  C   UNL A   1      39.711  31.418  34.638  1.00  0.00     0.037 A 
BRANCH  55  69
ATOM     69  C   UNL A   1      44.355  27.331  34.650  1.00  0.00     0.057 A 
ATOM     70  C   UNL A   1      45.647  27.857  34.784  1.00  0.00     0.134 A 
ATOM     71  C   UNL A   1      44.091  26.107  35.278  1.00  0.00     0.134 A 
ATOM     72  F   UNL A   1      45.974  29.018  34.195  1.00  0.00    -0.206 F 
ATOM     73  C   UNL A   1      46.645  27.176  35.484  1.00  0.00     0.040 A 
ATOM     74  C   UNL A   1      45.070  25.432  36.008  1.00  0.00     0.040 A 
ATOM     75  F   UNL A   1      42.874  25.547  35.195  1.00  0.00    -0.206 F 
ATOM     76  C   UNL A   1      46.355  25.962  36.103  1.00  0.00     0.006 A 
ENDBRANCH  55  69
BRANCH  56  77
ATOM     77  C   UNL A   1      37.016  31.355  29.206  1.00  0.00     0.057 A 
ATOM     78  C   UNL A   1      35.872  30.603  28.918  1.00  0.00     0.134 A 
ATOM     79  C   UNL A   1      37.062  32.669  28.724  1.00  0.00     0.134 A 
ATOM     80  F   UNL A   1      35.777  29.332  29.333  1.00  0.00    -0.206 F 
ATOM     81  C   UNL A   1      34.818  31.133  28.171  1.00  0.00     0.040 A 
ATOM     82  C   UNL A   1      36.005  33.221  28.001  1.00  0.00     0.040 A 
ATOM     83  F   UNL A   1      38.131  33.443  28.968  1.00  0.00    -0.206 F 
ATOM     84  C   UNL A   1      34.880  32.450  27.717  1.00  0.00     0.006 A 
ENDBRANCH  56  77
BRANCH  68  85
ATOM     85  C   UNL A   1      39.265  32.339  35.740  1.00  0.00     0.057 A 
ATOM     86  C   UNL A   1      39.755  33.644  35.865  1.00  0.00     0.134 A 
ATOM     87  C   UNL A   1      38.304  31.919  36.670  1.00  0.00     0.134 A 
ATOM     88  F   UNL A   1      40.682  34.109  35.014  1.00  0.00    -0.206 F 
ATOM     89  C   UNL A   1      39.331  34.488  36.895  1.00  0.00     0.040 A 
ATOM     90  C   UNL A   1      37.850  32.763  37.684  1.00  0.00     0.040 A 
ATOM     91  F   UNL A   1      37.782  30.685  36.601  1.00  0.00    -0.206 F 
ATOM     92  C   UNL A   1      38.371  34.048  37.805  1.00  0.00     0.006 A 
ENDBRANCH  68  85
ENDBRANCH  42  43
ENDBRANCH  35  37
ENDBRANCH  34  35
ENDBRANCH  33  34
ENDBRANCH  32  33
ENDBRANCH  31  32
ENDBRANCH  30  31
ENDBRANCH  29  30
ENDBRANCH   1  29
TORSDOF 23
ENDMDL
MODEL 2
REMARK VINA RESULT:      -9.8      5.677     11.958
REMARK SMILES Cc1cc(Cl)ccc1Oc1cc(C)c(N)c(C(=O)OCCOCCOCCOCCOC(=O)c2ccc(-c3c4nc(c(-c5c(F)cccc5F)c5ccc([nH]5)c(-c5c(F)cccc5F)c5nc(c(-c6c(F)cccc6F)c6ccc3[nH]6)C=C5)C=C4)cc2)c1
REMARK SMILES IDX 25 1 24 2 23 3 22 4 21 5 20 6 19 7 17 8 18 9 16 10 10 11
REMARK SMILES IDX 11 12 88 13 12 14 13 15 14 16 9 17 8 18 1 19 2 20 3 21 4 22
REMARK SMILES IDX 7 23 5 24 6 25 15 26 26 29 27 30 28 31 29 32 30 33 31 34
REMARK SMILES IDX 32 35 33 36 34 37 35 38 87 39 36 40 86 41 37 42 38 43 39 44
REMARK SMILES IDX 80 45 40 46 85 47 79 48 81 49 41 50 84 51 78 52 77 53 42 55
REMARK SMILES IDX 68 56 51 57 67 58 52 59 55 60 66 61 82 62 53 63 54 64 65 66
REMARK SMILES IDX 83 67 56 68 43 69 44 70 49 71 45 72 46 73 48 74 50 75 47 76
REMARK SMILES IDX 69 77 70 78 75 79 71 80 72 81 74 82 76 83 73 84 57 85 58 86
REMARK SMILES IDX 63 87 59 88 60 89 62 90 64 91 61 92
REMARK H PARENT 15 27 15 28 81 54 55 65
REMARK Flexibility Score: inf
ROOT
ATOM      1  O   UNL A   1      33.034  37.132  30.497  1.00  0.00    -0.377 OA
ENDROOT
BRANCH   1   2
ATOM      2  C   UNL A   1      32.897  36.534  29.215  1.00  0.00     0.188 C 
BRANCH   2   3
ATOM      3  C   UNL A   1      34.023  35.628  28.674  1.00  0.00     0.188 C 
BRANCH   3   4
ATOM      4  O   UNL A   1      34.062  34.336  29.263  1.00  0.00    -0.376 OA
BRANCH   4   5
ATOM      5  C   UNL A   1      35.326  33.814  29.625  1.00  0.00     0.202 C 
BRANCH   5   6
ATOM      6  C   UNL A   1      35.434  32.292  29.785  1.00  0.00     0.261 C 
BRANCH   6   7
ATOM      7  O   UNL A   1      36.669  31.704  29.348  1.00  0.00    -0.460 OA
BRANCH   7   8
ATOM      8  C   UNL A   1      36.588  30.607  28.558  1.00  0.00     0.340 C 
ATOM      9  O   UNL A   1      35.952  30.519  27.521  1.00  0.00    -0.246 OA
BRANCH   8  10
ATOM     10  C   UNL A   1      37.550  29.582  29.055  1.00  0.00     0.086 A 
ATOM     11  C   UNL A   1      39.389  28.067  28.606  1.00  0.00     0.128 A 
ATOM     12  C   UNL A   1      39.400  27.692  29.945  1.00  0.00     0.052 A 
ATOM     13  C   UNL A   1      38.508  29.056  28.176  1.00  0.00     0.065 A 
ATOM     14  C   UNL A   1      38.392  28.142  30.819  1.00  0.00    -0.024 A 
ATOM     15  C   UNL A   1      38.314  27.528  32.193  1.00  0.00     0.047 C 
ATOM     16  C   UNL A   1      37.442  29.090  30.376  1.00  0.00     0.049 A 
BRANCH  11  17
ATOM     17  O   UNL A   1      40.226  27.567  27.647  1.00  0.00    -0.457 OA
BRANCH  17  18
ATOM     18  C   UNL A   1      41.212  26.637  27.898  1.00  0.00     0.130 A 
ATOM     19  C   UNL A   1      39.894  24.409  27.712  1.00  0.00     0.048 C 
ATOM     20  C   UNL A   1      41.137  25.231  27.920  1.00  0.00    -0.007 A 
ATOM     21  C   UNL A   1      42.321  24.497  28.162  1.00  0.00     0.027 A 
ATOM     22  C   UNL A   1      43.555  25.130  28.297  1.00  0.00     0.041 A 
ATOM     23  C   UNL A   1      42.473  27.254  28.025  1.00  0.00     0.049 A 
ATOM     24  Cl  UNL A   1      44.978  24.195  28.538  1.00  0.00    -0.084 Cl
ATOM     25  C   UNL A   1      43.638  26.511  28.215  1.00  0.00     0.024 A 
ENDBRANCH  17  18
ENDBRANCH  11  17
BRANCH  16  26
ATOM     26  N   UNL A   1      36.320  29.370  31.160  1.00  0.00    -0.398 N 
ATOM     27  H   UNL A   1      35.883  30.250  31.099  1.00  0.00     0.156 HD
ATOM     28  H   UNL A   1      35.966  28.687  31.775  1.00  0.00     0.156 HD
ENDBRANCH  16  26
ENDBRANCH   8  10
ENDBRANCH   7   8
ENDBRANCH   6   7
ENDBRANCH   5   6
ENDBRANCH   4   5
ENDBRANCH   3   4
ENDBRANCH   2   3
ENDBRANCH   1   2
BRANCH   1  29
ATOM     29  C   UNL A   1      32.574  36.445  31.656  1.00  0.00     0.188 C 
BRANCH  29  30
ATOM     30  C   UNL A   1      33.549  35.660  32.566  1.00  0.00     0.188 C 
BRANCH  30  31
ATOM     31  O   UNL A   1      33.312  34.263  32.629  1.00  0.00    -0.376 OA
BRANCH  31  32
ATOM     32  C   UNL A   1      34.310  33.453  33.222  1.00  0.00     0.202 C 
BRANCH  32  33
ATOM     33  C   UNL A   1      35.588  34.173  33.674  1.00  0.00     0.261 C 
BRANCH  33  34
ATOM     34  O   UNL A   1      36.797  33.765  33.015  1.00  0.00    -0.460 OA
BRANCH  34  35
ATOM     35  C   UNL A   1      37.958  34.077  33.633  1.00  0.00     0.338 C 
ATOM     36  O   UNL A   1      38.136  34.924  34.483  1.00  0.00    -0.246 OA
BRANCH  35  37
ATOM     37  C   UNL A   1      38.964  33.070  33.237  1.00  0.00     0.060 A 
ATOM     38  C   UNL A   1      40.213  33.086  33.871  1.00  0.00     0.016 A 
ATOM     39  C   UNL A   1      38.682  32.129  32.244  1.00  0.00     0.016 A 
ATOM     40  C   UNL A   1      41.204  32.194  33.472  1.00  0.00     0.010 A 
ATOM     41  C   UNL A   1      39.684  31.245  31.832  1.00  0.00     0.010 A 
ATOM     42  C   UNL A   1      40.962  31.307  32.413  1.00  0.00    -0.014 A 
BRANCH  42  43
ATOM     43  C   UNL A   1      42.114  30.607  31.796  1.00  0.00     0.031 A 
ATOM     44  C   UNL A   1      42.844  31.283  30.668  1.00  0.00     0.074 A 
ATOM     45  C   UNL A   1      42.549  29.429  32.274  1.00  0.00     0.049 A 
ATOM     46  N   UNL A   1      43.916  30.901  30.025  1.00  0.00    -0.248 NA
ATOM     47  C   UNL A   1      42.284  32.561  30.201  1.00  0.00     0.031 C 
ATOM     48  C   UNL A   1      41.937  28.686  33.373  1.00  0.00     0.029 A 
ATOM     49  N   UNL A   1      43.614  28.655  31.892  1.00  0.00    -0.354 N 
ATOM     50  C   UNL A   1      44.157  31.888  29.077  1.00  0.00     0.074 A 
ATOM     51  C   UNL A   1      43.097  32.864  29.202  1.00  0.00     0.031 C 
ATOM     52  C   UNL A   1      42.638  27.557  33.575  1.00  0.00     0.029 A 
ATOM     53  C   UNL A   1      43.732  27.490  32.607  1.00  0.00     0.049 A 
ATOM     54  H   UNL A   1      44.235  28.909  31.170  1.00  0.00     0.167 HD
ATOM     55  C   UNL A   1      45.175  31.979  28.188  1.00  0.00     0.037 A 
ATOM     56  C   UNL A   1      44.617  26.482  32.487  1.00  0.00     0.037 A 
ATOM     57  C   UNL A   1      46.226  31.004  28.065  1.00  0.00     0.049 A 
ATOM     58  C   UNL A   1      45.722  26.585  31.470  1.00  0.00     0.074 A 
ATOM     59  C   UNL A   1      47.325  31.021  27.224  1.00  0.00     0.029 A 
ATOM     60  N   UNL A   1      46.299  29.826  28.794  1.00  0.00    -0.354 N 
ATOM     61  N   UNL A   1      45.974  27.547  30.615  1.00  0.00    -0.248 NA
ATOM     62  C   UNL A   1      46.675  25.468  31.412  1.00  0.00     0.031 C 
ATOM     63  C   UNL A   1      48.025  29.822  27.396  1.00  0.00     0.029 A 
ATOM     64  C   UNL A   1      47.406  29.091  28.397  1.00  0.00     0.049 A 
ATOM     65  H   UNL A   1      45.660  29.551  29.490  1.00  0.00     0.167 HD
ATOM     66  C   UNL A   1      47.128  27.168  29.940  1.00  0.00     0.074 A 
ATOM     67  C   UNL A   1      47.532  25.892  30.494  1.00  0.00     0.031 C 
ATOM     68  C   UNL A   1      47.796  27.819  28.954  1.00  0.00     0.037 A 
BRANCH  55  69
ATOM     69  C   UNL A   1      45.170  33.155  27.253  1.00  0.00     0.057 A 
ATOM     70  C   UNL A   1      45.909  34.319  27.509  1.00  0.00     0.134 A 
ATOM     71  C   UNL A   1      44.415  33.120  26.074  1.00  0.00     0.134 A 
ATOM     72  F   UNL A   1      46.642  34.428  28.628  1.00  0.00    -0.206 F 
ATOM     73  C   UNL A   1      45.868  35.416  26.645  1.00  0.00     0.040 A 
ATOM     74  C   UNL A   1      44.392  34.196  25.187  1.00  0.00     0.040 A 
ATOM     75  F   UNL A   1      43.688  32.036  25.764  1.00  0.00    -0.206 F 
ATOM     76  C   UNL A   1      45.111  35.353  25.477  1.00  0.00     0.006 A 
ENDBRANCH  55  69
BRANCH  56  77
ATOM     77  C   UNL A   1      44.489  25.287  33.361  1.00  0.00     0.057 A 
ATOM     78  C   UNL A   1      43.947  24.087  32.889  1.00  0.00     0.134 A 
ATOM     79  C   UNL A   1      44.918  25.320  34.694  1.00  0.00     0.134 A 
ATOM     80  F   UNL A   1      43.497  23.999  31.628  1.00  0.00    -0.206 F 
ATOM     81  C   UNL A   1      43.825  22.966  33.711  1.00  0.00     0.040 A 
ATOM     82  C   UNL A   1      44.829  24.199  35.520  1.00  0.00     0.040 A 
ATOM     83  F   UNL A   1      45.449  26.440  35.207  1.00  0.00    -0.206 F 
ATOM     84  C   UNL A   1      44.275  23.018  35.030  1.00  0.00     0.006 A 
ENDBRANCH  56  77
BRANCH  68  85
ATOM     85  C   UNL A   1      49.059  27.185  28.439  1.00  0.00     0.057 A 
ATOM     86  C   UNL A   1      50.313  27.461  28.996  1.00  0.00     0.134 A 
ATOM     87  C   UNL A   1      49.010  26.258  27.388  1.00  0.00     0.134 A 
ATOM     88  F   UNL A   1      50.435  28.344  29.998  1.00  0.00    -0.206 F 
ATOM     89  C   UNL A   1      51.477  26.864  28.505  1.00  0.00     0.040 A 
ATOM     90  C   UNL A   1      50.161  25.632  26.911  1.00  0.00     0.040 A 
ATOM     91  F   UNL A   1      47.840  25.936  26.817  1.00  0.00    -0.206 F 
ATOM     92  C   UNL A   1      51.402  25.942  27.463  1.00  0.00     0.006 A 
ENDBRANCH  68  85
ENDBRANCH  42  43
ENDBRANCH  35  37
ENDBRANCH  34  35
ENDBRANCH  33  34
ENDBRANCH  32  33
ENDBRANCH  31  32
ENDBRANCH  30  31
ENDBRANCH  29  30
ENDBRANCH   1  29
TORSDOF 23
ENDMDL
MODEL 3
REMARK VINA RESULT:      -9.5      2.733      4.707
REMARK SMILES Cc1cc(Cl)ccc1Oc1cc(C)c(N)c(C(=O)OCCOCCOCCOCCOC(=O)c2ccc(-c3c4nc(c(-c5c(F)cccc5F)c5ccc([nH]5)c(-c5c(F)cccc5F)c5nc(c(-c6c(F)cccc6F)c6ccc3[nH]6)C=C5)C=C4)cc2)c1
REMARK SMILES IDX 25 1 24 2 23 3 22 4 21 5 20 6 19 7 17 8 18 9 16 10 10 11
REMARK SMILES IDX 11 12 88 13 12 14 13 15 14 16 9 17 8 18 1 19 2 20 3 21 4 22
REMARK SMILES IDX 7 23 5 24 6 25 15 26 26 29 27 30 28 31 29 32 30 33 31 34
REMARK SMILES IDX 32 35 33 36 34 37 35 38 87 39 36 40 86 41 37 42 38 43 39 44
REMARK SMILES IDX 80 45 40 46 85 47 79 48 81 49 41 50 84 51 78 52 77 53 42 55
REMARK SMILES IDX 68 56 51 57 67 58 52 59 55 60 66 61 82 62 53 63 54 64 65 66
REMARK SMILES IDX 83 67 56 68 43 69 44 70 49 71 45 72 46 73 48 74 50 75 47 76
REMARK SMILES IDX 69 77 70 78 75 79 71 80 72 81 74 82 76 83 73 84 57 85 58 86
REMARK SMILES IDX 63 87 59 88 60 89 62 90 64 91 61 92
REMARK H PARENT 15 27 15 28 81 54 55 65
REMARK Flexibility Score: inf
ROOT
ATOM      1  O   UNL A   1      38.886  22.059  26.477  1.00  0.00    -0.377 OA
ENDROOT
BRANCH   1   2
ATOM      2  C   UNL A   1      37.924  22.006  25.433  1.00  0.00     0.188 C 
BRANCH   2   3
ATOM      3  C   UNL A   1      37.165  23.289  25.033  1.00  0.00     0.188 C 
BRANCH   3   4
ATOM      4  O   UNL A   1      35.960  23.053  24.319  1.00  0.00    -0.376 OA
BRANCH   4   5
ATOM      5  C   UNL A   1      35.482  24.083  23.475  1.00  0.00     0.202 C 
BRANCH   5   6
ATOM      6  C   UNL A   1      34.146  23.837  22.761  1.00  0.00     0.261 C 
BRANCH   6   7
ATOM      7  O   UNL A   1      33.096  24.768  23.062  1.00  0.00    -0.460 OA
BRANCH   7   8
ATOM      8  C   UNL A   1      31.931  24.260  23.531  1.00  0.00     0.340 C 
ATOM      9  O   UNL A   1      30.814  24.545  23.130  1.00  0.00    -0.246 OA
BRANCH   8  10
ATOM     10  C   UNL A   1      32.236  23.158  24.487  1.00  0.00     0.086 A 
ATOM     11  C   UNL A   1      32.124  20.801  25.048  1.00  0.00     0.128 A 
ATOM     12  C   UNL A   1      32.820  21.053  26.225  1.00  0.00     0.052 A 
ATOM     13  C   UNL A   1      31.888  21.842  24.152  1.00  0.00     0.065 A 
ATOM     14  C   UNL A   1      33.099  22.376  26.618  1.00  0.00    -0.024 A 
ATOM     15  C   UNL A   1      33.645  22.608  28.003  1.00  0.00     0.047 C 
ATOM     16  C   UNL A   1      32.796  23.451  25.752  1.00  0.00     0.049 A 
BRANCH  11  17
ATOM     17  O   UNL A   1      31.672  19.572  24.654  1.00  0.00    -0.457 OA
BRANCH  17  18
ATOM     18  C   UNL A   1      32.485  18.469  24.504  1.00  0.00     0.130 A 
ATOM     19  C   UNL A   1      32.644  18.278  21.920  1.00  0.00     0.048 C 
ATOM     20  C   UNL A   1      32.968  17.862  23.329  1.00  0.00    -0.007 A 
ATOM     21  C   UNL A   1      33.837  16.752  23.453  1.00  0.00     0.027 A 
ATOM     22  C   UNL A   1      34.278  16.309  24.698  1.00  0.00     0.041 A 
ATOM     23  C   UNL A   1      32.955  18.010  25.751  1.00  0.00     0.049 A 
ATOM     24  Cl  UNL A   1      35.376  14.989  24.799  1.00  0.00    -0.084 Cl
ATOM     25  C   UNL A   1      33.850  16.945  25.852  1.00  0.00     0.024 A 
ENDBRANCH  17  18
ENDBRANCH  11  17
BRANCH  16  26
ATOM     26  N   UNL A   1      32.864  24.765  26.223  1.00  0.00    -0.398 N 
ATOM     27  H   UNL A   1      32.047  25.223  26.527  1.00  0.00     0.156 HD
ATOM     28  H   UNL A   1      33.729  25.235  26.249  1.00  0.00     0.156 HD
ENDBRANCH  16  26
ENDBRANCH   8  10
ENDBRANCH   7   8
ENDBRANCH   6   7
ENDBRANCH   5   6
ENDBRANCH   4   5
ENDBRANCH   3   4
ENDBRANCH   2   3
ENDBRANCH   1   2
BRANCH   1  29
ATOM     29  C   UNL A   1      40.261  21.817  26.192  1.00  0.00     0.188 C 
BRANCH  29  30
ATOM     30  C   UNL A   1      40.834  20.381  26.151  1.00  0.00     0.188 C 
BRANCH  30  31
ATOM     31  O   UNL A   1      42.131  20.272  25.590  1.00  0.00    -0.376 OA
BRANCH  31  32
ATOM     32  C   UNL A   1      43.140  21.125  26.099  1.00  0.00     0.202 C 
BRANCH  32  33
ATOM     33  C   UNL A   1      43.897  21.973  25.066  1.00  0.00     0.261 C 
BRANCH  33  34
ATOM     34  O   UNL A   1      43.326  23.260  24.783  1.00  0.00    -0.460 OA
BRANCH  34  35
ATOM     35  C   UNL A   1      44.101  24.336  25.046  1.00  0.00     0.338 C 
ATOM     36  O   UNL A   1      45.163  24.623  24.534  1.00  0.00    -0.246 OA
BRANCH  35  37
ATOM     37  C   UNL A   1      43.340  25.231  25.942  1.00  0.00     0.060 A 
ATOM     38  C   UNL A   1      43.833  26.521  26.176  1.00  0.00     0.016 A 
ATOM     39  C   UNL A   1      42.160  24.798  26.552  1.00  0.00     0.016 A 
ATOM     40  C   UNL A   1      43.174  27.363  27.069  1.00  0.00     0.010 A 
ATOM     41  C   UNL A   1      41.510  25.638  27.460  1.00  0.00     0.010 A 
ATOM     42  C   UNL A   1      42.042  26.905  27.757  1.00  0.00    -0.014 A 
BRANCH  42  43
ATOM     43  C   UNL A   1      41.558  27.681  28.923  1.00  0.00     0.031 A 
ATOM     44  C   UNL A   1      42.313  27.573  30.219  1.00  0.00     0.074 A 
ATOM     45  C   UNL A   1      40.514  28.519  28.816  1.00  0.00     0.049 A 
ATOM     46  N   UNL A   1      42.125  28.208  31.347  1.00  0.00    -0.248 NA
ATOM     47  C   UNL A   1      43.431  26.618  30.247  1.00  0.00     0.031 C 
ATOM     48  C   UNL A   1      39.715  28.723  27.609  1.00  0.00     0.029 A 
ATOM     49  N   UNL A   1      39.951  29.359  29.742  1.00  0.00    -0.354 N 
ATOM     50  C   UNL A   1      43.095  27.727  32.217  1.00  0.00     0.074 A 
ATOM     51  C   UNL A   1      43.845  26.719  31.500  1.00  0.00     0.031 C 
ATOM     52  C   UNL A   1      38.759  29.630  27.872  1.00  0.00     0.029 A 
ATOM     53  C   UNL A   1      38.867  30.054  29.268  1.00  0.00     0.049 A 
ATOM     54  H   UNL A   1      40.291  29.454  30.662  1.00  0.00     0.167 HD
ATOM     55  C   UNL A   1      43.346  28.097  33.495  1.00  0.00     0.037 A 
ATOM     56  C   UNL A   1      38.052  30.925  29.892  1.00  0.00     0.037 A 
ATOM     57  C   UNL A   1      42.596  29.098  34.206  1.00  0.00     0.049 A 
ATOM     58  C   UNL A   1      38.326  31.299  31.324  1.00  0.00     0.074 A 
ATOM     59  C   UNL A   1      42.793  29.575  35.490  1.00  0.00     0.029 A 
ATOM     60  N   UNL A   1      41.491  29.766  33.697  1.00  0.00    -0.354 N 
ATOM     61  N   UNL A   1      39.279  30.879  32.122  1.00  0.00    -0.248 NA
ATOM     62  C   UNL A   1      37.420  32.280  31.938  1.00  0.00     0.031 C 
ATOM     63  C   UNL A   1      41.767  30.480  35.781  1.00  0.00     0.029 A 
ATOM     64  C   UNL A   1      40.974  30.624  34.655  1.00  0.00     0.049 A 
ATOM     65  H   UNL A   1      41.126  29.646  32.791  1.00  0.00     0.167 HD
ATOM     66  C   UNL A   1      39.107  31.565  33.319  1.00  0.00     0.074 A 
ATOM     67  C   UNL A   1      37.965  32.437  33.137  1.00  0.00     0.031 C 
ATOM     68  C   UNL A   1      39.832  31.485  34.463  1.00  0.00     0.037 A 
BRANCH  55  69
ATOM     69  C   UNL A   1      44.454  27.381  34.214  1.00  0.00     0.057 A 
ATOM     70  C   UNL A   1      44.219  26.267  35.033  1.00  0.00     0.134 A 
ATOM     71  C   UNL A   1      45.780  27.812  34.081  1.00  0.00     0.134 A 
ATOM     72  F   UNL A   1      42.971  25.809  35.219  1.00  0.00    -0.206 F 
ATOM     73  C   UNL A   1      45.256  25.633  35.720  1.00  0.00     0.040 A 
ATOM     74  C   UNL A   1      46.829  27.167  34.737  1.00  0.00     0.040 A 
ATOM     75  F   UNL A   1      46.078  28.868  33.310  1.00  0.00    -0.206 F 
ATOM     76  C   UNL A   1      46.567  26.080  35.568  1.00  0.00     0.006 A 
ENDBRANCH  55  69
BRANCH  56  77
ATOM     77  C   UNL A   1      36.897  31.503  29.157  1.00  0.00     0.057 A 
ATOM     78  C   UNL A   1      36.920  32.812  28.665  1.00  0.00     0.134 A 
ATOM     79  C   UNL A   1      35.741  30.747  28.924  1.00  0.00     0.134 A 
ATOM     80  F   UNL A   1      37.989  33.594  28.875  1.00  0.00    -0.206 F 
ATOM     81  C   UNL A   1      35.833  33.354  27.977  1.00  0.00     0.040 A 
ATOM     82  C   UNL A   1      34.658  31.266  28.213  1.00  0.00     0.040 A 
ATOM     83  F   UNL A   1      35.656  29.484  29.368  1.00  0.00    -0.206 F 
ATOM     84  C   UNL A   1      34.700  32.576  27.742  1.00  0.00     0.006 A 
ENDBRANCH  56  77
BRANCH  68  85
ATOM     85  C   UNL A   1      39.440  32.393  35.595  1.00  0.00     0.057 A 
ATOM     86  C   UNL A   1      38.559  31.988  36.606  1.00  0.00     0.134 A 
ATOM     87  C   UNL A   1      39.980  33.683  35.690  1.00  0.00     0.134 A 
ATOM     88  F   UNL A   1      37.999  30.769  36.574  1.00  0.00    -0.206 F 
ATOM     89  C   UNL A   1      38.204  32.844  37.651  1.00  0.00     0.040 A 
ATOM     90  C   UNL A   1      39.657  34.536  36.746  1.00  0.00     0.040 A 
ATOM     91  F   UNL A   1      40.840  34.132  34.764  1.00  0.00    -0.206 F 
ATOM     92  C   UNL A   1      38.759  34.121  37.726  1.00  0.00     0.006 A 
ENDBRANCH  68  85
ENDBRANCH  42  43
ENDBRANCH  35  37
ENDBRANCH  34  35
ENDBRANCH  33  34
ENDBRANCH  32  33
ENDBRANCH  31  32
ENDBRANCH  30  31
ENDBRANCH  29  30
ENDBRANCH   1  29
TORSDOF 23
ENDMDL
