MODEL 1
REMARK VINA RESULT:     -10.6      0.000      0.000
REMARK SMILES Cc1cc(C)cc(C(=O)N2CC[C@H](C(=O)OCCOCCOCCOCCOC(=O)c3ccc(-c4c5nc(c(-c6c(F)cccc6F)c6ccc([nH]6)c(-c6c(F)cccc6F)c6nc(c(-c7c(F)cccc7F)c7ccc4[nH]7)C=C6)C=C5)cc3)[C@@H]2C)c1
REMARK SMILES IDX 22 1 21 2 20 3 19 4 18 5 17 6 16 7 14 8 15 9 13 10 10 11
REMARK SMILES IDX 11 12 85 13 12 14 86 15 8 16 9 17 7 18 1 19 2 20 3 21 87 22
REMARK SMILES IDX 4 23 5 24 6 25 23 26 24 27 25 28 26 29 27 30 28 31 29 32
REMARK SMILES IDX 30 33 31 34 32 35 84 36 33 37 83 38 34 39 35 40 36 41 77 42
REMARK SMILES IDX 37 43 82 44 76 45 78 46 38 47 81 48 75 49 74 50 39 52 65 53
REMARK SMILES IDX 48 54 64 55 49 56 52 57 63 58 79 59 50 60 51 61 62 63 80 64
REMARK SMILES IDX 53 65 40 66 41 67 46 68 42 69 43 70 45 71 47 72 44 73 66 74
REMARK SMILES IDX 67 75 72 76 68 77 69 78 71 79 73 80 70 81 54 82 55 83 60 84
REMARK SMILES IDX 56 85 57 86 59 87 61 88 58 89
REMARK H PARENT 78 51 52 62
REMARK Flexibility Score: inf
ROOT
ATOM      1  O   UNL A   1      38.369  20.786  25.294  1.00  0.00    -0.377 OA
ENDROOT
BRANCH   1   2
ATOM      2  C   UNL A   1      37.169  21.260  24.742  1.00  0.00     0.188 C 
BRANCH   2   3
ATOM      3  C   UNL A   1      35.906  20.811  25.472  1.00  0.00     0.188 C 
BRANCH   3   4
ATOM      4  O   UNL A   1      35.232  21.725  26.332  1.00  0.00    -0.376 OA
BRANCH   4   5
ATOM      5  C   UNL A   1      33.851  21.543  26.586  1.00  0.00     0.202 C 
BRANCH   5   6
ATOM      6  C   UNL A   1      32.935  21.374  25.358  1.00  0.00     0.261 C 
BRANCH   6   7
ATOM      7  O   UNL A   1      33.392  21.853  24.067  1.00  0.00    -0.463 OA
BRANCH   7   8
ATOM      8  C   UNL A   1      32.432  22.093  23.124  1.00  0.00     0.311 C 
ATOM      9  O   UNL A   1      31.914  21.205  22.458  1.00  0.00    -0.252 OA
BRANCH   8  10
ATOM     10  C   UNL A   1      32.209  23.597  22.869  1.00  0.00     0.123 C 
ATOM     11  N   UNL A   1      31.723  25.169  24.654  1.00  0.00    -0.335 N 
ATOM     12  C   UNL A   1      30.646  24.209  24.575  1.00  0.00     0.121 C 
ATOM     13  C   UNL A   1      32.778  24.813  23.688  1.00  0.00     0.096 C 
ATOM     14  C   UNL A   1      30.693  23.817  23.102  1.00  0.00     0.039 C 
ATOM     15  C   UNL A   1      34.122  24.803  24.385  1.00  0.00     0.032 C 
BRANCH  11  16
ATOM     16  C   UNL A   1      31.615  26.232  25.548  1.00  0.00     0.254 C 
ATOM     17  O   UNL A   1      31.694  26.051  26.763  1.00  0.00    -0.269 OA
BRANCH  16  18
ATOM     18  C   UNL A   1      31.310  27.617  25.073  1.00  0.00     0.040 A 
ATOM     19  C   UNL A   1      29.361  29.366  22.309  1.00  0.00     0.044 C 
ATOM     20  C   UNL A   1      30.175  29.148  23.548  1.00  0.00    -0.050 A 
ATOM     21  C   UNL A   1      30.551  30.226  24.353  1.00  0.00     0.006 A 
ATOM     22  C   UNL A   1      30.504  27.849  23.955  1.00  0.00     0.017 A 
ATOM     23  C   UNL A   1      31.286  30.018  25.528  1.00  0.00    -0.050 A 
ATOM     24  C   UNL A   1      31.549  31.179  26.443  1.00  0.00     0.044 C 
ATOM     25  C   UNL A   1      31.685  28.715  25.867  1.00  0.00     0.017 A 
ENDBRANCH  16  18
ENDBRANCH  11  16
ENDBRANCH   8  10
ENDBRANCH   7   8
ENDBRANCH   6   7
ENDBRANCH   5   6
ENDBRANCH   4   5
ENDBRANCH   3   4
ENDBRANCH   2   3
ENDBRANCH   1   2
BRANCH   1  26
ATOM     26  C   UNL A   1      39.038  21.742  26.086  1.00  0.00     0.188 C 
BRANCH  26  27
ATOM     27  C   UNL A   1      40.413  21.290  26.596  1.00  0.00     0.188 C 
BRANCH  27  28
ATOM     28  O   UNL A   1      41.295  20.588  25.723  1.00  0.00    -0.376 OA
BRANCH  28  29
ATOM     29  C   UNL A   1      42.695  20.469  25.936  1.00  0.00     0.202 C 
BRANCH  29  30
ATOM     30  C   UNL A   1      43.680  21.537  25.463  1.00  0.00     0.261 C 
BRANCH  30  31
ATOM     31  O   UNL A   1      43.047  22.740  25.018  1.00  0.00    -0.460 OA
BRANCH  31  32
ATOM     32  C   UNL A   1      43.822  23.852  25.096  1.00  0.00     0.338 C 
ATOM     33  O   UNL A   1      44.792  24.126  24.426  1.00  0.00    -0.246 OA
BRANCH  32  34
ATOM     34  C   UNL A   1      43.165  24.815  26.001  1.00  0.00     0.060 A 
ATOM     35  C   UNL A   1      43.561  26.157  25.928  1.00  0.00     0.016 A 
ATOM     36  C   UNL A   1      42.180  24.404  26.900  1.00  0.00     0.016 A 
ATOM     37  C   UNL A   1      42.971  27.103  26.758  1.00  0.00     0.010 A 
ATOM     38  C   UNL A   1      41.626  25.343  27.768  1.00  0.00     0.010 A 
ATOM     39  C   UNL A   1      42.039  26.687  27.713  1.00  0.00    -0.014 A 
BRANCH  39  40
ATOM     40  C   UNL A   1      41.667  27.606  28.805  1.00  0.00     0.031 A 
ATOM     41  C   UNL A   1      42.468  27.544  30.071  1.00  0.00     0.074 A 
ATOM     42  C   UNL A   1      40.646  28.468  28.670  1.00  0.00     0.049 A 
ATOM     43  N   UNL A   1      42.283  28.168  31.203  1.00  0.00    -0.248 NA
ATOM     44  C   UNL A   1      43.638  26.647  30.059  1.00  0.00     0.031 C 
ATOM     45  C   UNL A   1      39.845  28.649  27.460  1.00  0.00     0.029 A 
ATOM     46  N   UNL A   1      40.101  29.341  29.574  1.00  0.00    -0.354 N 
ATOM     47  C   UNL A   1      43.302  27.733  32.040  1.00  0.00     0.074 A 
ATOM     48  C   UNL A   1      44.089  26.775  31.296  1.00  0.00     0.031 C 
ATOM     49  C   UNL A   1      38.892  29.564  27.706  1.00  0.00     0.029 A 
ATOM     50  C   UNL A   1      38.994  29.998  29.098  1.00  0.00     0.049 A 
ATOM     51  H   UNL A   1      40.468  29.483  30.476  1.00  0.00     0.167 HD
ATOM     52  C   UNL A   1      43.555  28.101  33.316  1.00  0.00     0.037 A 
ATOM     53  C   UNL A   1      38.146  30.828  29.736  1.00  0.00     0.037 A 
ATOM     54  C   UNL A   1      42.755  29.048  34.044  1.00  0.00     0.049 A 
ATOM     55  C   UNL A   1      38.388  31.143  31.190  1.00  0.00     0.074 A 
ATOM     56  C   UNL A   1      42.933  29.515  35.333  1.00  0.00     0.029 A 
ATOM     57  N   UNL A   1      41.614  29.660  33.547  1.00  0.00    -0.354 N 
ATOM     58  N   UNL A   1      39.370  30.755  31.969  1.00  0.00    -0.248 NA
ATOM     59  C   UNL A   1      37.399  32.002  31.856  1.00  0.00     0.031 C 
ATOM     60  C   UNL A   1      41.861  30.359  35.639  1.00  0.00     0.029 A 
ATOM     61  C   UNL A   1      41.050  30.467  34.520  1.00  0.00     0.049 A 
ATOM     62  H   UNL A   1      41.258  29.539  32.638  1.00  0.00     0.167 HD
ATOM     63  C   UNL A   1      39.130  31.339  33.207  1.00  0.00     0.074 A 
ATOM     64  C   UNL A   1      37.919  32.123  33.069  1.00  0.00     0.031 C 
ATOM     65  C   UNL A   1      39.842  31.237  34.357  1.00  0.00     0.037 A 
BRANCH  52  66
ATOM     66  C   UNL A   1      44.711  27.446  34.011  1.00  0.00     0.057 A 
ATOM     67  C   UNL A   1      44.569  26.256  34.736  1.00  0.00     0.134 A 
ATOM     68  C   UNL A   1      45.991  28.009  33.939  1.00  0.00     0.134 A 
ATOM     69  F   UNL A   1      43.364  25.676  34.862  1.00  0.00    -0.206 F 
ATOM     70  C   UNL A   1      45.653  25.661  35.382  1.00  0.00     0.040 A 
ATOM     71  C   UNL A   1      47.089  27.409  34.557  1.00  0.00     0.040 A 
ATOM     72  F   UNL A   1      46.198  29.150  33.264  1.00  0.00    -0.206 F 
ATOM     73  C   UNL A   1      46.920  26.234  35.287  1.00  0.00     0.006 A 
ENDBRANCH  52  66
BRANCH  53  74
ATOM     74  C   UNL A   1      36.974  31.394  29.021  1.00  0.00     0.057 A 
ATOM     75  C   UNL A   1      36.974  32.719  28.569  1.00  0.00     0.134 A 
ATOM     76  C   UNL A   1      35.817  30.637  28.794  1.00  0.00     0.134 A 
ATOM     77  F   UNL A   1      38.042  33.503  28.777  1.00  0.00    -0.206 F 
ATOM     78  C   UNL A   1      35.861  33.276  27.934  1.00  0.00     0.040 A 
ATOM     79  C   UNL A   1      34.708  31.173  28.136  1.00  0.00     0.040 A 
ATOM     80  F   UNL A   1      35.751  29.361  29.203  1.00  0.00    -0.206 F 
ATOM     81  C   UNL A   1      34.726  32.499  27.712  1.00  0.00     0.006 A 
ENDBRANCH  53  74
BRANCH  65  82
ATOM     82  C   UNL A   1      39.344  32.001  35.549  1.00  0.00     0.057 A 
ATOM     83  C   UNL A   1      38.478  31.422  36.484  1.00  0.00     0.134 A 
ATOM     84  C   UNL A   1      39.787  33.306  35.797  1.00  0.00     0.134 A 
ATOM     85  F   UNL A   1      38.007  30.179  36.299  1.00  0.00    -0.206 F 
ATOM     86  C   UNL A   1      38.056  32.121  37.617  1.00  0.00     0.040 A 
ATOM     87  C   UNL A   1      39.396  34.004  36.941  1.00  0.00     0.040 A 
ATOM     88  F   UNL A   1      40.626  33.915  34.946  1.00  0.00    -0.206 F 
ATOM     89  C   UNL A   1      38.524  33.413  37.852  1.00  0.00     0.006 A 
ENDBRANCH  65  82
ENDBRANCH  39  40
ENDBRANCH  32  34
ENDBRANCH  31  32
ENDBRANCH  30  31
ENDBRANCH  29  30
ENDBRANCH  28  29
ENDBRANCH  27  28
ENDBRANCH  26  27
ENDBRANCH   1  26
TORSDOF 22
ENDMDL
MODEL 2
REMARK VINA RESULT:     -10.3      1.270      3.402
REMARK SMILES Cc1cc(C)cc(C(=O)N2CC[C@H](C(=O)OCCOCCOCCOCCOC(=O)c3ccc(-c4c5nc(c(-c6c(F)cccc6F)c6ccc([nH]6)c(-c6c(F)cccc6F)c6nc(c(-c7c(F)cccc7F)c7ccc4[nH]7)C=C6)C=C5)cc3)[C@@H]2C)c1
REMARK SMILES IDX 22 1 21 2 20 3 19 4 18 5 17 6 16 7 14 8 15 9 13 10 10 11
REMARK SMILES IDX 11 12 85 13 12 14 86 15 8 16 9 17 7 18 1 19 2 20 3 21 87 22
REMARK SMILES IDX 4 23 5 24 6 25 23 26 24 27 25 28 26 29 27 30 28 31 29 32
REMARK SMILES IDX 30 33 31 34 32 35 84 36 33 37 83 38 34 39 35 40 36 41 77 42
REMARK SMILES IDX 37 43 82 44 76 45 78 46 38 47 81 48 75 49 74 50 39 52 65 53
REMARK SMILES IDX 48 54 64 55 49 56 52 57 63 58 79 59 50 60 51 61 62 63 80 64
REMARK SMILES IDX 53 65 40 66 41 67 46 68 42 69 43 70 45 71 47 72 44 73 66 74
REMARK SMILES IDX 67 75 72 76 68 77 69 78 71 79 73 80 70 81 54 82 55 83 60 84
REMARK SMILES IDX 56 85 57 86 59 87 61 88 58 89
REMARK H PARENT 78 51 52 62
REMARK Flexibility Score: inf
ROOT
ATOM      1  O   UNL A   1      37.055  22.807  25.606  1.00  0.00    -0.377 OA
ENDROOT
BRANCH   1   2
ATOM      2  C   UNL A   1      36.611  23.688  24.608  1.00  0.00     0.188 C 
BRANCH   2   3
ATOM      3  C   UNL A   1      35.096  23.868  24.538  1.00  0.00     0.188 C 
BRANCH   3   4
ATOM      4  O   UNL A   1      34.558  25.131  24.160  1.00  0.00    -0.376 OA
BRANCH   4   5
ATOM      5  C   UNL A   1      33.758  25.219  22.995  1.00  0.00     0.202 C 
BRANCH   5   6
ATOM      6  C   UNL A   1      33.485  26.634  22.447  1.00  0.00     0.261 C 
BRANCH   6   7
ATOM      7  O   UNL A   1      32.112  27.093  22.335  1.00  0.00    -0.463 OA
BRANCH   7   8
ATOM      8  C   UNL A   1      31.792  28.245  22.997  1.00  0.00     0.311 C 
ATOM      9  O   UNL A   1      32.303  29.327  22.738  1.00  0.00    -0.252 OA
BRANCH   8  10
ATOM     10  C   UNL A   1      30.868  28.000  24.207  1.00  0.00     0.123 C 
ATOM     11  N   UNL A   1      30.524  25.796  25.166  1.00  0.00    -0.335 N 
ATOM     12  C   UNL A   1      30.029  25.794  23.809  1.00  0.00     0.121 C 
ATOM     13  C   UNL A   1      31.141  27.101  25.468  1.00  0.00     0.096 C 
ATOM     14  C   UNL A   1      29.641  27.257  23.622  1.00  0.00     0.039 C 
ATOM     15  C   UNL A   1      32.515  26.886  26.067  1.00  0.00     0.032 C 
BRANCH  11  16
ATOM     16  C   UNL A   1      30.344  24.660  25.951  1.00  0.00     0.254 C 
ATOM     17  O   UNL A   1      29.533  24.648  26.877  1.00  0.00    -0.269 OA
BRANCH  16  18
ATOM     18  C   UNL A   1      31.193  23.443  25.760  1.00  0.00     0.040 A 
ATOM     19  C   UNL A   1      32.155  20.988  23.013  1.00  0.00     0.044 C 
ATOM     20  C   UNL A   1      32.124  21.695  24.335  1.00  0.00    -0.050 A 
ATOM     21  C   UNL A   1      32.984  21.313  25.367  1.00  0.00     0.006 A 
ATOM     22  C   UNL A   1      31.285  22.800  24.523  1.00  0.00     0.017 A 
ATOM     23  C   UNL A   1      32.977  21.994  26.592  1.00  0.00    -0.050 A 
ATOM     24  C   UNL A   1      34.009  21.654  27.627  1.00  0.00     0.044 C 
ATOM     25  C   UNL A   1      32.060  23.040  26.790  1.00  0.00     0.017 A 
ENDBRANCH  16  18
ENDBRANCH  11  16
ENDBRANCH   8  10
ENDBRANCH   7   8
ENDBRANCH   6   7
ENDBRANCH   5   6
ENDBRANCH   4   5
ENDBRANCH   3   4
ENDBRANCH   2   3
ENDBRANCH   1   2
BRANCH   1  26
ATOM     26  C   UNL A   1      38.450  22.841  25.803  1.00  0.00     0.188 C 
BRANCH  26  27
ATOM     27  C   UNL A   1      39.120  21.461  25.823  1.00  0.00     0.188 C 
BRANCH  27  28
ATOM     28  O   UNL A   1      40.198  21.211  26.721  1.00  0.00    -0.376 OA
BRANCH  28  29
ATOM     29  C   UNL A   1      41.394  20.532  26.359  1.00  0.00     0.202 C 
BRANCH  29  30
ATOM     30  C   UNL A   1      42.602  21.270  25.785  1.00  0.00     0.261 C 
BRANCH  30  31
ATOM     31  O   UNL A   1      42.286  22.566  25.267  1.00  0.00    -0.460 OA
BRANCH  31  32
ATOM     32  C   UNL A   1      43.231  23.514  25.494  1.00  0.00     0.338 C 
ATOM     33  O   UNL A   1      44.312  23.622  24.962  1.00  0.00    -0.246 OA
BRANCH  32  34
ATOM     34  C   UNL A   1      42.645  24.558  26.356  1.00  0.00     0.060 A 
ATOM     35  C   UNL A   1      43.224  25.834  26.325  1.00  0.00     0.016 A 
ATOM     36  C   UNL A   1      41.550  24.286  27.176  1.00  0.00     0.016 A 
ATOM     37  C   UNL A   1      42.708  26.852  27.117  1.00  0.00     0.010 A 
ATOM     38  C   UNL A   1      41.066  25.292  28.010  1.00  0.00     0.010 A 
ATOM     39  C   UNL A   1      41.660  26.567  27.998  1.00  0.00    -0.014 A 
BRANCH  39  40
ATOM     40  C   UNL A   1      41.336  27.530  29.067  1.00  0.00     0.031 A 
ATOM     41  C   UNL A   1      42.132  27.454  30.337  1.00  0.00     0.074 A 
ATOM     42  C   UNL A   1      40.363  28.441  28.911  1.00  0.00     0.049 A 
ATOM     43  N   UNL A   1      41.979  28.113  31.454  1.00  0.00    -0.248 NA
ATOM     44  C   UNL A   1      43.252  26.496  30.348  1.00  0.00     0.031 C 
ATOM     45  C   UNL A   1      39.574  28.638  27.696  1.00  0.00     0.029 A 
ATOM     46  N   UNL A   1      39.864  29.362  29.793  1.00  0.00    -0.354 N 
ATOM     47  C   UNL A   1      42.973  27.643  32.302  1.00  0.00     0.074 A 
ATOM     48  C   UNL A   1      43.709  26.628  31.583  1.00  0.00     0.031 C 
ATOM     49  C   UNL A   1      38.671  29.608  27.919  1.00  0.00     0.029 A 
ATOM     50  C   UNL A   1      38.795  30.067  29.301  1.00  0.00     0.049 A 
ATOM     51  H   UNL A   1      40.237  29.506  30.693  1.00  0.00     0.167 HD
ATOM     52  C   UNL A   1      43.243  28.027  33.570  1.00  0.00     0.037 A 
ATOM     53  C   UNL A   1      37.991  30.955  29.917  1.00  0.00     0.037 A 
ATOM     54  C   UNL A   1      42.495  29.032  34.275  1.00  0.00     0.049 A 
ATOM     55  C   UNL A   1      38.249  31.290  31.365  1.00  0.00     0.074 A 
ATOM     56  C   UNL A   1      42.696  29.517  35.553  1.00  0.00     0.029 A 
ATOM     57  N   UNL A   1      41.388  29.692  33.762  1.00  0.00    -0.354 N 
ATOM     58  N   UNL A   1      39.207  30.868  32.155  1.00  0.00    -0.248 NA
ATOM     59  C   UNL A   1      37.306  32.216  32.008  1.00  0.00     0.031 C 
ATOM     60  C   UNL A   1      41.670  30.425  35.838  1.00  0.00     0.029 A 
ATOM     61  C   UNL A   1      40.867  30.549  34.715  1.00  0.00     0.049 A 
ATOM     62  H   UNL A   1      41.027  29.569  32.854  1.00  0.00     0.167 HD
ATOM     63  C   UNL A   1      38.998  31.492  33.378  1.00  0.00     0.074 A 
ATOM     64  C   UNL A   1      37.830  32.336  33.220  1.00  0.00     0.031 C 
ATOM     65  C   UNL A   1      39.702  31.379  34.532  1.00  0.00     0.037 A 
BRANCH  52  66
ATOM     66  C   UNL A   1      44.363  27.327  34.282  1.00  0.00     0.057 A 
ATOM     67  C   UNL A   1      45.673  27.824  34.281  1.00  0.00     0.134 A 
ATOM     68  C   UNL A   1      44.121  26.146  34.994  1.00  0.00     0.134 A 
ATOM     69  F   UNL A   1      45.976  28.941  33.600  1.00  0.00    -0.206 F 
ATOM     70  C   UNL A   1      46.706  27.159  34.943  1.00  0.00     0.040 A 
ATOM     71  C   UNL A   1      45.140  25.487  35.684  1.00  0.00     0.040 A 
ATOM     72  F   UNL A   1      42.890  25.614  35.034  1.00  0.00    -0.206 F 
ATOM     73  C   UNL A   1      46.439  25.991  35.654  1.00  0.00     0.006 A 
ENDBRANCH  52  66
BRANCH  53  74
ATOM     74  C   UNL A   1      36.852  31.567  29.187  1.00  0.00     0.057 A 
ATOM     75  C   UNL A   1      35.682  30.842  28.934  1.00  0.00     0.134 A 
ATOM     76  C   UNL A   1      36.912  32.880  28.703  1.00  0.00     0.134 A 
ATOM     77  F   UNL A   1      35.572  29.572  29.351  1.00  0.00    -0.206 F 
ATOM     78  C   UNL A   1      34.621  31.392  28.211  1.00  0.00     0.040 A 
ATOM     79  C   UNL A   1      35.848  33.452  28.003  1.00  0.00     0.040 A 
ATOM     80  F   UNL A   1      38.005  33.630  28.910  1.00  0.00    -0.206 F 
ATOM     81  C   UNL A   1      34.702  32.704  27.748  1.00  0.00     0.006 A 
ENDBRANCH  53  74
BRANCH  65  82
ATOM     82  C   UNL A   1      39.244  32.195  35.705  1.00  0.00     0.057 A 
ATOM     83  C   UNL A   1      39.696  33.504  35.912  1.00  0.00     0.134 A 
ATOM     84  C   UNL A   1      38.292  31.690  36.599  1.00  0.00     0.134 A 
ATOM     85  F   UNL A   1      40.617  34.044  35.098  1.00  0.00    -0.206 F 
ATOM     86  C   UNL A   1      39.229  34.275  36.978  1.00  0.00     0.040 A 
ATOM     87  C   UNL A   1      37.796  32.462  37.650  1.00  0.00     0.040 A 
ATOM     88  F   UNL A   1      37.809  30.447  36.451  1.00  0.00    -0.206 F 
ATOM     89  C   UNL A   1      38.269  33.757  37.844  1.00  0.00     0.006 A 
ENDBRANCH  65  82
ENDBRANCH  39  40
ENDBRANCH  32  34
ENDBRANCH  31  32
ENDBRANCH  30  31
ENDBRANCH  29  30
ENDBRANCH  28  29
ENDBRANCH  27  28
ENDBRANCH  26  27
ENDBRANCH   1  26
TORSDOF 22
ENDMDL
MODEL 3
REMARK VINA RESULT:     -10.0      4.502      9.978
REMARK SMILES Cc1cc(C)cc(C(=O)N2CC[C@H](C(=O)OCCOCCOCCOCCOC(=O)c3ccc(-c4c5nc(c(-c6c(F)cccc6F)c6ccc([nH]6)c(-c6c(F)cccc6F)c6nc(c(-c7c(F)cccc7F)c7ccc4[nH]7)C=C6)C=C5)cc3)[C@@H]2C)c1
REMARK SMILES IDX 22 1 21 2 20 3 19 4 18 5 17 6 16 7 14 8 15 9 13 10 10 11
REMARK SMILES IDX 11 12 85 13 12 14 86 15 8 16 9 17 7 18 1 19 2 20 3 21 87 22
REMARK SMILES IDX 4 23 5 24 6 25 23 26 24 27 25 28 26 29 27 30 28 31 29 32
REMARK SMILES IDX 30 33 31 34 32 35 84 36 33 37 83 38 34 39 35 40 36 41 77 42
REMARK SMILES IDX 37 43 82 44 76 45 78 46 38 47 81 48 75 49 74 50 39 52 65 53
REMARK SMILES IDX 48 54 64 55 49 56 52 57 63 58 79 59 50 60 51 61 62 63 80 64
REMARK SMILES IDX 53 65 40 66 41 67 46 68 42 69 43 70 45 71 47 72 44 73 66 74
REMARK SMILES IDX 67 75 72 76 68 77 69 78 71 79 73 80 70 81 54 82 55 83 60 84
REMARK SMILES IDX 56 85 57 86 59 87 61 88 58 89
REMARK H PARENT 78 51 52 62
REMARK Flexibility Score: inf
ROOT
ATOM      1  O   UNL A   1      34.333  32.467  27.869  1.00  0.00    -0.377 OA
ENDROOT
BRANCH   1   2
ATOM      2  C   UNL A   1      34.266  31.087  27.623  1.00  0.00     0.188 C 
BRANCH   2   3
ATOM      3  C   UNL A   1      32.916  30.592  27.109  1.00  0.00     0.188 C 
BRANCH   3   4
ATOM      4  O   UNL A   1      32.525  29.244  27.354  1.00  0.00    -0.376 OA
BRANCH   4   5
ATOM      5  C   UNL A   1      33.131  28.205  26.609  1.00  0.00     0.202 C 
BRANCH   5   6
ATOM      6  C   UNL A   1      32.225  27.027  26.196  1.00  0.00     0.261 C 
BRANCH   6   7
ATOM      7  O   UNL A   1      31.102  27.279  25.312  1.00  0.00    -0.463 OA
BRANCH   7   8
ATOM      8  C   UNL A   1      31.352  28.034  24.199  1.00  0.00     0.311 C 
ATOM      9  O   UNL A   1      31.318  29.258  24.202  1.00  0.00    -0.252 OA
BRANCH   8  10
ATOM     10  C   UNL A   1      31.500  27.183  22.922  1.00  0.00     0.123 C 
ATOM     11  N   UNL A   1      32.871  25.180  22.835  1.00  0.00    -0.335 N 
ATOM     12  C   UNL A   1      33.723  26.315  23.104  1.00  0.00     0.121 C 
ATOM     13  C   UNL A   1      31.463  25.616  22.793  1.00  0.00     0.096 C 
ATOM     14  C   UNL A   1      32.947  27.446  22.437  1.00  0.00     0.039 C 
ATOM     15  C   UNL A   1      30.627  24.717  23.680  1.00  0.00     0.032 C 
BRANCH  11  16
ATOM     16  C   UNL A   1      33.453  23.930  22.644  1.00  0.00     0.254 C 
ATOM     17  O   UNL A   1      33.392  23.359  21.555  1.00  0.00    -0.269 OA
BRANCH  16  18
ATOM     18  C   UNL A   1      34.094  23.192  23.777  1.00  0.00     0.040 A 
ATOM     19  C   UNL A   1      37.357  21.405  24.588  1.00  0.00     0.044 C 
ATOM     20  C   UNL A   1      36.000  22.020  24.751  1.00  0.00    -0.050 A 
ATOM     21  C   UNL A   1      35.368  22.032  25.997  1.00  0.00     0.006 A 
ATOM     22  C   UNL A   1      35.382  22.660  23.670  1.00  0.00     0.017 A 
ATOM     23  C   UNL A   1      34.113  22.635  26.156  1.00  0.00    -0.050 A 
ATOM     24  C   UNL A   1      33.527  22.757  27.533  1.00  0.00     0.044 C 
ATOM     25  C   UNL A   1      33.470  23.188  25.036  1.00  0.00     0.017 A 
ENDBRANCH  16  18
ENDBRANCH  11  16
ENDBRANCH   8  10
ENDBRANCH   7   8
ENDBRANCH   6   7
ENDBRANCH   5   6
ENDBRANCH   4   5
ENDBRANCH   3   4
ENDBRANCH   2   3
ENDBRANCH   1   2
BRANCH   1  26
ATOM     26  C   UNL A   1      34.583  32.783  29.220  1.00  0.00     0.188 C 
BRANCH  26  27
ATOM     27  C   UNL A   1      34.057  34.157  29.655  1.00  0.00     0.188 C 
BRANCH  27  28
ATOM     28  O   UNL A   1      33.570  34.341  30.982  1.00  0.00    -0.376 OA
BRANCH  28  29
ATOM     29  C   UNL A   1      34.393  34.674  32.092  1.00  0.00     0.202 C 
BRANCH  29  30
ATOM     30  C   UNL A   1      35.069  33.605  32.949  1.00  0.00     0.261 C 
BRANCH  30  31
ATOM     31  O   UNL A   1      36.471  33.475  32.699  1.00  0.00    -0.460 OA
BRANCH  31  32
ATOM     32  C   UNL A   1      37.066  32.430  33.329  1.00  0.00     0.338 C 
ATOM     33  O   UNL A   1      36.776  31.950  34.400  1.00  0.00    -0.246 OA
BRANCH  32  34
ATOM     34  C   UNL A   1      38.014  31.800  32.390  1.00  0.00     0.060 A 
ATOM     35  C   UNL A   1      39.087  31.077  32.929  1.00  0.00     0.016 A 
ATOM     36  C   UNL A   1      37.851  31.919  31.009  1.00  0.00     0.016 A 
ATOM     37  C   UNL A   1      40.007  30.464  32.087  1.00  0.00     0.010 A 
ATOM     38  C   UNL A   1      38.802  31.350  30.166  1.00  0.00     0.010 A 
ATOM     39  C   UNL A   1      39.893  30.643  30.705  1.00  0.00    -0.014 A 
BRANCH  39  40
ATOM     40  C   UNL A   1      41.031  30.291  29.837  1.00  0.00     0.031 A 
ATOM     41  C   UNL A   1      41.076  28.898  29.280  1.00  0.00     0.074 A 
ATOM     42  C   UNL A   1      41.994  31.183  29.555  1.00  0.00     0.049 A 
ATOM     43  N   UNL A   1      42.011  28.313  28.580  1.00  0.00    -0.248 NA
ATOM     44  C   UNL A   1      39.906  28.046  29.558  1.00  0.00     0.031 C 
ATOM     45  C   UNL A   1      42.010  32.577  29.995  1.00  0.00     0.029 A 
ATOM     46  N   UNL A   1      43.153  31.037  28.841  1.00  0.00    -0.354 N 
ATOM     47  C   UNL A   1      41.549  27.026  28.344  1.00  0.00     0.074 A 
ATOM     48  C   UNL A   1      40.263  26.904  28.993  1.00  0.00     0.031 C 
ATOM     49  C   UNL A   1      43.143  33.155  29.558  1.00  0.00     0.029 A 
ATOM     50  C   UNL A   1      43.942  32.160  28.846  1.00  0.00     0.049 A 
ATOM     51  H   UNL A   1      43.397  30.208  28.370  1.00  0.00     0.167 HD
ATOM     52  C   UNL A   1      42.149  26.034  27.647  1.00  0.00     0.037 A 
ATOM     53  C   UNL A   1      45.184  32.342  28.358  1.00  0.00     0.037 A 
ATOM     54  C   UNL A   1      43.433  26.169  27.016  1.00  0.00     0.049 A 
ATOM     55  C   UNL A   1      45.876  31.189  27.675  1.00  0.00     0.074 A 
ATOM     56  C   UNL A   1      44.125  25.238  26.263  1.00  0.00     0.029 A 
ATOM     57  N   UNL A   1      44.225  27.305  27.080  1.00  0.00    -0.354 N 
ATOM     58  N   UNL A   1      45.425  29.982  27.426  1.00  0.00    -0.248 NA
ATOM     59  C   UNL A   1      47.253  31.419  27.216  1.00  0.00     0.031 C 
ATOM     60  C   UNL A   1      45.365  25.789  25.927  1.00  0.00     0.029 A 
ATOM     61  C   UNL A   1      45.421  27.085  26.419  1.00  0.00     0.049 A 
ATOM     62  H   UNL A   1      43.975  28.144  27.530  1.00  0.00     0.167 HD
ATOM     63  C   UNL A   1      46.450  29.319  26.763  1.00  0.00     0.074 A 
ATOM     64  C   UNL A   1      47.540  30.264  26.633  1.00  0.00     0.031 C 
ATOM     65  C   UNL A   1      46.491  28.043  26.304  1.00  0.00     0.037 A 
BRANCH  52  66
ATOM     66  C   UNL A   1      41.442  24.713  27.573  1.00  0.00     0.057 A 
ATOM     67  C   UNL A   1      41.784  23.636  28.401  1.00  0.00     0.134 A 
ATOM     68  C   UNL A   1      40.390  24.523  26.668  1.00  0.00     0.134 A 
ATOM     69  F   UNL A   1      42.797  23.746  29.275  1.00  0.00    -0.206 F 
ATOM     70  C   UNL A   1      41.121  22.411  28.317  1.00  0.00     0.040 A 
ATOM     71  C   UNL A   1      39.701  23.312  26.594  1.00  0.00     0.040 A 
ATOM     72  F   UNL A   1      40.013  25.512  25.844  1.00  0.00    -0.206 F 
ATOM     73  C   UNL A   1      40.070  22.249  27.416  1.00  0.00     0.006 A 
ENDBRANCH  52  66
BRANCH  53  74
ATOM     74  C   UNL A   1      45.869  33.649  28.520  1.00  0.00     0.057 A 
ATOM     75  C   UNL A   1      46.610  33.940  29.671  1.00  0.00     0.134 A 
ATOM     76  C   UNL A   1      45.780  34.649  27.543  1.00  0.00     0.134 A 
ATOM     77  F   UNL A   1      46.713  33.033  30.653  1.00  0.00    -0.206 F 
ATOM     78  C   UNL A   1      47.222  35.182  29.854  1.00  0.00     0.040 A 
ATOM     79  C   UNL A   1      46.411  35.885  27.700  1.00  0.00     0.040 A 
ATOM     80  F   UNL A   1      45.085  34.436  26.416  1.00  0.00    -0.206 F 
ATOM     81  C   UNL A   1      47.127  36.156  28.863  1.00  0.00     0.006 A 
ENDBRANCH  53  74
BRANCH  65  82
ATOM     82  C   UNL A   1      47.744  27.600  25.606  1.00  0.00     0.057 A 
ATOM     83  C   UNL A   1      48.824  27.052  26.309  1.00  0.00     0.134 A 
ATOM     84  C   UNL A   1      47.844  27.662  24.210  1.00  0.00     0.134 A 
ATOM     85  F   UNL A   1      48.796  26.976  27.649  1.00  0.00    -0.206 F 
ATOM     86  C   UNL A   1      49.966  26.597  25.649  1.00  0.00     0.040 A 
ATOM     87  C   UNL A   1      48.968  27.183  23.537  1.00  0.00     0.040 A 
ATOM     88  F   UNL A   1      46.840  28.165  23.476  1.00  0.00    -0.206 F 
ATOM     89  C   UNL A   1      50.036  26.653  24.258  1.00  0.00     0.006 A 
ENDBRANCH  65  82
ENDBRANCH  39  40
ENDBRANCH  32  34
ENDBRANCH  31  32
ENDBRANCH  30  31
ENDBRANCH  29  30
ENDBRANCH  28  29
ENDBRANCH  27  28
ENDBRANCH  26  27
ENDBRANCH   1  26
TORSDOF 22
ENDMDL
