MODEL 1
REMARK VINA RESULT:     -10.9      0.000      0.000
REMARK SMILES O=C(OCCOCCOCCOCCOC(=O)[C@@H]1CCCC[C@H]1C(=O)Nc1ccc(NC(=O)c2ccco2)cc1)c1ccc(-c2c3nc(c(-c4c(F)cccc4F)c4ccc([nH]4)c(-c4c(F)cccc4F)c4nc(c(-c5c(F)cccc5F)c5ccc2[nH]5)C=C4)C=C3)cc1
REMARK SMILES IDX 10 1 9 2 8 3 7 4 6 5 5 6 4 7 3 8 2 9 1 10 41 11 42 12 94 13
REMARK SMILES IDX 43 14 93 15 44 16 45 17 46 18 87 19 47 20 92 21 86 22 88 23
REMARK SMILES IDX 48 24 91 25 85 26 84 27 49 29 75 30 58 31 74 32 59 33 62 34
REMARK SMILES IDX 73 35 89 36 60 37 61 38 72 40 90 41 63 42 50 43 51 44 56 45
REMARK SMILES IDX 52 46 53 47 55 48 57 49 54 50 76 51 77 52 82 53 78 54 79 55
REMARK SMILES IDX 81 56 83 57 80 58 64 59 65 60 70 61 66 62 67 63 69 64 71 65
REMARK SMILES IDX 68 66 11 67 12 68 13 69 14 70 15 71 16 72 17 73 18 74 19 75
REMARK SMILES IDX 23 76 20 77 22 78 21 79 24 80 25 81 26 82 27 84 28 85 40 86
REMARK SMILES IDX 29 87 39 88 30 89 31 90 32 91 33 93 34 94 35 95 38 96 36 97
REMARK SMILES IDX 37 98
REMARK H PARENT 88 28 62 39 26 83 31 92
REMARK Flexibility Score: inf
ROOT
ATOM      1  C   UNL A   1      34.540  31.107  27.807  1.00  0.00     0.188 C 
ENDROOT
BRANCH   1   2
ATOM      2  O   UNL A   1      34.781  32.497  27.623  1.00  0.00    -0.377 OA
BRANCH   2   3
ATOM      3  C   UNL A   1      33.916  33.376  28.353  1.00  0.00     0.188 C 
BRANCH   3   4
ATOM      4  C   UNL A   1      34.635  34.112  29.484  1.00  0.00     0.188 C 
BRANCH   4   5
ATOM      5  O   UNL A   1      33.851  33.964  30.665  1.00  0.00    -0.376 OA
BRANCH   5   6
ATOM      6  C   UNL A   1      34.461  34.375  31.874  1.00  0.00     0.202 C 
BRANCH   6   7
ATOM      7  C   UNL A   1      34.417  33.271  32.932  1.00  0.00     0.261 C 
BRANCH   7   8
ATOM      8  O   UNL A   1      35.300  32.189  32.588  1.00  0.00    -0.460 OA
BRANCH   8   9
ATOM      9  C   UNL A   1      36.517  31.908  33.117  1.00  0.00     0.338 C 
ATOM     10  O   UNL A   1      36.698  32.083  34.321  1.00  0.00    -0.246 OA
BRANCH   9  11
ATOM     11  C   UNL A   1      37.643  31.325  32.328  1.00  0.00     0.060 A 
ATOM     12  C   UNL A   1      38.741  30.661  32.877  1.00  0.00     0.016 A 
ATOM     13  C   UNL A   1      37.539  31.380  30.928  1.00  0.00     0.016 A 
ATOM     14  C   UNL A   1      39.754  30.145  32.078  1.00  0.00     0.010 A 
ATOM     15  C   UNL A   1      38.537  30.835  30.112  1.00  0.00     0.010 A 
ATOM     16  C   UNL A   1      39.666  30.244  30.692  1.00  0.00    -0.014 A 
BRANCH  16  17
ATOM     17  C   UNL A   1      40.852  29.884  29.891  1.00  0.00     0.031 A 
ATOM     18  C   UNL A   1      40.897  28.515  29.285  1.00  0.00     0.074 A 
ATOM     19  C   UNL A   1      41.783  30.807  29.593  1.00  0.00     0.049 A 
ATOM     20  N   UNL A   1      41.856  27.929  28.621  1.00  0.00    -0.248 NA
ATOM     21  C   UNL A   1      39.681  27.695  29.438  1.00  0.00     0.031 C 
ATOM     22  C   UNL A   1      41.747  32.210  30.010  1.00  0.00     0.029 A 
ATOM     23  N   UNL A   1      42.923  30.711  28.840  1.00  0.00    -0.354 N 
ATOM     24  C   UNL A   1      41.378  26.662  28.319  1.00  0.00     0.074 A 
ATOM     25  C   UNL A   1      40.041  26.562  28.858  1.00  0.00     0.031 C 
ATOM     26  C   UNL A   1      42.803  32.850  29.479  1.00  0.00     0.029 A 
ATOM     27  C   UNL A   1      43.624  31.889  28.751  1.00  0.00     0.049 A 
ATOM     28  H   UNL A   1      43.213  29.877  28.404  1.00  0.00     0.167 HD
ATOM     29  C   UNL A   1      42.012  25.666  27.658  1.00  0.00     0.037 A 
ATOM     30  C   UNL A   1      44.813  32.141  28.171  1.00  0.00     0.037 A 
ATOM     31  C   UNL A   1      43.338  25.796  27.124  1.00  0.00     0.049 A 
ATOM     32  C   UNL A   1      45.539  30.997  27.516  1.00  0.00     0.074 A 
ATOM     33  C   UNL A   1      44.134  24.838  26.525  1.00  0.00     0.029 A 
ATOM     34  N   UNL A   1      44.058  26.983  27.117  1.00  0.00    -0.354 N 
ATOM     35  N   UNL A   1      45.142  29.757  27.344  1.00  0.00    -0.248 NA
ATOM     36  C   UNL A   1      46.887  31.272  27.006  1.00  0.00     0.031 C 
ATOM     37  C   UNL A   1      45.348  25.443  26.177  1.00  0.00     0.029 A 
ATOM     38  C   UNL A   1      45.292  26.785  26.527  1.00  0.00     0.049 A 
ATOM     39  H   UNL A   1      43.735  27.841  27.479  1.00  0.00     0.167 HD
ATOM     40  C   UNL A   1      46.188  29.105  26.707  1.00  0.00     0.074 A 
ATOM     41  C   UNL A   1      47.227  30.094  26.499  1.00  0.00     0.031 C 
ATOM     42  C   UNL A   1      46.291  27.804  26.338  1.00  0.00     0.037 A 
BRANCH  29  43
ATOM     43  C   UNL A   1      41.294  24.354  27.571  1.00  0.00     0.057 A 
ATOM     44  C   UNL A   1      41.666  23.247  28.345  1.00  0.00     0.134 A 
ATOM     45  C   UNL A   1      40.259  24.177  26.644  1.00  0.00     0.134 A 
ATOM     46  F   UNL A   1      42.675  23.342  29.225  1.00  0.00    -0.206 F 
ATOM     47  C   UNL A   1      41.053  22.003  28.179  1.00  0.00     0.040 A 
ATOM     48  C   UNL A   1      39.626  22.943  26.484  1.00  0.00     0.040 A 
ATOM     49  F   UNL A   1      39.863  25.193  25.864  1.00  0.00    -0.206 F 
ATOM     50  C   UNL A   1      40.030  21.849  27.246  1.00  0.00     0.006 A 
ENDBRANCH  29  43
BRANCH  30  51
ATOM     51  C   UNL A   1      45.409  33.501  28.235  1.00  0.00     0.057 A 
ATOM     52  C   UNL A   1      45.139  34.462  27.255  1.00  0.00     0.134 A 
ATOM     53  C   UNL A   1      46.270  33.872  29.275  1.00  0.00     0.134 A 
ATOM     54  F   UNL A   1      44.342  34.165  26.218  1.00  0.00    -0.206 F 
ATOM     55  C   UNL A   1      45.706  35.739  27.304  1.00  0.00     0.040 A 
ATOM     56  C   UNL A   1      46.824  35.151  29.352  1.00  0.00     0.040 A 
ATOM     57  F   UNL A   1      46.579  32.997  30.244  1.00  0.00    -0.206 F 
ATOM     58  C   UNL A   1      46.546  36.088  28.360  1.00  0.00     0.006 A 
ENDBRANCH  30  51
BRANCH  42  59
ATOM     59  C   UNL A   1      47.563  27.396  25.662  1.00  0.00     0.057 A 
ATOM     60  C   UNL A   1      48.645  26.889  26.390  1.00  0.00     0.134 A 
ATOM     61  C   UNL A   1      47.681  27.457  24.269  1.00  0.00     0.134 A 
ATOM     62  F   UNL A   1      48.592  26.818  27.728  1.00  0.00    -0.206 F 
ATOM     63  C   UNL A   1      49.811  26.467  25.752  1.00  0.00     0.040 A 
ATOM     64  C   UNL A   1      48.834  27.021  23.619  1.00  0.00     0.040 A 
ATOM     65  F   UNL A   1      46.671  27.927  23.520  1.00  0.00    -0.206 F 
ATOM     66  C   UNL A   1      49.904  26.526  24.362  1.00  0.00     0.006 A 
ENDBRANCH  42  59
ENDBRANCH  16  17
ENDBRANCH   9  11
ENDBRANCH   8   9
ENDBRANCH   7   8
ENDBRANCH   6   7
ENDBRANCH   5   6
ENDBRANCH   4   5
ENDBRANCH   3   4
ENDBRANCH   2   3
ENDBRANCH   1   2
BRANCH   1  67
ATOM     67  C   UNL A   1      33.238  30.555  27.234  1.00  0.00     0.188 C 
BRANCH  67  68
ATOM     68  O   UNL A   1      33.242  29.219  26.771  1.00  0.00    -0.376 OA
BRANCH  68  69
ATOM     69  C   UNL A   1      32.108  28.398  27.070  1.00  0.00     0.202 C 
BRANCH  69  70
ATOM     70  C   UNL A   1      32.045  26.969  26.506  1.00  0.00     0.261 C 
BRANCH  70  71
ATOM     71  O   UNL A   1      30.689  26.511  26.245  1.00  0.00    -0.463 OA
BRANCH  71  72
ATOM     72  C   UNL A   1      30.366  26.307  24.945  1.00  0.00     0.309 C 
ATOM     73  O   UNL A   1      30.407  25.205  24.404  1.00  0.00    -0.252 OA
BRANCH  72  74
ATOM     74  C   UNL A   1      30.071  27.571  24.137  1.00  0.00     0.111 C 
ATOM     75  C   UNL A   1      28.616  27.501  23.636  1.00  0.00     0.016 C 
ATOM     76  C   UNL A   1      31.023  28.019  23.014  1.00  0.00     0.093 C 
ATOM     77  C   UNL A   1      28.170  28.869  23.127  1.00  0.00     0.001 C 
ATOM     78  C   UNL A   1      30.531  29.347  22.383  1.00  0.00     0.014 C 
ATOM     79  C   UNL A   1      29.060  29.332  21.985  1.00  0.00     0.001 C 
BRANCH  76  80
ATOM     80  C   UNL A   1      32.543  28.209  23.152  1.00  0.00     0.228 C 
ATOM     81  O   UNL A   1      32.939  29.323  23.540  1.00  0.00    -0.274 OA
ATOM     82  N   UNL A   1      33.529  27.281  23.173  1.00  0.00    -0.326 N 
ATOM     83  H   UNL A   1      34.411  27.685  23.340  1.00  0.00     0.169 HD
BRANCH  82  84
ATOM     84  C   UNL A   1      33.609  25.900  23.017  1.00  0.00     0.041 A 
ATOM     85  C   UNL A   1      34.396  25.200  23.926  1.00  0.00     0.028 A 
ATOM     86  C   UNL A   1      32.998  25.180  22.015  1.00  0.00     0.028 A 
ATOM     87  C   UNL A   1      34.354  23.804  23.965  1.00  0.00     0.028 A 
ATOM     88  C   UNL A   1      32.897  23.791  22.081  1.00  0.00     0.028 A 
ATOM     89  C   UNL A   1      33.491  23.098  23.131  1.00  0.00     0.041 A 
BRANCH  89  90
ATOM     90  N   UNL A   1      33.147  21.745  23.264  1.00  0.00    -0.319 N 
ATOM     91  C   UNL A   1      32.881  20.945  24.361  1.00  0.00     0.291 C 
ATOM     92  H   UNL A   1      33.081  21.270  22.405  1.00  0.00     0.170 HD
ATOM     93  O   UNL A   1      32.590  19.774  24.140  1.00  0.00    -0.265 OA
BRANCH  91  94
ATOM     94  C   UNL A   1      32.916  21.503  25.690  1.00  0.00     0.191 A 
ATOM     95  C   UNL A   1      32.021  22.274  26.412  1.00  0.00     0.056 A 
ATOM     96  O   UNL A   1      34.040  21.289  26.440  1.00  0.00    -0.459 OA
ATOM     97  C   UNL A   1      32.658  22.589  27.638  1.00  0.00     0.043 A 
ATOM     98  C   UNL A   1      33.878  21.957  27.609  1.00  0.00     0.196 A 
ENDBRANCH  91  94
ENDBRANCH  89  90
ENDBRANCH  82  84
ENDBRANCH  76  80
ENDBRANCH  72  74
ENDBRANCH  71  72
ENDBRANCH  70  71
ENDBRANCH  69  70
ENDBRANCH  68  69
ENDBRANCH  67  68
ENDBRANCH   1  67
TORSDOF 24
ENDMDL
MODEL 2
REMARK VINA RESULT:     -10.8      4.680      9.155
REMARK SMILES O=C(OCCOCCOCCOCCOC(=O)[C@@H]1CCCC[C@H]1C(=O)Nc1ccc(NC(=O)c2ccco2)cc1)c1ccc(-c2c3nc(c(-c4c(F)cccc4F)c4ccc([nH]4)c(-c4c(F)cccc4F)c4nc(c(-c5c(F)cccc5F)c5ccc2[nH]5)C=C4)C=C3)cc1
REMARK SMILES IDX 10 1 9 2 8 3 7 4 6 5 5 6 4 7 3 8 2 9 1 10 41 11 42 12 94 13
REMARK SMILES IDX 43 14 93 15 44 16 45 17 46 18 87 19 47 20 92 21 86 22 88 23
REMARK SMILES IDX 48 24 91 25 85 26 84 27 49 29 75 30 58 31 74 32 59 33 62 34
REMARK SMILES IDX 73 35 89 36 60 37 61 38 72 40 90 41 63 42 50 43 51 44 56 45
REMARK SMILES IDX 52 46 53 47 55 48 57 49 54 50 76 51 77 52 82 53 78 54 79 55
REMARK SMILES IDX 81 56 83 57 80 58 64 59 65 60 70 61 66 62 67 63 69 64 71 65
REMARK SMILES IDX 68 66 11 67 12 68 13 69 14 70 15 71 16 72 17 73 18 74 19 75
REMARK SMILES IDX 23 76 20 77 22 78 21 79 24 80 25 81 26 82 27 84 28 85 40 86
REMARK SMILES IDX 29 87 39 88 30 89 31 90 32 91 33 93 34 94 35 95 38 96 36 97
REMARK SMILES IDX 37 98
REMARK H PARENT 88 28 62 39 26 83 31 92
REMARK Flexibility Score: inf
ROOT
ATOM      1  C   UNL A   1      35.559  31.658  28.070  1.00  0.00     0.188 C 
ENDROOT
BRANCH   1   2
ATOM      2  O   UNL A   1      34.625  32.660  27.686  1.00  0.00    -0.377 OA
BRANCH   2   3
ATOM      3  C   UNL A   1      34.314  33.633  28.691  1.00  0.00     0.188 C 
BRANCH   3   4
ATOM      4  C   UNL A   1      34.511  35.070  28.208  1.00  0.00     0.188 C 
BRANCH   4   5
ATOM      5  O   UNL A   1      33.343  35.808  28.556  1.00  0.00    -0.376 OA
BRANCH   5   6
ATOM      6  C   UNL A   1      33.548  37.156  28.936  1.00  0.00     0.202 C 
BRANCH   6   7
ATOM      7  C   UNL A   1      33.234  37.380  30.416  1.00  0.00     0.261 C 
BRANCH   7   8
ATOM      8  O   UNL A   1      32.300  36.398  30.900  1.00  0.00    -0.460 OA
BRANCH   8   9
ATOM      9  C   UNL A   1      32.384  35.659  32.035  1.00  0.00     0.338 C 
ATOM     10  O   UNL A   1      31.361  35.443  32.683  1.00  0.00    -0.246 OA
BRANCH   9  11
ATOM     11  C   UNL A   1      33.649  35.024  32.511  1.00  0.00     0.060 A 
ATOM     12  C   UNL A   1      34.899  35.647  32.519  1.00  0.00     0.016 A 
ATOM     13  C   UNL A   1      33.550  33.739  33.067  1.00  0.00     0.016 A 
ATOM     14  C   UNL A   1      36.035  34.991  32.976  1.00  0.00     0.010 A 
ATOM     15  C   UNL A   1      34.683  33.080  33.559  1.00  0.00     0.010 A 
ATOM     16  C   UNL A   1      35.937  33.698  33.483  1.00  0.00    -0.014 A 
BRANCH  16  17
ATOM     17  C   UNL A   1      37.185  32.959  33.753  1.00  0.00     0.031 A 
ATOM     18  C   UNL A   1      37.824  33.134  35.097  1.00  0.00     0.074 A 
ATOM     19  C   UNL A   1      37.643  32.046  32.879  1.00  0.00     0.049 A 
ATOM     20  N   UNL A   1      38.960  32.671  35.545  1.00  0.00    -0.248 NA
ATOM     21  C   UNL A   1      37.069  33.934  36.078  1.00  0.00     0.031 C 
ATOM     22  C   UNL A   1      37.003  31.693  31.610  1.00  0.00     0.029 A 
ATOM     23  N   UNL A   1      38.736  31.222  32.942  1.00  0.00    -0.354 N 
ATOM     24  C   UNL A   1      39.075  33.159  36.839  1.00  0.00     0.074 A 
ATOM     25  C   UNL A   1      37.892  33.944  37.113  1.00  0.00     0.031 C 
ATOM     26  C   UNL A   1      37.700  30.702  31.030  1.00  0.00     0.029 A 
ATOM     27  C   UNL A   1      38.872  30.405  31.847  1.00  0.00     0.049 A 
ATOM     28  H   UNL A   1      39.365  31.218  33.700  1.00  0.00     0.167 HD
ATOM     29  C   UNL A   1      40.090  32.976  37.714  1.00  0.00     0.037 A 
ATOM     30  C   UNL A   1      39.857  29.540  31.535  1.00  0.00     0.037 A 
ATOM     31  C   UNL A   1      41.249  32.182  37.419  1.00  0.00     0.049 A 
ATOM     32  C   UNL A   1      41.018  29.416  32.484  1.00  0.00     0.074 A 
ATOM     33  C   UNL A   1      42.393  31.996  38.171  1.00  0.00     0.029 A 
ATOM     34  N   UNL A   1      41.395  31.424  36.265  1.00  0.00    -0.354 N 
ATOM     35  N   UNL A   1      41.190  29.983  33.656  1.00  0.00    -0.248 NA
ATOM     36  C   UNL A   1      42.135  28.565  32.058  1.00  0.00     0.031 C 
ATOM     37  C   UNL A   1      43.243  31.142  37.459  1.00  0.00     0.029 A 
ATOM     38  C   UNL A   1      42.612  30.769  36.280  1.00  0.00     0.049 A 
ATOM     39  H   UNL A   1      40.729  31.362  35.542  1.00  0.00     0.167 HD
ATOM     40  C   UNL A   1      42.431  29.558  34.108  1.00  0.00     0.074 A 
ATOM     41  C   UNL A   1      42.957  28.664  33.094  1.00  0.00     0.031 C 
ATOM     42  C   UNL A   1      43.088  29.884  35.248  1.00  0.00     0.037 A 
BRANCH  29  43
ATOM     43  C   UNL A   1      40.001  33.718  39.012  1.00  0.00     0.057 A 
ATOM     44  C   UNL A   1      39.251  33.239  40.095  1.00  0.00     0.134 A 
ATOM     45  C   UNL A   1      40.618  34.967  39.155  1.00  0.00     0.134 A 
ATOM     46  F   UNL A   1      38.605  32.066  40.008  1.00  0.00    -0.206 F 
ATOM     47  C   UNL A   1      39.095  33.991  41.262  1.00  0.00     0.040 A 
ATOM     48  C   UNL A   1      40.485  35.718  40.324  1.00  0.00     0.040 A 
ATOM     49  F   UNL A   1      41.340  35.487  38.151  1.00  0.00    -0.206 F 
ATOM     50  C   UNL A   1      39.714  35.234  41.378  1.00  0.00     0.006 A 
ENDBRANCH  29  43
BRANCH  30  51
ATOM     51  C   UNL A   1      39.815  28.781  30.258  1.00  0.00     0.057 A 
ATOM     52  C   UNL A   1      39.183  27.536  30.170  1.00  0.00     0.134 A 
ATOM     53  C   UNL A   1      40.415  29.277  29.094  1.00  0.00     0.134 A 
ATOM     54  F   UNL A   1      38.610  26.990  31.254  1.00  0.00    -0.206 F 
ATOM     55  C   UNL A   1      39.151  26.812  28.976  1.00  0.00     0.040 A 
ATOM     56  C   UNL A   1      40.370  28.578  27.887  1.00  0.00     0.040 A 
ATOM     57  F   UNL A   1      41.046  30.461  29.109  1.00  0.00    -0.206 F 
ATOM     58  C   UNL A   1      39.741  27.337  27.827  1.00  0.00     0.006 A 
ENDBRANCH  30  51
BRANCH  42  59
ATOM     59  C   UNL A   1      44.431  29.256  35.455  1.00  0.00     0.057 A 
ATOM     60  C   UNL A   1      45.603  29.876  35.007  1.00  0.00     0.134 A 
ATOM     61  C   UNL A   1      44.553  28.051  36.157  1.00  0.00     0.134 A 
ATOM     62  F   UNL A   1      45.545  31.026  34.320  1.00  0.00    -0.206 F 
ATOM     63  C   UNL A   1      46.856  29.309  35.242  1.00  0.00     0.040 A 
ATOM     64  C   UNL A   1      45.801  27.485  36.412  1.00  0.00     0.040 A 
ATOM     65  F   UNL A   1      43.463  27.416  36.615  1.00  0.00    -0.206 F 
ATOM     66  C   UNL A   1      46.956  28.114  35.952  1.00  0.00     0.006 A 
ENDBRANCH  42  59
ENDBRANCH  16  17
ENDBRANCH   9  11
ENDBRANCH   8   9
ENDBRANCH   7   8
ENDBRANCH   6   7
ENDBRANCH   5   6
ENDBRANCH   4   5
ENDBRANCH   3   4
ENDBRANCH   2   3
ENDBRANCH   1   2
BRANCH   1  67
ATOM     67  C   UNL A   1      35.086  30.210  27.982  1.00  0.00     0.188 C 
BRANCH  67  68
ATOM     68  O   UNL A   1      33.911  29.950  27.238  1.00  0.00    -0.376 OA
BRANCH  68  69
ATOM     69  C   UNL A   1      33.978  28.978  26.189  1.00  0.00     0.202 C 
BRANCH  69  70
ATOM     70  C   UNL A   1      33.525  27.536  26.470  1.00  0.00     0.261 C 
BRANCH  70  71
ATOM     71  O   UNL A   1      33.924  26.594  25.435  1.00  0.00    -0.463 OA
BRANCH  71  72
ATOM     72  C   UNL A   1      33.475  25.324  25.577  1.00  0.00     0.309 C 
ATOM     73  O   UNL A   1      32.492  25.026  26.251  1.00  0.00    -0.252 OA
BRANCH  72  74
ATOM     74  C   UNL A   1      34.355  24.244  24.948  1.00  0.00     0.111 C 
ATOM     75  C   UNL A   1      35.802  24.452  25.432  1.00  0.00     0.016 C 
ATOM     76  C   UNL A   1      34.310  23.987  23.431  1.00  0.00     0.093 C 
ATOM     77  C   UNL A   1      36.644  23.220  25.115  1.00  0.00     0.001 C 
ATOM     78  C   UNL A   1      35.254  22.817  23.051  1.00  0.00     0.014 C 
ATOM     79  C   UNL A   1      36.662  22.953  23.618  1.00  0.00     0.001 C 
BRANCH  76  80
ATOM     80  C   UNL A   1      33.039  23.726  22.605  1.00  0.00     0.228 C 
ATOM     81  O   UNL A   1      32.805  22.546  22.287  1.00  0.00    -0.274 OA
ATOM     82  N   UNL A   1      31.976  24.536  22.381  1.00  0.00    -0.326 N 
ATOM     83  H   UNL A   1      31.270  24.083  21.865  1.00  0.00     0.169 HD
BRANCH  82  84
ATOM     84  C   UNL A   1      31.632  25.848  22.694  1.00  0.00     0.041 A 
ATOM     85  C   UNL A   1      30.479  26.042  23.449  1.00  0.00     0.028 A 
ATOM     86  C   UNL A   1      32.323  26.967  22.287  1.00  0.00     0.028 A 
ATOM     87  C   UNL A   1      30.190  27.301  23.982  1.00  0.00     0.028 A 
ATOM     88  C   UNL A   1      32.082  28.215  22.860  1.00  0.00     0.028 A 
ATOM     89  C   UNL A   1      31.071  28.364  23.804  1.00  0.00     0.041 A 
BRANCH  89  90
ATOM     90  N   UNL A   1      31.045  29.576  24.510  1.00  0.00    -0.319 N 
ATOM     91  C   UNL A   1      30.274  30.718  24.392  1.00  0.00     0.291 C 
ATOM     92  H   UNL A   1      31.710  29.623  25.234  1.00  0.00     0.170 HD
ATOM     93  O   UNL A   1      30.492  31.625  25.190  1.00  0.00    -0.265 OA
BRANCH  91  94
ATOM     94  C   UNL A   1      29.240  30.794  23.389  1.00  0.00     0.191 A 
ATOM     95  C   UNL A   1      27.859  30.856  23.463  1.00  0.00     0.056 A 
ATOM     96  O   UNL A   1      29.625  30.780  22.077  1.00  0.00    -0.459 OA
ATOM     97  C   UNL A   1      27.382  30.823  22.128  1.00  0.00     0.043 A 
ATOM     98  C   UNL A   1      28.496  30.789  21.324  1.00  0.00     0.196 A 
ENDBRANCH  91  94
ENDBRANCH  89  90
ENDBRANCH  82  84
ENDBRANCH  76  80
ENDBRANCH  72  74
ENDBRANCH  71  72
ENDBRANCH  70  71
ENDBRANCH  69  70
ENDBRANCH  68  69
ENDBRANCH  67  68
ENDBRANCH   1  67
TORSDOF 24
ENDMDL
MODEL 3
REMARK VINA RESULT:     -10.5      4.585      7.987
REMARK SMILES O=C(OCCOCCOCCOCCOC(=O)[C@@H]1CCCC[C@H]1C(=O)Nc1ccc(NC(=O)c2ccco2)cc1)c1ccc(-c2c3nc(c(-c4c(F)cccc4F)c4ccc([nH]4)c(-c4c(F)cccc4F)c4nc(c(-c5c(F)cccc5F)c5ccc2[nH]5)C=C4)C=C3)cc1
REMARK SMILES IDX 10 1 9 2 8 3 7 4 6 5 5 6 4 7 3 8 2 9 1 10 41 11 42 12 94 13
REMARK SMILES IDX 43 14 93 15 44 16 45 17 46 18 87 19 47 20 92 21 86 22 88 23
REMARK SMILES IDX 48 24 91 25 85 26 84 27 49 29 75 30 58 31 74 32 59 33 62 34
REMARK SMILES IDX 73 35 89 36 60 37 61 38 72 40 90 41 63 42 50 43 51 44 56 45
REMARK SMILES IDX 52 46 53 47 55 48 57 49 54 50 76 51 77 52 82 53 78 54 79 55
REMARK SMILES IDX 81 56 83 57 80 58 64 59 65 60 70 61 66 62 67 63 69 64 71 65
REMARK SMILES IDX 68 66 11 67 12 68 13 69 14 70 15 71 16 72 17 73 18 74 19 75
REMARK SMILES IDX 23 76 20 77 22 78 21 79 24 80 25 81 26 82 27 84 28 85 40 86
REMARK SMILES IDX 29 87 39 88 30 89 31 90 32 91 33 93 34 94 35 95 38 96 36 97
REMARK SMILES IDX 37 98
REMARK H PARENT 88 28 62 39 26 83 31 92
REMARK Flexibility Score: inf
ROOT
ATOM      1  C   UNL A   1      35.931  31.209  28.344  1.00  0.00     0.188 C 
ENDROOT
BRANCH   1   2
ATOM      2  O   UNL A   1      35.377  32.305  27.626  1.00  0.00    -0.377 OA
BRANCH   2   3
ATOM      3  C   UNL A   1      34.515  33.166  28.380  1.00  0.00     0.188 C 
BRANCH   3   4
ATOM      4  C   UNL A   1      34.786  34.648  28.127  1.00  0.00     0.188 C 
BRANCH   4   5
ATOM      5  O   UNL A   1      33.551  35.345  28.263  1.00  0.00    -0.376 OA
BRANCH   5   6
ATOM      6  C   UNL A   1      33.639  36.696  28.675  1.00  0.00     0.202 C 
BRANCH   6   7
ATOM      7  C   UNL A   1      33.205  36.872  30.132  1.00  0.00     0.261 C 
BRANCH   7   8
ATOM      8  O   UNL A   1      32.724  35.632  30.682  1.00  0.00    -0.460 OA
BRANCH   8   9
ATOM      9  C   UNL A   1      32.876  35.171  31.948  1.00  0.00     0.338 C 
ATOM     10  O   UNL A   1      31.896  35.129  32.689  1.00  0.00    -0.246 OA
BRANCH   9  11
ATOM     11  C   UNL A   1      34.166  34.636  32.480  1.00  0.00     0.060 A 
ATOM     12  C   UNL A   1      35.423  35.181  32.216  1.00  0.00     0.016 A 
ATOM     13  C   UNL A   1      34.090  33.557  33.376  1.00  0.00     0.016 A 
ATOM     14  C   UNL A   1      36.582  34.627  32.746  1.00  0.00     0.010 A 
ATOM     15  C   UNL A   1      35.248  33.010  33.940  1.00  0.00     0.010 A 
ATOM     16  C   UNL A   1      36.503  33.528  33.597  1.00  0.00    -0.014 A 
BRANCH  16  17
ATOM     17  C   UNL A   1      37.754  32.837  33.961  1.00  0.00     0.031 A 
ATOM     18  C   UNL A   1      38.331  31.868  32.974  1.00  0.00     0.074 A 
ATOM     19  C   UNL A   1      38.429  33.181  35.072  1.00  0.00     0.049 A 
ATOM     20  N   UNL A   1      39.360  31.074  33.091  1.00  0.00    -0.248 NA
ATOM     21  C   UNL A   1      37.657  31.794  31.665  1.00  0.00     0.031 C 
ATOM     22  C   UNL A   1      38.025  34.224  36.018  1.00  0.00     0.029 A 
ATOM     23  N   UNL A   1      39.614  32.714  35.575  1.00  0.00    -0.354 N 
ATOM     24  C   UNL A   1      39.430  30.377  31.893  1.00  0.00     0.074 A 
ATOM     25  C   UNL A   1      38.349  30.846  31.055  1.00  0.00     0.031 C 
ATOM     26  C   UNL A   1      38.966  34.337  36.970  1.00  0.00     0.029 A 
ATOM     27  C   UNL A   1      39.995  33.328  36.743  1.00  0.00     0.049 A 
ATOM     28  H   UNL A   1      40.143  32.005  35.141  1.00  0.00     0.167 HD
ATOM     29  C   UNL A   1      40.315  29.419  31.534  1.00  0.00     0.037 A 
ATOM     30  C   UNL A   1      41.044  33.071  37.548  1.00  0.00     0.037 A 
ATOM     31  C   UNL A   1      41.386  28.979  32.383  1.00  0.00     0.049 A 
ATOM     32  C   UNL A   1      41.967  31.944  37.171  1.00  0.00     0.074 A 
ATOM     33  C   UNL A   1      42.288  27.952  32.187  1.00  0.00     0.029 A 
ATOM     34  N   UNL A   1      41.702  29.569  33.599  1.00  0.00    -0.354 N 
ATOM     35  N   UNL A   1      41.956  31.192  36.094  1.00  0.00    -0.248 NA
ATOM     36  C   UNL A   1      43.025  31.604  38.130  1.00  0.00     0.031 C 
ATOM     37  C   UNL A   1      43.137  27.905  33.299  1.00  0.00     0.029 A 
ATOM     38  C   UNL A   1      42.785  28.927  34.170  1.00  0.00     0.049 A 
ATOM     39  H   UNL A   1      41.225  30.334  33.997  1.00  0.00     0.167 HD
ATOM     40  C   UNL A   1      43.001  30.292  36.244  1.00  0.00     0.074 A 
ATOM     41  C   UNL A   1      43.642  30.609  37.506  1.00  0.00     0.031 C 
ATOM     42  C   UNL A   1      43.392  29.284  35.426  1.00  0.00     0.037 A 
BRANCH  29  43
ATOM     43  C   UNL A   1      40.085  28.753  30.212  1.00  0.00     0.057 A 
ATOM     44  C   UNL A   1      39.293  27.605  30.083  1.00  0.00     0.134 A 
ATOM     45  C   UNL A   1      40.725  29.229  29.061  1.00  0.00     0.134 A 
ATOM     46  F   UNL A   1      38.683  27.077  31.155  1.00  0.00    -0.206 F 
ATOM     47  C   UNL A   1      39.171  26.937  28.862  1.00  0.00     0.040 A 
ATOM     48  C   UNL A   1      40.595  28.582  27.831  1.00  0.00     0.040 A 
ATOM     49  F   UNL A   1      41.508  30.318  29.119  1.00  0.00    -0.206 F 
ATOM     50  C   UNL A   1      39.823  27.426  27.732  1.00  0.00     0.006 A 
ENDBRANCH  29  43
BRANCH  30  51
ATOM     51  C   UNL A   1      41.239  33.846  38.801  1.00  0.00     0.057 A 
ATOM     52  C   UNL A   1      40.574  33.501  39.983  1.00  0.00     0.134 A 
ATOM     53  C   UNL A   1      42.092  34.956  38.847  1.00  0.00     0.134 A 
ATOM     54  F   UNL A   1      39.723  32.464  40.002  1.00  0.00    -0.206 F 
ATOM     55  C   UNL A   1      40.744  34.233  41.161  1.00  0.00     0.040 A 
ATOM     56  C   UNL A   1      42.292  35.682  40.023  1.00  0.00     0.040 A 
ATOM     57  F   UNL A   1      42.755  35.347  37.749  1.00  0.00    -0.206 F 
ATOM     58  C   UNL A   1      41.612  35.324  41.184  1.00  0.00     0.006 A 
ENDBRANCH  30  51
BRANCH  42  59
ATOM     59  C   UNL A   1      44.569  28.474  35.869  1.00  0.00     0.057 A 
ATOM     60  C   UNL A   1      44.410  27.313  36.633  1.00  0.00     0.134 A 
ATOM     61  C   UNL A   1      45.866  28.831  35.479  1.00  0.00     0.134 A 
ATOM     62  F   UNL A   1      43.192  26.930  37.043  1.00  0.00    -0.206 F 
ATOM     63  C   UNL A   1      45.508  26.537  37.005  1.00  0.00     0.040 A 
ATOM     64  C   UNL A   1      46.967  28.053  35.831  1.00  0.00     0.040 A 
ATOM     65  F   UNL A   1      46.077  29.932  34.741  1.00  0.00    -0.206 F 
ATOM     66  C   UNL A   1      46.790  26.903  36.598  1.00  0.00     0.006 A 
ENDBRANCH  42  59
ENDBRANCH  16  17
ENDBRANCH   9  11
ENDBRANCH   8   9
ENDBRANCH   7   8
ENDBRANCH   6   7
ENDBRANCH   5   6
ENDBRANCH   4   5
ENDBRANCH   3   4
ENDBRANCH   2   3
ENDBRANCH   1   2
BRANCH   1  67
ATOM     67  C   UNL A   1      35.405  29.821  27.988  1.00  0.00     0.188 C 
BRANCH  67  68
ATOM     68  O   UNL A   1      34.113  29.737  27.420  1.00  0.00    -0.376 OA
BRANCH  68  69
ATOM     69  C   UNL A   1      33.927  28.879  26.290  1.00  0.00     0.202 C 
BRANCH  69  70
ATOM     70  C   UNL A   1      33.348  27.470  26.502  1.00  0.00     0.261 C 
BRANCH  70  71
ATOM     71  O   UNL A   1      33.723  26.529  25.457  1.00  0.00    -0.463 OA
BRANCH  71  72
ATOM     72  C   UNL A   1      33.355  25.240  25.653  1.00  0.00     0.309 C 
ATOM     73  O   UNL A   1      32.417  24.907  26.374  1.00  0.00    -0.252 OA
BRANCH  72  74
ATOM     74  C   UNL A   1      34.274  24.194  25.022  1.00  0.00     0.111 C 
ATOM     75  C   UNL A   1      35.698  24.401  25.571  1.00  0.00     0.016 C 
ATOM     76  C   UNL A   1      34.293  23.992  23.496  1.00  0.00     0.093 C 
ATOM     77  C   UNL A   1      36.568  23.191  25.245  1.00  0.00     0.001 C 
ATOM     78  C   UNL A   1      35.266  22.848  23.113  1.00  0.00     0.014 C 
ATOM     79  C   UNL A   1      36.649  22.978  23.742  1.00  0.00     0.001 C 
BRANCH  76  80
ATOM     80  C   UNL A   1      33.060  23.747  22.611  1.00  0.00     0.228 C 
ATOM     81  O   UNL A   1      32.834  22.572  22.269  1.00  0.00    -0.274 OA
ATOM     82  N   UNL A   1      32.013  24.565  22.347  1.00  0.00    -0.326 N 
ATOM     83  H   UNL A   1      31.328  24.121  21.795  1.00  0.00     0.169 HD
BRANCH  82  84
ATOM     84  C   UNL A   1      31.661  25.875  22.659  1.00  0.00     0.041 A 
ATOM     85  C   UNL A   1      30.518  26.063  23.432  1.00  0.00     0.028 A 
ATOM     86  C   UNL A   1      32.335  26.998  22.235  1.00  0.00     0.028 A 
ATOM     87  C   UNL A   1      30.226  27.322  23.962  1.00  0.00     0.028 A 
ATOM     88  C   UNL A   1      32.091  28.247  22.805  1.00  0.00     0.028 A 
ATOM     89  C   UNL A   1      31.094  28.392  23.764  1.00  0.00     0.041 A 
BRANCH  89  90
ATOM     90  N   UNL A   1      31.067  29.608  24.464  1.00  0.00    -0.319 N 
ATOM     91  C   UNL A   1      30.272  30.735  24.363  1.00  0.00     0.291 C 
ATOM     92  H   UNL A   1      31.753  29.670  25.167  1.00  0.00     0.170 HD
ATOM     93  O   UNL A   1      30.498  31.650  25.149  1.00  0.00    -0.265 OA
BRANCH  91  94
ATOM     94  C   UNL A   1      29.207  30.786  23.393  1.00  0.00     0.191 A 
ATOM     95  C   UNL A   1      27.846  31.016  23.500  1.00  0.00     0.056 A 
ATOM     96  O   UNL A   1      29.527  30.543  22.085  1.00  0.00    -0.459 OA
ATOM     97  C   UNL A   1      27.306  30.849  22.199  1.00  0.00     0.043 A 
ATOM     98  C   UNL A   1      28.371  30.574  21.375  1.00  0.00     0.196 A 
ENDBRANCH  91  94
ENDBRANCH  89  90
ENDBRANCH  82  84
ENDBRANCH  76  80
ENDBRANCH  72  74
ENDBRANCH  71  72
ENDBRANCH  70  71
ENDBRANCH  69  70
ENDBRANCH  68  69
ENDBRANCH  67  68
ENDBRANCH   1  67
TORSDOF 24
ENDMDL
