MODEL 1
REMARK VINA RESULT:     -10.5      0.000      0.000
REMARK SMILES COc1ccc(NC(=O)N[C@@H]2C=C[C@H](C(=O)OCCOCCOCCOCCOC(=O)c3ccc(-c4c5nc(c(-c6c(F)cccc6F)c6ccc([nH]6)c(-c6c(F)cccc6F)c6nc(c(-c7c(F)cccc7F)c7ccc4[nH]7)C=C6)C=C5)cc3)C2)c(C)c1
REMARK SMILES IDX 22 1 21 2 20 3 19 4 18 5 17 6 15 7 16 8 14 9 11 10 12 11
REMARK SMILES IDX 86 12 13 13 10 14 7 15 8 16 9 18 6 20 3 21 4 22 89 23 5 24
REMARK SMILES IDX 87 25 88 26 2 27 1 28 23 29 24 30 25 31 26 32 27 33 28 34
REMARK SMILES IDX 29 35 30 36 31 37 32 38 33 39 85 40 34 41 84 42 35 43 36 44
REMARK SMILES IDX 37 45 78 46 38 47 83 48 77 49 79 50 39 51 82 52 76 53 75 54
REMARK SMILES IDX 40 56 66 57 49 58 65 59 50 60 53 61 64 62 80 63 51 64 52 65
REMARK SMILES IDX 63 67 81 68 54 69 41 70 42 71 47 72 43 73 44 74 46 75 48 76
REMARK SMILES IDX 45 77 67 78 68 79 73 80 69 81 70 82 72 83 74 84 71 85 55 86
REMARK SMILES IDX 56 87 61 88 57 89 58 90 60 91 62 92 59 93
REMARK H PARENT 7 17 10 19 79 55 53 66
REMARK Flexibility Score: inf
ROOT
ATOM      1  C   UNL A   1      38.009  22.237  25.845  1.00  0.00     0.188 C 
ENDROOT
BRANCH   1   2
ATOM      2  C   UNL A   1      37.328  21.930  24.519  1.00  0.00     0.188 C 
BRANCH   2   3
ATOM      3  O   UNL A   1      35.983  21.470  24.706  1.00  0.00    -0.376 OA
BRANCH   3   4
ATOM      4  C   UNL A   1      35.576  21.500  26.069  1.00  0.00     0.202 C 
BRANCH   4   5
ATOM      5  C   UNL A   1      34.158  20.977  26.190  1.00  0.00     0.261 C 
BRANCH   5   6
ATOM      6  O   UNL A   1      33.291  22.106  26.267  1.00  0.00    -0.463 OA
BRANCH   6   7
ATOM      7  C   UNL A   1      32.994  22.735  25.113  1.00  0.00     0.312 C 
ATOM      8  O   UNL A   1      32.520  22.207  24.111  1.00  0.00    -0.252 OA
BRANCH   7   9
ATOM      9  C   UNL A   1      33.030  24.233  25.327  1.00  0.00     0.124 C 
ATOM     10  C   UNL A   1      32.099  26.226  24.269  1.00  0.00     0.107 C 
ATOM     11  C   UNL A   1      33.220  25.624  23.479  1.00  0.00    -0.006 C 
ATOM     12  C   UNL A   1      31.703  25.038  25.156  1.00  0.00     0.048 C 
ATOM     13  C   UNL A   1      33.843  24.654  24.139  1.00  0.00    -0.014 C 
BRANCH  10  14
ATOM     14  N   UNL A   1      31.256  26.942  23.349  1.00  0.00    -0.332 N 
ATOM     15  N   UNL A   1      31.685  29.328  23.740  1.00  0.00    -0.308 N 
ATOM     16  C   UNL A   1      31.120  28.269  23.070  1.00  0.00     0.319 C 
ATOM     17  H   UNL A   1      31.548  30.179  23.267  1.00  0.00     0.171 HD
ATOM     18  O   UNL A   1      30.428  28.549  22.079  1.00  0.00    -0.248 OA
ATOM     19  H   UNL A   1      30.662  26.361  22.821  1.00  0.00     0.165 HD
BRANCH  15  20
ATOM     20  C   UNL A   1      32.416  29.498  24.943  1.00  0.00     0.046 A 
ATOM     21  C   UNL A   1      34.141  29.356  27.203  1.00  0.00     0.119 A 
ATOM     22  C   UNL A   1      34.260  28.499  26.157  1.00  0.00     0.048 A 
ATOM     23  C   UNL A   1      33.044  30.243  27.176  1.00  0.00     0.052 A 
ATOM     24  C   UNL A   1      33.659  28.961  25.022  1.00  0.00     0.030 A 
ATOM     25  C   UNL A   1      32.129  30.286  26.054  1.00  0.00    -0.024 A 
ATOM     26  C   UNL A   1      31.024  31.298  26.077  1.00  0.00     0.047 C 
BRANCH  21  27
ATOM     27  O   UNL A   1      35.111  29.431  28.164  1.00  0.00    -0.497 OA
ATOM     28  C   UNL A   1      36.450  29.519  27.622  1.00  0.00     0.278 C 
ENDBRANCH  21  27
ENDBRANCH  15  20
ENDBRANCH  10  14
ENDBRANCH   7   9
ENDBRANCH   6   7
ENDBRANCH   5   6
ENDBRANCH   4   5
ENDBRANCH   3   4
ENDBRANCH   2   3
ENDBRANCH   1   2
BRANCH   1  29
ATOM     29  O   UNL A   1      39.425  22.228  25.936  1.00  0.00    -0.377 OA
BRANCH  29  30
ATOM     30  C   UNL A   1      40.097  21.311  26.780  1.00  0.00     0.188 C 
BRANCH  30  31
ATOM     31  C   UNL A   1      40.449  19.956  26.202  1.00  0.00     0.188 C 
BRANCH  31  32
ATOM     32  O   UNL A   1      41.693  19.566  26.776  1.00  0.00    -0.376 OA
BRANCH  32  33
ATOM     33  C   UNL A   1      42.339  18.493  26.105  1.00  0.00     0.202 C 
BRANCH  33  34
ATOM     34  C   UNL A   1      43.788  18.834  25.758  1.00  0.00     0.261 C 
BRANCH  34  35
ATOM     35  O   UNL A   1      43.783  19.946  24.835  1.00  0.00    -0.460 OA
BRANCH  35  36
ATOM     36  C   UNL A   1      44.559  20.995  25.180  1.00  0.00     0.338 C 
ATOM     37  O   UNL A   1      45.785  20.941  25.377  1.00  0.00    -0.246 OA
BRANCH  36  38
ATOM     38  C   UNL A   1      43.732  22.166  25.576  1.00  0.00     0.060 A 
ATOM     39  C   UNL A   1      43.420  23.153  24.623  1.00  0.00     0.016 A 
ATOM     40  C   UNL A   1      43.530  22.436  26.928  1.00  0.00     0.016 A 
ATOM     41  C   UNL A   1      43.072  24.452  25.028  1.00  0.00     0.010 A 
ATOM     42  C   UNL A   1      43.244  23.735  27.322  1.00  0.00     0.010 A 
ATOM     43  C   UNL A   1      43.078  24.775  26.388  1.00  0.00    -0.014 A 
BRANCH  43  44
ATOM     44  C   UNL A   1      43.202  26.149  26.934  1.00  0.00     0.031 A 
ATOM     45  C   UNL A   1      41.977  26.962  27.270  1.00  0.00     0.074 A 
ATOM     46  C   UNL A   1      44.385  26.483  27.518  1.00  0.00     0.049 A 
ATOM     47  N   UNL A   1      41.979  28.141  27.806  1.00  0.00    -0.248 NA
ATOM     48  C   UNL A   1      40.615  26.496  27.017  1.00  0.00     0.031 C 
ATOM     49  C   UNL A   1      44.553  27.424  28.619  1.00  0.00     0.029 A 
ATOM     50  N   UNL A   1      45.693  26.037  27.316  1.00  0.00    -0.354 N 
ATOM     51  C   UNL A   1      40.706  28.434  28.263  1.00  0.00     0.074 A 
ATOM     52  C   UNL A   1      39.884  27.435  27.629  1.00  0.00     0.031 C 
ATOM     53  C   UNL A   1      45.844  27.558  28.940  1.00  0.00     0.029 A 
ATOM     54  C   UNL A   1      46.577  26.986  27.847  1.00  0.00     0.049 A 
ATOM     55  H   UNL A   1      45.950  25.196  26.873  1.00  0.00     0.167 HD
ATOM     56  C   UNL A   1      40.532  29.400  29.227  1.00  0.00     0.037 A 
ATOM     57  C   UNL A   1      47.455  27.728  27.111  1.00  0.00     0.037 A 
ATOM     58  C   UNL A   1      41.782  30.174  29.462  1.00  0.00     0.049 A 
ATOM     59  C   UNL A   1      47.083  29.209  27.116  1.00  0.00     0.074 A 
ATOM     60  C   UNL A   1      42.524  30.514  30.587  1.00  0.00     0.029 A 
ATOM     61  N   UNL A   1      42.563  30.587  28.377  1.00  0.00    -0.354 N 
ATOM     62  N   UNL A   1      45.892  29.630  27.475  1.00  0.00    -0.248 NA
ATOM     63  C   UNL A   1      47.968  30.328  26.805  1.00  0.00     0.031 C 
ATOM     64  C   UNL A   1      43.799  30.982  30.164  1.00  0.00     0.029 A 
ATOM     65  C   UNL A   1      43.800  31.048  28.782  1.00  0.00     0.049 A 
ATOM     66  H   UNL A   1      42.267  30.554  27.439  1.00  0.00     0.167 HD
ATOM     67  C   UNL A   1      45.839  30.991  27.480  1.00  0.00     0.074 A 
ATOM     68  C   UNL A   1      47.160  31.387  27.025  1.00  0.00     0.031 C 
ATOM     69  C   UNL A   1      44.716  31.681  27.839  1.00  0.00     0.037 A 
BRANCH  56  70
ATOM     70  C   UNL A   1      39.287  29.549  30.139  1.00  0.00     0.057 A 
ATOM     71  C   UNL A   1      38.591  30.779  30.235  1.00  0.00     0.134 A 
ATOM     72  C   UNL A   1      38.770  28.572  31.020  1.00  0.00     0.134 A 
ATOM     73  F   UNL A   1      38.888  31.818  29.445  1.00  0.00    -0.206 F 
ATOM     74  C   UNL A   1      37.538  31.022  31.142  1.00  0.00     0.040 A 
ATOM     75  C   UNL A   1      37.679  28.782  31.888  1.00  0.00     0.040 A 
ATOM     76  F   UNL A   1      39.300  27.354  31.140  1.00  0.00    -0.206 F 
ATOM     77  C   UNL A   1      37.070  30.019  31.970  1.00  0.00     0.006 A 
ENDBRANCH  56  70
BRANCH  57  78
ATOM     78  C   UNL A   1      48.232  26.893  26.155  1.00  0.00     0.057 A 
ATOM     79  C   UNL A   1      47.866  27.099  24.809  1.00  0.00     0.134 A 
ATOM     80  C   UNL A   1      49.585  26.627  26.406  1.00  0.00     0.134 A 
ATOM     81  F   UNL A   1      46.576  27.292  24.491  1.00  0.00    -0.206 F 
ATOM     82  C   UNL A   1      48.823  27.340  23.820  1.00  0.00     0.040 A 
ATOM     83  C   UNL A   1      50.555  26.851  25.414  1.00  0.00     0.040 A 
ATOM     84  F   UNL A   1      50.012  26.402  27.656  1.00  0.00    -0.206 F 
ATOM     85  C   UNL A   1      50.176  27.281  24.141  1.00  0.00     0.006 A 
ENDBRANCH  57  78
BRANCH  69  86
ATOM     86  C   UNL A   1      44.366  33.071  27.360  1.00  0.00     0.057 A 
ATOM     87  C   UNL A   1      43.932  33.338  26.055  1.00  0.00     0.134 A 
ATOM     88  C   UNL A   1      44.208  34.139  28.276  1.00  0.00     0.134 A 
ATOM     89  F   UNL A   1      43.938  32.395  25.104  1.00  0.00    -0.206 F 
ATOM     90  C   UNL A   1      43.398  34.578  25.682  1.00  0.00     0.040 A 
ATOM     91  C   UNL A   1      43.628  35.360  27.926  1.00  0.00     0.040 A 
ATOM     92  F   UNL A   1      44.565  34.035  29.564  1.00  0.00    -0.206 F 
ATOM     93  C   UNL A   1      43.224  35.586  26.622  1.00  0.00     0.006 A 
ENDBRANCH  69  86
ENDBRANCH  43  44
ENDBRANCH  36  38
ENDBRANCH  35  36
ENDBRANCH  34  35
ENDBRANCH  33  34
ENDBRANCH  32  33
ENDBRANCH  31  32
ENDBRANCH  30  31
ENDBRANCH  29  30
ENDBRANCH   1  29
TORSDOF 23
ENDMDL
MODEL 2
REMARK VINA RESULT:     -10.2      4.329     10.917
REMARK SMILES COc1ccc(NC(=O)N[C@@H]2C=C[C@H](C(=O)OCCOCCOCCOCCOC(=O)c3ccc(-c4c5nc(c(-c6c(F)cccc6F)c6ccc([nH]6)c(-c6c(F)cccc6F)c6nc(c(-c7c(F)cccc7F)c7ccc4[nH]7)C=C6)C=C5)cc3)C2)c(C)c1
REMARK SMILES IDX 22 1 21 2 20 3 19 4 18 5 17 6 15 7 16 8 14 9 11 10 12 11
REMARK SMILES IDX 86 12 13 13 10 14 7 15 8 16 9 18 6 20 3 21 4 22 89 23 5 24
REMARK SMILES IDX 87 25 88 26 2 27 1 28 23 29 24 30 25 31 26 32 27 33 28 34
REMARK SMILES IDX 29 35 30 36 31 37 32 38 33 39 85 40 34 41 84 42 35 43 36 44
REMARK SMILES IDX 37 45 78 46 38 47 83 48 77 49 79 50 39 51 82 52 76 53 75 54
REMARK SMILES IDX 40 56 66 57 49 58 65 59 50 60 53 61 64 62 80 63 51 64 52 65
REMARK SMILES IDX 63 67 81 68 54 69 41 70 42 71 47 72 43 73 44 74 46 75 48 76
REMARK SMILES IDX 45 77 67 78 68 79 73 80 69 81 70 82 72 83 74 84 71 85 55 86
REMARK SMILES IDX 56 87 61 88 57 89 58 90 60 91 62 92 59 93
REMARK H PARENT 7 17 10 19 79 55 53 66
REMARK Flexibility Score: inf
ROOT
ATOM      1  C   UNL A   1      31.063  30.894  25.582  1.00  0.00     0.188 C 
ENDROOT
BRANCH   1   2
ATOM      2  C   UNL A   1      31.568  29.512  25.191  1.00  0.00     0.188 C 
BRANCH   2   3
ATOM      3  O   UNL A   1      32.997  29.479  25.086  1.00  0.00    -0.376 OA
BRANCH   3   4
ATOM      4  C   UNL A   1      33.447  29.335  23.743  1.00  0.00     0.202 C 
BRANCH   4   5
ATOM      5  C   UNL A   1      32.450  28.507  22.956  1.00  0.00     0.261 C 
BRANCH   5   6
ATOM      6  O   UNL A   1      33.102  27.295  22.582  1.00  0.00    -0.463 OA
BRANCH   6   7
ATOM      7  C   UNL A   1      32.324  26.216  22.370  1.00  0.00     0.312 C 
ATOM      8  O   UNL A   1      31.716  25.965  21.333  1.00  0.00    -0.252 OA
BRANCH   7   9
ATOM      9  C   UNL A   1      32.553  25.200  23.468  1.00  0.00     0.124 C 
ATOM     10  C   UNL A   1      34.404  24.450  24.871  1.00  0.00     0.107 C 
ATOM     11  C   UNL A   1      34.517  23.964  23.458  1.00  0.00    -0.006 C 
ATOM     12  C   UNL A   1      33.424  25.618  24.694  1.00  0.00     0.048 C 
ATOM     13  C   UNL A   1      33.425  24.216  22.746  1.00  0.00    -0.014 C 
BRANCH  10  14
ATOM     14  N   UNL A   1      35.734  24.508  25.417  1.00  0.00    -0.332 N 
ATOM     15  N   UNL A   1      36.332  22.202  26.012  1.00  0.00    -0.308 N 
ATOM     16  C   UNL A   1      36.593  23.542  25.847  1.00  0.00     0.319 C 
ATOM     17  H   UNL A   1      37.149  21.688  26.203  1.00  0.00     0.171 HD
ATOM     18  O   UNL A   1      37.751  23.912  26.092  1.00  0.00    -0.248 OA
ATOM     19  H   UNL A   1      36.091  25.422  25.496  1.00  0.00     0.165 HD
BRANCH  15  20
ATOM     20  C   UNL A   1      35.180  21.377  25.975  1.00  0.00     0.046 A 
ATOM     21  C   UNL A   1      33.052  19.582  25.378  1.00  0.00     0.119 A 
ATOM     22  C   UNL A   1      34.126  19.715  24.559  1.00  0.00     0.048 A 
ATOM     23  C   UNL A   1      32.977  20.464  26.476  1.00  0.00     0.052 A 
ATOM     24  C   UNL A   1      35.203  20.275  25.185  1.00  0.00     0.030 A 
ATOM     25  C   UNL A   1      34.030  21.418  26.759  1.00  0.00    -0.024 A 
ATOM     26  C   UNL A   1      33.902  22.279  27.979  1.00  0.00     0.047 C 
BRANCH  21  27
ATOM     27  O   UNL A   1      32.160  18.560  25.207  1.00  0.00    -0.497 OA
ATOM     28  C   UNL A   1      32.759  17.249  25.333  1.00  0.00     0.278 C 
ENDBRANCH  21  27
ENDBRANCH  15  20
ENDBRANCH  10  14
ENDBRANCH   7   9
ENDBRANCH   6   7
ENDBRANCH   5   6
ENDBRANCH   4   5
ENDBRANCH   3   4
ENDBRANCH   2   3
ENDBRANCH   1   2
BRANCH   1  29
ATOM     29  O   UNL A   1      31.468  31.477  26.810  1.00  0.00    -0.377 OA
BRANCH  29  30
ATOM     30  C   UNL A   1      31.939  32.811  26.863  1.00  0.00     0.188 C 
BRANCH  30  31
ATOM     31  C   UNL A   1      33.175  33.085  27.695  1.00  0.00     0.188 C 
BRANCH  31  32
ATOM     32  O   UNL A   1      32.763  33.860  28.817  1.00  0.00    -0.376 OA
BRANCH  32  33
ATOM     33  C   UNL A   1      32.753  35.262  28.591  1.00  0.00     0.202 C 
BRANCH  33  34
ATOM     34  C   UNL A   1      32.923  36.046  29.894  1.00  0.00     0.261 C 
BRANCH  34  35
ATOM     35  O   UNL A   1      32.952  35.103  30.988  1.00  0.00    -0.460 OA
BRANCH  35  36
ATOM     36  C   UNL A   1      34.128  35.006  31.644  1.00  0.00     0.338 C 
ATOM     37  O   UNL A   1      34.628  35.900  32.349  1.00  0.00    -0.246 OA
BRANCH  36  38
ATOM     38  C   UNL A   1      34.893  33.812  31.197  1.00  0.00     0.060 A 
ATOM     39  C   UNL A   1      34.652  32.563  31.799  1.00  0.00     0.016 A 
ATOM     40  C   UNL A   1      36.037  33.983  30.419  1.00  0.00     0.016 A 
ATOM     41  C   UNL A   1      35.625  31.552  31.763  1.00  0.00     0.010 A 
ATOM     42  C   UNL A   1      37.019  33.005  30.438  1.00  0.00     0.010 A 
ATOM     43  C   UNL A   1      36.861  31.807  31.161  1.00  0.00    -0.014 A 
BRANCH  43  44
ATOM     44  C   UNL A   1      38.113  31.062  31.443  1.00  0.00     0.031 A 
ATOM     45  C   UNL A   1      38.500  29.859  30.619  1.00  0.00     0.074 A 
ATOM     46  C   UNL A   1      39.084  31.714  32.137  1.00  0.00     0.049 A 
ATOM     47  N   UNL A   1      39.596  29.181  30.745  1.00  0.00    -0.248 NA
ATOM     48  C   UNL A   1      37.654  29.310  29.561  1.00  0.00     0.031 C 
ATOM     49  C   UNL A   1      40.520  31.502  31.994  1.00  0.00     0.029 A 
ATOM     50  N   UNL A   1      39.036  32.744  33.079  1.00  0.00    -0.354 N 
ATOM     51  C   UNL A   1      39.759  28.371  29.634  1.00  0.00     0.074 A 
ATOM     52  C   UNL A   1      38.463  28.400  29.005  1.00  0.00     0.031 C 
ATOM     53  C   UNL A   1      41.205  32.275  32.842  1.00  0.00     0.029 A 
ATOM     54  C   UNL A   1      40.242  32.753  33.794  1.00  0.00     0.049 A 
ATOM     55  H   UNL A   1      38.281  33.359  33.219  1.00  0.00     0.167 HD
ATOM     56  C   UNL A   1      41.008  27.891  29.316  1.00  0.00     0.037 A 
ATOM     57  C   UNL A   1      40.358  32.476  35.127  1.00  0.00     0.037 A 
ATOM     58  C   UNL A   1      41.988  28.143  30.408  1.00  0.00     0.049 A 
ATOM     59  C   UNL A   1      41.121  31.176  35.367  1.00  0.00     0.074 A 
ATOM     60  C   UNL A   1      43.253  28.716  30.473  1.00  0.00     0.029 A 
ATOM     61  N   UNL A   1      41.619  27.931  31.741  1.00  0.00    -0.354 N 
ATOM     62  N   UNL A   1      41.306  30.287  34.418  1.00  0.00    -0.248 NA
ATOM     63  C   UNL A   1      41.783  30.773  36.605  1.00  0.00     0.031 C 
ATOM     64  C   UNL A   1      43.560  28.982  31.837  1.00  0.00     0.029 A 
ATOM     65  C   UNL A   1      42.543  28.463  32.619  1.00  0.00     0.049 A 
ATOM     66  H   UNL A   1      40.801  27.460  32.020  1.00  0.00     0.167 HD
ATOM     67  C   UNL A   1      42.087  29.262  34.857  1.00  0.00     0.074 A 
ATOM     68  C   UNL A   1      42.341  29.597  36.247  1.00  0.00     0.031 C 
ATOM     69  C   UNL A   1      42.449  28.217  34.054  1.00  0.00     0.037 A 
BRANCH  56  70
ATOM     70  C   UNL A   1      41.442  27.359  27.926  1.00  0.00     0.057 A 
ATOM     71  C   UNL A   1      42.009  26.069  27.778  1.00  0.00     0.134 A 
ATOM     72  C   UNL A   1      41.427  28.079  26.710  1.00  0.00     0.134 A 
ATOM     73  F   UNL A   1      42.067  25.206  28.800  1.00  0.00    -0.206 F 
ATOM     74  C   UNL A   1      42.548  25.577  26.571  1.00  0.00     0.040 A 
ATOM     75  C   UNL A   1      41.906  27.575  25.483  1.00  0.00     0.040 A 
ATOM     76  F   UNL A   1      40.987  29.334  26.618  1.00  0.00    -0.206 F 
ATOM     77  C   UNL A   1      42.492  26.326  25.411  1.00  0.00     0.006 A 
ENDBRANCH  56  70
BRANCH  57  78
ATOM     78  C   UNL A   1      39.360  33.220  35.942  1.00  0.00     0.057 A 
ATOM     79  C   UNL A   1      38.398  32.383  36.544  1.00  0.00     0.134 A 
ATOM     80  C   UNL A   1      39.761  34.346  36.674  1.00  0.00     0.134 A 
ATOM     81  F   UNL A   1      37.920  31.324  35.871  1.00  0.00    -0.206 F 
ATOM     82  C   UNL A   1      38.093  32.481  37.905  1.00  0.00     0.040 A 
ATOM     83  C   UNL A   1      39.447  34.462  38.038  1.00  0.00     0.040 A 
ATOM     84  F   UNL A   1      40.659  35.201  36.165  1.00  0.00    -0.206 F 
ATOM     85  C   UNL A   1      38.673  33.487  38.671  1.00  0.00     0.006 A 
ENDBRANCH  57  78
BRANCH  69  86
ATOM     86  C   UNL A   1      42.794  26.831  34.546  1.00  0.00     0.057 A 
ATOM     87  C   UNL A   1      41.826  25.911  34.970  1.00  0.00     0.134 A 
ATOM     88  C   UNL A   1      44.091  26.293  34.358  1.00  0.00     0.134 A 
ATOM     89  F   UNL A   1      40.539  26.256  35.105  1.00  0.00    -0.206 F 
ATOM     90  C   UNL A   1      42.125  24.564  35.208  1.00  0.00     0.040 A 
ATOM     91  C   UNL A   1      44.387  24.941  34.540  1.00  0.00     0.040 A 
ATOM     92  F   UNL A   1      45.122  27.043  33.942  1.00  0.00    -0.206 F 
ATOM     93  C   UNL A   1      43.402  24.070  34.973  1.00  0.00     0.006 A 
ENDBRANCH  69  86
ENDBRANCH  43  44
ENDBRANCH  36  38
ENDBRANCH  35  36
ENDBRANCH  34  35
ENDBRANCH  33  34
ENDBRANCH  32  33
ENDBRANCH  31  32
ENDBRANCH  30  31
ENDBRANCH  29  30
ENDBRANCH   1  29
TORSDOF 23
ENDMDL
MODEL 3
REMARK VINA RESULT:     -10.0      3.875     10.164
REMARK SMILES COc1ccc(NC(=O)N[C@@H]2C=C[C@H](C(=O)OCCOCCOCCOCCOC(=O)c3ccc(-c4c5nc(c(-c6c(F)cccc6F)c6ccc([nH]6)c(-c6c(F)cccc6F)c6nc(c(-c7c(F)cccc7F)c7ccc4[nH]7)C=C6)C=C5)cc3)C2)c(C)c1
REMARK SMILES IDX 22 1 21 2 20 3 19 4 18 5 17 6 15 7 16 8 14 9 11 10 12 11
REMARK SMILES IDX 86 12 13 13 10 14 7 15 8 16 9 18 6 20 3 21 4 22 89 23 5 24
REMARK SMILES IDX 87 25 88 26 2 27 1 28 23 29 24 30 25 31 26 32 27 33 28 34
REMARK SMILES IDX 29 35 30 36 31 37 32 38 33 39 85 40 34 41 84 42 35 43 36 44
REMARK SMILES IDX 37 45 78 46 38 47 83 48 77 49 79 50 39 51 82 52 76 53 75 54
REMARK SMILES IDX 40 56 66 57 49 58 65 59 50 60 53 61 64 62 80 63 51 64 52 65
REMARK SMILES IDX 63 67 81 68 54 69 41 70 42 71 47 72 43 73 44 74 46 75 48 76
REMARK SMILES IDX 45 77 67 78 68 79 73 80 69 81 70 82 72 83 74 84 71 85 55 86
REMARK SMILES IDX 56 87 61 88 57 89 58 90 60 91 62 92 59 93
REMARK H PARENT 7 17 10 19 79 55 53 66
REMARK Flexibility Score: inf
ROOT
ATOM      1  C   UNL A   1      32.181  28.355  25.631  1.00  0.00     0.188 C 
ENDROOT
BRANCH   1   2
ATOM      2  C   UNL A   1      33.384  28.611  24.732  1.00  0.00     0.188 C 
BRANCH   2   3
ATOM      3  O   UNL A   1      32.988  29.067  23.431  1.00  0.00    -0.376 OA
BRANCH   3   4
ATOM      4  C   UNL A   1      33.814  28.551  22.393  1.00  0.00     0.202 C 
BRANCH   4   5
ATOM      5  C   UNL A   1      33.911  27.043  22.519  1.00  0.00     0.261 C 
BRANCH   5   6
ATOM      6  O   UNL A   1      33.318  26.478  21.352  1.00  0.00    -0.463 OA
BRANCH   6   7
ATOM      7  C   UNL A   1      33.046  25.159  21.375  1.00  0.00     0.312 C 
ATOM      8  O   UNL A   1      33.008  24.419  20.396  1.00  0.00    -0.252 OA
BRANCH   7   9
ATOM      9  C   UNL A   1      33.104  24.652  22.800  1.00  0.00     0.124 C 
ATOM     10  C   UNL A   1      32.627  22.578  23.994  1.00  0.00     0.107 C 
ATOM     11  C   UNL A   1      31.384  23.303  23.579  1.00  0.00    -0.006 C 
ATOM     12  C   UNL A   1      33.659  23.215  23.053  1.00  0.00     0.048 C 
ATOM     13  C   UNL A   1      31.640  24.513  23.095  1.00  0.00    -0.014 C 
BRANCH  10  14
ATOM     14  N   UNL A   1      32.298  21.181  24.104  1.00  0.00    -0.332 N 
ATOM     15  N   UNL A   1      34.049  20.173  25.500  1.00  0.00    -0.308 N 
ATOM     16  C   UNL A   1      32.864  20.157  24.802  1.00  0.00     0.319 C 
ATOM     17  H   UNL A   1      34.176  19.353  26.029  1.00  0.00     0.171 HD
ATOM     18  O   UNL A   1      32.222  19.096  24.830  1.00  0.00    -0.248 OA
ATOM     19  H   UNL A   1      31.513  20.915  23.573  1.00  0.00     0.165 HD
BRANCH  15  20
ATOM     20  C   UNL A   1      35.132  21.075  25.647  1.00  0.00     0.046 A 
ATOM     21  C   UNL A   1      36.897  23.278  26.021  1.00  0.00     0.119 A 
ATOM     22  C   UNL A   1      35.559  23.393  26.216  1.00  0.00     0.048 A 
ATOM     23  C   UNL A   1      37.360  22.050  25.504  1.00  0.00     0.052 A 
ATOM     24  C   UNL A   1      34.944  22.187  26.401  1.00  0.00     0.030 A 
ATOM     25  C   UNL A   1      36.462  20.940  25.260  1.00  0.00    -0.024 A 
ATOM     26  C   UNL A   1      37.043  19.650  24.766  1.00  0.00     0.047 C 
BRANCH  21  27
ATOM     27  O   UNL A   1      37.753  24.264  26.426  1.00  0.00    -0.497 OA
ATOM     28  C   UNL A   1      39.094  23.787  26.688  1.00  0.00     0.278 C 
ENDBRANCH  21  27
ENDBRANCH  15  20
ENDBRANCH  10  14
ENDBRANCH   7   9
ENDBRANCH   6   7
ENDBRANCH   5   6
ENDBRANCH   4   5
ENDBRANCH   3   4
ENDBRANCH   2   3
ENDBRANCH   1   2
BRANCH   1  29
ATOM     29  O   UNL A   1      31.417  29.445  26.120  1.00  0.00    -0.377 OA
BRANCH  29  30
ATOM     30  C   UNL A   1      32.037  30.536  26.774  1.00  0.00     0.188 C 
BRANCH  30  31
ATOM     31  C   UNL A   1      31.491  31.922  26.498  1.00  0.00     0.188 C 
BRANCH  31  32
ATOM     32  O   UNL A   1      31.862  32.747  27.599  1.00  0.00    -0.376 OA
BRANCH  32  33
ATOM     33  C   UNL A   1      33.139  33.356  27.471  1.00  0.00     0.202 C 
BRANCH  33  34
ATOM     34  C   UNL A   1      33.289  34.555  28.409  1.00  0.00     0.261 C 
BRANCH  34  35
ATOM     35  O   UNL A   1      34.574  34.458  29.063  1.00  0.00    -0.460 OA
BRANCH  35  36
ATOM     36  C   UNL A   1      34.683  33.487  29.994  1.00  0.00     0.338 C 
ATOM     37  O   UNL A   1      34.178  33.525  31.129  1.00  0.00    -0.246 OA
BRANCH  36  38
ATOM     38  C   UNL A   1      35.716  32.489  29.608  1.00  0.00     0.060 A 
ATOM     39  C   UNL A   1      35.494  31.122  29.860  1.00  0.00     0.016 A 
ATOM     40  C   UNL A   1      37.000  32.922  29.286  1.00  0.00     0.016 A 
ATOM     41  C   UNL A   1      36.573  30.228  29.955  1.00  0.00     0.010 A 
ATOM     42  C   UNL A   1      38.067  32.048  29.441  1.00  0.00     0.010 A 
ATOM     43  C   UNL A   1      37.880  30.711  29.842  1.00  0.00    -0.014 A 
BRANCH  43  44
ATOM     44  C   UNL A   1      39.087  30.029  30.372  1.00  0.00     0.031 A 
ATOM     45  C   UNL A   1      39.644  28.805  29.691  1.00  0.00     0.074 A 
ATOM     46  C   UNL A   1      39.904  30.752  31.185  1.00  0.00     0.049 A 
ATOM     47  N   UNL A   1      40.722  28.176  30.037  1.00  0.00    -0.248 NA
ATOM     48  C   UNL A   1      39.010  28.174  28.536  1.00  0.00     0.031 C 
ATOM     49  C   UNL A   1      41.349  30.588  31.299  1.00  0.00     0.029 A 
ATOM     50  N   UNL A   1      39.665  31.822  32.049  1.00  0.00    -0.354 N 
ATOM     51  C   UNL A   1      41.098  27.322  29.015  1.00  0.00     0.074 A 
ATOM     52  C   UNL A   1      39.929  27.271  28.174  1.00  0.00     0.031 C 
ATOM     53  C   UNL A   1      41.855  31.426  32.209  1.00  0.00     0.029 A 
ATOM     54  C   UNL A   1      40.729  31.911  32.957  1.00  0.00     0.049 A 
ATOM     55  H   UNL A   1      38.879  32.414  32.026  1.00  0.00     0.167 HD
ATOM     56  C   UNL A   1      42.397  26.876  28.940  1.00  0.00     0.037 A 
ATOM     57  C   UNL A   1      40.623  31.703  34.303  1.00  0.00     0.037 A 
ATOM     58  C   UNL A   1      43.167  27.217  30.167  1.00  0.00     0.049 A 
ATOM     59  C   UNL A   1      41.372  30.446  34.738  1.00  0.00     0.074 A 
ATOM     60  C   UNL A   1      44.384  27.841  30.416  1.00  0.00     0.029 A 
ATOM     61  N   UNL A   1      42.582  27.054  31.428  1.00  0.00    -0.354 N 
ATOM     62  N   UNL A   1      41.744  29.521  33.883  1.00  0.00    -0.248 NA
ATOM     63  C   UNL A   1      41.824  30.128  36.090  1.00  0.00     0.031 C 
ATOM     64  C   UNL A   1      44.445  28.183  31.796  1.00  0.00     0.029 A 
ATOM     65  C   UNL A   1      43.325  27.662  32.421  1.00  0.00     0.049 A 
ATOM     66  H   UNL A   1      41.742  26.566  31.588  1.00  0.00     0.167 HD
ATOM     67  C   UNL A   1      42.468  28.549  34.502  1.00  0.00     0.074 A 
ATOM     68  C   UNL A   1      42.469  28.959  35.895  1.00  0.00     0.031 C 
ATOM     69  C   UNL A   1      42.993  27.482  33.830  1.00  0.00     0.037 A 
BRANCH  56  70
ATOM     70  C   UNL A   1      43.078  26.296  27.674  1.00  0.00     0.057 A 
ATOM     71  C   UNL A   1      43.802  27.127  26.784  1.00  0.00     0.134 A 
ATOM     72  C   UNL A   1      42.990  24.964  27.209  1.00  0.00     0.134 A 
ATOM     73  F   UNL A   1      44.048  28.413  27.066  1.00  0.00    -0.206 F 
ATOM     74  C   UNL A   1      44.330  26.693  25.550  1.00  0.00     0.040 A 
ATOM     75  C   UNL A   1      43.566  24.502  26.007  1.00  0.00     0.040 A 
ATOM     76  F   UNL A   1      42.312  24.016  27.856  1.00  0.00    -0.206 F 
ATOM     77  C   UNL A   1      44.221  25.372  25.157  1.00  0.00     0.006 A 
ENDBRANCH  56  70
BRANCH  57  78
ATOM     78  C   UNL A   1      39.478  32.445  34.896  1.00  0.00     0.057 A 
ATOM     79  C   UNL A   1      39.587  33.844  34.755  1.00  0.00     0.134 A 
ATOM     80  C   UNL A   1      38.187  31.905  34.824  1.00  0.00     0.134 A 
ATOM     81  F   UNL A   1      40.787  34.435  34.880  1.00  0.00    -0.206 F 
ATOM     82  C   UNL A   1      38.531  34.613  34.259  1.00  0.00     0.040 A 
ATOM     83  C   UNL A   1      37.115  32.673  34.342  1.00  0.00     0.040 A 
ATOM     84  F   UNL A   1      37.996  30.586  34.966  1.00  0.00    -0.206 F 
ATOM     85  C   UNL A   1      37.307  34.010  33.989  1.00  0.00     0.006 A 
ENDBRANCH  57  78
BRANCH  69  86
ATOM     86  C   UNL A   1      43.291  26.135  34.446  1.00  0.00     0.057 A 
ATOM     87  C   UNL A   1      42.294  25.303  34.973  1.00  0.00     0.134 A 
ATOM     88  C   UNL A   1      44.559  25.525  34.288  1.00  0.00     0.134 A 
ATOM     89  F   UNL A   1      41.026  25.715  35.096  1.00  0.00    -0.206 F 
ATOM     90  C   UNL A   1      42.541  23.973  35.334  1.00  0.00     0.040 A 
ATOM     91  C   UNL A   1      44.802  24.185  34.595  1.00  0.00     0.040 A 
ATOM     92  F   UNL A   1      45.612  26.187  33.785  1.00  0.00    -0.206 F 
ATOM     93  C   UNL A   1      43.791  23.403  35.126  1.00  0.00     0.006 A 
ENDBRANCH  69  86
ENDBRANCH  43  44
ENDBRANCH  36  38
ENDBRANCH  35  36
ENDBRANCH  34  35
ENDBRANCH  33  34
ENDBRANCH  32  33
ENDBRANCH  31  32
ENDBRANCH  30  31
ENDBRANCH  29  30
ENDBRANCH   1  29
TORSDOF 23
ENDMDL
