MODEL 1
REMARK VINA RESULT:      -9.1      0.000      0.000
REMARK SMILES CCOc1cc(NC(=O)c2c(C(=O)OCCOCCOCCOCCOC(=O)c3ccc(-c4c5nc(c(-c6c(F)cccc6F)c6ccc([nH]6)c(-c6c(F)cccc6F)c6nc(c(-c7c(F)cccc7F)c7ccc4[nH]7)C=C6)C=C5)cc3)cnn2C)ccc1OC(F)F
REMARK SMILES IDX 19 1 18 2 17 3 16 4 15 5 14 6 12 7 13 8 11 9 10 10 85 11
REMARK SMILES IDX 83 12 84 13 86 14 8 15 7 16 9 18 6 19 4 20 5 21 89 22 88 23
REMARK SMILES IDX 87 24 3 25 2 26 1 27 90 28 91 29 92 30 93 31 20 32 21 33
REMARK SMILES IDX 22 34 23 35 24 36 25 37 26 38 27 39 28 40 29 41 30 42 82 43
REMARK SMILES IDX 31 44 81 45 32 46 33 47 34 48 75 49 35 50 80 51 74 52 76 53
REMARK SMILES IDX 36 54 79 55 73 56 72 57 37 59 63 60 46 61 62 62 47 63 50 64
REMARK SMILES IDX 61 65 77 66 48 67 49 68 60 70 78 71 51 72 38 73 39 74 44 75
REMARK SMILES IDX 40 76 41 77 43 78 45 79 42 80 64 81 65 82 70 83 66 84 67 85
REMARK SMILES IDX 69 86 71 87 68 88 52 89 53 90 58 91 54 92 55 93 57 94 59 95
REMARK SMILES IDX 56 96
REMARK H PARENT 7 17 76 58 50 69
REMARK Flexibility Score: inf
ROOT
ATOM      1  C   UNL A   1      33.381  33.553  27.939  1.00  0.00     0.188 C 
ENDROOT
BRANCH   1   2
ATOM      2  C   UNL A   1      34.569  32.599  28.147  1.00  0.00     0.188 C 
BRANCH   2   3
ATOM      3  O   UNL A   1      34.196  31.259  28.461  1.00  0.00    -0.376 OA
BRANCH   3   4
ATOM      4  C   UNL A   1      34.631  30.263  27.543  1.00  0.00     0.202 C 
BRANCH   4   5
ATOM      5  C   UNL A   1      33.707  30.096  26.330  1.00  0.00     0.261 C 
BRANCH   5   6
ATOM      6  O   UNL A   1      33.456  28.729  25.972  1.00  0.00    -0.460 OA
BRANCH   6   7
ATOM      7  C   UNL A   1      33.199  28.476  24.661  1.00  0.00     0.342 C 
ATOM      8  O   UNL A   1      33.878  28.881  23.736  1.00  0.00    -0.246 OA
BRANCH   7   9
ATOM      9  C   UNL A   1      32.098  27.545  24.477  1.00  0.00     0.111 A 
ATOM     10  C   UNL A   1      31.889  26.603  23.469  1.00  0.00     0.140 A 
ATOM     11  N   UNL A   1      30.805  25.880  23.903  1.00  0.00    -0.262 N 
ATOM     12  C   UNL A   1      30.978  27.424  25.323  1.00  0.00     0.151 A 
ATOM     13  N   UNL A   1      30.151  26.455  24.934  1.00  0.00    -0.180 NA
ATOM     14  C   UNL A   1      30.390  24.558  23.497  1.00  0.00     0.174 C 
BRANCH  10  15
ATOM     15  C   UNL A   1      32.765  26.274  22.380  1.00  0.00     0.274 C 
ATOM     16  N   UNL A   1      33.742  25.312  22.453  1.00  0.00    -0.321 N 
ATOM     17  H   UNL A   1      34.328  25.341  21.662  1.00  0.00     0.170 HD
ATOM     18  O   UNL A   1      32.720  26.907  21.321  1.00  0.00    -0.267 OA
BRANCH  16  19
ATOM     19  C   UNL A   1      34.139  24.297  23.343  1.00  0.00     0.045 A 
ATOM     20  C   UNL A   1      35.281  23.309  25.261  1.00  0.00     0.163 A 
ATOM     21  C   UNL A   1      34.957  24.433  24.465  1.00  0.00     0.076 A 
ATOM     22  C   UNL A   1      34.713  22.059  24.991  1.00  0.00     0.168 A 
ATOM     23  C   UNL A   1      33.877  21.934  23.883  1.00  0.00     0.053 A 
ATOM     24  C   UNL A   1      33.606  23.031  23.065  1.00  0.00     0.030 A 
BRANCH  20  25
ATOM     25  O   UNL A   1      36.067  23.459  26.374  1.00  0.00    -0.490 OA
BRANCH  25  26
ATOM     26  C   UNL A   1      37.427  23.797  26.071  1.00  0.00     0.226 C 
ATOM     27  C   UNL A   1      38.213  22.512  25.860  1.00  0.00     0.049 C 
ENDBRANCH  25  26
ENDBRANCH  20  25
BRANCH  22  28
ATOM     28  O   UNL A   1      34.800  20.910  25.723  1.00  0.00    -0.431 OA
BRANCH  28  29
ATOM     29  C   UNL A   1      33.753  20.575  26.621  1.00  0.00     0.542 C 
ATOM     30  F   UNL A   1      33.197  21.691  27.150  1.00  0.00    -0.167 F 
ATOM     31  F   UNL A   1      32.804  19.846  25.993  1.00  0.00    -0.167 F 
ENDBRANCH  28  29
ENDBRANCH  22  28
ENDBRANCH  16  19
ENDBRANCH  10  15
ENDBRANCH   7   9
ENDBRANCH   6   7
ENDBRANCH   5   6
ENDBRANCH   4   5
ENDBRANCH   3   4
ENDBRANCH   2   3
ENDBRANCH   1   2
BRANCH   1  32
ATOM     32  O   UNL A   1      32.889  34.227  29.082  1.00  0.00    -0.377 OA
BRANCH  32  33
ATOM     33  C   UNL A   1      33.778  35.006  29.877  1.00  0.00     0.188 C 
BRANCH  33  34
ATOM     34  C   UNL A   1      34.085  34.662  31.349  1.00  0.00     0.188 C 
BRANCH  34  35
ATOM     35  O   UNL A   1      34.355  33.287  31.597  1.00  0.00    -0.376 OA
BRANCH  35  36
ATOM     36  C   UNL A   1      35.254  33.006  32.662  1.00  0.00     0.202 C 
BRANCH  36  37
ATOM     37  C   UNL A   1      35.995  31.678  32.481  1.00  0.00     0.261 C 
BRANCH  37  38
ATOM     38  O   UNL A   1      36.509  31.466  31.156  1.00  0.00    -0.460 OA
BRANCH  38  39
ATOM     39  C   UNL A   1      36.729  30.186  30.787  1.00  0.00     0.338 C 
ATOM     40  O   UNL A   1      35.918  29.281  30.714  1.00  0.00    -0.246 OA
BRANCH  39  41
ATOM     41  C   UNL A   1      38.121  30.090  30.319  1.00  0.00     0.060 A 
ATOM     42  C   UNL A   1      38.374  30.111  28.942  1.00  0.00     0.016 A 
ATOM     43  C   UNL A   1      39.167  29.967  31.238  1.00  0.00     0.016 A 
ATOM     44  C   UNL A   1      39.681  29.968  28.478  1.00  0.00     0.010 A 
ATOM     45  C   UNL A   1      40.471  29.808  30.772  1.00  0.00     0.010 A 
ATOM     46  C   UNL A   1      40.727  29.774  29.391  1.00  0.00    -0.014 A 
BRANCH  46  47
ATOM     47  C   UNL A   1      42.056  29.338  28.910  1.00  0.00     0.031 A 
ATOM     48  C   UNL A   1      42.233  27.900  28.514  1.00  0.00     0.074 A 
ATOM     49  C   UNL A   1      43.086  30.195  28.837  1.00  0.00     0.049 A 
ATOM     50  N   UNL A   1      43.304  27.278  28.095  1.00  0.00    -0.248 NA
ATOM     51  C   UNL A   1      41.036  27.047  28.606  1.00  0.00     0.031 C 
ATOM     52  C   UNL A   1      43.033  31.616  29.174  1.00  0.00     0.029 A 
ATOM     53  N   UNL A   1      44.389  29.983  28.463  1.00  0.00    -0.354 N 
ATOM     54  C   UNL A   1      42.912  25.966  27.873  1.00  0.00     0.074 A 
ATOM     55  C   UNL A   1      41.515  25.870  28.233  1.00  0.00     0.031 C 
ATOM     56  C   UNL A   1      44.255  32.149  28.998  1.00  0.00     0.029 A 
ATOM     57  C   UNL A   1      45.177  31.102  28.559  1.00  0.00     0.049 A 
ATOM     58  H   UNL A   1      44.726  29.111  28.154  1.00  0.00     0.167 HD
ATOM     59  C   UNL A   1      43.648  24.932  27.404  1.00  0.00     0.037 A 
ATOM     60  C   UNL A   1      46.495  31.254  28.329  1.00  0.00     0.037 A 
ATOM     61  C   UNL A   1      45.041  25.020  27.061  1.00  0.00     0.049 A 
ATOM     62  C   UNL A   1      47.311  30.072  27.878  1.00  0.00     0.074 A 
ATOM     63  C   UNL A   1      45.870  24.036  26.555  1.00  0.00     0.029 A 
ATOM     64  N   UNL A   1      45.814  26.163  27.203  1.00  0.00    -0.354 N 
ATOM     65  N   UNL A   1      46.925  28.844  27.632  1.00  0.00    -0.248 NA
ATOM     66  C   UNL A   1      48.749  30.300  27.675  1.00  0.00     0.031 C 
ATOM     67  C   UNL A   1      47.158  24.571  26.431  1.00  0.00     0.029 A 
ATOM     68  C   UNL A   1      47.118  25.901  26.821  1.00  0.00     0.049 A 
ATOM     69  H   UNL A   1      45.483  27.032  27.527  1.00  0.00     0.167 HD
ATOM     70  C   UNL A   1      48.061  28.160  27.219  1.00  0.00     0.074 A 
ATOM     71  C   UNL A   1      49.153  29.112  27.244  1.00  0.00     0.031 C 
ATOM     72  C   UNL A   1      48.191  26.862  26.850  1.00  0.00     0.037 A 
BRANCH  59  73
ATOM     73  C   UNL A   1      42.952  23.612  27.261  1.00  0.00     0.057 A 
ATOM     74  C   UNL A   1      42.752  22.763  28.357  1.00  0.00     0.134 A 
ATOM     75  C   UNL A   1      42.485  23.183  26.014  1.00  0.00     0.134 A 
ATOM     76  F   UNL A   1      43.196  23.110  29.576  1.00  0.00    -0.206 F 
ATOM     77  C   UNL A   1      42.132  21.521  28.213  1.00  0.00     0.040 A 
ATOM     78  C   UNL A   1      41.844  21.952  25.861  1.00  0.00     0.040 A 
ATOM     79  F   UNL A   1      42.648  23.949  24.925  1.00  0.00    -0.206 F 
ATOM     80  C   UNL A   1      41.673  21.115  26.961  1.00  0.00     0.006 A 
ENDBRANCH  59  73
BRANCH  60  81
ATOM     81  C   UNL A   1      47.131  32.580  28.520  1.00  0.00     0.057 A 
ATOM     82  C   UNL A   1      47.246  33.484  27.459  1.00  0.00     0.134 A 
ATOM     83  C   UNL A   1      47.650  32.969  29.761  1.00  0.00     0.134 A 
ATOM     84  F   UNL A   1      46.790  33.155  26.241  1.00  0.00    -0.206 F 
ATOM     85  C   UNL A   1      47.863  34.725  27.620  1.00  0.00     0.040 A 
ATOM     86  C   UNL A   1      48.251  34.216  29.942  1.00  0.00     0.040 A 
ATOM     87  F   UNL A   1      47.573  32.144  30.816  1.00  0.00    -0.206 F 
ATOM     88  C   UNL A   1      48.364  35.096  28.867  1.00  0.00     0.006 A 
ENDBRANCH  60  81
BRANCH  72  89
ATOM     89  C   UNL A   1      49.551  26.402  26.417  1.00  0.00     0.057 A 
ATOM     90  C   UNL A   1      50.025  26.623  25.118  1.00  0.00     0.134 A 
ATOM     91  C   UNL A   1      50.414  25.776  27.325  1.00  0.00     0.134 A 
ATOM     92  F   UNL A   1      49.243  27.206  24.199  1.00  0.00    -0.206 F 
ATOM     93  C   UNL A   1      51.305  26.219  24.732  1.00  0.00     0.040 A 
ATOM     94  C   UNL A   1      51.704  25.389  26.957  1.00  0.00     0.040 A 
ATOM     95  F   UNL A   1      50.024  25.544  28.587  1.00  0.00    -0.206 F 
ATOM     96  C   UNL A   1      52.151  25.607  25.656  1.00  0.00     0.006 A 
ENDBRANCH  72  89
ENDBRANCH  46  47
ENDBRANCH  39  41
ENDBRANCH  38  39
ENDBRANCH  37  38
ENDBRANCH  36  37
ENDBRANCH  35  36
ENDBRANCH  34  35
ENDBRANCH  33  34
ENDBRANCH  32  33
ENDBRANCH   1  32
TORSDOF 26
ENDMDL
MODEL 2
REMARK VINA RESULT:      -9.1      4.986     10.226
REMARK SMILES CCOc1cc(NC(=O)c2c(C(=O)OCCOCCOCCOCCOC(=O)c3ccc(-c4c5nc(c(-c6c(F)cccc6F)c6ccc([nH]6)c(-c6c(F)cccc6F)c6nc(c(-c7c(F)cccc7F)c7ccc4[nH]7)C=C6)C=C5)cc3)cnn2C)ccc1OC(F)F
REMARK SMILES IDX 19 1 18 2 17 3 16 4 15 5 14 6 12 7 13 8 11 9 10 10 85 11
REMARK SMILES IDX 83 12 84 13 86 14 8 15 7 16 9 18 6 19 4 20 5 21 89 22 88 23
REMARK SMILES IDX 87 24 3 25 2 26 1 27 90 28 91 29 92 30 93 31 20 32 21 33
REMARK SMILES IDX 22 34 23 35 24 36 25 37 26 38 27 39 28 40 29 41 30 42 82 43
REMARK SMILES IDX 31 44 81 45 32 46 33 47 34 48 75 49 35 50 80 51 74 52 76 53
REMARK SMILES IDX 36 54 79 55 73 56 72 57 37 59 63 60 46 61 62 62 47 63 50 64
REMARK SMILES IDX 61 65 77 66 48 67 49 68 60 70 78 71 51 72 38 73 39 74 44 75
REMARK SMILES IDX 40 76 41 77 43 78 45 79 42 80 64 81 65 82 70 83 66 84 67 85
REMARK SMILES IDX 69 86 71 87 68 88 52 89 53 90 58 91 54 92 55 93 57 94 59 95
REMARK SMILES IDX 56 96
REMARK H PARENT 7 17 76 58 50 69
REMARK Flexibility Score: inf
ROOT
ATOM      1  C   UNL A   1      42.862  22.321  27.272  1.00  0.00     0.188 C 
ENDROOT
BRANCH   1   2
ATOM      2  C   UNL A   1      41.808  21.229  27.025  1.00  0.00     0.188 C 
BRANCH   2   3
ATOM      3  O   UNL A   1      40.814  21.582  26.064  1.00  0.00    -0.376 OA
BRANCH   3   4
ATOM      4  C   UNL A   1      39.642  22.198  26.583  1.00  0.00     0.202 C 
BRANCH   4   5
ATOM      5  C   UNL A   1      38.396  21.984  25.717  1.00  0.00     0.261 C 
BRANCH   5   6
ATOM      6  O   UNL A   1      37.334  22.914  25.979  1.00  0.00    -0.460 OA
BRANCH   6   7
ATOM      7  C   UNL A   1      36.496  23.195  24.947  1.00  0.00     0.342 C 
ATOM      8  O   UNL A   1      36.838  23.263  23.781  1.00  0.00    -0.246 OA
BRANCH   7   9
ATOM      9  C   UNL A   1      35.105  23.269  25.361  1.00  0.00     0.111 A 
ATOM     10  C   UNL A   1      33.976  23.631  24.625  1.00  0.00     0.140 A 
ATOM     11  N   UNL A   1      32.923  23.333  25.455  1.00  0.00    -0.262 N 
ATOM     12  C   UNL A   1      34.618  22.982  26.651  1.00  0.00     0.151 A 
ATOM     13  N   UNL A   1      33.292  23.089  26.729  1.00  0.00    -0.180 NA
ATOM     14  C   UNL A   1      31.539  23.115  25.103  1.00  0.00     0.174 C 
BRANCH  10  15
ATOM     15  C   UNL A   1      33.907  23.964  23.229  1.00  0.00     0.274 C 
ATOM     16  N   UNL A   1      33.403  25.149  22.754  1.00  0.00    -0.321 N 
ATOM     17  H   UNL A   1      33.305  25.125  21.774  1.00  0.00     0.170 HD
ATOM     18  O   UNL A   1      34.249  23.148  22.369  1.00  0.00    -0.267 OA
BRANCH  16  19
ATOM     19  C   UNL A   1      32.988  26.388  23.276  1.00  0.00     0.045 A 
ATOM     20  C   UNL A   1      31.424  28.166  23.874  1.00  0.00     0.163 A 
ATOM     21  C   UNL A   1      31.686  26.887  23.327  1.00  0.00     0.076 A 
ATOM     22  C   UNL A   1      32.455  28.914  24.455  1.00  0.00     0.168 A 
ATOM     23  C   UNL A   1      33.750  28.401  24.423  1.00  0.00     0.053 A 
ATOM     24  C   UNL A   1      34.014  27.166  23.830  1.00  0.00     0.030 A 
BRANCH  20  25
ATOM     25  O   UNL A   1      30.138  28.635  23.941  1.00  0.00    -0.490 OA
BRANCH  25  26
ATOM     26  C   UNL A   1      29.667  29.186  22.704  1.00  0.00     0.226 C 
ATOM     27  C   UNL A   1      28.154  29.323  22.776  1.00  0.00     0.049 C 
ENDBRANCH  25  26
ENDBRANCH  20  25
BRANCH  22  28
ATOM     28  O   UNL A   1      32.366  30.090  25.145  1.00  0.00    -0.431 OA
BRANCH  28  29
ATOM     29  C   UNL A   1      32.496  30.079  26.558  1.00  0.00     0.542 C 
ATOM     30  F   UNL A   1      33.657  30.662  26.941  1.00  0.00    -0.167 F 
ATOM     31  F   UNL A   1      31.453  30.717  27.134  1.00  0.00    -0.167 F 
ENDBRANCH  28  29
ENDBRANCH  22  28
ENDBRANCH  16  19
ENDBRANCH  10  15
ENDBRANCH   7   9
ENDBRANCH   6   7
ENDBRANCH   5   6
ENDBRANCH   4   5
ENDBRANCH   3   4
ENDBRANCH   2   3
ENDBRANCH   1   2
BRANCH   1  32
ATOM     32  O   UNL A   1      42.669  23.160  28.396  1.00  0.00    -0.377 OA
BRANCH  32  33
ATOM     33  C   UNL A   1      43.513  23.019  29.534  1.00  0.00     0.188 C 
BRANCH  33  34
ATOM     34  C   UNL A   1      44.184  24.228  30.217  1.00  0.00     0.188 C 
BRANCH  34  35
ATOM     35  O   UNL A   1      44.531  24.026  31.583  1.00  0.00    -0.376 OA
BRANCH  35  36
ATOM     36  C   UNL A   1      45.515  24.902  32.116  1.00  0.00     0.202 C 
BRANCH  36  37
ATOM     37  C   UNL A   1      46.030  24.453  33.488  1.00  0.00     0.261 C 
BRANCH  37  38
ATOM     38  O   UNL A   1      47.135  25.226  33.983  1.00  0.00    -0.460 OA
BRANCH  38  39
ATOM     39  C   UNL A   1      46.916  25.951  35.102  1.00  0.00     0.338 C 
ATOM     40  O   UNL A   1      47.579  25.966  36.123  1.00  0.00    -0.246 OA
BRANCH  39  41
ATOM     41  C   UNL A   1      45.800  26.871  34.827  1.00  0.00     0.060 A 
ATOM     42  C   UNL A   1      44.528  26.557  35.321  1.00  0.00     0.016 A 
ATOM     43  C   UNL A   1      46.010  28.029  34.074  1.00  0.00     0.016 A 
ATOM     44  C   UNL A   1      43.449  27.388  35.026  1.00  0.00     0.010 A 
ATOM     45  C   UNL A   1      44.927  28.851  33.767  1.00  0.00     0.010 A 
ATOM     46  C   UNL A   1      43.638  28.514  34.214  1.00  0.00    -0.014 A 
BRANCH  46  47
ATOM     47  C   UNL A   1      42.468  29.233  33.663  1.00  0.00     0.031 A 
ATOM     48  C   UNL A   1      41.936  28.805  32.325  1.00  0.00     0.074 A 
ATOM     49  C   UNL A   1      41.899  30.250  34.329  1.00  0.00     0.049 A 
ATOM     50  N   UNL A   1      40.948  29.301  31.626  1.00  0.00    -0.248 NA
ATOM     51  C   UNL A   1      42.615  27.665  31.688  1.00  0.00     0.031 C 
ATOM     52  C   UNL A   1      42.312  30.742  35.641  1.00  0.00     0.029 A 
ATOM     53  N   UNL A   1      40.848  31.059  33.977  1.00  0.00    -0.354 N 
ATOM     54  C   UNL A   1      40.885  28.533  30.472  1.00  0.00     0.074 A 
ATOM     55  C   UNL A   1      41.953  27.561  30.546  1.00  0.00     0.031 C 
ATOM     56  C   UNL A   1      41.525  31.779  35.982  1.00  0.00     0.029 A 
ATOM     57  C   UNL A   1      40.572  32.033  34.902  1.00  0.00     0.049 A 
ATOM     58  H   UNL A   1      40.342  30.951  33.139  1.00  0.00     0.167 HD
ATOM     59  C   UNL A   1      40.011  28.624  29.443  1.00  0.00     0.037 A 
ATOM     60  C   UNL A   1      39.660  33.024  34.870  1.00  0.00     0.037 A 
ATOM     61  C   UNL A   1      38.959  29.600  29.359  1.00  0.00     0.049 A 
ATOM     62  C   UNL A   1      38.746  33.152  33.681  1.00  0.00     0.074 A 
ATOM     63  C   UNL A   1      38.007  29.760  28.369  1.00  0.00     0.029 A 
ATOM     64  N   UNL A   1      38.731  30.592  30.301  1.00  0.00    -0.354 N 
ATOM     65  N   UNL A   1      38.666  32.398  32.611  1.00  0.00    -0.248 NA
ATOM     66  C   UNL A   1      37.794  34.273  33.696  1.00  0.00     0.031 C 
ATOM     67  C   UNL A   1      37.227  30.878  28.692  1.00  0.00     0.029 A 
ATOM     68  C   UNL A   1      37.670  31.386  29.903  1.00  0.00     0.049 A 
ATOM     69  H   UNL A   1      39.248  30.712  31.131  1.00  0.00     0.167 HD
ATOM     70  C   UNL A   1      37.642  32.933  31.841  1.00  0.00     0.074 A 
ATOM     71  C   UNL A   1      37.126  34.075  32.568  1.00  0.00     0.031 C 
ATOM     72  C   UNL A   1      37.169  32.517  30.640  1.00  0.00     0.037 A 
BRANCH  59  73
ATOM     73  C   UNL A   1      40.183  27.650  28.317  1.00  0.00     0.057 A 
ATOM     74  C   UNL A   1      40.884  27.987  27.152  1.00  0.00     0.134 A 
ATOM     75  C   UNL A   1      39.635  26.364  28.396  1.00  0.00     0.134 A 
ATOM     76  F   UNL A   1      41.414  29.211  27.008  1.00  0.00    -0.206 F 
ATOM     77  C   UNL A   1      41.013  27.087  26.093  1.00  0.00     0.040 A 
ATOM     78  C   UNL A   1      39.777  25.447  27.353  1.00  0.00     0.040 A 
ATOM     79  F   UNL A   1      38.950  25.981  29.484  1.00  0.00    -0.206 F 
ATOM     80  C   UNL A   1      40.461  25.811  26.195  1.00  0.00     0.006 A 
ENDBRANCH  59  73
BRANCH  60  81
ATOM     81  C   UNL A   1      39.562  33.976  36.002  1.00  0.00     0.057 A 
ATOM     82  C   UNL A   1      38.818  33.664  37.145  1.00  0.00     0.134 A 
ATOM     83  C   UNL A   1      40.197  35.224  35.964  1.00  0.00     0.134 A 
ATOM     84  F   UNL A   1      38.167  32.494  37.227  1.00  0.00    -0.206 F 
ATOM     85  C   UNL A   1      38.700  34.561  38.207  1.00  0.00     0.040 A 
ATOM     86  C   UNL A   1      40.103  36.123  37.027  1.00  0.00     0.040 A 
ATOM     87  F   UNL A   1      40.922  35.582  34.894  1.00  0.00    -0.206 F 
ATOM     88  C   UNL A   1      39.348  35.794  38.151  1.00  0.00     0.006 A 
ENDBRANCH  60  81
BRANCH  72  89
ATOM     89  C   UNL A   1      36.019  33.280  30.052  1.00  0.00     0.057 A 
ATOM     90  C   UNL A   1      34.725  33.189  30.580  1.00  0.00     0.134 A 
ATOM     91  C   UNL A   1      36.221  34.153  28.975  1.00  0.00     0.134 A 
ATOM     92  F   UNL A   1      34.466  32.362  31.603  1.00  0.00    -0.206 F 
ATOM     93  C   UNL A   1      33.668  33.928  30.045  1.00  0.00     0.040 A 
ATOM     94  C   UNL A   1      35.176  34.913  28.447  1.00  0.00     0.040 A 
ATOM     95  F   UNL A   1      37.438  34.293  28.430  1.00  0.00    -0.206 F 
ATOM     96  C   UNL A   1      33.894  34.798  28.980  1.00  0.00     0.006 A 
ENDBRANCH  72  89
ENDBRANCH  46  47
ENDBRANCH  39  41
ENDBRANCH  38  39
ENDBRANCH  37  38
ENDBRANCH  36  37
ENDBRANCH  35  36
ENDBRANCH  34  35
ENDBRANCH  33  34
ENDBRANCH  32  33
ENDBRANCH   1  32
TORSDOF 26
ENDMDL
MODEL 3
REMARK VINA RESULT:      -9.0      4.071      8.109
REMARK SMILES CCOc1cc(NC(=O)c2c(C(=O)OCCOCCOCCOCCOC(=O)c3ccc(-c4c5nc(c(-c6c(F)cccc6F)c6ccc([nH]6)c(-c6c(F)cccc6F)c6nc(c(-c7c(F)cccc7F)c7ccc4[nH]7)C=C6)C=C5)cc3)cnn2C)ccc1OC(F)F
REMARK SMILES IDX 19 1 18 2 17 3 16 4 15 5 14 6 12 7 13 8 11 9 10 10 85 11
REMARK SMILES IDX 83 12 84 13 86 14 8 15 7 16 9 18 6 19 4 20 5 21 89 22 88 23
REMARK SMILES IDX 87 24 3 25 2 26 1 27 90 28 91 29 92 30 93 31 20 32 21 33
REMARK SMILES IDX 22 34 23 35 24 36 25 37 26 38 27 39 28 40 29 41 30 42 82 43
REMARK SMILES IDX 31 44 81 45 32 46 33 47 34 48 75 49 35 50 80 51 74 52 76 53
REMARK SMILES IDX 36 54 79 55 73 56 72 57 37 59 63 60 46 61 62 62 47 63 50 64
REMARK SMILES IDX 61 65 77 66 48 67 49 68 60 70 78 71 51 72 38 73 39 74 44 75
REMARK SMILES IDX 40 76 41 77 43 78 45 79 42 80 64 81 65 82 70 83 66 84 67 85
REMARK SMILES IDX 69 86 71 87 68 88 52 89 53 90 58 91 54 92 55 93 57 94 59 95
REMARK SMILES IDX 56 96
REMARK H PARENT 7 17 76 58 50 69
REMARK Flexibility Score: inf
ROOT
ATOM      1  C   UNL A   1      32.813  27.574  22.859  1.00  0.00     0.188 C 
ENDROOT
BRANCH   1   2
ATOM      2  C   UNL A   1      33.605  27.619  24.177  1.00  0.00     0.188 C 
BRANCH   2   3
ATOM      3  O   UNL A   1      32.848  27.250  25.328  1.00  0.00    -0.376 OA
BRANCH   3   4
ATOM      4  C   UNL A   1      33.195  26.006  25.924  1.00  0.00     0.202 C 
BRANCH   4   5
ATOM      5  C   UNL A   1      32.092  24.945  25.828  1.00  0.00     0.261 C 
BRANCH   5   6
ATOM      6  O   UNL A   1      32.531  23.696  25.272  1.00  0.00    -0.460 OA
BRANCH   6   7
ATOM      7  C   UNL A   1      31.598  22.713  25.165  1.00  0.00     0.342 C 
ATOM      8  O   UNL A   1      30.562  22.674  25.802  1.00  0.00    -0.246 OA
BRANCH   7   9
ATOM      9  C   UNL A   1      31.898  21.773  24.097  1.00  0.00     0.111 A 
ATOM     10  C   UNL A   1      32.507  20.519  24.160  1.00  0.00     0.140 A 
ATOM     11  N   UNL A   1      32.353  20.005  22.897  1.00  0.00    -0.262 N 
ATOM     12  C   UNL A   1      31.622  21.971  22.730  1.00  0.00     0.151 A 
ATOM     13  N   UNL A   1      31.964  20.921  21.985  1.00  0.00    -0.180 NA
ATOM     14  C   UNL A   1      32.414  18.624  22.478  1.00  0.00     0.174 C 
BRANCH  10  15
ATOM     15  C   UNL A   1      32.935  19.810  25.334  1.00  0.00     0.274 C 
ATOM     16  N   UNL A   1      34.134  20.036  25.964  1.00  0.00    -0.321 N 
ATOM     17  H   UNL A   1      34.308  19.354  26.652  1.00  0.00     0.170 HD
ATOM     18  O   UNL A   1      32.253  18.895  25.803  1.00  0.00    -0.267 OA
BRANCH  16  19
ATOM     19  C   UNL A   1      35.183  20.971  25.900  1.00  0.00     0.045 A 
ATOM     20  C   UNL A   1      37.456  21.778  25.515  1.00  0.00     0.163 A 
ATOM     21  C   UNL A   1      36.503  20.731  25.516  1.00  0.00     0.076 A 
ATOM     22  C   UNL A   1      37.070  23.090  25.812  1.00  0.00     0.168 A 
ATOM     23  C   UNL A   1      35.744  23.329  26.171  1.00  0.00     0.053 A 
ATOM     24  C   UNL A   1      34.821  22.285  26.229  1.00  0.00     0.030 A 
BRANCH  20  25
ATOM     25  O   UNL A   1      38.744  21.535  25.112  1.00  0.00    -0.490 OA
BRANCH  25  26
ATOM     26  C   UNL A   1      39.525  20.837  26.091  1.00  0.00     0.226 C 
ATOM     27  C   UNL A   1      40.977  21.266  25.951  1.00  0.00     0.049 C 
ENDBRANCH  25  26
ENDBRANCH  20  25
BRANCH  22  28
ATOM     28  O   UNL A   1      37.811  24.234  25.726  1.00  0.00    -0.431 OA
BRANCH  28  29
ATOM     29  C   UNL A   1      38.637  24.612  26.818  1.00  0.00     0.542 C 
ATOM     30  F   UNL A   1      39.064  23.523  27.499  1.00  0.00    -0.167 F 
ATOM     31  F   UNL A   1      39.700  25.324  26.382  1.00  0.00    -0.167 F 
ENDBRANCH  28  29
ENDBRANCH  22  28
ENDBRANCH  16  19
ENDBRANCH  10  15
ENDBRANCH   7   9
ENDBRANCH   6   7
ENDBRANCH   5   6
ENDBRANCH   4   5
ENDBRANCH   3   4
ENDBRANCH   2   3
ENDBRANCH   1   2
BRANCH   1  32
ATOM     32  O   UNL A   1      32.265  28.794  22.395  1.00  0.00    -0.377 OA
BRANCH  32  33
ATOM     33  C   UNL A   1      30.856  28.994  22.441  1.00  0.00     0.188 C 
BRANCH  33  34
ATOM     34  C   UNL A   1      30.175  29.816  23.554  1.00  0.00     0.188 C 
BRANCH  34  35
ATOM     35  O   UNL A   1      30.692  29.595  24.862  1.00  0.00    -0.376 OA
BRANCH  35  36
ATOM     36  C   UNL A   1      31.175  30.741  25.549  1.00  0.00     0.202 C 
BRANCH  36  37
ATOM     37  C   UNL A   1      32.608  30.568  26.062  1.00  0.00     0.261 C 
BRANCH  37  38
ATOM     38  O   UNL A   1      32.795  30.964  27.429  1.00  0.00    -0.460 OA
BRANCH  38  39
ATOM     39  C   UNL A   1      33.600  32.026  27.650  1.00  0.00     0.338 C 
ATOM     40  O   UNL A   1      33.304  33.206  27.615  1.00  0.00    -0.246 OA
BRANCH  39  41
ATOM     41  C   UNL A   1      34.901  31.512  28.109  1.00  0.00     0.060 A 
ATOM     42  C   UNL A   1      35.033  30.143  28.371  1.00  0.00     0.016 A 
ATOM     43  C   UNL A   1      35.979  32.384  28.289  1.00  0.00     0.016 A 
ATOM     44  C   UNL A   1      36.241  29.647  28.857  1.00  0.00     0.010 A 
ATOM     45  C   UNL A   1      37.182  31.888  28.788  1.00  0.00     0.010 A 
ATOM     46  C   UNL A   1      37.305  30.525  29.106  1.00  0.00    -0.014 A 
BRANCH  46  47
ATOM     47  C   UNL A   1      38.477  30.063  29.881  1.00  0.00     0.031 A 
ATOM     48  C   UNL A   1      38.654  30.580  31.280  1.00  0.00     0.074 A 
ATOM     49  C   UNL A   1      39.373  29.214  29.351  1.00  0.00     0.049 A 
ATOM     50  N   UNL A   1      39.613  30.347  32.138  1.00  0.00    -0.248 NA
ATOM     51  C   UNL A   1      37.605  31.486  31.777  1.00  0.00     0.031 C 
ATOM     52  C   UNL A   1      39.300  28.630  28.014  1.00  0.00     0.029 A 
ATOM     53  N   UNL A   1      40.531  28.706  29.882  1.00  0.00    -0.354 N 
ATOM     54  C   UNL A   1      39.283  31.073  33.274  1.00  0.00     0.074 A 
ATOM     55  C   UNL A   1      38.054  31.781  32.987  1.00  0.00     0.031 C 
ATOM     56  C   UNL A   1      40.376  27.845  27.825  1.00  0.00     0.029 A 
ATOM     57  C   UNL A   1      41.220  27.893  29.018  1.00  0.00     0.049 A 
ATOM     58  H   UNL A   1      40.839  28.906  30.796  1.00  0.00     0.167 HD
ATOM     59  C   UNL A   1      39.940  31.140  34.455  1.00  0.00     0.037 A 
ATOM     60  C   UNL A   1      42.404  27.271  29.174  1.00  0.00     0.037 A 
ATOM     61  C   UNL A   1      41.169  30.450  34.737  1.00  0.00     0.049 A 
ATOM     62  C   UNL A   1      43.155  27.419  30.470  1.00  0.00     0.074 A 
ATOM     63  C   UNL A   1      41.901  30.435  35.910  1.00  0.00     0.029 A 
ATOM     64  N   UNL A   1      41.854  29.662  33.825  1.00  0.00    -0.354 N 
ATOM     65  N   UNL A   1      42.818  28.075  31.554  1.00  0.00    -0.248 NA
ATOM     66  C   UNL A   1      44.456  26.739  30.563  1.00  0.00     0.031 C 
ATOM     67  C   UNL A   1      43.054  29.671  35.694  1.00  0.00     0.029 A 
ATOM     68  C   UNL A   1      43.016  29.177  34.399  1.00  0.00     0.049 A 
ATOM     69  H   UNL A   1      41.557  29.475  32.905  1.00  0.00     0.167 HD
ATOM     70  C   UNL A   1      43.845  27.866  32.464  1.00  0.00     0.074 A 
ATOM     71  C   UNL A   1      44.818  27.017  31.807  1.00  0.00     0.031 C 
ATOM     72  C   UNL A   1      43.972  28.332  33.731  1.00  0.00     0.037 A 
BRANCH  59  73
ATOM     73  C   UNL A   1      39.343  32.014  35.516  1.00  0.00     0.057 A 
ATOM     74  C   UNL A   1      38.461  31.505  36.478  1.00  0.00     0.134 A 
ATOM     75  C   UNL A   1      39.647  33.378  35.571  1.00  0.00     0.134 A 
ATOM     76  F   UNL A   1      38.114  30.209  36.466  1.00  0.00    -0.206 F 
ATOM     77  C   UNL A   1      37.883  32.330  37.445  1.00  0.00     0.040 A 
ATOM     78  C   UNL A   1      39.093  34.209  36.546  1.00  0.00     0.040 A 
ATOM     79  F   UNL A   1      40.483  33.927  34.676  1.00  0.00    -0.206 F 
ATOM     80  C   UNL A   1      38.203  33.686  37.481  1.00  0.00     0.006 A 
ENDBRANCH  59  73
BRANCH  60  81
ATOM     81  C   UNL A   1      42.957  26.447  28.072  1.00  0.00     0.057 A 
ATOM     82  C   UNL A   1      42.701  25.073  28.001  1.00  0.00     0.134 A 
ATOM     83  C   UNL A   1      43.764  27.007  27.075  1.00  0.00     0.134 A 
ATOM     84  F   UNL A   1      41.955  24.476  28.943  1.00  0.00    -0.206 F 
ATOM     85  C   UNL A   1      43.235  24.283  26.982  1.00  0.00     0.040 A 
ATOM     86  C   UNL A   1      44.289  26.232  26.039  1.00  0.00     0.040 A 
ATOM     87  F   UNL A   1      44.049  28.318  27.091  1.00  0.00    -0.206 F 
ATOM     88  C   UNL A   1      44.028  24.864  25.994  1.00  0.00     0.006 A 
ENDBRANCH  60  81
BRANCH  72  89
ATOM     89  C   UNL A   1      45.189  27.912  34.500  1.00  0.00     0.057 A 
ATOM     90  C   UNL A   1      46.358  28.683  34.510  1.00  0.00     0.134 A 
ATOM     91  C   UNL A   1      45.174  26.747  35.278  1.00  0.00     0.134 A 
ATOM     92  F   UNL A   1      46.440  29.803  33.777  1.00  0.00    -0.206 F 
ATOM     93  C   UNL A   1      47.476  28.300  35.254  1.00  0.00     0.040 A 
ATOM     94  C   UNL A   1      46.278  26.366  36.043  1.00  0.00     0.040 A 
ATOM     95  F   UNL A   1      44.082  25.969  35.318  1.00  0.00    -0.206 F 
ATOM     96  C   UNL A   1      47.435  27.142  36.029  1.00  0.00     0.006 A 
ENDBRANCH  72  89
ENDBRANCH  46  47
ENDBRANCH  39  41
ENDBRANCH  38  39
ENDBRANCH  37  38
ENDBRANCH  36  37
ENDBRANCH  35  36
ENDBRANCH  34  35
ENDBRANCH  33  34
ENDBRANCH  32  33
ENDBRANCH   1  32
TORSDOF 26
ENDMDL
