MODEL 1
REMARK VINA RESULT:     -10.9      0.000      0.000
REMARK SMILES O=C(OCCOCCOCCOCCOC(=O)c1ccc(-c2c3nc(c(-c4c(F)cccc4F)c4ccc([nH]4)c(-c4c(F)cccc4F)c4nc(c(-c5c(F)cccc5F)c5ccc2[nH]5)C=C4)C=C3)cc1)C1=Cc2cc(Cl)cc(C#Cc3ccccc3)c2O[C@@H]1C(F)(F)F
REMARK SMILES IDX 9 1 8 2 7 3 6 4 5 5 4 6 3 7 2 8 1 9 72 10 73 11 90 12 74 13
REMARK SMILES IDX 89 14 75 15 88 16 76 17 79 18 77 19 78 20 91 21 92 22 93 23
REMARK SMILES IDX 94 24 80 25 81 26 82 27 83 28 87 29 84 30 86 31 85 32 10 33
REMARK SMILES IDX 11 34 12 35 13 36 14 37 15 38 16 39 17 40 18 41 19 42 71 43
REMARK SMILES IDX 20 44 70 45 21 46 22 47 23 48 64 49 24 50 69 51 63 52 65 53
REMARK SMILES IDX 25 54 68 55 62 56 61 57 26 59 52 60 35 61 51 62 36 63 39 64
REMARK SMILES IDX 50 65 66 66 37 67 38 68 49 70 67 71 40 72 27 73 28 74 33 75
REMARK SMILES IDX 29 76 30 77 32 78 34 79 31 80 53 81 54 82 59 83 55 84 56 85
REMARK SMILES IDX 58 86 60 87 57 88 41 89 42 90 47 91 43 92 44 93 46 94 48 95
REMARK SMILES IDX 45 96
REMARK H PARENT 65 58 39 69
REMARK Flexibility Score: inf
ROOT
ATOM      1  O   UNL A   1      38.778  21.700  25.720  1.00  0.00    -0.377 OA
ENDROOT
BRANCH   1   2
ATOM      2  C   UNL A   1      38.029  22.820  26.180  1.00  0.00     0.188 C 
BRANCH   2   3
ATOM      3  C   UNL A   1      36.611  22.799  25.622  1.00  0.00     0.188 C 
BRANCH   3   4
ATOM      4  O   UNL A   1      36.004  21.530  25.732  1.00  0.00    -0.376 OA
BRANCH   4   5
ATOM      5  C   UNL A   1      34.907  21.402  26.616  1.00  0.00     0.202 C 
BRANCH   5   6
ATOM      6  C   UNL A   1      34.096  22.669  26.889  1.00  0.00     0.261 C 
BRANCH   6   7
ATOM      7  O   UNL A   1      32.678  22.472  26.764  1.00  0.00    -0.460 OA
BRANCH   7   8
ATOM      8  C   UNL A   1      31.945  23.558  26.400  1.00  0.00     0.338 C 
ATOM      9  O   UNL A   1      31.209  24.145  27.179  1.00  0.00    -0.246 OA
BRANCH   8  10
ATOM     10  C   UNL A   1      32.008  23.873  24.939  1.00  0.00     0.087 C 
ATOM     11  C   UNL A   1      30.847  24.275  24.388  1.00  0.00     0.027 C 
ATOM     12  C   UNL A   1      33.268  24.533  24.475  1.00  0.00     0.316 C 
ATOM     13  C   UNL A   1      30.785  25.721  24.093  1.00  0.00     0.020 A 
ATOM     14  O   UNL A   1      33.143  25.992  24.426  1.00  0.00    -0.474 OA
ATOM     15  C   UNL A   1      29.595  26.297  23.656  1.00  0.00     0.032 A 
ATOM     16  C   UNL A   1      31.874  26.541  24.440  1.00  0.00     0.143 A 
ATOM     17  C   UNL A   1      29.468  27.682  23.668  1.00  0.00     0.043 A 
ATOM     18  C   UNL A   1      31.647  27.915  24.718  1.00  0.00     0.069 A 
ATOM     19  Cl  UNL A   1      28.043  28.410  23.037  1.00  0.00    -0.084 Cl
ATOM     20  C   UNL A   1      30.449  28.480  24.262  1.00  0.00     0.041 A 
BRANCH  12  21
ATOM     21  C   UNL A   1      33.890  23.803  23.274  1.00  0.00     0.430 C 
ATOM     22  F   UNL A   1      33.653  22.473  23.315  1.00  0.00    -0.167 F 
ATOM     23  F   UNL A   1      33.319  24.252  22.119  1.00  0.00    -0.167 F 
ATOM     24  F   UNL A   1      35.219  23.994  23.155  1.00  0.00    -0.167 F 
ENDBRANCH  12  21
BRANCH  18  25
ATOM     25  C   UNL A   1      32.415  28.730  25.671  1.00  0.00    -0.058 C 
ATOM     26  C   UNL A   1      33.092  29.503  26.310  1.00  0.00    -0.062 C 
BRANCH  26  27
ATOM     27  C   UNL A   1      33.893  30.438  27.106  1.00  0.00     0.025 A 
ATOM     28  C   UNL A   1      35.214  30.118  27.417  1.00  0.00     0.017 A 
ATOM     29  C   UNL A   1      33.448  31.697  27.510  1.00  0.00     0.017 A 
ATOM     30  C   UNL A   1      36.076  30.993  28.094  1.00  0.00     0.001 A 
ATOM     31  C   UNL A   1      34.340  32.617  28.104  1.00  0.00     0.001 A 
ATOM     32  C   UNL A   1      35.657  32.274  28.387  1.00  0.00     0.000 A 
ENDBRANCH  26  27
ENDBRANCH  18  25
ENDBRANCH   8  10
ENDBRANCH   7   8
ENDBRANCH   6   7
ENDBRANCH   5   6
ENDBRANCH   4   5
ENDBRANCH   3   4
ENDBRANCH   2   3
ENDBRANCH   1   2
BRANCH   1  33
ATOM     33  C   UNL A   1      39.994  21.449  26.413  1.00  0.00     0.188 C 
BRANCH  33  34
ATOM     34  C   UNL A   1      40.695  20.108  26.121  1.00  0.00     0.188 C 
BRANCH  34  35
ATOM     35  O   UNL A   1      42.063  20.066  25.728  1.00  0.00    -0.376 OA
BRANCH  35  36
ATOM     36  C   UNL A   1      42.624  18.802  25.438  1.00  0.00     0.202 C 
BRANCH  36  37
ATOM     37  C   UNL A   1      43.991  18.547  26.104  1.00  0.00     0.261 C 
BRANCH  37  38
ATOM     38  O   UNL A   1      45.135  18.404  25.222  1.00  0.00    -0.460 OA
BRANCH  38  39
ATOM     39  C   UNL A   1      45.168  19.135  24.077  1.00  0.00     0.338 C 
ATOM     40  O   UNL A   1      45.143  18.704  22.938  1.00  0.00    -0.246 OA
BRANCH  39  41
ATOM     41  C   UNL A   1      45.145  20.597  24.410  1.00  0.00     0.060 A 
ATOM     42  C   UNL A   1      44.566  21.523  23.526  1.00  0.00     0.016 A 
ATOM     43  C   UNL A   1      45.687  21.077  25.601  1.00  0.00     0.016 A 
ATOM     44  C   UNL A   1      44.507  22.911  23.830  1.00  0.00     0.010 A 
ATOM     45  C   UNL A   1      45.626  22.457  25.897  1.00  0.00     0.010 A 
ATOM     46  C   UNL A   1      45.037  23.414  25.024  1.00  0.00    -0.014 A 
BRANCH  46  47
ATOM     47  C   UNL A   1      45.129  24.887  25.400  1.00  0.00     0.031 A 
ATOM     48  C   UNL A   1      46.512  25.494  25.469  1.00  0.00     0.074 A 
ATOM     49  C   UNL A   1      44.105  25.710  25.748  1.00  0.00     0.049 A 
ATOM     50  N   UNL A   1      46.925  26.596  26.045  1.00  0.00    -0.248 NA
ATOM     51  C   UNL A   1      47.577  24.740  24.787  1.00  0.00     0.031 C 
ATOM     52  C   UNL A   1      42.682  25.451  25.591  1.00  0.00     0.029 A 
ATOM     53  N   UNL A   1      44.122  26.943  26.391  1.00  0.00    -0.354 N 
ATOM     54  C   UNL A   1      48.291  26.655  25.805  1.00  0.00     0.074 A 
ATOM     55  C   UNL A   1      48.654  25.432  25.122  1.00  0.00     0.031 C 
ATOM     56  C   UNL A   1      41.972  26.387  26.253  1.00  0.00     0.029 A 
ATOM     57  C   UNL A   1      42.886  27.336  26.877  1.00  0.00     0.049 A 
ATOM     58  H   UNL A   1      44.937  27.487  26.492  1.00  0.00     0.167 HD
ATOM     59  C   UNL A   1      49.164  27.656  26.059  1.00  0.00     0.037 A 
ATOM     60  C   UNL A   1      42.525  28.313  27.743  1.00  0.00     0.037 A 
ATOM     61  C   UNL A   1      48.819  28.923  26.645  1.00  0.00     0.049 A 
ATOM     62  C   UNL A   1      43.545  29.333  28.188  1.00  0.00     0.074 A 
ATOM     63  C   UNL A   1      49.625  30.036  26.813  1.00  0.00     0.029 A 
ATOM     64  N   UNL A   1      47.575  29.248  27.153  1.00  0.00    -0.354 N 
ATOM     65  N   UNL A   1      44.816  29.408  27.889  1.00  0.00    -0.248 NA
ATOM     66  C   UNL A   1      43.065  30.444  29.031  1.00  0.00     0.031 C 
ATOM     67  C   UNL A   1      48.888  31.014  27.482  1.00  0.00     0.029 A 
ATOM     68  C   UNL A   1      47.607  30.528  27.682  1.00  0.00     0.049 A 
ATOM     69  H   UNL A   1      46.787  28.659  27.142  1.00  0.00     0.167 HD
ATOM     70  C   UNL A   1      45.261  30.612  28.425  1.00  0.00     0.074 A 
ATOM     71  C   UNL A   1      44.137  31.221  29.098  1.00  0.00     0.031 C 
ATOM     72  C   UNL A   1      46.492  31.168  28.328  1.00  0.00     0.037 A 
BRANCH  59  73
ATOM     73  C   UNL A   1      50.594  27.438  25.667  1.00  0.00     0.057 A 
ATOM     74  C   UNL A   1      51.049  27.684  24.366  1.00  0.00     0.134 A 
ATOM     75  C   UNL A   1      51.532  27.016  26.616  1.00  0.00     0.134 A 
ATOM     76  F   UNL A   1      50.195  28.081  23.410  1.00  0.00    -0.206 F 
ATOM     77  C   UNL A   1      52.382  27.485  24.013  1.00  0.00     0.040 A 
ATOM     78  C   UNL A   1      52.875  26.847  26.283  1.00  0.00     0.040 A 
ATOM     79  F   UNL A   1      51.160  26.774  27.883  1.00  0.00    -0.206 F 
ATOM     80  C   UNL A   1      53.301  27.073  24.975  1.00  0.00     0.006 A 
ENDBRANCH  59  73
BRANCH  60  81
ATOM     81  C   UNL A   1      41.138  28.423  28.292  1.00  0.00     0.057 A 
ATOM     82  C   UNL A   1      40.789  27.890  29.539  1.00  0.00     0.134 A 
ATOM     83  C   UNL A   1      40.086  28.901  27.500  1.00  0.00     0.134 A 
ATOM     84  F   UNL A   1      41.727  27.331  30.317  1.00  0.00    -0.206 F 
ATOM     85  C   UNL A   1      39.457  27.825  29.967  1.00  0.00     0.040 A 
ATOM     86  C   UNL A   1      38.756  28.884  27.931  1.00  0.00     0.040 A 
ATOM     87  F   UNL A   1      40.321  29.316  26.249  1.00  0.00    -0.206 F 
ATOM     88  C   UNL A   1      38.436  28.332  29.166  1.00  0.00     0.006 A 
ENDBRANCH  60  81
BRANCH  72  89
ATOM     89  C   UNL A   1      46.699  32.545  28.890  1.00  0.00     0.057 A 
ATOM     90  C   UNL A   1      47.165  32.757  30.191  1.00  0.00     0.134 A 
ATOM     91  C   UNL A   1      46.505  33.675  28.082  1.00  0.00     0.134 A 
ATOM     92  F   UNL A   1      47.356  31.722  31.023  1.00  0.00    -0.206 F 
ATOM     93  C   UNL A   1      47.427  34.042  30.672  1.00  0.00     0.040 A 
ATOM     94  C   UNL A   1      46.791  34.961  28.540  1.00  0.00     0.040 A 
ATOM     95  F   UNL A   1      46.063  33.543  26.821  1.00  0.00    -0.206 F 
ATOM     96  C   UNL A   1      47.252  35.147  29.840  1.00  0.00     0.006 A 
ENDBRANCH  72  89
ENDBRANCH  46  47
ENDBRANCH  39  41
ENDBRANCH  38  39
ENDBRANCH  37  38
ENDBRANCH  36  37
ENDBRANCH  35  36
ENDBRANCH  34  35
ENDBRANCH  33  34
ENDBRANCH   1  33
TORSDOF 23
ENDMDL
MODEL 2
REMARK VINA RESULT:     -10.3      0.789      5.862
REMARK SMILES O=C(OCCOCCOCCOCCOC(=O)c1ccc(-c2c3nc(c(-c4c(F)cccc4F)c4ccc([nH]4)c(-c4c(F)cccc4F)c4nc(c(-c5c(F)cccc5F)c5ccc2[nH]5)C=C4)C=C3)cc1)C1=Cc2cc(Cl)cc(C#Cc3ccccc3)c2O[C@@H]1C(F)(F)F
REMARK SMILES IDX 9 1 8 2 7 3 6 4 5 5 4 6 3 7 2 8 1 9 72 10 73 11 90 12 74 13
REMARK SMILES IDX 89 14 75 15 88 16 76 17 79 18 77 19 78 20 91 21 92 22 93 23
REMARK SMILES IDX 94 24 80 25 81 26 82 27 83 28 87 29 84 30 86 31 85 32 10 33
REMARK SMILES IDX 11 34 12 35 13 36 14 37 15 38 16 39 17 40 18 41 19 42 71 43
REMARK SMILES IDX 20 44 70 45 21 46 22 47 23 48 64 49 24 50 69 51 63 52 65 53
REMARK SMILES IDX 25 54 68 55 62 56 61 57 26 59 52 60 35 61 51 62 36 63 39 64
REMARK SMILES IDX 50 65 66 66 37 67 38 68 49 70 67 71 40 72 27 73 28 74 33 75
REMARK SMILES IDX 29 76 30 77 32 78 34 79 31 80 53 81 54 82 59 83 55 84 56 85
REMARK SMILES IDX 58 86 60 87 57 88 41 89 42 90 47 91 43 92 44 93 46 94 48 95
REMARK SMILES IDX 45 96
REMARK H PARENT 65 58 39 69
REMARK Flexibility Score: inf
ROOT
ATOM      1  O   UNL A   1      39.010  22.294  25.998  1.00  0.00    -0.377 OA
ENDROOT
BRANCH   1   2
ATOM      2  C   UNL A   1      38.213  23.365  26.494  1.00  0.00     0.188 C 
BRANCH   2   3
ATOM      3  C   UNL A   1      36.898  23.470  25.729  1.00  0.00     0.188 C 
BRANCH   3   4
ATOM      4  O   UNL A   1      36.300  22.213  25.503  1.00  0.00    -0.376 OA
BRANCH   4   5
ATOM      5  C   UNL A   1      35.212  21.845  26.329  1.00  0.00     0.202 C 
BRANCH   5   6
ATOM      6  C   UNL A   1      34.301  22.977  26.804  1.00  0.00     0.261 C 
BRANCH   6   7
ATOM      7  O   UNL A   1      32.905  22.633  26.771  1.00  0.00    -0.460 OA
BRANCH   7   8
ATOM      8  C   UNL A   1      32.046  23.620  26.400  1.00  0.00     0.338 C 
ATOM      9  O   UNL A   1      31.294  24.168  27.191  1.00  0.00    -0.246 OA
BRANCH   8  10
ATOM     10  C   UNL A   1      32.002  23.864  24.925  1.00  0.00     0.087 C 
ATOM     11  C   UNL A   1      30.797  24.212  24.437  1.00  0.00     0.027 C 
ATOM     12  C   UNL A   1      33.211  24.532  24.346  1.00  0.00     0.316 C 
ATOM     13  C   UNL A   1      30.676  25.640  24.079  1.00  0.00     0.020 A 
ATOM     14  O   UNL A   1      33.043  25.983  24.238  1.00  0.00    -0.474 OA
ATOM     15  C   UNL A   1      29.444  26.165  23.698  1.00  0.00     0.032 A 
ATOM     16  C   UNL A   1      31.763  26.501  24.313  1.00  0.00     0.143 A 
ATOM     17  C   UNL A   1      29.280  27.546  23.654  1.00  0.00     0.043 A 
ATOM     18  C   UNL A   1      31.518  27.882  24.541  1.00  0.00     0.069 A 
ATOM     19  Cl  UNL A   1      27.797  28.208  23.089  1.00  0.00    -0.084 Cl
ATOM     20  C   UNL A   1      30.277  28.395  24.142  1.00  0.00     0.041 A 
BRANCH  12  21
ATOM     21  C   UNL A   1      33.771  23.760  23.141  1.00  0.00     0.430 C 
ATOM     22  F   UNL A   1      35.118  23.843  23.072  1.00  0.00    -0.167 F 
ATOM     23  F   UNL A   1      33.482  22.433  23.272  1.00  0.00    -0.167 F 
ATOM     24  F   UNL A   1      33.259  24.159  21.960  1.00  0.00    -0.167 F 
ENDBRANCH  12  21
BRANCH  18  25
ATOM     25  C   UNL A   1      32.325  28.760  25.401  1.00  0.00    -0.058 C 
ATOM     26  C   UNL A   1      33.034  29.330  26.200  1.00  0.00    -0.062 C 
BRANCH  26  27
ATOM     27  C   UNL A   1      33.902  30.037  27.146  1.00  0.00     0.025 A 
ATOM     28  C   UNL A   1      35.027  29.395  27.659  1.00  0.00     0.017 A 
ATOM     29  C   UNL A   1      33.728  31.373  27.511  1.00  0.00     0.017 A 
ATOM     30  C   UNL A   1      35.957  30.029  28.496  1.00  0.00     0.001 A 
ATOM     31  C   UNL A   1      34.712  32.042  28.273  1.00  0.00     0.001 A 
ATOM     32  C   UNL A   1      35.832  31.378  28.758  1.00  0.00     0.000 A 
ENDBRANCH  26  27
ENDBRANCH  18  25
ENDBRANCH   8  10
ENDBRANCH   7   8
ENDBRANCH   6   7
ENDBRANCH   5   6
ENDBRANCH   4   5
ENDBRANCH   3   4
ENDBRANCH   2   3
ENDBRANCH   1   2
BRANCH   1  33
ATOM     33  C   UNL A   1      40.161  21.978  26.771  1.00  0.00     0.188 C 
BRANCH  33  34
ATOM     34  C   UNL A   1      40.775  20.580  26.561  1.00  0.00     0.188 C 
BRANCH  34  35
ATOM     35  O   UNL A   1      42.092  20.428  26.042  1.00  0.00    -0.376 OA
BRANCH  35  36
ATOM     36  C   UNL A   1      42.487  19.139  25.622  1.00  0.00     0.202 C 
BRANCH  36  37
ATOM     37  C   UNL A   1      43.980  18.826  25.848  1.00  0.00     0.261 C 
BRANCH  37  38
ATOM     38  O   UNL A   1      44.834  18.814  24.674  1.00  0.00    -0.460 OA
BRANCH  38  39
ATOM     39  C   UNL A   1      44.727  19.834  23.782  1.00  0.00     0.338 C 
ATOM     40  O   UNL A   1      44.316  19.760  22.638  1.00  0.00    -0.246 OA
BRANCH  39  41
ATOM     41  C   UNL A   1      45.108  21.125  24.444  1.00  0.00     0.060 A 
ATOM     42  C   UNL A   1      45.750  21.125  25.695  1.00  0.00     0.016 A 
ATOM     43  C   UNL A   1      44.845  22.353  23.841  1.00  0.00     0.016 A 
ATOM     44  C   UNL A   1      46.145  22.334  26.331  1.00  0.00     0.010 A 
ATOM     45  C   UNL A   1      45.239  23.551  24.480  1.00  0.00     0.010 A 
ATOM     46  C   UNL A   1      45.898  23.579  25.740  1.00  0.00    -0.014 A 
BRANCH  46  47
ATOM     47  C   UNL A   1      46.176  24.933  26.380  1.00  0.00     0.031 A 
ATOM     48  C   UNL A   1      44.977  25.745  26.817  1.00  0.00     0.074 A 
ATOM     49  C   UNL A   1      47.385  25.529  26.545  1.00  0.00     0.049 A 
ATOM     50  N   UNL A   1      44.876  27.021  27.095  1.00  0.00    -0.248 NA
ATOM     51  C   UNL A   1      43.715  25.000  26.957  1.00  0.00     0.031 C 
ATOM     52  C   UNL A   1      48.694  24.912  26.391  1.00  0.00     0.029 A 
ATOM     53  N   UNL A   1      47.704  26.855  26.822  1.00  0.00    -0.354 N 
ATOM     54  C   UNL A   1      43.544  27.228  27.426  1.00  0.00     0.074 A 
ATOM     55  C   UNL A   1      42.857  25.972  27.217  1.00  0.00     0.031 C 
ATOM     56  C   UNL A   1      49.652  25.862  26.408  1.00  0.00     0.029 A 
ATOM     57  C   UNL A   1      49.033  27.169  26.592  1.00  0.00     0.049 A 
ATOM     58  H   UNL A   1      47.045  27.510  27.149  1.00  0.00     0.167 HD
ATOM     59  C   UNL A   1      42.946  28.333  27.927  1.00  0.00     0.037 A 
ATOM     60  C   UNL A   1      49.678  28.357  26.506  1.00  0.00     0.037 A 
ATOM     61  C   UNL A   1      43.618  29.564  28.240  1.00  0.00     0.049 A 
ATOM     62  C   UNL A   1      48.958  29.629  26.882  1.00  0.00     0.074 A 
ATOM     63  C   UNL A   1      43.103  30.683  28.871  1.00  0.00     0.029 A 
ATOM     64  N   UNL A   1      44.941  29.840  27.951  1.00  0.00    -0.354 N 
ATOM     65  N   UNL A   1      47.716  29.789  27.261  1.00  0.00    -0.248 NA
ATOM     66  C   UNL A   1      49.747  30.875  26.887  1.00  0.00     0.031 C 
ATOM     67  C   UNL A   1      44.097  31.663  28.908  1.00  0.00     0.029 A 
ATOM     68  C   UNL A   1      45.246  31.133  28.346  1.00  0.00     0.049 A 
ATOM     69  H   UNL A   1      45.572  29.214  27.527  1.00  0.00     0.167 HD
ATOM     70  C   UNL A   1      47.603  31.123  27.637  1.00  0.00     0.074 A 
ATOM     71  C   UNL A   1      48.889  31.741  27.408  1.00  0.00     0.031 C 
ATOM     72  C   UNL A   1      46.528  31.759  28.159  1.00  0.00     0.037 A 
BRANCH  59  73
ATOM     73  C   UNL A   1      41.476  28.252  28.207  1.00  0.00     0.057 A 
ATOM     74  C   UNL A   1      40.983  27.877  29.464  1.00  0.00     0.134 A 
ATOM     75  C   UNL A   1      40.546  28.593  27.218  1.00  0.00     0.134 A 
ATOM     76  F   UNL A   1      41.826  27.529  30.448  1.00  0.00    -0.206 F 
ATOM     77  C   UNL A   1      39.614  27.813  29.717  1.00  0.00     0.040 A 
ATOM     78  C   UNL A   1      39.176  28.565  27.471  1.00  0.00     0.040 A 
ATOM     79  F   UNL A   1      40.956  28.971  25.997  1.00  0.00    -0.206 F 
ATOM     80  C   UNL A   1      38.707  28.165  28.721  1.00  0.00     0.006 A 
ENDBRANCH  59  73
BRANCH  60  81
ATOM     81  C   UNL A   1      51.095  28.465  26.038  1.00  0.00     0.057 A 
ATOM     82  C   UNL A   1      51.437  28.399  24.683  1.00  0.00     0.134 A 
ATOM     83  C   UNL A   1      52.157  28.451  26.953  1.00  0.00     0.134 A 
ATOM     84  F   UNL A   1      50.476  28.317  23.751  1.00  0.00    -0.206 F 
ATOM     85  C   UNL A   1      52.770  28.309  24.261  1.00  0.00     0.040 A 
ATOM     86  C   UNL A   1      53.495  28.408  26.547  1.00  0.00     0.040 A 
ATOM     87  F   UNL A   1      51.912  28.392  28.267  1.00  0.00    -0.206 F 
ATOM     88  C   UNL A   1      53.805  28.323  25.194  1.00  0.00     0.006 A 
ENDBRANCH  60  81
BRANCH  72  89
ATOM     89  C   UNL A   1      46.687  33.184  28.603  1.00  0.00     0.057 A 
ATOM     90  C   UNL A   1      46.392  34.264  27.765  1.00  0.00     0.134 A 
ATOM     91  C   UNL A   1      47.066  33.475  29.922  1.00  0.00     0.134 A 
ATOM     92  F   UNL A   1      46.040  34.057  26.487  1.00  0.00    -0.206 F 
ATOM     93  C   UNL A   1      46.470  35.582  28.219  1.00  0.00     0.040 A 
ATOM     94  C   UNL A   1      47.119  34.786  30.397  1.00  0.00     0.040 A 
ATOM     95  F   UNL A   1      47.359  32.486  30.780  1.00  0.00    -0.206 F 
ATOM     96  C   UNL A   1      46.822  35.845  29.543  1.00  0.00     0.006 A 
ENDBRANCH  72  89
ENDBRANCH  46  47
ENDBRANCH  39  41
ENDBRANCH  38  39
ENDBRANCH  37  38
ENDBRANCH  36  37
ENDBRANCH  35  36
ENDBRANCH  34  35
ENDBRANCH  33  34
ENDBRANCH   1  33
TORSDOF 23
ENDMDL
MODEL 3
REMARK VINA RESULT:      -9.8      6.225     12.154
REMARK SMILES O=C(OCCOCCOCCOCCOC(=O)c1ccc(-c2c3nc(c(-c4c(F)cccc4F)c4ccc([nH]4)c(-c4c(F)cccc4F)c4nc(c(-c5c(F)cccc5F)c5ccc2[nH]5)C=C4)C=C3)cc1)C1=Cc2cc(Cl)cc(C#Cc3ccccc3)c2O[C@@H]1C(F)(F)F
REMARK SMILES IDX 9 1 8 2 7 3 6 4 5 5 4 6 3 7 2 8 1 9 72 10 73 11 90 12 74 13
REMARK SMILES IDX 89 14 75 15 88 16 76 17 79 18 77 19 78 20 91 21 92 22 93 23
REMARK SMILES IDX 94 24 80 25 81 26 82 27 83 28 87 29 84 30 86 31 85 32 10 33
REMARK SMILES IDX 11 34 12 35 13 36 14 37 15 38 16 39 17 40 18 41 19 42 71 43
REMARK SMILES IDX 20 44 70 45 21 46 22 47 23 48 64 49 24 50 69 51 63 52 65 53
REMARK SMILES IDX 25 54 68 55 62 56 61 57 26 59 52 60 35 61 51 62 36 63 39 64
REMARK SMILES IDX 50 65 66 66 37 67 38 68 49 70 67 71 40 72 27 73 28 74 33 75
REMARK SMILES IDX 29 76 30 77 32 78 34 79 31 80 53 81 54 82 59 83 55 84 56 85
REMARK SMILES IDX 58 86 60 87 57 88 41 89 42 90 47 91 43 92 44 93 46 94 48 95
REMARK SMILES IDX 45 96
REMARK H PARENT 65 58 39 69
REMARK Flexibility Score: inf
ROOT
ATOM      1  O   UNL A   1      50.241  30.305  30.860  1.00  0.00    -0.377 OA
ENDROOT
BRANCH   1   2
ATOM      2  C   UNL A   1      48.837  30.072  30.866  1.00  0.00     0.188 C 
BRANCH   2   3
ATOM      3  C   UNL A   1      48.372  29.484  29.538  1.00  0.00     0.188 C 
BRANCH   3   4
ATOM      4  O   UNL A   1      49.447  29.136  28.694  1.00  0.00    -0.376 OA
BRANCH   4   5
ATOM      5  C   UNL A   1      49.802  27.769  28.612  1.00  0.00     0.202 C 
BRANCH   5   6
ATOM      6  C   UNL A   1      49.091  26.940  27.541  1.00  0.00     0.261 C 
BRANCH   6   7
ATOM      7  O   UNL A   1      48.152  25.997  28.085  1.00  0.00    -0.460 OA
BRANCH   7   8
ATOM      8  C   UNL A   1      47.533  25.176  27.196  1.00  0.00     0.338 C 
ATOM      9  O   UNL A   1      48.065  24.170  26.749  1.00  0.00    -0.246 OA
BRANCH   8  10
ATOM     10  C   UNL A   1      46.217  25.691  26.707  1.00  0.00     0.087 C 
ATOM     11  C   UNL A   1      45.444  24.785  26.079  1.00  0.00     0.027 C 
ATOM     12  C   UNL A   1      45.544  26.688  27.597  1.00  0.00     0.316 C 
ATOM     13  C   UNL A   1      44.293  24.314  26.876  1.00  0.00     0.020 A 
ATOM     14  O   UNL A   1      44.569  26.061  28.493  1.00  0.00    -0.474 OA
ATOM     15  C   UNL A   1      43.494  23.274  26.407  1.00  0.00     0.032 A 
ATOM     16  C   UNL A   1      44.127  24.786  28.190  1.00  0.00     0.143 A 
ATOM     17  C   UNL A   1      42.613  22.648  27.282  1.00  0.00     0.043 A 
ATOM     18  C   UNL A   1      43.449  23.975  29.138  1.00  0.00     0.069 A 
ATOM     19  Cl  UNL A   1      41.550  21.432  26.693  1.00  0.00    -0.084 Cl
ATOM     20  C   UNL A   1      42.642  22.940  28.649  1.00  0.00     0.041 A 
BRANCH  12  21
ATOM     21  C   UNL A   1      45.136  27.957  26.833  1.00  0.00     0.430 C 
ATOM     22  F   UNL A   1      44.287  27.682  25.817  1.00  0.00    -0.167 F 
ATOM     23  F   UNL A   1      44.463  28.800  27.668  1.00  0.00    -0.167 F 
ATOM     24  F   UNL A   1      46.182  28.648  26.337  1.00  0.00    -0.167 F 
ENDBRANCH  12  21
BRANCH  18  25
ATOM     25  C   UNL A   1      43.726  23.939  30.583  1.00  0.00    -0.058 C 
ATOM     26  C   UNL A   1      44.049  23.757  31.734  1.00  0.00    -0.062 C 
BRANCH  26  27
ATOM     27  C   UNL A   1      44.442  23.565  33.133  1.00  0.00     0.025 A 
ATOM     28  C   UNL A   1      43.465  23.545  34.126  1.00  0.00     0.017 A 
ATOM     29  C   UNL A   1      45.750  23.303  33.545  1.00  0.00     0.017 A 
ATOM     30  C   UNL A   1      43.744  23.276  35.474  1.00  0.00     0.001 A 
ATOM     31  C   UNL A   1      46.022  22.936  34.882  1.00  0.00     0.001 A 
ATOM     32  C   UNL A   1      45.022  22.910  35.846  1.00  0.00     0.000 A 
ENDBRANCH  26  27
ENDBRANCH  18  25
ENDBRANCH   8  10
ENDBRANCH   7   8
ENDBRANCH   6   7
ENDBRANCH   5   6
ENDBRANCH   4   5
ENDBRANCH   3   4
ENDBRANCH   2   3
ENDBRANCH   1   2
BRANCH   1  33
ATOM     33  C   UNL A   1      50.949  29.814  31.992  1.00  0.00     0.188 C 
BRANCH  33  34
ATOM     34  C   UNL A   1      50.391  28.542  32.661  1.00  0.00     0.188 C 
BRANCH  34  35
ATOM     35  O   UNL A   1      50.537  27.267  32.047  1.00  0.00    -0.376 OA
BRANCH  35  36
ATOM     36  C   UNL A   1      50.438  26.126  32.873  1.00  0.00     0.202 C 
BRANCH  36  37
ATOM     37  C   UNL A   1      49.003  25.588  33.045  1.00  0.00     0.261 C 
BRANCH  37  38
ATOM     38  O   UNL A   1      48.503  25.473  34.403  1.00  0.00    -0.460 OA
BRANCH  38  39
ATOM     39  C   UNL A   1      48.277  26.612  35.112  1.00  0.00     0.338 C 
ATOM     40  O   UNL A   1      49.028  27.124  35.923  1.00  0.00    -0.246 OA
BRANCH  39  41
ATOM     41  C   UNL A   1      46.980  27.226  34.679  1.00  0.00     0.060 A 
ATOM     42  C   UNL A   1      46.967  28.378  33.874  1.00  0.00     0.016 A 
ATOM     43  C   UNL A   1      45.756  26.674  35.055  1.00  0.00     0.016 A 
ATOM     44  C   UNL A   1      45.751  28.965  33.428  1.00  0.00     0.010 A 
ATOM     45  C   UNL A   1      44.551  27.263  34.609  1.00  0.00     0.010 A 
ATOM     46  C   UNL A   1      44.511  28.422  33.786  1.00  0.00    -0.014 A 
BRANCH  46  47
ATOM     47  C   UNL A   1      43.152  29.029  33.460  1.00  0.00     0.031 A 
ATOM     48  C   UNL A   1      42.518  28.629  32.146  1.00  0.00     0.074 A 
ATOM     49  C   UNL A   1      42.468  29.947  34.190  1.00  0.00     0.049 A 
ATOM     50  N   UNL A   1      41.552  29.194  31.466  1.00  0.00    -0.248 NA
ATOM     51  C   UNL A   1      43.062  27.414  31.517  1.00  0.00     0.031 C 
ATOM     52  C   UNL A   1      42.744  30.362  35.557  1.00  0.00     0.029 A 
ATOM     53  N   UNL A   1      41.404  30.769  33.831  1.00  0.00    -0.354 N 
ATOM     54  C   UNL A   1      41.387  28.413  30.331  1.00  0.00     0.074 A 
ATOM     55  C   UNL A   1      42.415  27.397  30.363  1.00  0.00     0.031 C 
ATOM     56  C   UNL A   1      42.004  31.447  35.864  1.00  0.00     0.029 A 
ATOM     57  C   UNL A   1      41.178  31.809  34.719  1.00  0.00     0.049 A 
ATOM     58  H   UNL A   1      40.863  30.627  33.022  1.00  0.00     0.167 HD
ATOM     59  C   UNL A   1      40.429  28.478  29.377  1.00  0.00     0.037 A 
ATOM     60  C   UNL A   1      40.428  32.932  34.621  1.00  0.00     0.037 A 
ATOM     61  C   UNL A   1      39.336  29.411  29.368  1.00  0.00     0.049 A 
ATOM     62  C   UNL A   1      39.489  33.107  33.453  1.00  0.00     0.074 A 
ATOM     63  C   UNL A   1      38.254  29.453  28.505  1.00  0.00     0.029 A 
ATOM     64  N   UNL A   1      39.181  30.458  30.257  1.00  0.00    -0.354 N 
ATOM     65  N   UNL A   1      39.298  32.317  32.427  1.00  0.00    -0.248 NA
ATOM     66  C   UNL A   1      38.609  34.289  33.465  1.00  0.00     0.031 C 
ATOM     67  C   UNL A   1      37.476  30.565  28.831  1.00  0.00     0.029 A 
ATOM     68  C   UNL A   1      38.046  31.184  29.931  1.00  0.00     0.049 A 
ATOM     69  H   UNL A   1      39.785  30.659  31.007  1.00  0.00     0.167 HD
ATOM     70  C   UNL A   1      38.222  32.855  31.729  1.00  0.00     0.074 A 
ATOM     71  C   UNL A   1      37.822  34.057  32.424  1.00  0.00     0.031 C 
ATOM     72  C   UNL A   1      37.609  32.364  30.627  1.00  0.00     0.037 A 
BRANCH  59  73
ATOM     73  C   UNL A   1      40.499  27.477  28.264  1.00  0.00     0.057 A 
ATOM     74  C   UNL A   1      39.877  26.225  28.357  1.00  0.00     0.134 A 
ATOM     75  C   UNL A   1      41.161  27.787  27.071  1.00  0.00     0.134 A 
ATOM     76  F   UNL A   1      39.235  25.866  29.480  1.00  0.00    -0.206 F 
ATOM     77  C   UNL A   1      39.940  25.303  27.314  1.00  0.00     0.040 A 
ATOM     78  C   UNL A   1      41.201  26.887  26.008  1.00  0.00     0.040 A 
ATOM     79  F   UNL A   1      41.767  28.975  26.917  1.00  0.00    -0.206 F 
ATOM     80  C   UNL A   1      40.597  25.637  26.132  1.00  0.00     0.006 A 
ENDBRANCH  59  73
BRANCH  60  81
ATOM     81  C   UNL A   1      40.498  34.031  35.635  1.00  0.00     0.057 A 
ATOM     82  C   UNL A   1      39.575  34.134  36.682  1.00  0.00     0.134 A 
ATOM     83  C   UNL A   1      41.380  35.107  35.469  1.00  0.00     0.134 A 
ATOM     84  F   UNL A   1      38.640  33.188  36.849  1.00  0.00    -0.206 F 
ATOM     85  C   UNL A   1      39.525  35.261  37.513  1.00  0.00     0.040 A 
ATOM     86  C   UNL A   1      41.373  36.218  36.318  1.00  0.00     0.040 A 
ATOM     87  F   UNL A   1      42.213  35.139  34.422  1.00  0.00    -0.206 F 
ATOM     88  C   UNL A   1      40.432  36.304  37.338  1.00  0.00     0.006 A 
ENDBRANCH  60  81
BRANCH  72  89
ATOM     89  C   UNL A   1      36.380  33.064  30.123  1.00  0.00     0.057 A 
ATOM     90  C   UNL A   1      36.413  33.934  29.028  1.00  0.00     0.134 A 
ATOM     91  C   UNL A   1      35.128  32.796  30.696  1.00  0.00     0.134 A 
ATOM     92  F   UNL A   1      37.580  34.247  28.443  1.00  0.00    -0.206 F 
ATOM     93  C   UNL A   1      35.249  34.516  28.523  1.00  0.00     0.040 A 
ATOM     94  C   UNL A   1      33.954  33.347  30.183  1.00  0.00     0.040 A 
ATOM     95  F   UNL A   1      35.023  31.968  31.746  1.00  0.00    -0.206 F 
ATOM     96  C   UNL A   1      34.012  34.212  29.093  1.00  0.00     0.006 A 
ENDBRANCH  72  89
ENDBRANCH  46  47
ENDBRANCH  39  41
ENDBRANCH  38  39
ENDBRANCH  37  38
ENDBRANCH  36  37
ENDBRANCH  35  36
ENDBRANCH  34  35
ENDBRANCH  33  34
ENDBRANCH   1  33
TORSDOF 23
ENDMDL
