MODEL 1
REMARK VINA RESULT:     -10.6      0.000      0.000
REMARK SMILES CCOc1c(CNC(=O)[C@H]2CCCC[C@@H]2C(=O)OCCOCCOCCOCCOC(=O)c2ccc(-c3c4nc(c(-c5c(F)cccc5F)c5ccc([nH]5)c(-c5c(F)cccc5F)c5nc(c(-c6c(F)cccc6F)c6ccc3[nH]6)C=C5)C=C4)cc2)cccc1OC
REMARK SMILES IDX 22 1 21 2 20 3 19 4 18 5 16 6 17 7 15 8 10 9 11 10 12 11
REMARK SMILES IDX 14 12 13 13 8 14 7 15 9 17 6 18 5 19 4 20 90 21 87 22 89 23
REMARK SMILES IDX 88 24 3 25 2 26 1 27 91 28 92 29 23 30 24 31 25 32 26 33
REMARK SMILES IDX 27 34 28 35 29 36 30 37 31 38 32 39 33 40 34 41 86 42 35 43
REMARK SMILES IDX 85 44 36 45 37 46 38 47 79 48 39 49 84 50 78 51 80 52 40 53
REMARK SMILES IDX 83 54 77 55 76 56 41 58 67 59 50 60 66 61 51 62 54 63 65 64
REMARK SMILES IDX 81 65 52 66 53 67 64 69 82 70 55 71 42 72 43 73 48 74 44 75
REMARK SMILES IDX 45 76 47 77 49 78 46 79 68 80 69 81 74 82 70 83 71 84 73 85
REMARK SMILES IDX 75 86 72 87 56 88 57 89 62 90 58 91 59 92 61 93 63 94 60 95
REMARK H PARENT 7 16 80 57 54 68
REMARK Flexibility Score: inf
ROOT
ATOM      1  C   UNL A   1      42.076  20.040  26.227  1.00  0.00     0.188 C 
ENDROOT
BRANCH   1   2
ATOM      2  O   UNL A   1      40.672  20.050  26.135  1.00  0.00    -0.376 OA
BRANCH   2   3
ATOM      3  C   UNL A   1      39.903  21.134  26.619  1.00  0.00     0.202 C 
BRANCH   3   4
ATOM      4  C   UNL A   1      39.091  22.112  25.752  1.00  0.00     0.261 C 
BRANCH   4   5
ATOM      5  O   UNL A   1      37.674  21.944  25.687  1.00  0.00    -0.463 OA
BRANCH   5   6
ATOM      6  C   UNL A   1      36.958  23.080  25.519  1.00  0.00     0.309 C 
ATOM      7  O   UNL A   1      37.261  24.156  26.027  1.00  0.00    -0.252 OA
BRANCH   6   8
ATOM      8  C   UNL A   1      35.680  22.910  24.711  1.00  0.00     0.111 C 
ATOM      9  C   UNL A   1      34.779  24.089  25.086  1.00  0.00     0.092 C 
ATOM     10  C   UNL A   1      34.119  23.876  26.454  1.00  0.00     0.014 C 
ATOM     11  C   UNL A   1      33.679  22.462  26.864  1.00  0.00     0.001 C 
ATOM     12  C   UNL A   1      34.853  21.625  24.759  1.00  0.00     0.016 C 
ATOM     13  C   UNL A   1      34.310  21.287  26.132  1.00  0.00     0.001 C 
BRANCH   9  14
ATOM     14  C   UNL A   1      34.050  24.521  23.815  1.00  0.00     0.224 C 
ATOM     15  N   UNL A   1      32.787  24.978  23.751  1.00  0.00    -0.352 N 
ATOM     16  H   UNL A   1      32.442  25.060  22.832  1.00  0.00     0.163 HD
ATOM     17  O   UNL A   1      34.615  24.380  22.722  1.00  0.00    -0.275 OA
BRANCH  15  18
ATOM     18  C   UNL A   1      31.837  25.375  24.762  1.00  0.00     0.155 C 
BRANCH  18  19
ATOM     19  C   UNL A   1      30.820  26.395  24.293  1.00  0.00     0.017 A 
ATOM     20  C   UNL A   1      31.198  27.667  23.791  1.00  0.00     0.166 A 
ATOM     21  C   UNL A   1      30.214  28.509  23.222  1.00  0.00     0.161 A 
ATOM     22  C   UNL A   1      29.452  26.035  24.248  1.00  0.00     0.010 A 
ATOM     23  C   UNL A   1      28.874  28.102  23.192  1.00  0.00     0.050 A 
ATOM     24  C   UNL A   1      28.490  26.875  23.704  1.00  0.00     0.004 A 
BRANCH  20  25
ATOM     25  O   UNL A   1      32.513  28.044  23.666  1.00  0.00    -0.490 OA
BRANCH  25  26
ATOM     26  C   UNL A   1      33.034  28.928  24.664  1.00  0.00     0.226 C 
ATOM     27  C   UNL A   1      34.091  28.219  25.495  1.00  0.00     0.049 C 
ENDBRANCH  25  26
ENDBRANCH  20  25
BRANCH  21  28
ATOM     28  O   UNL A   1      30.376  29.716  22.591  1.00  0.00    -0.493 OA
ATOM     29  C   UNL A   1      29.222  30.430  22.197  1.00  0.00     0.278 C 
ENDBRANCH  21  28
ENDBRANCH  18  19
ENDBRANCH  15  18
ENDBRANCH   9  14
ENDBRANCH   6   8
ENDBRANCH   5   6
ENDBRANCH   4   5
ENDBRANCH   3   4
ENDBRANCH   2   3
ENDBRANCH   1   2
BRANCH   1  30
ATOM     30  C   UNL A   1      42.774  18.883  25.496  1.00  0.00     0.188 C 
BRANCH  30  31
ATOM     31  O   UNL A   1      44.004  18.377  25.997  1.00  0.00    -0.377 OA
BRANCH  31  32
ATOM     32  C   UNL A   1      45.233  18.688  25.346  1.00  0.00     0.188 C 
BRANCH  32  33
ATOM     33  C   UNL A   1      45.380  19.982  24.521  1.00  0.00     0.188 C 
BRANCH  33  34
ATOM     34  O   UNL A   1      46.435  20.830  24.934  1.00  0.00    -0.376 OA
BRANCH  34  35
ATOM     35  C   UNL A   1      46.101  22.127  25.405  1.00  0.00     0.202 C 
BRANCH  35  36
ATOM     36  C   UNL A   1      45.867  23.234  24.364  1.00  0.00     0.261 C 
BRANCH  36  37
ATOM     37  O   UNL A   1      44.908  24.248  24.714  1.00  0.00    -0.460 OA
BRANCH  37  38
ATOM     38  C   UNL A   1      43.615  23.876  24.837  1.00  0.00     0.338 C 
ATOM     39  O   UNL A   1      43.093  22.861  24.431  1.00  0.00    -0.246 OA
BRANCH  38  40
ATOM     40  C   UNL A   1      42.953  24.857  25.723  1.00  0.00     0.060 A 
ATOM     41  C   UNL A   1      43.488  26.147  25.831  1.00  0.00     0.016 A 
ATOM     42  C   UNL A   1      41.828  24.490  26.465  1.00  0.00     0.016 A 
ATOM     43  C   UNL A   1      42.924  27.063  26.718  1.00  0.00     0.010 A 
ATOM     44  C   UNL A   1      41.277  25.402  27.368  1.00  0.00     0.010 A 
ATOM     45  C   UNL A   1      41.848  26.679  27.527  1.00  0.00    -0.014 A 
BRANCH  45  46
ATOM     46  C   UNL A   1      41.457  27.533  28.675  1.00  0.00     0.031 A 
ATOM     47  C   UNL A   1      42.263  27.439  29.942  1.00  0.00     0.074 A 
ATOM     48  C   UNL A   1      40.431  28.398  28.588  1.00  0.00     0.049 A 
ATOM     49  N   UNL A   1      42.096  28.054  31.084  1.00  0.00    -0.248 NA
ATOM     50  C   UNL A   1      43.415  26.522  29.916  1.00  0.00     0.031 C 
ATOM     51  C   UNL A   1      39.605  28.617  27.404  1.00  0.00     0.029 A 
ATOM     52  N   UNL A   1      39.910  29.253  29.527  1.00  0.00    -0.354 N 
ATOM     53  C   UNL A   1      43.111  27.593  31.913  1.00  0.00     0.074 A 
ATOM     54  C   UNL A   1      43.871  26.624  31.155  1.00  0.00     0.031 C 
ATOM     55  C   UNL A   1      38.673  29.542  27.690  1.00  0.00     0.029 A 
ATOM     56  C   UNL A   1      38.814  29.953  29.085  1.00  0.00     0.049 A 
ATOM     57  H   UNL A   1      40.286  29.355  30.432  1.00  0.00     0.167 HD
ATOM     58  C   UNL A   1      43.389  27.950  33.189  1.00  0.00     0.037 A 
ATOM     59  C   UNL A   1      38.007  30.808  29.743  1.00  0.00     0.037 A 
ATOM     60  C   UNL A   1      42.632  28.915  33.940  1.00  0.00     0.049 A 
ATOM     61  C   UNL A   1      38.290  31.128  31.190  1.00  0.00     0.074 A 
ATOM     62  C   UNL A   1      42.848  29.363  35.231  1.00  0.00     0.029 A 
ATOM     63  N   UNL A   1      41.505  29.574  33.471  1.00  0.00    -0.354 N 
ATOM     64  N   UNL A   1      39.270  30.710  31.957  1.00  0.00    -0.248 NA
ATOM     65  C   UNL A   1      37.355  32.043  31.862  1.00  0.00     0.031 C 
ATOM     66  C   UNL A   1      41.814  30.243  35.567  1.00  0.00     0.029 A 
ATOM     67  C   UNL A   1      40.995  30.399  34.460  1.00  0.00     0.049 A 
ATOM     68  H   UNL A   1      41.125  29.470  32.569  1.00  0.00     0.167 HD
ATOM     69  C   UNL A   1      39.089  31.339  33.183  1.00  0.00     0.074 A 
ATOM     70  C   UNL A   1      37.916  32.175  33.055  1.00  0.00     0.031 C 
ATOM     71  C   UNL A   1      39.830  31.234  34.316  1.00  0.00     0.037 A 
BRANCH  58  72
ATOM     72  C   UNL A   1      44.541  27.264  33.866  1.00  0.00     0.057 A 
ATOM     73  C   UNL A   1      45.840  27.789  33.846  1.00  0.00     0.134 A 
ATOM     74  C   UNL A   1      44.339  26.074  34.577  1.00  0.00     0.134 A 
ATOM     75  F   UNL A   1      46.107  28.918  33.171  1.00  0.00    -0.206 F 
ATOM     76  C   UNL A   1      46.899  27.144  34.488  1.00  0.00     0.040 A 
ATOM     77  C   UNL A   1      45.383  25.437  35.249  1.00  0.00     0.040 A 
ATOM     78  F   UNL A   1      43.120  25.517  34.640  1.00  0.00    -0.206 F 
ATOM     79  C   UNL A   1      46.669  25.968  35.199  1.00  0.00     0.006 A 
ENDBRANCH  58  72
BRANCH  59  80
ATOM     80  C   UNL A   1      36.838  31.417  29.055  1.00  0.00     0.057 A 
ATOM     81  C   UNL A   1      35.693  30.665  28.763  1.00  0.00     0.134 A 
ATOM     82  C   UNL A   1      36.855  32.751  28.631  1.00  0.00     0.134 A 
ATOM     83  F   UNL A   1      35.625  29.373  29.118  1.00  0.00    -0.206 F 
ATOM     84  C   UNL A   1      34.620  31.209  28.055  1.00  0.00     0.040 A 
ATOM     85  C   UNL A   1      35.776  33.317  27.950  1.00  0.00     0.040 A 
ATOM     86  F   UNL A   1      37.921  33.527  28.876  1.00  0.00    -0.206 F 
ATOM     87  C   UNL A   1      34.658  32.541  27.650  1.00  0.00     0.006 A 
ENDBRANCH  59  80
BRANCH  71  88
ATOM     88  C   UNL A   1      39.424  32.082  35.489  1.00  0.00     0.057 A 
ATOM     89  C   UNL A   1      39.832  33.416  35.623  1.00  0.00     0.134 A 
ATOM     90  C   UNL A   1      38.581  31.564  36.483  1.00  0.00     0.134 A 
ATOM     91  F   UNL A   1      40.647  33.972  34.714  1.00  0.00    -0.206 F 
ATOM     92  C   UNL A   1      39.443  34.192  36.717  1.00  0.00     0.040 A 
ATOM     93  C   UNL A   1      38.159  32.340  37.562  1.00  0.00     0.040 A 
ATOM     94  F   UNL A   1      38.141  30.299  36.411  1.00  0.00    -0.206 F 
ATOM     95  C   UNL A   1      38.598  33.656  37.686  1.00  0.00     0.006 A 
ENDBRANCH  71  88
ENDBRANCH  45  46
ENDBRANCH  38  40
ENDBRANCH  37  38
ENDBRANCH  36  37
ENDBRANCH  35  36
ENDBRANCH  34  35
ENDBRANCH  33  34
ENDBRANCH  32  33
ENDBRANCH  31  32
ENDBRANCH  30  31
ENDBRANCH   1  30
TORSDOF 26
ENDMDL
MODEL 2
REMARK VINA RESULT:      -9.8      1.190      6.148
REMARK SMILES CCOc1c(CNC(=O)[C@H]2CCCC[C@@H]2C(=O)OCCOCCOCCOCCOC(=O)c2ccc(-c3c4nc(c(-c5c(F)cccc5F)c5ccc([nH]5)c(-c5c(F)cccc5F)c5nc(c(-c6c(F)cccc6F)c6ccc3[nH]6)C=C5)C=C4)cc2)cccc1OC
REMARK SMILES IDX 22 1 21 2 20 3 19 4 18 5 16 6 17 7 15 8 10 9 11 10 12 11
REMARK SMILES IDX 14 12 13 13 8 14 7 15 9 17 6 18 5 19 4 20 90 21 87 22 89 23
REMARK SMILES IDX 88 24 3 25 2 26 1 27 91 28 92 29 23 30 24 31 25 32 26 33
REMARK SMILES IDX 27 34 28 35 29 36 30 37 31 38 32 39 33 40 34 41 86 42 35 43
REMARK SMILES IDX 85 44 36 45 37 46 38 47 79 48 39 49 84 50 78 51 80 52 40 53
REMARK SMILES IDX 83 54 77 55 76 56 41 58 67 59 50 60 66 61 51 62 54 63 65 64
REMARK SMILES IDX 81 65 52 66 53 67 64 69 82 70 55 71 42 72 43 73 48 74 44 75
REMARK SMILES IDX 45 76 47 77 49 78 46 79 68 80 69 81 74 82 70 83 71 84 73 85
REMARK SMILES IDX 75 86 72 87 56 88 57 89 62 90 58 91 59 92 61 93 63 94 60 95
REMARK H PARENT 7 16 80 57 54 68
REMARK Flexibility Score: inf
ROOT
ATOM      1  C   UNL A   1      40.112  21.863  26.182  1.00  0.00     0.188 C 
ENDROOT
BRANCH   1   2
ATOM      2  O   UNL A   1      39.221  22.910  26.482  1.00  0.00    -0.376 OA
BRANCH   2   3
ATOM      3  C   UNL A   1      37.931  22.976  25.904  1.00  0.00     0.202 C 
BRANCH   3   4
ATOM      4  C   UNL A   1      37.151  21.785  25.322  1.00  0.00     0.261 C 
BRANCH   4   5
ATOM      5  O   UNL A   1      35.868  21.482  25.871  1.00  0.00    -0.463 OA
BRANCH   5   6
ATOM      6  C   UNL A   1      34.961  20.983  24.999  1.00  0.00     0.309 C 
ATOM      7  O   UNL A   1      34.834  19.785  24.761  1.00  0.00    -0.252 OA
BRANCH   6   8
ATOM      8  C   UNL A   1      34.154  22.036  24.253  1.00  0.00     0.111 C 
ATOM      9  C   UNL A   1      34.279  23.325  25.068  1.00  0.00     0.092 C 
ATOM     10  C   UNL A   1      33.374  23.295  26.306  1.00  0.00     0.014 C 
ATOM     11  C   UNL A   1      31.997  22.620  26.213  1.00  0.00     0.001 C 
ATOM     12  C   UNL A   1      32.684  21.825  23.889  1.00  0.00     0.016 C 
ATOM     13  C   UNL A   1      31.770  21.630  25.080  1.00  0.00     0.001 C 
BRANCH   9  14
ATOM     14  C   UNL A   1      34.369  24.481  24.072  1.00  0.00     0.224 C 
ATOM     15  N   UNL A   1      33.966  25.744  24.297  1.00  0.00    -0.352 N 
ATOM     16  H   UNL A   1      33.963  26.307  23.488  1.00  0.00     0.163 HD
ATOM     17  O   UNL A   1      34.772  24.252  22.924  1.00  0.00    -0.275 OA
BRANCH  15  18
ATOM     18  C   UNL A   1      33.540  26.439  25.487  1.00  0.00     0.155 C 
BRANCH  18  19
ATOM     19  C   UNL A   1      32.788  27.726  25.219  1.00  0.00     0.017 A 
ATOM     20  C   UNL A   1      31.729  27.805  24.278  1.00  0.00     0.166 A 
ATOM     21  C   UNL A   1      30.965  28.992  24.192  1.00  0.00     0.161 A 
ATOM     22  C   UNL A   1      33.073  28.867  26.006  1.00  0.00     0.010 A 
ATOM     23  C   UNL A   1      31.280  30.091  25.001  1.00  0.00     0.050 A 
ATOM     24  C   UNL A   1      32.329  30.035  25.902  1.00  0.00     0.004 A 
BRANCH  20  25
ATOM     25  O   UNL A   1      31.292  26.710  23.574  1.00  0.00    -0.490 OA
BRANCH  25  26
ATOM     26  C   UNL A   1      30.543  25.728  24.297  1.00  0.00     0.226 C 
ATOM     27  C   UNL A   1      29.058  26.049  24.237  1.00  0.00     0.049 C 
ENDBRANCH  25  26
ENDBRANCH  20  25
BRANCH  21  28
ATOM     28  O   UNL A   1      29.846  29.240  23.439  1.00  0.00    -0.493 OA
ATOM     29  C   UNL A   1      30.014  29.626  22.089  1.00  0.00     0.278 C 
ENDBRANCH  21  28
ENDBRANCH  18  19
ENDBRANCH  15  18
ENDBRANCH   9  14
ENDBRANCH   6   8
ENDBRANCH   5   6
ENDBRANCH   4   5
ENDBRANCH   3   4
ENDBRANCH   2   3
ENDBRANCH   1   2
BRANCH   1  30
ATOM     30  C   UNL A   1      40.731  21.158  27.400  1.00  0.00     0.188 C 
BRANCH  30  31
ATOM     31  O   UNL A   1      42.132  20.925  27.437  1.00  0.00    -0.377 OA
BRANCH  31  32
ATOM     32  C   UNL A   1      42.676  19.707  26.938  1.00  0.00     0.188 C 
BRANCH  32  33
ATOM     33  C   UNL A   1      42.760  19.447  25.421  1.00  0.00     0.188 C 
BRANCH  33  34
ATOM     34  O   UNL A   1      43.967  19.867  24.814  1.00  0.00    -0.376 OA
BRANCH  34  35
ATOM     35  C   UNL A   1      44.456  21.162  25.131  1.00  0.00     0.202 C 
BRANCH  35  36
ATOM     36  C   UNL A   1      43.766  22.373  24.481  1.00  0.00     0.261 C 
BRANCH  36  37
ATOM     37  O   UNL A   1      43.281  23.389  25.376  1.00  0.00    -0.460 OA
BRANCH  37  38
ATOM     38  C   UNL A   1      43.927  24.576  25.390  1.00  0.00     0.338 C 
ATOM     39  O   UNL A   1      44.822  24.942  24.660  1.00  0.00    -0.246 OA
BRANCH  38  40
ATOM     40  C   UNL A   1      43.231  25.450  26.358  1.00  0.00     0.060 A 
ATOM     41  C   UNL A   1      43.659  26.776  26.508  1.00  0.00     0.016 A 
ATOM     42  C   UNL A   1      42.182  24.950  27.133  1.00  0.00     0.016 A 
ATOM     43  C   UNL A   1      43.066  27.594  27.468  1.00  0.00     0.010 A 
ATOM     44  C   UNL A   1      41.603  25.765  28.108  1.00  0.00     0.010 A 
ATOM     45  C   UNL A   1      42.071  27.077  28.307  1.00  0.00    -0.014 A 
BRANCH  45  46
ATOM     46  C   UNL A   1      41.669  27.837  29.516  1.00  0.00     0.031 A 
ATOM     47  C   UNL A   1      40.472  28.745  29.424  1.00  0.00     0.074 A 
ATOM     48  C   UNL A   1      42.326  27.701  30.681  1.00  0.00     0.049 A 
ATOM     49  N   UNL A   1      39.951  29.533  30.328  1.00  0.00    -0.248 NA
ATOM     50  C   UNL A   1      39.769  28.767  28.130  1.00  0.00     0.031 C 
ATOM     51  C   UNL A   1      43.467  26.819  30.912  1.00  0.00     0.029 A 
ATOM     52  N   UNL A   1      42.123  28.316  31.891  1.00  0.00    -0.354 N 
ATOM     53  C   UNL A   1      38.870  30.151  29.713  1.00  0.00     0.074 A 
ATOM     54  C   UNL A   1      38.826  29.671  28.350  1.00  0.00     0.031 C 
ATOM     55  C   UNL A   1      43.871  26.955  32.187  1.00  0.00     0.029 A 
ATOM     56  C   UNL A   1      43.040  27.959  32.850  1.00  0.00     0.049 A 
ATOM     57  H   UNL A   1      41.389  28.952  32.057  1.00  0.00     0.167 HD
ATOM     58  C   UNL A   1      37.988  31.033  30.239  1.00  0.00     0.037 A 
ATOM     59  C   UNL A   1      43.200  28.411  34.109  1.00  0.00     0.037 A 
ATOM     60  C   UNL A   1      38.034  31.507  31.597  1.00  0.00     0.049 A 
ATOM     61  C   UNL A   1      42.253  29.455  34.646  1.00  0.00     0.074 A 
ATOM     62  C   UNL A   1      37.172  32.384  32.232  1.00  0.00     0.029 A 
ATOM     63  N   UNL A   1      39.000  31.152  32.526  1.00  0.00    -0.354 N 
ATOM     64  N   UNL A   1      41.215  30.012  34.067  1.00  0.00    -0.248 NA
ATOM     65  C   UNL A   1      42.499  29.932  36.015  1.00  0.00     0.031 C 
ATOM     66  C   UNL A   1      37.655  32.610  33.525  1.00  0.00     0.029 A 
ATOM     67  C   UNL A   1      38.776  31.820  33.719  1.00  0.00     0.049 A 
ATOM     68  H   UNL A   1      39.737  30.520  32.361  1.00  0.00     0.167 HD
ATOM     69  C   UNL A   1      40.666  30.871  35.012  1.00  0.00     0.074 A 
ATOM     70  C   UNL A   1      41.477  30.753  36.204  1.00  0.00     0.031 C 
ATOM     71  C   UNL A   1      39.586  31.686  34.903  1.00  0.00     0.037 A 
BRANCH  58  72
ATOM     72  C   UNL A   1      36.920  31.572  29.331  1.00  0.00     0.057 A 
ATOM     73  C   UNL A   1      35.782  30.827  28.992  1.00  0.00     0.134 A 
ATOM     74  C   UNL A   1      37.018  32.870  28.814  1.00  0.00     0.134 A 
ATOM     75  F   UNL A   1      35.632  29.572  29.439  1.00  0.00    -0.206 F 
ATOM     76  C   UNL A   1      34.794  31.346  28.153  1.00  0.00     0.040 A 
ATOM     77  C   UNL A   1      36.021  33.411  28.001  1.00  0.00     0.040 A 
ATOM     78  F   UNL A   1      38.079  33.640  29.101  1.00  0.00    -0.206 F 
ATOM     79  C   UNL A   1      34.909  32.645  27.662  1.00  0.00     0.006 A 
ENDBRANCH  58  72
BRANCH  59  80
ATOM     80  C   UNL A   1      44.310  27.898  34.955  1.00  0.00     0.057 A 
ATOM     81  C   UNL A   1      44.162  26.738  35.725  1.00  0.00     0.134 A 
ATOM     82  C   UNL A   1      45.530  28.579  35.048  1.00  0.00     0.134 A 
ATOM     83  F   UNL A   1      43.008  26.055  35.701  1.00  0.00    -0.206 F 
ATOM     84  C   UNL A   1      45.174  26.289  36.575  1.00  0.00     0.040 A 
ATOM     85  C   UNL A   1      46.562  28.124  35.869  1.00  0.00     0.040 A 
ATOM     86  F   UNL A   1      45.738  29.698  34.338  1.00  0.00    -0.206 F 
ATOM     87  C   UNL A   1      46.381  26.980  36.645  1.00  0.00     0.006 A 
ENDBRANCH  59  80
BRANCH  71  88
ATOM     88  C   UNL A   1      39.187  32.474  36.119  1.00  0.00     0.057 A 
ATOM     89  C   UNL A   1      38.322  31.958  37.093  1.00  0.00     0.134 A 
ATOM     90  C   UNL A   1      39.708  33.758  36.336  1.00  0.00     0.134 A 
ATOM     91  F   UNL A   1      37.780  30.740  36.943  1.00  0.00    -0.206 F 
ATOM     92  C   UNL A   1      37.965  32.700  38.220  1.00  0.00     0.040 A 
ATOM     93  C   UNL A   1      39.385  34.495  37.475  1.00  0.00     0.040 A 
ATOM     94  F   UNL A   1      40.554  34.308  35.453  1.00  0.00    -0.206 F 
ATOM     95  C   UNL A   1      38.502  33.970  38.417  1.00  0.00     0.006 A 
ENDBRANCH  71  88
ENDBRANCH  45  46
ENDBRANCH  38  40
ENDBRANCH  37  38
ENDBRANCH  36  37
ENDBRANCH  35  36
ENDBRANCH  34  35
ENDBRANCH  33  34
ENDBRANCH  32  33
ENDBRANCH  31  32
ENDBRANCH  30  31
ENDBRANCH   1  30
TORSDOF 26
ENDMDL
MODEL 3
REMARK VINA RESULT:      -9.2      1.426      2.388
REMARK SMILES CCOc1c(CNC(=O)[C@H]2CCCC[C@@H]2C(=O)OCCOCCOCCOCCOC(=O)c2ccc(-c3c4nc(c(-c5c(F)cccc5F)c5ccc([nH]5)c(-c5c(F)cccc5F)c5nc(c(-c6c(F)cccc6F)c6ccc3[nH]6)C=C5)C=C4)cc2)cccc1OC
REMARK SMILES IDX 22 1 21 2 20 3 19 4 18 5 16 6 17 7 15 8 10 9 11 10 12 11
REMARK SMILES IDX 14 12 13 13 8 14 7 15 9 17 6 18 5 19 4 20 90 21 87 22 89 23
REMARK SMILES IDX 88 24 3 25 2 26 1 27 91 28 92 29 23 30 24 31 25 32 26 33
REMARK SMILES IDX 27 34 28 35 29 36 30 37 31 38 32 39 33 40 34 41 86 42 35 43
REMARK SMILES IDX 85 44 36 45 37 46 38 47 79 48 39 49 84 50 78 51 80 52 40 53
REMARK SMILES IDX 83 54 77 55 76 56 41 58 67 59 50 60 66 61 51 62 54 63 65 64
REMARK SMILES IDX 81 65 52 66 53 67 64 69 82 70 55 71 42 72 43 73 48 74 44 75
REMARK SMILES IDX 45 76 47 77 49 78 46 79 68 80 69 81 74 82 70 83 71 84 73 85
REMARK SMILES IDX 75 86 72 87 56 88 57 89 62 90 58 91 59 92 61 93 63 94 60 95
REMARK H PARENT 7 16 80 57 54 68
REMARK Flexibility Score: inf
ROOT
ATOM      1  C   UNL A   1      42.464  19.876  26.166  1.00  0.00     0.188 C 
ENDROOT
BRANCH   1   2
ATOM      2  O   UNL A   1      41.063  19.888  26.038  1.00  0.00    -0.376 OA
BRANCH   2   3
ATOM      3  C   UNL A   1      40.268  20.873  26.670  1.00  0.00     0.202 C 
BRANCH   3   4
ATOM      4  C   UNL A   1      39.488  21.989  25.951  1.00  0.00     0.261 C 
BRANCH   4   5
ATOM      5  O   UNL A   1      38.146  21.723  25.542  1.00  0.00    -0.463 OA
BRANCH   5   6
ATOM      6  C   UNL A   1      37.342  22.806  25.436  1.00  0.00     0.309 C 
ATOM      7  O   UNL A   1      37.539  23.860  26.035  1.00  0.00    -0.252 OA
BRANCH   6   8
ATOM      8  C   UNL A   1      36.106  22.596  24.573  1.00  0.00     0.111 C 
ATOM      9  C   UNL A   1      35.280  23.879  24.692  1.00  0.00     0.092 C 
ATOM     10  C   UNL A   1      34.523  23.936  26.024  1.00  0.00     0.014 C 
ATOM     11  C   UNL A   1      33.948  22.641  26.617  1.00  0.00     0.001 C 
ATOM     12  C   UNL A   1      35.178  21.396  24.761  1.00  0.00     0.016 C 
ATOM     13  C   UNL A   1      34.527  21.321  26.126  1.00  0.00     0.001 C 
BRANCH   9  14
ATOM     14  C   UNL A   1      34.668  24.149  23.319  1.00  0.00     0.224 C 
ATOM     15  N   UNL A   1      34.154  25.321  22.905  1.00  0.00    -0.352 N 
ATOM     16  H   UNL A   1      33.668  25.260  22.050  1.00  0.00     0.163 HD
ATOM     17  O   UNL A   1      34.549  23.211  22.520  1.00  0.00    -0.275 OA
BRANCH  15  18
ATOM     18  C   UNL A   1      34.173  26.651  23.465  1.00  0.00     0.155 C 
BRANCH  18  19
ATOM     19  C   UNL A   1      33.160  26.874  24.569  1.00  0.00     0.017 A 
ATOM     20  C   UNL A   1      31.818  26.427  24.471  1.00  0.00     0.166 A 
ATOM     21  C   UNL A   1      30.970  26.525  25.598  1.00  0.00     0.161 A 
ATOM     22  C   UNL A   1      33.588  27.452  25.789  1.00  0.00     0.010 A 
ATOM     23  C   UNL A   1      31.443  27.095  26.787  1.00  0.00     0.050 A 
ATOM     24  C   UNL A   1      32.743  27.560  26.886  1.00  0.00     0.004 A 
BRANCH  20  25
ATOM     25  O   UNL A   1      31.357  25.731  23.381  1.00  0.00    -0.490 OA
BRANCH  25  26
ATOM     26  C   UNL A   1      30.824  26.499  22.296  1.00  0.00     0.226 C 
ATOM     27  C   UNL A   1      30.449  27.893  22.772  1.00  0.00     0.049 C 
ENDBRANCH  25  26
ENDBRANCH  20  25
BRANCH  21  28
ATOM     28  O   UNL A   1      29.688  26.061  25.751  1.00  0.00    -0.493 OA
ATOM     29  C   UNL A   1      29.484  24.877  26.496  1.00  0.00     0.278 C 
ENDBRANCH  21  28
ENDBRANCH  18  19
ENDBRANCH  15  18
ENDBRANCH   9  14
ENDBRANCH   6   8
ENDBRANCH   5   6
ENDBRANCH   4   5
ENDBRANCH   3   4
ENDBRANCH   2   3
ENDBRANCH   1   2
BRANCH   1  30
ATOM     30  C   UNL A   1      43.180  18.728  25.438  1.00  0.00     0.188 C 
BRANCH  30  31
ATOM     31  O   UNL A   1      44.517  18.399  25.791  1.00  0.00    -0.377 OA
BRANCH  31  32
ATOM     32  C   UNL A   1      45.610  18.884  25.017  1.00  0.00     0.188 C 
BRANCH  32  33
ATOM     33  C   UNL A   1      45.669  20.361  24.579  1.00  0.00     0.188 C 
BRANCH  33  34
ATOM     34  O   UNL A   1      46.270  21.233  25.518  1.00  0.00    -0.376 OA
BRANCH  34  35
ATOM     35  C   UNL A   1      45.430  22.136  26.220  1.00  0.00     0.202 C 
BRANCH  35  36
ATOM     36  C   UNL A   1      45.257  23.553  25.649  1.00  0.00     0.261 C 
BRANCH  36  37
ATOM     37  O   UNL A   1      44.435  24.455  26.411  1.00  0.00    -0.460 OA
BRANCH  37  38
ATOM     38  C   UNL A   1      43.125  24.534  26.091  1.00  0.00     0.338 C 
ATOM     39  O   UNL A   1      42.497  23.810  25.350  1.00  0.00    -0.246 OA
BRANCH  38  40
ATOM     40  C   UNL A   1      42.519  25.575  26.949  1.00  0.00     0.060 A 
ATOM     41  C   UNL A   1      42.931  26.906  26.797  1.00  0.00     0.016 A 
ATOM     42  C   UNL A   1      41.575  25.229  27.917  1.00  0.00     0.016 A 
ATOM     43  C   UNL A   1      42.429  27.890  27.646  1.00  0.00     0.010 A 
ATOM     44  C   UNL A   1      41.088  26.214  28.780  1.00  0.00     0.010 A 
ATOM     45  C   UNL A   1      41.544  27.541  28.674  1.00  0.00    -0.014 A 
BRANCH  45  46
ATOM     46  C   UNL A   1      41.261  28.515  29.756  1.00  0.00     0.031 A 
ATOM     47  C   UNL A   1      42.156  28.520  30.966  1.00  0.00     0.074 A 
ATOM     48  C   UNL A   1      40.254  29.401  29.657  1.00  0.00     0.049 A 
ATOM     49  N   UNL A   1      42.090  29.249  32.050  1.00  0.00    -0.248 NA
ATOM     50  C   UNL A   1      43.280  27.568  30.949  1.00  0.00     0.031 C 
ATOM     51  C   UNL A   1      39.349  29.530  28.518  1.00  0.00     0.029 A 
ATOM     52  N   UNL A   1      39.826  30.360  30.540  1.00  0.00    -0.354 N 
ATOM     53  C   UNL A   1      43.152  28.838  32.846  1.00  0.00     0.074 A 
ATOM     54  C   UNL A   1      43.829  27.776  32.136  1.00  0.00     0.031 C 
ATOM     55  C   UNL A   1      38.463  30.509  28.776  1.00  0.00     0.029 A 
ATOM     56  C   UNL A   1      38.718  31.049  30.109  1.00  0.00     0.049 A 
ATOM     57  H   UNL A   1      40.271  30.538  31.401  1.00  0.00     0.167 HD
ATOM     58  C   UNL A   1      43.533  29.309  34.057  1.00  0.00     0.037 A 
ATOM     59  C   UNL A   1      37.984  31.991  30.735  1.00  0.00     0.037 A 
ATOM     60  C   UNL A   1      42.858  30.368  34.759  1.00  0.00     0.049 A 
ATOM     61  C   UNL A   1      38.382  32.441  32.118  1.00  0.00     0.074 A 
ATOM     62  C   UNL A   1      43.180  30.932  35.981  1.00  0.00     0.029 A 
ATOM     63  N   UNL A   1      41.717  31.014  34.308  1.00  0.00    -0.354 N 
ATOM     64  N   UNL A   1      39.405  32.068  32.851  1.00  0.00    -0.248 NA
ATOM     65  C   UNL A   1      37.523  33.447  32.760  1.00  0.00     0.031 C 
ATOM     66  C   UNL A   1      42.197  31.874  36.299  1.00  0.00     0.029 A 
ATOM     67  C   UNL A   1      41.302  31.948  35.244  1.00  0.00     0.049 A 
ATOM     68  H   UNL A   1      41.268  30.835  33.451  1.00  0.00     0.167 HD
ATOM     69  C   UNL A   1      39.332  32.820  34.018  1.00  0.00     0.074 A 
ATOM     70  C   UNL A   1      38.173  33.677  33.891  1.00  0.00     0.031 C 
ATOM     71  C   UNL A   1      40.151  32.803  35.100  1.00  0.00     0.037 A 
BRANCH  58  72
ATOM     72  C   UNL A   1      44.714  28.656  34.715  1.00  0.00     0.057 A 
ATOM     73  C   UNL A   1      44.584  27.516  35.520  1.00  0.00     0.134 A 
ATOM     74  C   UNL A   1      46.006  29.157  34.512  1.00  0.00     0.134 A 
ATOM     75  F   UNL A   1      43.374  26.992  35.768  1.00  0.00    -0.206 F 
ATOM     76  C   UNL A   1      45.693  26.914  36.117  1.00  0.00     0.040 A 
ATOM     77  C   UNL A   1      47.125  28.545  35.078  1.00  0.00     0.040 A 
ATOM     78  F   UNL A   1      46.204  30.243  33.750  1.00  0.00    -0.206 F 
ATOM     79  C   UNL A   1      46.970  27.424  35.890  1.00  0.00     0.006 A 
ENDBRANCH  58  72
BRANCH  59  80
ATOM     80  C   UNL A   1      36.783  32.566  30.073  1.00  0.00     0.057 A 
ATOM     81  C   UNL A   1      35.494  32.121  30.391  1.00  0.00     0.134 A 
ATOM     82  C   UNL A   1      36.898  33.543  29.076  1.00  0.00     0.134 A 
ATOM     83  F   UNL A   1      35.319  31.169  31.319  1.00  0.00    -0.206 F 
ATOM     84  C   UNL A   1      34.367  32.607  29.726  1.00  0.00     0.040 A 
ATOM     85  C   UNL A   1      35.777  34.059  28.425  1.00  0.00     0.040 A 
ATOM     86  F   UNL A   1      38.103  34.012  28.722  1.00  0.00    -0.206 F 
ATOM     87  C   UNL A   1      34.507  33.582  28.742  1.00  0.00     0.006 A 
ENDBRANCH  59  80
BRANCH  71  88
ATOM     88  C   UNL A   1      39.855  33.774  36.208  1.00  0.00     0.057 A 
ATOM     89  C   UNL A   1      39.086  33.421  37.325  1.00  0.00     0.134 A 
ATOM     90  C   UNL A   1      40.381  35.073  36.174  1.00  0.00     0.134 A 
ATOM     91  F   UNL A   1      38.545  32.197  37.418  1.00  0.00    -0.206 F 
ATOM     92  C   UNL A   1      38.824  34.333  38.350  1.00  0.00     0.040 A 
ATOM     93  C   UNL A   1      40.153  35.982  37.207  1.00  0.00     0.040 A 
ATOM     94  F   UNL A   1      41.137  35.475  35.142  1.00  0.00    -0.206 F 
ATOM     95  C   UNL A   1      39.365  35.616  38.295  1.00  0.00     0.006 A 
ENDBRANCH  71  88
ENDBRANCH  45  46
ENDBRANCH  38  40
ENDBRANCH  37  38
ENDBRANCH  36  37
ENDBRANCH  35  36
ENDBRANCH  34  35
ENDBRANCH  33  34
ENDBRANCH  32  33
ENDBRANCH  31  32
ENDBRANCH  30  31
ENDBRANCH   1  30
TORSDOF 26
ENDMDL
