MODEL 1
REMARK VINA RESULT:     -10.2      0.000      0.000
REMARK SMILES C#Cc1ccc2c(c1)C=C(C(=O)OCCOCCOCCOCCOC(=O)c1ccc(-c3c4nc(c(-c5c(F)cccc5F)c5ccc([nH]5)c(-c5c(F)cccc5F)c5nc(c(-c6c(F)cccc6F)c6ccc3[nH]6)C=C5)C=C4)cc1)[C@@H](C(F)(F)F)O2
REMARK SMILES IDX 20 1 19 2 18 3 17 4 16 5 15 6 14 7 13 8 11 9 12 10 10 11
REMARK SMILES IDX 3 12 4 13 8 14 5 15 7 16 6 17 9 18 87 19 82 20 2 21 1 22
REMARK SMILES IDX 83 23 84 24 85 25 86 26 21 27 22 28 23 29 24 30 25 31 26 32
REMARK SMILES IDX 27 33 28 34 29 35 81 36 30 37 80 38 31 39 32 40 33 41 74 42
REMARK SMILES IDX 34 43 79 44 73 45 75 46 35 47 78 48 72 49 71 50 36 52 62 53
REMARK SMILES IDX 45 54 61 55 46 56 49 57 60 58 76 59 47 60 48 61 59 63 77 64
REMARK SMILES IDX 50 65 37 66 38 67 43 68 39 69 40 70 42 71 44 72 41 73 63 74
REMARK SMILES IDX 64 75 69 76 65 77 66 78 68 79 70 80 67 81 51 82 52 83 57 84
REMARK SMILES IDX 53 85 54 86 56 87 58 88 55 89
REMARK H PARENT 75 51 49 62
REMARK Flexibility Score: inf
ROOT
ATOM      1  C   UNL A   1      42.294  19.836  27.219  1.00  0.00     0.188 C 
ENDROOT
BRANCH   1   2
ATOM      2  O   UNL A   1      40.893  19.936  27.473  1.00  0.00    -0.377 OA
BRANCH   2   3
ATOM      3  C   UNL A   1      40.031  20.387  26.445  1.00  0.00     0.188 C 
BRANCH   3   4
ATOM      4  C   UNL A   1      40.037  21.907  26.177  1.00  0.00     0.188 C 
BRANCH   4   5
ATOM      5  O   UNL A   1      38.792  22.467  25.815  1.00  0.00    -0.376 OA
BRANCH   5   6
ATOM      6  C   UNL A   1      37.688  21.698  25.380  1.00  0.00     0.202 C 
BRANCH   6   7
ATOM      7  C   UNL A   1      36.206  22.034  25.620  1.00  0.00     0.261 C 
BRANCH   7   8
ATOM      8  O   UNL A   1      35.778  23.361  25.334  1.00  0.00    -0.460 OA
BRANCH   8   9
ATOM      9  C   UNL A   1      34.549  23.698  25.770  1.00  0.00     0.338 C 
ATOM     10  O   UNL A   1      33.947  23.210  26.710  1.00  0.00    -0.246 OA
BRANCH   9  11
ATOM     11  C   UNL A   1      34.113  24.896  25.022  1.00  0.00     0.087 C 
ATOM     12  C   UNL A   1      32.303  29.340  25.101  1.00  0.00     0.025 A 
ATOM     13  C   UNL A   1      32.118  29.284  23.719  1.00  0.00     0.021 A 
ATOM     14  C   UNL A   1      32.930  28.284  25.763  1.00  0.00     0.029 A 
ATOM     15  C   UNL A   1      32.581  28.181  22.997  1.00  0.00     0.048 A 
ATOM     16  C   UNL A   1      33.336  27.152  25.047  1.00  0.00     0.018 A 
ATOM     17  C   UNL A   1      33.187  27.115  23.660  1.00  0.00     0.128 A 
ATOM     18  C   UNL A   1      33.821  25.980  25.750  1.00  0.00     0.027 C 
ATOM     19  O   UNL A   1      33.585  26.069  22.879  1.00  0.00    -0.475 OA
ATOM     20  C   UNL A   1      34.074  24.856  23.517  1.00  0.00     0.316 C 
BRANCH  12  21
ATOM     21  C   UNL A   1      31.801  30.452  25.851  1.00  0.00    -0.070 C 
ATOM     22  C   UNL A   1      31.404  31.375  26.501  1.00  0.00     0.010 C 
ENDBRANCH  12  21
BRANCH  20  23
ATOM     23  C   UNL A   1      33.243  23.674  23.000  1.00  0.00     0.430 C 
ATOM     24  F   UNL A   1      32.122  23.496  23.736  1.00  0.00    -0.167 F 
ATOM     25  F   UNL A   1      32.839  23.860  21.721  1.00  0.00    -0.167 F 
ATOM     26  F   UNL A   1      33.941  22.516  23.035  1.00  0.00    -0.167 F 
ENDBRANCH  20  23
ENDBRANCH   9  11
ENDBRANCH   8   9
ENDBRANCH   7   8
ENDBRANCH   6   7
ENDBRANCH   5   6
ENDBRANCH   4   5
ENDBRANCH   3   4
ENDBRANCH   2   3
ENDBRANCH   1   2
BRANCH   1  27
ATOM     27  C   UNL A   1      42.888  19.360  25.866  1.00  0.00     0.188 C 
BRANCH  27  28
ATOM     28  O   UNL A   1      43.567  20.351  25.127  1.00  0.00    -0.376 OA
BRANCH  28  29
ATOM     29  C   UNL A   1      44.917  20.675  25.377  1.00  0.00     0.202 C 
BRANCH  29  30
ATOM     30  C   UNL A   1      45.337  22.112  25.712  1.00  0.00     0.261 C 
BRANCH  30  31
ATOM     31  O   UNL A   1      44.398  22.917  26.428  1.00  0.00    -0.460 OA
BRANCH  31  32
ATOM     32  C   UNL A   1      43.641  23.783  25.716  1.00  0.00     0.338 C 
ATOM     33  O   UNL A   1      43.313  23.687  24.548  1.00  0.00    -0.246 OA
BRANCH  32  34
ATOM     34  C   UNL A   1      43.120  24.778  26.678  1.00  0.00     0.060 A 
ATOM     35  C   UNL A   1      42.012  24.463  27.468  1.00  0.00     0.016 A 
ATOM     36  C   UNL A   1      43.692  26.056  26.738  1.00  0.00     0.016 A 
ATOM     37  C   UNL A   1      41.494  25.422  28.338  1.00  0.00     0.010 A 
ATOM     38  C   UNL A   1      43.165  27.020  27.603  1.00  0.00     0.010 A 
ATOM     39  C   UNL A   1      42.078  26.700  28.430  1.00  0.00    -0.014 A 
BRANCH  39  40
ATOM     40  C   UNL A   1      41.656  27.615  29.520  1.00  0.00     0.031 A 
ATOM     41  C   UNL A   1      40.497  28.555  29.380  1.00  0.00     0.074 A 
ATOM     42  C   UNL A   1      42.351  27.569  30.672  1.00  0.00     0.049 A 
ATOM     43  N   UNL A   1      39.963  29.336  30.286  1.00  0.00    -0.248 NA
ATOM     44  C   UNL A   1      39.860  28.635  28.060  1.00  0.00     0.031 C 
ATOM     45  C   UNL A   1      43.519  26.719  30.913  1.00  0.00     0.029 A 
ATOM     46  N   UNL A   1      42.171  28.232  31.859  1.00  0.00    -0.354 N 
ATOM     47  C   UNL A   1      38.907  29.983  29.658  1.00  0.00     0.074 A 
ATOM     48  C   UNL A   1      38.916  29.544  28.276  1.00  0.00     0.031 C 
ATOM     49  C   UNL A   1      43.925  26.878  32.181  1.00  0.00     0.029 A 
ATOM     50  C   UNL A   1      43.075  27.872  32.828  1.00  0.00     0.049 A 
ATOM     51  H   UNL A   1      41.463  28.901  32.002  1.00  0.00     0.167 HD
ATOM     52  C   UNL A   1      38.006  30.846  30.192  1.00  0.00     0.037 A 
ATOM     53  C   UNL A   1      43.207  28.297  34.098  1.00  0.00     0.037 A 
ATOM     54  C   UNL A   1      38.027  31.309  31.559  1.00  0.00     0.049 A 
ATOM     55  C   UNL A   1      42.240  29.315  34.633  1.00  0.00     0.074 A 
ATOM     56  C   UNL A   1      37.144  32.166  32.194  1.00  0.00     0.029 A 
ATOM     57  N   UNL A   1      38.991  30.971  32.498  1.00  0.00    -0.354 N 
ATOM     58  N   UNL A   1      41.198  29.858  34.052  1.00  0.00    -0.248 NA
ATOM     59  C   UNL A   1      42.467  29.776  36.009  1.00  0.00     0.031 C 
ATOM     60  C   UNL A   1      37.613  32.401  33.493  1.00  0.00     0.029 A 
ATOM     61  C   UNL A   1      38.745  31.631  33.693  1.00  0.00     0.049 A 
ATOM     62  H   UNL A   1      39.741  30.352  32.338  1.00  0.00     0.167 HD
ATOM     63  C   UNL A   1      40.629  30.698  35.001  1.00  0.00     0.074 A 
ATOM     64  C   UNL A   1      41.426  30.571  36.202  1.00  0.00     0.031 C 
ATOM     65  C   UNL A   1      39.545  31.506  34.886  1.00  0.00     0.037 A 
BRANCH  52  66
ATOM     66  C   UNL A   1      36.922  31.363  29.286  1.00  0.00     0.057 A 
ATOM     67  C   UNL A   1      36.946  32.680  28.808  1.00  0.00     0.134 A 
ATOM     68  C   UNL A   1      35.823  30.569  28.924  1.00  0.00     0.134 A 
ATOM     69  F   UNL A   1      37.955  33.503  29.129  1.00  0.00    -0.206 F 
ATOM     70  C   UNL A   1      35.925  33.185  28.000  1.00  0.00     0.040 A 
ATOM     71  C   UNL A   1      34.813  31.053  28.091  1.00  0.00     0.040 A 
ATOM     72  F   UNL A   1      35.732  29.300  29.350  1.00  0.00    -0.206 F 
ATOM     73  C   UNL A   1      34.860  32.367  27.630  1.00  0.00     0.006 A 
ENDBRANCH  52  66
BRANCH  53  74
ATOM     74  C   UNL A   1      44.298  27.770  34.957  1.00  0.00     0.057 A 
ATOM     75  C   UNL A   1      45.524  28.440  35.069  1.00  0.00     0.134 A 
ATOM     76  C   UNL A   1      44.121  26.617  35.731  1.00  0.00     0.134 A 
ATOM     77  F   UNL A   1      45.763  29.543  34.345  1.00  0.00    -0.206 F 
ATOM     78  C   UNL A   1      46.527  27.988  35.925  1.00  0.00     0.040 A 
ATOM     79  C   UNL A   1      45.102  26.176  36.620  1.00  0.00     0.040 A 
ATOM     80  F   UNL A   1      42.966  25.938  35.677  1.00  0.00    -0.206 F 
ATOM     81  C   UNL A   1      46.310  26.863  36.719  1.00  0.00     0.006 A 
ENDBRANCH  53  74
BRANCH  65  82
ATOM     82  C   UNL A   1      39.140  32.282  36.109  1.00  0.00     0.057 A 
ATOM     83  C   UNL A   1      39.638  33.573  36.331  1.00  0.00     0.134 A 
ATOM     84  C   UNL A   1      38.256  31.763  37.066  1.00  0.00     0.134 A 
ATOM     85  F   UNL A   1      40.496  34.132  35.464  1.00  0.00    -0.206 F 
ATOM     86  C   UNL A   1      39.270  34.318  37.453  1.00  0.00     0.040 A 
ATOM     87  C   UNL A   1      37.851  32.513  38.171  1.00  0.00     0.040 A 
ATOM     88  F   UNL A   1      37.730  30.538  36.912  1.00  0.00    -0.206 F 
ATOM     89  C   UNL A   1      38.362  33.793  38.371  1.00  0.00     0.006 A 
ENDBRANCH  65  82
ENDBRANCH  39  40
ENDBRANCH  32  34
ENDBRANCH  31  32
ENDBRANCH  30  31
ENDBRANCH  29  30
ENDBRANCH  28  29
ENDBRANCH  27  28
ENDBRANCH   1  27
TORSDOF 22
ENDMDL
MODEL 2
REMARK VINA RESULT:     -10.2      1.034      6.008
REMARK SMILES C#Cc1ccc2c(c1)C=C(C(=O)OCCOCCOCCOCCOC(=O)c1ccc(-c3c4nc(c(-c5c(F)cccc5F)c5ccc([nH]5)c(-c5c(F)cccc5F)c5nc(c(-c6c(F)cccc6F)c6ccc3[nH]6)C=C5)C=C4)cc1)[C@@H](C(F)(F)F)O2
REMARK SMILES IDX 20 1 19 2 18 3 17 4 16 5 15 6 14 7 13 8 11 9 12 10 10 11
REMARK SMILES IDX 3 12 4 13 8 14 5 15 7 16 6 17 9 18 87 19 82 20 2 21 1 22
REMARK SMILES IDX 83 23 84 24 85 25 86 26 21 27 22 28 23 29 24 30 25 31 26 32
REMARK SMILES IDX 27 33 28 34 29 35 81 36 30 37 80 38 31 39 32 40 33 41 74 42
REMARK SMILES IDX 34 43 79 44 73 45 75 46 35 47 78 48 72 49 71 50 36 52 62 53
REMARK SMILES IDX 45 54 61 55 46 56 49 57 60 58 76 59 47 60 48 61 59 63 77 64
REMARK SMILES IDX 50 65 37 66 38 67 43 68 39 69 40 70 42 71 44 72 41 73 63 74
REMARK SMILES IDX 64 75 69 76 65 77 66 78 68 79 70 80 67 81 51 82 52 83 57 84
REMARK SMILES IDX 53 85 54 86 56 87 58 88 55 89
REMARK H PARENT 75 51 49 62
REMARK Flexibility Score: inf
ROOT
ATOM      1  C   UNL A   1      40.869  21.876  26.333  1.00  0.00     0.188 C 
ENDROOT
BRANCH   1   2
ATOM      2  O   UNL A   1      39.715  21.125  25.957  1.00  0.00    -0.377 OA
BRANCH   2   3
ATOM      3  C   UNL A   1      38.477  21.792  25.789  1.00  0.00     0.188 C 
BRANCH   3   4
ATOM      4  C   UNL A   1      38.463  23.292  26.152  1.00  0.00     0.188 C 
BRANCH   4   5
ATOM      5  O   UNL A   1      37.357  24.026  25.669  1.00  0.00    -0.376 OA
BRANCH   5   6
ATOM      6  C   UNL A   1      36.393  23.491  24.782  1.00  0.00     0.202 C 
BRANCH   6   7
ATOM      7  C   UNL A   1      34.891  23.336  25.073  1.00  0.00     0.261 C 
BRANCH   7   8
ATOM      8  O   UNL A   1      34.438  23.658  26.383  1.00  0.00    -0.460 OA
BRANCH   8   9
ATOM      9  C   UNL A   1      33.105  23.765  26.543  1.00  0.00     0.338 C 
ATOM     10  O   UNL A   1      32.410  23.137  27.322  1.00  0.00    -0.246 OA
BRANCH   9  11
ATOM     11  C   UNL A   1      32.639  24.910  25.733  1.00  0.00     0.087 C 
ATOM     12  C   UNL A   1      31.590  29.586  25.474  1.00  0.00     0.025 A 
ATOM     13  C   UNL A   1      30.990  29.378  24.231  1.00  0.00     0.021 A 
ATOM     14  C   UNL A   1      32.230  28.530  26.124  1.00  0.00     0.029 A 
ATOM     15  C   UNL A   1      31.052  28.118  23.629  1.00  0.00     0.048 A 
ATOM     16  C   UNL A   1      32.236  27.255  25.549  1.00  0.00     0.018 A 
ATOM     17  C   UNL A   1      31.672  27.057  24.288  1.00  0.00     0.128 A 
ATOM     18  C   UNL A   1      32.737  26.119  26.298  1.00  0.00     0.027 C 
ATOM     19  O   UNL A   1      31.662  25.858  23.638  1.00  0.00    -0.475 OA
ATOM     20  C   UNL A   1      32.143  24.672  24.331  1.00  0.00     0.316 C 
BRANCH  12  21
ATOM     21  C   UNL A   1      31.501  30.865  26.112  1.00  0.00    -0.070 C 
ATOM     22  C   UNL A   1      31.459  31.935  26.648  1.00  0.00     0.010 C 
ENDBRANCH  12  21
BRANCH  20  23
ATOM     23  C   UNL A   1      31.035  23.611  24.291  1.00  0.00     0.430 C 
ATOM     24  F   UNL A   1      30.244  23.678  25.387  1.00  0.00    -0.167 F 
ATOM     25  F   UNL A   1      30.223  23.768  23.219  1.00  0.00    -0.167 F 
ATOM     26  F   UNL A   1      31.542  22.359  24.230  1.00  0.00    -0.167 F 
ENDBRANCH  20  23
ENDBRANCH   9  11
ENDBRANCH   8   9
ENDBRANCH   7   8
ENDBRANCH   6   7
ENDBRANCH   5   6
ENDBRANCH   4   5
ENDBRANCH   3   4
ENDBRANCH   2   3
ENDBRANCH   1   2
BRANCH   1  27
ATOM     27  C   UNL A   1      42.260  21.238  26.591  1.00  0.00     0.188 C 
BRANCH  27  28
ATOM     28  O   UNL A   1      42.967  20.849  25.434  1.00  0.00    -0.376 OA
BRANCH  28  29
ATOM     29  C   UNL A   1      44.188  21.452  25.067  1.00  0.00     0.202 C 
BRANCH  29  30
ATOM     30  C   UNL A   1      44.218  22.698  24.172  1.00  0.00     0.261 C 
BRANCH  30  31
ATOM     31  O   UNL A   1      43.677  23.904  24.714  1.00  0.00    -0.460 OA
BRANCH  31  32
ATOM     32  C   UNL A   1      44.548  24.863  25.104  1.00  0.00     0.338 C 
ATOM     33  O   UNL A   1      45.597  25.168  24.568  1.00  0.00    -0.246 OA
BRANCH  32  34
ATOM     34  C   UNL A   1      43.891  25.610  26.198  1.00  0.00     0.060 A 
ATOM     35  C   UNL A   1      42.935  24.976  26.994  1.00  0.00     0.016 A 
ATOM     36  C   UNL A   1      44.174  26.972  26.381  1.00  0.00     0.016 A 
ATOM     37  C   UNL A   1      42.282  25.699  27.992  1.00  0.00     0.010 A 
ATOM     38  C   UNL A   1      43.510  27.697  27.375  1.00  0.00     0.010 A 
ATOM     39  C   UNL A   1      42.579  27.058  28.206  1.00  0.00    -0.014 A 
BRANCH  39  40
ATOM     40  C   UNL A   1      42.045  27.737  29.414  1.00  0.00     0.031 A 
ATOM     41  C   UNL A   1      42.717  27.650  30.750  1.00  0.00     0.074 A 
ATOM     42  C   UNL A   1      40.920  28.462  29.271  1.00  0.00     0.049 A 
ATOM     43  N   UNL A   1      42.411  28.272  31.862  1.00  0.00    -0.248 NA
ATOM     44  C   UNL A   1      43.871  26.750  30.859  1.00  0.00     0.031 C 
ATOM     45  C   UNL A   1      40.159  28.592  28.026  1.00  0.00     0.029 A 
ATOM     46  N   UNL A   1      40.230  29.238  30.166  1.00  0.00    -0.354 N 
ATOM     47  C   UNL A   1      43.350  27.863  32.800  1.00  0.00     0.074 A 
ATOM     48  C   UNL A   1      44.200  26.893  32.138  1.00  0.00     0.031 C 
ATOM     49  C   UNL A   1      39.134  29.433  28.224  1.00  0.00     0.029 A 
ATOM     50  C   UNL A   1      39.139  29.866  29.617  1.00  0.00     0.049 A 
ATOM     51  H   UNL A   1      40.490  29.335  31.110  1.00  0.00     0.167 HD
ATOM     52  C   UNL A   1      43.497  28.275  34.085  1.00  0.00     0.037 A 
ATOM     53  C   UNL A   1      38.239  30.697  30.174  1.00  0.00     0.037 A 
ATOM     54  C   UNL A   1      42.623  29.212  34.749  1.00  0.00     0.049 A 
ATOM     55  C   UNL A   1      38.386  31.069  31.623  1.00  0.00     0.074 A 
ATOM     56  C   UNL A   1      42.706  29.704  36.040  1.00  0.00     0.029 A 
ATOM     57  N   UNL A   1      41.493  29.783  34.182  1.00  0.00    -0.354 N 
ATOM     58  N   UNL A   1      39.325  30.738  32.475  1.00  0.00    -0.248 NA
ATOM     59  C   UNL A   1      37.344  31.939  32.186  1.00  0.00     0.031 C 
ATOM     60  C   UNL A   1      41.590  30.515  36.278  1.00  0.00     0.029 A 
ATOM     61  C   UNL A   1      40.851  30.591  35.109  1.00  0.00     0.049 A 
ATOM     62  H   UNL A   1      41.190  29.636  33.257  1.00  0.00     0.167 HD
ATOM     63  C   UNL A   1      39.004  31.384  33.663  1.00  0.00     0.074 A 
ATOM     64  C   UNL A   1      37.800  32.147  33.411  1.00  0.00     0.031 C 
ATOM     65  C   UNL A   1      39.648  31.345  34.856  1.00  0.00     0.037 A 
BRANCH  52  66
ATOM     66  C   UNL A   1      44.646  27.700  34.868  1.00  0.00     0.057 A 
ATOM     67  C   UNL A   1      45.921  28.278  34.810  1.00  0.00     0.134 A 
ATOM     68  C   UNL A   1      44.502  26.542  35.646  1.00  0.00     0.134 A 
ATOM     69  F   UNL A   1      46.139  29.376  34.070  1.00  0.00    -0.206 F 
ATOM     70  C   UNL A   1      47.006  27.732  35.499  1.00  0.00     0.040 A 
ATOM     71  C   UNL A   1      45.571  26.005  36.366  1.00  0.00     0.040 A 
ATOM     72  F   UNL A   1      43.310  25.933  35.744  1.00  0.00    -0.206 F 
ATOM     73  C   UNL A   1      46.830  26.599  36.289  1.00  0.00     0.006 A 
ENDBRANCH  52  66
BRANCH  53  74
ATOM     74  C   UNL A   1      37.113  31.234  29.369  1.00  0.00     0.057 A 
ATOM     75  C   UNL A   1      37.147  32.533  28.844  1.00  0.00     0.134 A 
ATOM     76  C   UNL A   1      36.001  30.443  29.056  1.00  0.00     0.134 A 
ATOM     77  F   UNL A   1      38.178  33.348  29.117  1.00  0.00    -0.206 F 
ATOM     78  C   UNL A   1      36.125  33.020  28.032  1.00  0.00     0.040 A 
ATOM     79  C   UNL A   1      34.989  30.905  28.213  1.00  0.00     0.040 A 
ATOM     80  F   UNL A   1      35.914  29.187  29.518  1.00  0.00    -0.206 F 
ATOM     81  C   UNL A   1      35.050  32.198  27.698  1.00  0.00     0.006 A 
ENDBRANCH  53  74
BRANCH  65  82
ATOM     82  C   UNL A   1      39.079  32.186  35.966  1.00  0.00     0.057 A 
ATOM     83  C   UNL A   1      39.414  33.543  36.076  1.00  0.00     0.134 A 
ATOM     84  C   UNL A   1      38.200  31.663  36.925  1.00  0.00     0.134 A 
ATOM     85  F   UNL A   1      40.257  34.111  35.201  1.00  0.00    -0.206 F 
ATOM     86  C   UNL A   1      38.892  34.346  37.091  1.00  0.00     0.040 A 
ATOM     87  C   UNL A   1      37.643  32.466  37.922  1.00  0.00     0.040 A 
ATOM     88  F   UNL A   1      37.827  30.375  36.875  1.00  0.00    -0.206 F 
ATOM     89  C   UNL A   1      37.992  33.811  38.011  1.00  0.00     0.006 A 
ENDBRANCH  65  82
ENDBRANCH  39  40
ENDBRANCH  32  34
ENDBRANCH  31  32
ENDBRANCH  30  31
ENDBRANCH  29  30
ENDBRANCH  28  29
ENDBRANCH  27  28
ENDBRANCH   1  27
TORSDOF 22
ENDMDL
MODEL 3
REMARK VINA RESULT:     -10.1      1.828      3.543
REMARK SMILES C#Cc1ccc2c(c1)C=C(C(=O)OCCOCCOCCOCCOC(=O)c1ccc(-c3c4nc(c(-c5c(F)cccc5F)c5ccc([nH]5)c(-c5c(F)cccc5F)c5nc(c(-c6c(F)cccc6F)c6ccc3[nH]6)C=C5)C=C4)cc1)[C@@H](C(F)(F)F)O2
REMARK SMILES IDX 20 1 19 2 18 3 17 4 16 5 15 6 14 7 13 8 11 9 12 10 10 11
REMARK SMILES IDX 3 12 4 13 8 14 5 15 7 16 6 17 9 18 87 19 82 20 2 21 1 22
REMARK SMILES IDX 83 23 84 24 85 25 86 26 21 27 22 28 23 29 24 30 25 31 26 32
REMARK SMILES IDX 27 33 28 34 29 35 81 36 30 37 80 38 31 39 32 40 33 41 74 42
REMARK SMILES IDX 34 43 79 44 73 45 75 46 35 47 78 48 72 49 71 50 36 52 62 53
REMARK SMILES IDX 45 54 61 55 46 56 49 57 60 58 76 59 47 60 48 61 59 63 77 64
REMARK SMILES IDX 50 65 37 66 38 67 43 68 39 69 40 70 42 71 44 72 41 73 63 74
REMARK SMILES IDX 64 75 69 76 65 77 66 78 68 79 70 80 67 81 51 82 52 83 57 84
REMARK SMILES IDX 53 85 54 86 56 87 58 88 55 89
REMARK H PARENT 75 51 49 62
REMARK Flexibility Score: inf
ROOT
ATOM      1  C   UNL A   1      42.673  19.494  26.501  1.00  0.00     0.188 C 
ENDROOT
BRANCH   1   2
ATOM      2  O   UNL A   1      41.271  19.237  26.586  1.00  0.00    -0.377 OA
BRANCH   2   3
ATOM      3  C   UNL A   1      40.382  19.955  25.750  1.00  0.00     0.188 C 
BRANCH   3   4
ATOM      4  C   UNL A   1      39.928  21.335  26.273  1.00  0.00     0.188 C 
BRANCH   4   5
ATOM      5  O   UNL A   1      38.650  21.757  25.848  1.00  0.00    -0.376 OA
BRANCH   5   6
ATOM      6  C   UNL A   1      38.119  23.038  26.127  1.00  0.00     0.202 C 
BRANCH   6   7
ATOM      7  C   UNL A   1      36.720  23.539  25.730  1.00  0.00     0.261 C 
BRANCH   7   8
ATOM      8  O   UNL A   1      35.598  22.905  26.333  1.00  0.00    -0.460 OA
BRANCH   8   9
ATOM      9  C   UNL A   1      34.386  23.363  25.968  1.00  0.00     0.338 C 
ATOM     10  O   UNL A   1      33.951  24.490  26.127  1.00  0.00    -0.246 OA
BRANCH   9  11
ATOM     11  C   UNL A   1      33.722  22.310  25.170  1.00  0.00     0.087 C 
ATOM     12  C   UNL A   1      32.710  17.658  24.566  1.00  0.00     0.025 A 
ATOM     13  C   UNL A   1      32.239  17.932  23.281  1.00  0.00     0.021 A 
ATOM     14  C   UNL A   1      33.122  18.702  25.395  1.00  0.00     0.029 A 
ATOM     15  C   UNL A   1      32.158  19.254  22.835  1.00  0.00     0.048 A 
ATOM     16  C   UNL A   1      33.100  20.019  24.923  1.00  0.00     0.018 A 
ATOM     17  C   UNL A   1      32.591  20.296  23.654  1.00  0.00     0.128 A 
ATOM     18  C   UNL A   1      33.694  21.084  25.708  1.00  0.00     0.027 C 
ATOM     19  O   UNL A   1      32.500  21.552  23.127  1.00  0.00    -0.475 OA
ATOM     20  C   UNL A   1      33.082  22.669  23.855  1.00  0.00     0.316 C 
BRANCH  12  21
ATOM     21  C   UNL A   1      32.826  16.303  25.017  1.00  0.00    -0.070 C 
ATOM     22  C   UNL A   1      32.896  15.164  25.378  1.00  0.00     0.010 C 
ENDBRANCH  12  21
BRANCH  20  23
ATOM     23  C   UNL A   1      34.063  23.391  22.922  1.00  0.00     0.430 C 
ATOM     24  F   UNL A   1      33.653  23.335  21.633  1.00  0.00    -0.167 F 
ATOM     25  F   UNL A   1      34.183  24.704  23.232  1.00  0.00    -0.167 F 
ATOM     26  F   UNL A   1      35.301  22.851  22.980  1.00  0.00    -0.167 F 
ENDBRANCH  20  23
ENDBRANCH   9  11
ENDBRANCH   8   9
ENDBRANCH   7   8
ENDBRANCH   6   7
ENDBRANCH   5   6
ENDBRANCH   4   5
ENDBRANCH   3   4
ENDBRANCH   2   3
ENDBRANCH   1   2
BRANCH   1  27
ATOM     27  C   UNL A   1      43.524  19.199  25.237  1.00  0.00     0.188 C 
BRANCH  27  28
ATOM     28  O   UNL A   1      44.204  20.310  24.698  1.00  0.00    -0.376 OA
BRANCH  28  29
ATOM     29  C   UNL A   1      45.345  20.860  25.319  1.00  0.00     0.202 C 
BRANCH  29  30
ATOM     30  C   UNL A   1      45.537  22.379  25.418  1.00  0.00     0.261 C 
BRANCH  30  31
ATOM     31  O   UNL A   1      44.636  23.098  26.264  1.00  0.00    -0.460 OA
BRANCH  31  32
ATOM     32  C   UNL A   1      43.567  23.687  25.683  1.00  0.00     0.338 C 
ATOM     33  O   UNL A   1      43.014  23.360  24.650  1.00  0.00    -0.246 OA
BRANCH  32  34
ATOM     34  C   UNL A   1      43.066  24.694  26.645  1.00  0.00     0.060 A 
ATOM     35  C   UNL A   1      42.004  24.374  27.492  1.00  0.00     0.016 A 
ATOM     36  C   UNL A   1      43.611  25.986  26.648  1.00  0.00     0.016 A 
ATOM     37  C   UNL A   1      41.503  25.343  28.362  1.00  0.00     0.010 A 
ATOM     38  C   UNL A   1      43.100  26.959  27.513  1.00  0.00     0.010 A 
ATOM     39  C   UNL A   1      42.061  26.635  28.397  1.00  0.00    -0.014 A 
BRANCH  39  40
ATOM     40  C   UNL A   1      41.668  27.567  29.483  1.00  0.00     0.031 A 
ATOM     41  C   UNL A   1      40.520  28.522  29.350  1.00  0.00     0.074 A 
ATOM     42  C   UNL A   1      42.379  27.523  30.626  1.00  0.00     0.049 A 
ATOM     43  N   UNL A   1      40.010  29.319  30.256  1.00  0.00    -0.248 NA
ATOM     44  C   UNL A   1      39.865  28.598  28.039  1.00  0.00     0.031 C 
ATOM     45  C   UNL A   1      43.538  26.659  30.858  1.00  0.00     0.029 A 
ATOM     46  N   UNL A   1      42.225  28.200  31.808  1.00  0.00    -0.354 N 
ATOM     47  C   UNL A   1      38.954  29.976  29.637  1.00  0.00     0.074 A 
ATOM     48  C   UNL A   1      38.937  29.522  28.259  1.00  0.00     0.031 C 
ATOM     49  C   UNL A   1      43.964  26.826  32.118  1.00  0.00     0.029 A 
ATOM     50  C   UNL A   1      43.138  27.838  32.768  1.00  0.00     0.049 A 
ATOM     51  H   UNL A   1      41.529  28.881  31.954  1.00  0.00     0.167 HD
ATOM     52  C   UNL A   1      38.073  30.857  30.174  1.00  0.00     0.037 A 
ATOM     53  C   UNL A   1      43.295  28.273  34.031  1.00  0.00     0.037 A 
ATOM     54  C   UNL A   1      38.121  31.333  31.536  1.00  0.00     0.049 A 
ATOM     55  C   UNL A   1      42.350  29.311  34.569  1.00  0.00     0.074 A 
ATOM     56  C   UNL A   1      37.259  32.208  32.175  1.00  0.00     0.029 A 
ATOM     57  N   UNL A   1      39.094  30.990  32.464  1.00  0.00    -0.354 N 
ATOM     58  N   UNL A   1      41.307  29.863  33.998  1.00  0.00    -0.248 NA
ATOM     59  C   UNL A   1      42.604  29.783  35.937  1.00  0.00     0.031 C 
ATOM     60  C   UNL A   1      37.750  32.451  33.464  1.00  0.00     0.029 A 
ATOM     61  C   UNL A   1      38.874  31.666  33.655  1.00  0.00     0.049 A 
ATOM     62  H   UNL A   1      39.832  30.360  32.300  1.00  0.00     0.167 HD
ATOM     63  C   UNL A   1      40.764  30.720  34.946  1.00  0.00     0.074 A 
ATOM     64  C   UNL A   1      41.577  30.594  36.137  1.00  0.00     0.031 C 
ATOM     65  C   UNL A   1      39.690  31.542  34.839  1.00  0.00     0.037 A 
BRANCH  52  66
ATOM     66  C   UNL A   1      36.983  31.379  29.279  1.00  0.00     0.057 A 
ATOM     67  C   UNL A   1      37.012  32.694  28.797  1.00  0.00     0.134 A 
ATOM     68  C   UNL A   1      35.874  30.593  28.931  1.00  0.00     0.134 A 
ATOM     69  F   UNL A   1      38.031  33.511  29.105  1.00  0.00    -0.206 F 
ATOM     70  C   UNL A   1      35.986  33.206  27.999  1.00  0.00     0.040 A 
ATOM     71  C   UNL A   1      34.859  31.082  28.108  1.00  0.00     0.040 A 
ATOM     72  F   UNL A   1      35.778  29.326  29.361  1.00  0.00    -0.206 F 
ATOM     73  C   UNL A   1      34.911  32.395  27.642  1.00  0.00     0.006 A 
ENDBRANCH  52  66
BRANCH  53  74
ATOM     74  C   UNL A   1      44.391  27.740  34.879  1.00  0.00     0.057 A 
ATOM     75  C   UNL A   1      45.660  28.332  34.885  1.00  0.00     0.134 A 
ATOM     76  C   UNL A   1      44.179  26.663  35.748  1.00  0.00     0.134 A 
ATOM     77  F   UNL A   1      45.934  29.360  34.067  1.00  0.00    -0.206 F 
ATOM     78  C   UNL A   1      46.674  27.880  35.729  1.00  0.00     0.040 A 
ATOM     79  C   UNL A   1      45.172  26.225  36.625  1.00  0.00     0.040 A 
ATOM     80  F   UNL A   1      42.981  26.062  35.798  1.00  0.00    -0.206 F 
ATOM     81  C   UNL A   1      46.425  26.834  36.616  1.00  0.00     0.006 A 
ENDBRANCH  53  74
BRANCH  65  82
ATOM     82  C   UNL A   1      39.313  32.337  36.059  1.00  0.00     0.057 A 
ATOM     83  C   UNL A   1      39.896  33.588  36.303  1.00  0.00     0.134 A 
ATOM     84  C   UNL A   1      38.374  31.874  36.992  1.00  0.00     0.134 A 
ATOM     85  F   UNL A   1      40.810  34.091  35.460  1.00  0.00    -0.206 F 
ATOM     86  C   UNL A   1      39.557  34.349  37.423  1.00  0.00     0.040 A 
ATOM     87  C   UNL A   1      37.999  32.643  38.095  1.00  0.00     0.040 A 
ATOM     88  F   UNL A   1      37.766  30.691  36.816  1.00  0.00    -0.206 F 
ATOM     89  C   UNL A   1      38.594  33.882  38.316  1.00  0.00     0.006 A 
ENDBRANCH  65  82
ENDBRANCH  39  40
ENDBRANCH  32  34
ENDBRANCH  31  32
ENDBRANCH  30  31
ENDBRANCH  29  30
ENDBRANCH  28  29
ENDBRANCH  27  28
ENDBRANCH   1  27
TORSDOF 22
ENDMDL
