MODEL 1
REMARK VINA RESULT:     -10.5      0.000      0.000
REMARK SMILES Cc1ccc(Nc2c(F)cccc2Cl)c(CC(=O)OCCOCCOCCOCCOC(=O)c2ccc(-c3c4nc(c(-c5c(F)cccc5F)c5ccc([nH]5)c(-c5c(F)cccc5F)c5nc(c(-c6c(F)cccc6F)c6ccc3[nH]6)C=C5)C=C4)cc2)c1
REMARK SMILES IDX 24 1 23 2 22 3 21 4 20 5 19 6 17 7 18 8 16 9 15 10 1 11 2 12
REMARK SMILES IDX 3 13 88 14 4 15 5 16 6 17 7 19 8 20 13 21 9 22 10 23 12 24
REMARK SMILES IDX 14 25 11 26 25 27 26 28 27 29 28 30 29 31 30 32 31 33 32 34
REMARK SMILES IDX 33 35 34 36 35 37 87 38 36 39 86 40 37 41 38 42 39 43 80 44
REMARK SMILES IDX 40 45 85 46 79 47 81 48 41 49 84 50 78 51 77 52 42 54 68 55
REMARK SMILES IDX 51 56 67 57 52 58 55 59 66 60 82 61 53 62 54 63 65 65 83 66
REMARK SMILES IDX 56 67 43 68 44 69 49 70 45 71 46 72 48 73 50 74 47 75 69 76
REMARK SMILES IDX 70 77 75 78 71 79 72 80 74 81 76 82 73 83 57 84 58 85 63 86
REMARK SMILES IDX 59 87 60 88 62 89 64 90 61 91
REMARK H PARENT 6 18 81 53 55 64
REMARK Flexibility Score: inf
ROOT
ATOM      1  C   UNL A   1      33.623  30.605  26.982  1.00  0.00     0.188 C 
ENDROOT
BRANCH   1   2
ATOM      2  C   UNL A   1      32.574  29.707  26.382  1.00  0.00     0.188 C 
BRANCH   2   3
ATOM      3  O   UNL A   1      31.980  28.715  27.192  1.00  0.00    -0.376 OA
BRANCH   3   4
ATOM      4  C   UNL A   1      32.485  27.432  26.899  1.00  0.00     0.202 C 
BRANCH   4   5
ATOM      5  C   UNL A   1      31.456  26.324  26.716  1.00  0.00     0.261 C 
BRANCH   5   6
ATOM      6  O   UNL A   1      32.066  25.079  26.344  1.00  0.00    -0.463 OA
BRANCH   6   7
ATOM      7  C   UNL A   1      31.211  24.036  26.264  1.00  0.00     0.310 C 
ATOM      8  O   UNL A   1      30.866  23.350  27.223  1.00  0.00    -0.252 OA
BRANCH   7   9
ATOM      9  C   UNL A   1      30.734  23.723  24.870  1.00  0.00     0.160 C 
BRANCH   9  10
ATOM     10  C   UNL A   1      31.269  24.484  23.665  1.00  0.00    -0.013 A 
ATOM     11  C   UNL A   1      30.530  28.028  22.329  1.00  0.00     0.044 C 
ATOM     12  C   UNL A   1      31.104  26.652  22.477  1.00  0.00    -0.051 A 
ATOM     13  C   UNL A   1      32.155  26.258  21.671  1.00  0.00     0.005 A 
ATOM     14  C   UNL A   1      30.648  25.751  23.443  1.00  0.00     0.009 A 
ATOM     15  C   UNL A   1      32.728  24.992  21.823  1.00  0.00     0.026 A 
ATOM     16  C   UNL A   1      32.348  24.073  22.823  1.00  0.00     0.042 A 
BRANCH  16  17
ATOM     17  N   UNL A   1      33.000  22.791  22.927  1.00  0.00    -0.352 N 
ATOM     18  H   UNL A   1      32.719  22.125  22.260  1.00  0.00     0.167 HD
BRANCH  17  19
ATOM     19  C   UNL A   1      34.002  22.336  23.865  1.00  0.00     0.094 A 
ATOM     20  C   UNL A   1      35.286  22.888  23.939  1.00  0.00     0.148 A 
ATOM     21  C   UNL A   1      33.836  21.131  24.589  1.00  0.00     0.067 A 
ATOM     22  F   UNL A   1      35.500  24.155  23.554  1.00  0.00    -0.205 F 
ATOM     23  C   UNL A   1      36.393  22.167  24.403  1.00  0.00     0.041 A 
ATOM     24  C   UNL A   1      34.946  20.365  25.004  1.00  0.00     0.023 A 
ATOM     25  Cl  UNL A   1      32.257  20.498  24.936  1.00  0.00    -0.082 Cl
ATOM     26  C   UNL A   1      36.236  20.867  24.863  1.00  0.00     0.005 A 
ENDBRANCH  17  19
ENDBRANCH  16  17
ENDBRANCH   9  10
ENDBRANCH   7   9
ENDBRANCH   6   7
ENDBRANCH   5   6
ENDBRANCH   4   5
ENDBRANCH   3   4
ENDBRANCH   2   3
ENDBRANCH   1   2
BRANCH   1  27
ATOM     27  O   UNL A   1      33.158  31.814  27.557  1.00  0.00    -0.377 OA
BRANCH  27  28
ATOM     28  C   UNL A   1      34.238  32.583  28.097  1.00  0.00     0.188 C 
BRANCH  28  29
ATOM     29  C   UNL A   1      34.132  34.112  28.030  1.00  0.00     0.188 C 
BRANCH  29  30
ATOM     30  O   UNL A   1      33.026  34.560  28.802  1.00  0.00    -0.376 OA
BRANCH  30  31
ATOM     31  C   UNL A   1      32.825  35.963  28.935  1.00  0.00     0.202 C 
BRANCH  31  32
ATOM     32  C   UNL A   1      33.030  36.324  30.405  1.00  0.00     0.261 C 
BRANCH  32  33
ATOM     33  O   UNL A   1      33.014  35.101  31.176  1.00  0.00    -0.460 OA
BRANCH  33  34
ATOM     34  C   UNL A   1      34.059  34.987  32.050  1.00  0.00     0.338 C 
ATOM     35  O   UNL A   1      34.340  35.794  32.916  1.00  0.00    -0.246 OA
BRANCH  34  36
ATOM     36  C   UNL A   1      34.966  33.862  31.648  1.00  0.00     0.060 A 
ATOM     37  C   UNL A   1      34.767  32.595  32.222  1.00  0.00     0.016 A 
ATOM     38  C   UNL A   1      36.139  34.108  30.939  1.00  0.00     0.016 A 
ATOM     39  C   UNL A   1      35.792  31.635  32.215  1.00  0.00     0.010 A 
ATOM     40  C   UNL A   1      37.166  33.166  30.971  1.00  0.00     0.010 A 
ATOM     41  C   UNL A   1      37.035  31.948  31.664  1.00  0.00    -0.014 A 
BRANCH  41  42
ATOM     42  C   UNL A   1      38.292  31.201  31.928  1.00  0.00     0.031 A 
ATOM     43  C   UNL A   1      38.558  29.894  31.236  1.00  0.00     0.074 A 
ATOM     44  C   UNL A   1      39.344  31.891  32.448  1.00  0.00     0.049 A 
ATOM     45  N   UNL A   1      39.684  29.257  31.280  1.00  0.00    -0.248 NA
ATOM     46  C   UNL A   1      37.577  29.192  30.406  1.00  0.00     0.031 C 
ATOM     47  C   UNL A   1      40.770  31.683  32.169  1.00  0.00     0.029 A 
ATOM     48  N   UNL A   1      39.391  32.981  33.309  1.00  0.00    -0.354 N 
ATOM     49  C   UNL A   1      39.715  28.363  30.228  1.00  0.00     0.074 A 
ATOM     50  C   UNL A   1      38.335  28.252  29.820  1.00  0.00     0.031 C 
ATOM     51  C   UNL A   1      41.523  32.537  32.875  1.00  0.00     0.029 A 
ATOM     52  C   UNL A   1      40.658  33.032  33.909  1.00  0.00     0.049 A 
ATOM     53  H   UNL A   1      38.654  33.613  33.472  1.00  0.00     0.167 HD
ATOM     54  C   UNL A   1      40.924  27.969  29.712  1.00  0.00     0.037 A 
ATOM     55  C   UNL A   1      40.840  32.735  35.234  1.00  0.00     0.037 A 
ATOM     56  C   UNL A   1      42.071  28.347  30.570  1.00  0.00     0.049 A 
ATOM     57  C   UNL A   1      41.566  31.396  35.439  1.00  0.00     0.074 A 
ATOM     58  C   UNL A   1      43.362  28.822  30.390  1.00  0.00     0.029 A 
ATOM     59  N   UNL A   1      41.902  28.317  31.947  1.00  0.00    -0.354 N 
ATOM     60  N   UNL A   1      42.046  30.668  34.459  1.00  0.00    -0.248 NA
ATOM     61  C   UNL A   1      41.786  30.737  36.725  1.00  0.00     0.031 C 
ATOM     62  C   UNL A   1      43.924  29.120  31.675  1.00  0.00     0.029 A 
ATOM     63  C   UNL A   1      43.012  28.733  32.638  1.00  0.00     0.049 A 
ATOM     64  H   UNL A   1      41.069  28.025  32.385  1.00  0.00     0.167 HD
ATOM     65  C   UNL A   1      42.543  29.482  34.911  1.00  0.00     0.074 A 
ATOM     66  C   UNL A   1      42.362  29.575  36.350  1.00  0.00     0.031 C 
ATOM     67  C   UNL A   1      43.027  28.511  34.076  1.00  0.00     0.037 A 
BRANCH  54  68
ATOM     68  C   UNL A   1      41.119  27.355  28.325  1.00  0.00     0.057 A 
ATOM     69  C   UNL A   1      41.567  28.145  27.243  1.00  0.00     0.134 A 
ATOM     70  C   UNL A   1      40.762  26.040  27.958  1.00  0.00     0.134 A 
ATOM     71  F   UNL A   1      41.972  29.410  27.425  1.00  0.00    -0.206 F 
ATOM     72  C   UNL A   1      41.619  27.682  25.916  1.00  0.00     0.040 A 
ATOM     73  C   UNL A   1      40.871  25.546  26.644  1.00  0.00     0.040 A 
ATOM     74  F   UNL A   1      40.237  25.176  28.834  1.00  0.00    -0.206 F 
ATOM     75  C   UNL A   1      41.280  26.374  25.612  1.00  0.00     0.006 A 
ENDBRANCH  54  68
BRANCH  55  76
ATOM     76  C   UNL A   1      39.784  33.410  36.055  1.00  0.00     0.057 A 
ATOM     77  C   UNL A   1      38.819  32.531  36.597  1.00  0.00     0.134 A 
ATOM     78  C   UNL A   1      40.098  34.547  36.812  1.00  0.00     0.134 A 
ATOM     79  F   UNL A   1      38.442  31.443  35.908  1.00  0.00    -0.206 F 
ATOM     80  C   UNL A   1      38.412  32.622  37.933  1.00  0.00     0.040 A 
ATOM     81  C   UNL A   1      39.662  34.663  38.144  1.00  0.00     0.040 A 
ATOM     82  F   UNL A   1      41.010  35.424  36.374  1.00  0.00    -0.206 F 
ATOM     83  C   UNL A   1      38.883  33.661  38.727  1.00  0.00     0.006 A 
ENDBRANCH  55  76
BRANCH  67  84
ATOM     84  C   UNL A   1      43.490  27.156  34.535  1.00  0.00     0.057 A 
ATOM     85  C   UNL A   1      44.833  26.783  34.558  1.00  0.00     0.134 A 
ATOM     86  C   UNL A   1      42.567  26.143  34.890  1.00  0.00     0.134 A 
ATOM     87  F   UNL A   1      45.787  27.616  34.116  1.00  0.00    -0.206 F 
ATOM     88  C   UNL A   1      45.242  25.526  35.016  1.00  0.00     0.040 A 
ATOM     89  C   UNL A   1      42.960  24.870  35.298  1.00  0.00     0.040 A 
ATOM     90  F   UNL A   1      41.242  26.342  34.881  1.00  0.00    -0.206 F 
ATOM     91  C   UNL A   1      44.306  24.568  35.394  1.00  0.00     0.006 A 
ENDBRANCH  67  84
ENDBRANCH  41  42
ENDBRANCH  34  36
ENDBRANCH  33  34
ENDBRANCH  32  33
ENDBRANCH  31  32
ENDBRANCH  30  31
ENDBRANCH  29  30
ENDBRANCH  28  29
ENDBRANCH  27  28
ENDBRANCH   1  27
TORSDOF 23
ENDMDL
MODEL 2
REMARK VINA RESULT:     -10.5      1.492      2.393
REMARK SMILES Cc1ccc(Nc2c(F)cccc2Cl)c(CC(=O)OCCOCCOCCOCCOC(=O)c2ccc(-c3c4nc(c(-c5c(F)cccc5F)c5ccc([nH]5)c(-c5c(F)cccc5F)c5nc(c(-c6c(F)cccc6F)c6ccc3[nH]6)C=C5)C=C4)cc2)c1
REMARK SMILES IDX 24 1 23 2 22 3 21 4 20 5 19 6 17 7 18 8 16 9 15 10 1 11 2 12
REMARK SMILES IDX 3 13 88 14 4 15 5 16 6 17 7 19 8 20 13 21 9 22 10 23 12 24
REMARK SMILES IDX 14 25 11 26 25 27 26 28 27 29 28 30 29 31 30 32 31 33 32 34
REMARK SMILES IDX 33 35 34 36 35 37 87 38 36 39 86 40 37 41 38 42 39 43 80 44
REMARK SMILES IDX 40 45 85 46 79 47 81 48 41 49 84 50 78 51 77 52 42 54 68 55
REMARK SMILES IDX 51 56 67 57 52 58 55 59 66 60 82 61 53 62 54 63 65 65 83 66
REMARK SMILES IDX 56 67 43 68 44 69 49 70 45 71 46 72 48 73 50 74 47 75 69 76
REMARK SMILES IDX 70 77 75 78 71 79 72 80 74 81 76 82 73 83 57 84 58 85 63 86
REMARK SMILES IDX 59 87 60 88 62 89 64 90 61 91
REMARK H PARENT 6 18 81 53 55 64
REMARK Flexibility Score: inf
ROOT
ATOM      1  C   UNL A   1      35.019  30.883  28.115  1.00  0.00     0.188 C 
ENDROOT
BRANCH   1   2
ATOM      2  C   UNL A   1      34.851  29.557  27.418  1.00  0.00     0.188 C 
BRANCH   2   3
ATOM      3  O   UNL A   1      33.646  28.842  27.594  1.00  0.00    -0.376 OA
BRANCH   3   4
ATOM      4  C   UNL A   1      33.196  28.277  26.384  1.00  0.00     0.202 C 
BRANCH   4   5
ATOM      5  C   UNL A   1      33.406  26.777  26.217  1.00  0.00     0.261 C 
BRANCH   5   6
ATOM      6  O   UNL A   1      32.235  26.123  25.706  1.00  0.00    -0.463 OA
BRANCH   6   7
ATOM      7  C   UNL A   1      32.107  24.830  26.076  1.00  0.00     0.310 C 
ATOM      8  O   UNL A   1      31.730  24.464  27.187  1.00  0.00    -0.252 OA
BRANCH   7   9
ATOM      9  C   UNL A   1      32.523  23.834  25.026  1.00  0.00     0.160 C 
BRANCH   9  10
ATOM     10  C   UNL A   1      33.764  22.971  25.207  1.00  0.00    -0.013 A 
ATOM     11  C   UNL A   1      37.446  23.881  25.916  1.00  0.00     0.044 C 
ATOM     12  C   UNL A   1      36.197  23.095  25.656  1.00  0.00    -0.051 A 
ATOM     13  C   UNL A   1      36.217  21.718  25.778  1.00  0.00     0.005 A 
ATOM     14  C   UNL A   1      34.981  23.706  25.339  1.00  0.00     0.009 A 
ATOM     15  C   UNL A   1      35.050  20.974  25.578  1.00  0.00     0.026 A 
ATOM     16  C   UNL A   1      33.788  21.547  25.321  1.00  0.00     0.042 A 
BRANCH  16  17
ATOM     17  N   UNL A   1      32.626  20.711  25.144  1.00  0.00    -0.352 N 
ATOM     18  H   UNL A   1      31.790  21.075  25.514  1.00  0.00     0.167 HD
BRANCH  17  19
ATOM     19  C   UNL A   1      32.502  19.420  24.506  1.00  0.00     0.094 A 
ATOM     20  C   UNL A   1      32.690  18.210  25.186  1.00  0.00     0.148 A 
ATOM     21  C   UNL A   1      32.441  19.299  23.097  1.00  0.00     0.067 A 
ATOM     22  F   UNL A   1      32.474  18.139  26.509  1.00  0.00    -0.205 F 
ATOM     23  C   UNL A   1      33.106  17.038  24.544  1.00  0.00     0.041 A 
ATOM     24  C   UNL A   1      32.919  18.147  22.438  1.00  0.00     0.023 A 
ATOM     25  Cl  UNL A   1      31.845  20.595  22.107  1.00  0.00    -0.082 Cl
ATOM     26  C   UNL A   1      33.301  17.028  23.169  1.00  0.00     0.005 A 
ENDBRANCH  17  19
ENDBRANCH  16  17
ENDBRANCH   9  10
ENDBRANCH   7   9
ENDBRANCH   6   7
ENDBRANCH   5   6
ENDBRANCH   4   5
ENDBRANCH   3   4
ENDBRANCH   2   3
ENDBRANCH   1   2
BRANCH   1  27
ATOM     27  O   UNL A   1      34.747  32.036  27.339  1.00  0.00    -0.377 OA
BRANCH  27  28
ATOM     28  C   UNL A   1      34.227  33.097  28.147  1.00  0.00     0.188 C 
BRANCH  28  29
ATOM     29  C   UNL A   1      34.485  34.539  27.691  1.00  0.00     0.188 C 
BRANCH  29  30
ATOM     30  O   UNL A   1      34.302  35.437  28.778  1.00  0.00    -0.376 OA
BRANCH  30  31
ATOM     31  C   UNL A   1      32.995  35.950  29.011  1.00  0.00     0.202 C 
BRANCH  31  32
ATOM     32  C   UNL A   1      32.763  35.963  30.521  1.00  0.00     0.261 C 
BRANCH  32  33
ATOM     33  O   UNL A   1      34.052  35.911  31.175  1.00  0.00    -0.460 OA
BRANCH  33  34
ATOM     34  C   UNL A   1      34.136  34.960  32.153  1.00  0.00     0.338 C 
ATOM     35  O   UNL A   1      33.711  35.081  33.286  1.00  0.00    -0.246 OA
BRANCH  34  36
ATOM     36  C   UNL A   1      35.041  33.842  31.728  1.00  0.00     0.060 A 
ATOM     37  C   UNL A   1      34.837  32.563  32.272  1.00  0.00     0.016 A 
ATOM     38  C   UNL A   1      36.216  34.100  31.027  1.00  0.00     0.016 A 
ATOM     39  C   UNL A   1      35.859  31.600  32.246  1.00  0.00     0.010 A 
ATOM     40  C   UNL A   1      37.240  33.154  31.040  1.00  0.00     0.010 A 
ATOM     41  C   UNL A   1      37.105  31.922  31.706  1.00  0.00    -0.014 A 
BRANCH  41  42
ATOM     42  C   UNL A   1      38.358  31.165  31.955  1.00  0.00     0.031 A 
ATOM     43  C   UNL A   1      38.598  29.848  31.275  1.00  0.00     0.074 A 
ATOM     44  C   UNL A   1      39.427  31.851  32.447  1.00  0.00     0.049 A 
ATOM     45  N   UNL A   1      39.718  29.199  31.306  1.00  0.00    -0.248 NA
ATOM     46  C   UNL A   1      37.596  29.145  30.472  1.00  0.00     0.031 C 
ATOM     47  C   UNL A   1      40.845  31.625  32.144  1.00  0.00     0.029 A 
ATOM     48  N   UNL A   1      39.500  32.951  33.294  1.00  0.00    -0.354 N 
ATOM     49  C   UNL A   1      39.721  28.292  30.264  1.00  0.00     0.074 A 
ATOM     50  C   UNL A   1      38.333  28.191  29.884  1.00  0.00     0.031 C 
ATOM     51  C   UNL A   1      41.620  32.480  32.826  1.00  0.00     0.029 A 
ATOM     52  C   UNL A   1      40.779  32.996  33.870  1.00  0.00     0.049 A 
ATOM     53  H   UNL A   1      38.774  33.593  33.462  1.00  0.00     0.167 HD
ATOM     54  C   UNL A   1      40.916  27.879  29.732  1.00  0.00     0.037 A 
ATOM     55  C   UNL A   1      40.982  32.714  35.195  1.00  0.00     0.037 A 
ATOM     56  C   UNL A   1      42.083  28.256  30.563  1.00  0.00     0.049 A 
ATOM     57  C   UNL A   1      41.699  31.369  35.403  1.00  0.00     0.074 A 
ATOM     58  C   UNL A   1      43.375  28.716  30.354  1.00  0.00     0.029 A 
ATOM     59  N   UNL A   1      41.939  28.245  31.944  1.00  0.00    -0.354 N 
ATOM     60  N   UNL A   1      42.153  30.625  34.423  1.00  0.00    -0.248 NA
ATOM     61  C   UNL A   1      41.936  30.725  36.692  1.00  0.00     0.031 C 
ATOM     62  C   UNL A   1      43.963  29.024  31.624  1.00  0.00     0.029 A 
ATOM     63  C   UNL A   1      43.066  28.658  32.609  1.00  0.00     0.049 A 
ATOM     64  H   UNL A   1      41.111  27.967  32.401  1.00  0.00     0.167 HD
ATOM     65  C   UNL A   1      42.647  29.439  34.880  1.00  0.00     0.074 A 
ATOM     66  C   UNL A   1      42.494  29.553  36.321  1.00  0.00     0.031 C 
ATOM     67  C   UNL A   1      43.105  28.454  34.049  1.00  0.00     0.037 A 
BRANCH  54  68
ATOM     68  C   UNL A   1      41.079  27.247  28.349  1.00  0.00     0.057 A 
ATOM     69  C   UNL A   1      41.559  28.007  27.260  1.00  0.00     0.134 A 
ATOM     70  C   UNL A   1      40.662  25.946  27.993  1.00  0.00     0.134 A 
ATOM     71  F   UNL A   1      42.022  29.254  27.431  1.00  0.00    -0.206 F 
ATOM     72  C   UNL A   1      41.587  27.533  25.937  1.00  0.00     0.040 A 
ATOM     73  C   UNL A   1      40.745  25.438  26.683  1.00  0.00     0.040 A 
ATOM     74  F   UNL A   1      40.102  25.114  28.878  1.00  0.00    -0.206 F 
ATOM     75  C   UNL A   1      41.189  26.238  25.644  1.00  0.00     0.006 A 
ENDBRANCH  54  68
BRANCH  55  76
ATOM     76  C   UNL A   1      39.949  33.410  36.026  1.00  0.00     0.057 A 
ATOM     77  C   UNL A   1      38.970  32.550  36.576  1.00  0.00     0.134 A 
ATOM     78  C   UNL A   1      40.294  34.538  36.783  1.00  0.00     0.134 A 
ATOM     79  F   UNL A   1      38.564  31.472  35.889  1.00  0.00    -0.206 F 
ATOM     80  C   UNL A   1      38.578  32.647  37.916  1.00  0.00     0.040 A 
ATOM     81  C   UNL A   1      39.873  34.661  38.118  1.00  0.00     0.040 A 
ATOM     82  F   UNL A   1      41.220  35.396  36.337  1.00  0.00    -0.206 F 
ATOM     83  C   UNL A   1      39.078  33.674  38.707  1.00  0.00     0.006 A 
ENDBRANCH  55  76
BRANCH  67  84
ATOM     84  C   UNL A   1      43.563  27.100  34.517  1.00  0.00     0.057 A 
ATOM     85  C   UNL A   1      44.905  26.723  34.543  1.00  0.00     0.134 A 
ATOM     86  C   UNL A   1      42.636  26.091  34.875  1.00  0.00     0.134 A 
ATOM     87  F   UNL A   1      45.863  27.550  34.099  1.00  0.00    -0.206 F 
ATOM     88  C   UNL A   1      45.310  25.467  35.009  1.00  0.00     0.040 A 
ATOM     89  C   UNL A   1      43.025  24.819  35.291  1.00  0.00     0.040 A 
ATOM     90  F   UNL A   1      41.312  26.295  34.862  1.00  0.00    -0.206 F 
ATOM     91  C   UNL A   1      44.369  24.514  35.391  1.00  0.00     0.006 A 
ENDBRANCH  67  84
ENDBRANCH  41  42
ENDBRANCH  34  36
ENDBRANCH  33  34
ENDBRANCH  32  33
ENDBRANCH  31  32
ENDBRANCH  30  31
ENDBRANCH  29  30
ENDBRANCH  28  29
ENDBRANCH  27  28
ENDBRANCH   1  27
TORSDOF 23
ENDMDL
MODEL 3
REMARK VINA RESULT:     -10.3      1.901      3.695
REMARK SMILES Cc1ccc(Nc2c(F)cccc2Cl)c(CC(=O)OCCOCCOCCOCCOC(=O)c2ccc(-c3c4nc(c(-c5c(F)cccc5F)c5ccc([nH]5)c(-c5c(F)cccc5F)c5nc(c(-c6c(F)cccc6F)c6ccc3[nH]6)C=C5)C=C4)cc2)c1
REMARK SMILES IDX 24 1 23 2 22 3 21 4 20 5 19 6 17 7 18 8 16 9 15 10 1 11 2 12
REMARK SMILES IDX 3 13 88 14 4 15 5 16 6 17 7 19 8 20 13 21 9 22 10 23 12 24
REMARK SMILES IDX 14 25 11 26 25 27 26 28 27 29 28 30 29 31 30 32 31 33 32 34
REMARK SMILES IDX 33 35 34 36 35 37 87 38 36 39 86 40 37 41 38 42 39 43 80 44
REMARK SMILES IDX 40 45 85 46 79 47 81 48 41 49 84 50 78 51 77 52 42 54 68 55
REMARK SMILES IDX 51 56 67 57 52 58 55 59 66 60 82 61 53 62 54 63 65 65 83 66
REMARK SMILES IDX 56 67 43 68 44 69 49 70 45 71 46 72 48 73 50 74 47 75 69 76
REMARK SMILES IDX 70 77 75 78 71 79 72 80 74 81 76 82 73 83 57 84 58 85 63 86
REMARK SMILES IDX 59 87 60 88 62 89 64 90 61 91
REMARK H PARENT 6 18 81 53 55 64
REMARK Flexibility Score: inf
ROOT
ATOM      1  C   UNL A   1      36.212  31.918  28.153  1.00  0.00     0.188 C 
ENDROOT
BRANCH   1   2
ATOM      2  C   UNL A   1      36.323  30.464  27.773  1.00  0.00     0.188 C 
BRANCH   2   3
ATOM      3  O   UNL A   1      35.203  29.624  27.955  1.00  0.00    -0.376 OA
BRANCH   3   4
ATOM      4  C   UNL A   1      34.546  29.361  26.736  1.00  0.00     0.202 C 
BRANCH   4   5
ATOM      5  C   UNL A   1      33.789  28.042  26.645  1.00  0.00     0.261 C 
BRANCH   5   6
ATOM      6  O   UNL A   1      32.434  28.228  26.213  1.00  0.00    -0.463 OA
BRANCH   6   7
ATOM      7  C   UNL A   1      31.525  27.479  26.876  1.00  0.00     0.310 C 
ATOM      8  O   UNL A   1      30.979  27.822  27.923  1.00  0.00    -0.252 OA
BRANCH   7   9
ATOM      9  C   UNL A   1      31.257  26.130  26.262  1.00  0.00     0.160 C 
BRANCH   9  10
ATOM     10  C   UNL A   1      31.574  25.855  24.799  1.00  0.00    -0.013 A 
ATOM     11  C   UNL A   1      34.376  23.801  23.119  1.00  0.00     0.044 C 
ATOM     12  C   UNL A   1      33.168  24.663  23.323  1.00  0.00    -0.051 A 
ATOM     13  C   UNL A   1      32.360  24.976  22.246  1.00  0.00     0.005 A 
ATOM     14  C   UNL A   1      32.787  25.132  24.583  1.00  0.00     0.009 A 
ATOM     15  C   UNL A   1      31.208  25.747  22.426  1.00  0.00     0.026 A 
ATOM     16  C   UNL A   1      30.747  26.188  23.683  1.00  0.00     0.042 A 
BRANCH  16  17
ATOM     17  N   UNL A   1      29.536  26.965  23.789  1.00  0.00    -0.352 N 
ATOM     18  H   UNL A   1      28.802  26.529  24.278  1.00  0.00     0.167 HD
BRANCH  17  19
ATOM     19  C   UNL A   1      29.237  28.286  23.284  1.00  0.00     0.094 A 
ATOM     20  C   UNL A   1      27.934  28.726  23.017  1.00  0.00     0.148 A 
ATOM     21  C   UNL A   1      30.256  29.130  22.782  1.00  0.00     0.067 A 
ATOM     22  F   UNL A   1      26.894  28.193  23.676  1.00  0.00    -0.205 F 
ATOM     23  C   UNL A   1      27.650  29.716  22.069  1.00  0.00     0.041 A 
ATOM     24  C   UNL A   1      29.991  30.086  21.780  1.00  0.00     0.023 A 
ATOM     25  Cl  UNL A   1      31.901  28.974  23.320  1.00  0.00    -0.082 Cl
ATOM     26  C   UNL A   1      28.682  30.344  21.386  1.00  0.00     0.005 A 
ENDBRANCH  17  19
ENDBRANCH  16  17
ENDBRANCH   9  10
ENDBRANCH   7   9
ENDBRANCH   6   7
ENDBRANCH   5   6
ENDBRANCH   4   5
ENDBRANCH   3   4
ENDBRANCH   2   3
ENDBRANCH   1   2
BRANCH   1  27
ATOM     27  O   UNL A   1      35.103  32.621  27.619  1.00  0.00    -0.377 OA
BRANCH  27  28
ATOM     28  C   UNL A   1      34.422  33.366  28.633  1.00  0.00     0.188 C 
BRANCH  28  29
ATOM     29  C   UNL A   1      33.897  34.761  28.268  1.00  0.00     0.188 C 
BRANCH  29  30
ATOM     30  O   UNL A   1      33.929  35.610  29.407  1.00  0.00    -0.376 OA
BRANCH  30  31
ATOM     31  C   UNL A   1      32.691  36.086  29.924  1.00  0.00     0.202 C 
BRANCH  31  32
ATOM     32  C   UNL A   1      32.763  36.009  31.448  1.00  0.00     0.261 C 
BRANCH  32  33
ATOM     33  O   UNL A   1      34.114  36.327  31.852  1.00  0.00    -0.460 OA
BRANCH  33  34
ATOM     34  C   UNL A   1      34.537  35.639  32.955  1.00  0.00     0.338 C 
ATOM     35  O   UNL A   1      34.533  36.069  34.093  1.00  0.00    -0.246 OA
BRANCH  34  36
ATOM     36  C   UNL A   1      35.238  34.375  32.555  1.00  0.00     0.060 A 
ATOM     37  C   UNL A   1      35.076  33.230  33.353  1.00  0.00     0.016 A 
ATOM     38  C   UNL A   1      36.234  34.387  31.582  1.00  0.00     0.016 A 
ATOM     39  C   UNL A   1      35.995  32.169  33.281  1.00  0.00     0.010 A 
ATOM     40  C   UNL A   1      37.165  33.350  31.544  1.00  0.00     0.010 A 
ATOM     41  C   UNL A   1      37.101  32.262  32.436  1.00  0.00    -0.014 A 
BRANCH  41  42
ATOM     42  C   UNL A   1      38.322  31.423  32.542  1.00  0.00     0.031 A 
ATOM     43  C   UNL A   1      38.389  30.090  31.854  1.00  0.00     0.074 A 
ATOM     44  C   UNL A   1      39.486  32.038  32.892  1.00  0.00     0.049 A 
ATOM     45  N   UNL A   1      39.459  29.367  31.758  1.00  0.00    -0.248 NA
ATOM     46  C   UNL A   1      37.252  29.454  31.187  1.00  0.00     0.031 C 
ATOM     47  C   UNL A   1      40.838  31.714  32.423  1.00  0.00     0.029 A 
ATOM     48  N   UNL A   1      39.735  33.133  33.710  1.00  0.00    -0.354 N 
ATOM     49  C   UNL A   1      39.275  28.457  30.735  1.00  0.00     0.074 A 
ATOM     50  C   UNL A   1      37.847  28.449  30.526  1.00  0.00     0.031 C 
ATOM     51  C   UNL A   1      41.745  32.518  32.995  1.00  0.00     0.029 A 
ATOM     52  C   UNL A   1      41.074  33.094  34.126  1.00  0.00     0.049 A 
ATOM     53  H   UNL A   1      39.078  33.824  33.957  1.00  0.00     0.167 HD
ATOM     54  C   UNL A   1      40.366  27.962  30.067  1.00  0.00     0.037 A 
ATOM     55  C   UNL A   1      41.417  32.805  35.421  1.00  0.00     0.037 A 
ATOM     56  C   UNL A   1      41.648  28.263  30.747  1.00  0.00     0.049 A 
ATOM     57  C   UNL A   1      42.063  31.416  35.558  1.00  0.00     0.074 A 
ATOM     58  C   UNL A   1      42.933  28.633  30.377  1.00  0.00     0.029 A 
ATOM     59  N   UNL A   1      41.671  28.267  32.135  1.00  0.00    -0.354 N 
ATOM     60  N   UNL A   1      42.344  30.638  34.539  1.00  0.00    -0.248 NA
ATOM     61  C   UNL A   1      42.411  30.762  36.817  1.00  0.00     0.031 C 
ATOM     62  C   UNL A   1      43.690  28.906  31.563  1.00  0.00     0.029 A 
ATOM     63  C   UNL A   1      42.896  28.606  32.653  1.00  0.00     0.049 A 
ATOM     64  H   UNL A   1      40.889  28.048  32.691  1.00  0.00     0.167 HD
ATOM     65  C   UNL A   1      42.808  29.424  34.949  1.00  0.00     0.074 A 
ATOM     66  C   UNL A   1      42.840  29.554  36.396  1.00  0.00     0.031 C 
ATOM     67  C   UNL A   1      43.096  28.405  34.081  1.00  0.00     0.037 A 
BRANCH  54  68
ATOM     68  C   UNL A   1      40.317  27.314  28.683  1.00  0.00     0.057 A 
ATOM     69  C   UNL A   1      39.722  26.046  28.500  1.00  0.00     0.134 A 
ATOM     70  C   UNL A   1      40.947  27.817  27.524  1.00  0.00     0.134 A 
ATOM     71  F   UNL A   1      39.058  25.439  29.494  1.00  0.00    -0.206 F 
ATOM     72  C   UNL A   1      39.781  25.331  27.291  1.00  0.00     0.040 A 
ATOM     73  C   UNL A   1      40.956  27.139  26.291  1.00  0.00     0.040 A 
ATOM     74  F   UNL A   1      41.635  28.965  27.532  1.00  0.00    -0.206 F 
ATOM     75  C   UNL A   1      40.391  25.880  26.175  1.00  0.00     0.006 A 
ENDBRANCH  54  68
BRANCH  55  76
ATOM     76  C   UNL A   1      40.541  33.573  36.362  1.00  0.00     0.057 A 
ATOM     77  C   UNL A   1      39.593  32.782  37.050  1.00  0.00     0.134 A 
ATOM     78  C   UNL A   1      41.045  34.689  37.044  1.00  0.00     0.134 A 
ATOM     79  F   UNL A   1      39.040  31.720  36.443  1.00  0.00    -0.206 F 
ATOM     80  C   UNL A   1      39.382  32.920  38.426  1.00  0.00     0.040 A 
ATOM     81  C   UNL A   1      40.807  34.855  38.420  1.00  0.00     0.040 A 
ATOM     82  F   UNL A   1      41.955  35.484  36.466  1.00  0.00    -0.206 F 
ATOM     83  C   UNL A   1      40.038  33.926  39.126  1.00  0.00     0.006 A 
ENDBRANCH  55  76
BRANCH  67  84
ATOM     84  C   UNL A   1      43.515  27.026  34.507  1.00  0.00     0.057 A 
ATOM     85  C   UNL A   1      42.606  26.052  34.918  1.00  0.00     0.134 A 
ATOM     86  C   UNL A   1      44.882  26.666  34.599  1.00  0.00     0.134 A 
ATOM     87  F   UNL A   1      41.295  26.323  34.999  1.00  0.00    -0.206 F 
ATOM     88  C   UNL A   1      43.017  24.765  35.283  1.00  0.00     0.040 A 
ATOM     89  C   UNL A   1      45.306  25.405  35.012  1.00  0.00     0.040 A 
ATOM     90  F   UNL A   1      45.870  27.510  34.273  1.00  0.00    -0.206 F 
ATOM     91  C   UNL A   1      44.369  24.437  35.324  1.00  0.00     0.006 A 
ENDBRANCH  67  84
ENDBRANCH  41  42
ENDBRANCH  34  36
ENDBRANCH  33  34
ENDBRANCH  32  33
ENDBRANCH  31  32
ENDBRANCH  30  31
ENDBRANCH  29  30
ENDBRANCH  28  29
ENDBRANCH  27  28
ENDBRANCH   1  27
TORSDOF 23
ENDMDL
