MODEL 1
REMARK VINA RESULT:     -10.4      0.000      0.000
REMARK SMILES Cc1ccc(Nc2c(Cl)cc(Cl)cc2Cl)c(CC(=O)OCCOCCOCCOCCOC(=O)c2ccc(-c3c4nc(c(-c5c(F)cccc5F)c5ccc([nH]5)c(-c5c(F)cccc5F)c5nc(c(-c6c(F)cccc6F)c6ccc3[nH]6)C=C5)C=C4)cc2)c1
REMARK SMILES IDX 25 1 24 2 23 3 22 4 21 5 20 6 18 7 19 8 17 9 16 10 1 11 2 12
REMARK SMILES IDX 3 13 89 14 4 15 5 16 6 17 7 19 8 20 14 21 9 22 10 23 13 24
REMARK SMILES IDX 15 25 11 26 12 27 26 28 27 29 28 30 29 31 30 32 31 33 32 34
REMARK SMILES IDX 33 35 34 36 35 37 36 38 88 39 37 40 87 41 38 42 39 43 40 44
REMARK SMILES IDX 81 45 41 46 86 47 80 48 82 49 42 50 85 51 79 52 78 53 43 55
REMARK SMILES IDX 69 56 52 57 68 58 53 59 56 60 67 61 83 62 54 63 55 64 66 66
REMARK SMILES IDX 84 67 57 68 44 69 45 70 50 71 46 72 47 73 49 74 51 75 48 76
REMARK SMILES IDX 70 77 71 78 76 79 72 80 73 81 75 82 77 83 74 84 58 85 59 86
REMARK SMILES IDX 64 87 60 88 61 89 63 90 65 91 62 92
REMARK H PARENT 6 18 82 54 56 65
REMARK Flexibility Score: inf
ROOT
ATOM      1  C   UNL A   1      34.782  31.773  28.835  1.00  0.00     0.188 C 
ENDROOT
BRANCH   1   2
ATOM      2  C   UNL A   1      33.744  31.712  27.750  1.00  0.00     0.188 C 
BRANCH   2   3
ATOM      3  O   UNL A   1      33.189  30.514  27.274  1.00  0.00    -0.376 OA
BRANCH   3   4
ATOM      4  C   UNL A   1      34.159  29.615  26.806  1.00  0.00     0.202 C 
BRANCH   4   5
ATOM      5  C   UNL A   1      33.866  28.091  26.769  1.00  0.00     0.261 C 
BRANCH   5   6
ATOM      6  O   UNL A   1      32.757  27.661  25.962  1.00  0.00    -0.463 OA
BRANCH   6   7
ATOM      7  C   UNL A   1      31.893  26.844  26.621  1.00  0.00     0.310 C 
ATOM      8  O   UNL A   1      31.105  27.228  27.482  1.00  0.00    -0.252 OA
BRANCH   7   9
ATOM      9  C   UNL A   1      31.997  25.382  26.249  1.00  0.00     0.160 C 
BRANCH   9  10
ATOM     10  C   UNL A   1      33.004  24.922  25.201  1.00  0.00    -0.013 A 
ATOM     11  C   UNL A   1      36.439  23.209  25.551  1.00  0.00     0.044 C 
ATOM     12  C   UNL A   1      35.225  23.855  24.949  1.00  0.00    -0.051 A 
ATOM     13  C   UNL A   1      35.034  23.846  23.575  1.00  0.00     0.005 A 
ATOM     14  C   UNL A   1      34.227  24.421  25.744  1.00  0.00     0.009 A 
ATOM     15  C   UNL A   1      33.878  24.408  23.013  1.00  0.00     0.026 A 
ATOM     16  C   UNL A   1      32.814  24.933  23.782  1.00  0.00     0.042 A 
BRANCH  16  17
ATOM     17  N   UNL A   1      31.637  25.473  23.125  1.00  0.00    -0.353 N 
ATOM     18  H   UNL A   1      31.099  24.824  22.617  1.00  0.00     0.167 HD
BRANCH  17  19
ATOM     19  C   UNL A   1      31.145  26.838  23.114  1.00  0.00     0.076 A 
ATOM     20  C   UNL A   1      29.818  27.147  23.462  1.00  0.00     0.067 A 
ATOM     21  C   UNL A   1      31.888  27.931  22.576  1.00  0.00     0.067 A 
ATOM     22  Cl  UNL A   1      28.911  26.116  24.521  1.00  0.00    -0.082 Cl
ATOM     23  C   UNL A   1      29.206  28.349  23.076  1.00  0.00     0.043 A 
ATOM     24  C   UNL A   1      31.266  29.106  22.114  1.00  0.00     0.043 A 
ATOM     25  Cl  UNL A   1      33.625  28.009  22.606  1.00  0.00    -0.082 Cl
ATOM     26  C   UNL A   1      29.914  29.292  22.344  1.00  0.00     0.044 A 
ATOM     27  Cl  UNL A   1      29.132  30.720  21.790  1.00  0.00    -0.084 Cl
ENDBRANCH  17  19
ENDBRANCH  16  17
ENDBRANCH   9  10
ENDBRANCH   7   9
ENDBRANCH   6   7
ENDBRANCH   5   6
ENDBRANCH   4   5
ENDBRANCH   3   4
ENDBRANCH   2   3
ENDBRANCH   1   2
BRANCH   1  28
ATOM     28  O   UNL A   1      34.850  33.102  29.368  1.00  0.00    -0.377 OA
BRANCH  28  29
ATOM     29  C   UNL A   1      35.092  34.103  28.386  1.00  0.00     0.188 C 
BRANCH  29  30
ATOM     30  C   UNL A   1      34.211  35.339  28.464  1.00  0.00     0.188 C 
BRANCH  30  31
ATOM     31  O   UNL A   1      33.426  35.219  29.633  1.00  0.00    -0.376 OA
BRANCH  31  32
ATOM     32  C   UNL A   1      32.889  36.413  30.172  1.00  0.00     0.202 C 
BRANCH  32  33
ATOM     33  C   UNL A   1      32.802  36.271  31.689  1.00  0.00     0.261 C 
BRANCH  33  34
ATOM     34  O   UNL A   1      34.098  36.588  32.249  1.00  0.00    -0.460 OA
BRANCH  34  35
ATOM     35  C   UNL A   1      34.522  35.710  33.209  1.00  0.00     0.338 C 
ATOM     36  O   UNL A   1      34.518  35.922  34.402  1.00  0.00    -0.246 OA
BRANCH  35  37
ATOM     37  C   UNL A   1      35.246  34.553  32.586  1.00  0.00     0.060 A 
ATOM     38  C   UNL A   1      34.959  33.250  33.032  1.00  0.00     0.016 A 
ATOM     39  C   UNL A   1      36.374  34.765  31.803  1.00  0.00     0.016 A 
ATOM     40  C   UNL A   1      35.895  32.211  32.868  1.00  0.00     0.010 A 
ATOM     41  C   UNL A   1      37.301  33.739  31.669  1.00  0.00     0.010 A 
ATOM     42  C   UNL A   1      37.128  32.481  32.281  1.00  0.00    -0.014 A 
BRANCH  42  43
ATOM     43  C   UNL A   1      38.362  31.651  32.425  1.00  0.00     0.031 A 
ATOM     44  C   UNL A   1      38.418  30.326  31.703  1.00  0.00     0.074 A 
ATOM     45  C   UNL A   1      39.489  32.266  32.889  1.00  0.00     0.049 A 
ATOM     46  N   UNL A   1      39.439  29.535  31.651  1.00  0.00    -0.248 NA
ATOM     47  C   UNL A   1      37.260  29.750  31.003  1.00  0.00     0.031 C 
ATOM     48  C   UNL A   1      40.863  32.254  32.382  1.00  0.00     0.029 A 
ATOM     49  N   UNL A   1      39.626  33.172  33.928  1.00  0.00    -0.354 N 
ATOM     50  C   UNL A   1      39.195  28.568  30.676  1.00  0.00     0.074 A 
ATOM     51  C   UNL A   1      37.787  28.679  30.399  1.00  0.00     0.031 C 
ATOM     52  C   UNL A   1      41.712  32.917  33.168  1.00  0.00     0.029 A 
ATOM     53  C   UNL A   1      40.976  33.273  34.325  1.00  0.00     0.049 A 
ATOM     54  H   UNL A   1      38.884  33.676  34.333  1.00  0.00     0.167 HD
ATOM     55  C   UNL A   1      40.242  27.910  30.078  1.00  0.00     0.037 A 
ATOM     56  C   UNL A   1      41.350  32.898  35.575  1.00  0.00     0.037 A 
ATOM     57  C   UNL A   1      41.533  28.147  30.772  1.00  0.00     0.049 A 
ATOM     58  C   UNL A   1      41.955  31.487  35.596  1.00  0.00     0.074 A 
ATOM     59  C   UNL A   1      42.862  28.284  30.403  1.00  0.00     0.029 A 
ATOM     60  N   UNL A   1      41.530  28.367  32.146  1.00  0.00    -0.354 N 
ATOM     61  N   UNL A   1      42.179  30.728  34.541  1.00  0.00    -0.248 NA
ATOM     62  C   UNL A   1      42.351  30.816  36.830  1.00  0.00     0.031 C 
ATOM     63  C   UNL A   1      43.632  28.610  31.563  1.00  0.00     0.029 A 
ATOM     64  C   UNL A   1      42.783  28.596  32.653  1.00  0.00     0.049 A 
ATOM     65  H   UNL A   1      40.714  28.359  32.697  1.00  0.00     0.167 HD
ATOM     66  C   UNL A   1      42.668  29.502  34.931  1.00  0.00     0.074 A 
ATOM     67  C   UNL A   1      42.743  29.612  36.379  1.00  0.00     0.031 C 
ATOM     68  C   UNL A   1      42.963  28.462  34.086  1.00  0.00     0.037 A 
BRANCH  55  69
ATOM     69  C   UNL A   1      40.185  27.218  28.696  1.00  0.00     0.057 A 
ATOM     70  C   UNL A   1      39.561  25.957  28.550  1.00  0.00     0.134 A 
ATOM     71  C   UNL A   1      40.860  27.636  27.525  1.00  0.00     0.134 A 
ATOM     72  F   UNL A   1      38.806  25.439  29.529  1.00  0.00    -0.206 F 
ATOM     73  C   UNL A   1      39.673  25.153  27.400  1.00  0.00     0.040 A 
ATOM     74  C   UNL A   1      40.911  26.875  26.337  1.00  0.00     0.040 A 
ATOM     75  F   UNL A   1      41.551  28.780  27.468  1.00  0.00    -0.206 F 
ATOM     76  C   UNL A   1      40.346  25.612  26.281  1.00  0.00     0.006 A 
ENDBRANCH  55  69
BRANCH  56  77
ATOM     77  C   UNL A   1      40.473  33.664  36.525  1.00  0.00     0.057 A 
ATOM     78  C   UNL A   1      39.603  32.824  37.274  1.00  0.00     0.134 A 
ATOM     79  C   UNL A   1      41.014  34.763  37.205  1.00  0.00     0.134 A 
ATOM     80  F   UNL A   1      39.038  31.755  36.688  1.00  0.00    -0.206 F 
ATOM     81  C   UNL A   1      39.551  32.881  38.672  1.00  0.00     0.040 A 
ATOM     82  C   UNL A   1      40.930  34.848  38.606  1.00  0.00     0.040 A 
ATOM     83  F   UNL A   1      41.850  35.599  36.574  1.00  0.00    -0.206 F 
ATOM     84  C   UNL A   1      40.267  33.864  39.347  1.00  0.00     0.006 A 
ENDBRANCH  56  77
BRANCH  68  85
ATOM     85  C   UNL A   1      43.378  27.082  34.542  1.00  0.00     0.057 A 
ATOM     86  C   UNL A   1      44.704  26.655  34.601  1.00  0.00     0.134 A 
ATOM     87  C   UNL A   1      42.409  26.098  34.866  1.00  0.00     0.134 A 
ATOM     88  F   UNL A   1      45.701  27.439  34.164  1.00  0.00    -0.206 F 
ATOM     89  C   UNL A   1      45.052  25.390  35.088  1.00  0.00     0.040 A 
ATOM     90  C   UNL A   1      42.742  24.812  35.289  1.00  0.00     0.040 A 
ATOM     91  F   UNL A   1      41.093  26.336  34.799  1.00  0.00    -0.206 F 
ATOM     92  C   UNL A   1      44.073  24.467  35.442  1.00  0.00     0.006 A 
ENDBRANCH  68  85
ENDBRANCH  42  43
ENDBRANCH  35  37
ENDBRANCH  34  35
ENDBRANCH  33  34
ENDBRANCH  32  33
ENDBRANCH  31  32
ENDBRANCH  30  31
ENDBRANCH  29  30
ENDBRANCH  28  29
ENDBRANCH   1  28
TORSDOF 23
ENDMDL
MODEL 2
REMARK VINA RESULT:     -10.1      1.336      2.902
REMARK SMILES Cc1ccc(Nc2c(Cl)cc(Cl)cc2Cl)c(CC(=O)OCCOCCOCCOCCOC(=O)c2ccc(-c3c4nc(c(-c5c(F)cccc5F)c5ccc([nH]5)c(-c5c(F)cccc5F)c5nc(c(-c6c(F)cccc6F)c6ccc3[nH]6)C=C5)C=C4)cc2)c1
REMARK SMILES IDX 25 1 24 2 23 3 22 4 21 5 20 6 18 7 19 8 17 9 16 10 1 11 2 12
REMARK SMILES IDX 3 13 89 14 4 15 5 16 6 17 7 19 8 20 14 21 9 22 10 23 13 24
REMARK SMILES IDX 15 25 11 26 12 27 26 28 27 29 28 30 29 31 30 32 31 33 32 34
REMARK SMILES IDX 33 35 34 36 35 37 36 38 88 39 37 40 87 41 38 42 39 43 40 44
REMARK SMILES IDX 81 45 41 46 86 47 80 48 82 49 42 50 85 51 79 52 78 53 43 55
REMARK SMILES IDX 69 56 52 57 68 58 53 59 56 60 67 61 83 62 54 63 55 64 66 66
REMARK SMILES IDX 84 67 57 68 44 69 45 70 50 71 46 72 47 73 49 74 51 75 48 76
REMARK SMILES IDX 70 77 71 78 76 79 72 80 73 81 75 82 77 83 74 84 58 85 59 86
REMARK SMILES IDX 64 87 60 88 61 89 63 90 65 91 62 92
REMARK H PARENT 6 18 82 54 56 65
REMARK Flexibility Score: inf
ROOT
ATOM      1  C   UNL A   1      34.423  31.871  28.890  1.00  0.00     0.188 C 
ENDROOT
BRANCH   1   2
ATOM      2  C   UNL A   1      33.492  32.011  27.718  1.00  0.00     0.188 C 
BRANCH   2   3
ATOM      3  O   UNL A   1      33.257  30.988  26.788  1.00  0.00    -0.376 OA
BRANCH   3   4
ATOM      4  C   UNL A   1      34.150  29.915  26.924  1.00  0.00     0.202 C 
BRANCH   4   5
ATOM      5  C   UNL A   1      33.680  28.574  27.552  1.00  0.00     0.261 C 
BRANCH   5   6
ATOM      6  O   UNL A   1      32.937  27.684  26.704  1.00  0.00    -0.463 OA
BRANCH   6   7
ATOM      7  C   UNL A   1      31.636  27.543  27.076  1.00  0.00     0.310 C 
ATOM      8  O   UNL A   1      31.123  28.140  28.019  1.00  0.00    -0.252 OA
BRANCH   7   9
ATOM      9  C   UNL A   1      30.850  26.544  26.259  1.00  0.00     0.160 C 
BRANCH   9  10
ATOM     10  C   UNL A   1      30.899  26.581  24.736  1.00  0.00    -0.013 A 
ATOM     11  C   UNL A   1      30.265  29.447  22.237  1.00  0.00     0.044 C 
ATOM     12  C   UNL A   1      30.568  28.087  22.797  1.00  0.00    -0.051 A 
ATOM     13  C   UNL A   1      31.001  27.065  21.965  1.00  0.00     0.005 A 
ATOM     14  C   UNL A   1      30.489  27.825  24.166  1.00  0.00     0.009 A 
ATOM     15  C   UNL A   1      31.329  25.807  22.493  1.00  0.00     0.026 A 
ATOM     16  C   UNL A   1      31.326  25.517  23.877  1.00  0.00     0.042 A 
BRANCH  16  17
ATOM     17  N   UNL A   1      31.705  24.197  24.346  1.00  0.00    -0.353 N 
ATOM     18  H   UNL A   1      30.959  23.593  24.563  1.00  0.00     0.167 HD
BRANCH  17  19
ATOM     19  C   UNL A   1      33.033  23.647  24.540  1.00  0.00     0.076 A 
ATOM     20  C   UNL A   1      33.571  23.452  25.825  1.00  0.00     0.067 A 
ATOM     21  C   UNL A   1      33.959  23.445  23.472  1.00  0.00     0.067 A 
ATOM     22  Cl  UNL A   1      32.538  23.209  27.196  1.00  0.00    -0.082 Cl
ATOM     23  C   UNL A   1      34.951  23.324  26.044  1.00  0.00     0.043 A 
ATOM     24  C   UNL A   1      35.349  23.396  23.683  1.00  0.00     0.043 A 
ATOM     25  Cl  UNL A   1      33.470  23.052  21.850  1.00  0.00    -0.082 Cl
ATOM     26  C   UNL A   1      35.838  23.367  24.977  1.00  0.00     0.044 A 
ATOM     27  Cl  UNL A   1      37.533  23.308  25.260  1.00  0.00    -0.084 Cl
ENDBRANCH  17  19
ENDBRANCH  16  17
ENDBRANCH   9  10
ENDBRANCH   7   9
ENDBRANCH   6   7
ENDBRANCH   5   6
ENDBRANCH   4   5
ENDBRANCH   3   4
ENDBRANCH   2   3
ENDBRANCH   1   2
BRANCH   1  28
ATOM     28  O   UNL A   1      35.102  33.112  29.122  1.00  0.00    -0.377 OA
BRANCH  28  29
ATOM     29  C   UNL A   1      35.053  34.009  28.017  1.00  0.00     0.188 C 
BRANCH  29  30
ATOM     30  C   UNL A   1      34.385  35.349  28.277  1.00  0.00     0.188 C 
BRANCH  30  31
ATOM     31  O   UNL A   1      33.626  35.214  29.462  1.00  0.00    -0.376 OA
BRANCH  31  32
ATOM     32  C   UNL A   1      33.097  36.401  30.025  1.00  0.00     0.202 C 
BRANCH  32  33
ATOM     33  C   UNL A   1      32.873  36.179  31.517  1.00  0.00     0.261 C 
BRANCH  33  34
ATOM     34  O   UNL A   1      34.056  36.619  32.224  1.00  0.00    -0.460 OA
BRANCH  34  35
ATOM     35  C   UNL A   1      34.496  35.742  33.178  1.00  0.00     0.338 C 
ATOM     36  O   UNL A   1      34.495  35.949  34.372  1.00  0.00    -0.246 OA
BRANCH  35  37
ATOM     37  C   UNL A   1      35.232  34.597  32.547  1.00  0.00     0.060 A 
ATOM     38  C   UNL A   1      34.938  33.286  32.961  1.00  0.00     0.016 A 
ATOM     39  C   UNL A   1      36.375  34.825  31.790  1.00  0.00     0.016 A 
ATOM     40  C   UNL A   1      35.877  32.251  32.795  1.00  0.00     0.010 A 
ATOM     41  C   UNL A   1      37.305  33.802  31.652  1.00  0.00     0.010 A 
ATOM     42  C   UNL A   1      37.121  32.533  32.237  1.00  0.00    -0.014 A 
BRANCH  42  43
ATOM     43  C   UNL A   1      38.352  31.700  32.387  1.00  0.00     0.031 A 
ATOM     44  C   UNL A   1      38.413  30.379  31.659  1.00  0.00     0.074 A 
ATOM     45  C   UNL A   1      39.476  32.312  32.865  1.00  0.00     0.049 A 
ATOM     46  N   UNL A   1      39.434  29.586  31.613  1.00  0.00    -0.248 NA
ATOM     47  C   UNL A   1      37.260  29.807  30.946  1.00  0.00     0.031 C 
ATOM     48  C   UNL A   1      40.854  32.300  32.370  1.00  0.00     0.029 A 
ATOM     49  N   UNL A   1      39.605  33.212  33.909  1.00  0.00    -0.354 N 
ATOM     50  C   UNL A   1      39.197  28.624  30.631  1.00  0.00     0.074 A 
ATOM     51  C   UNL A   1      37.791  28.739  30.342  1.00  0.00     0.031 C 
ATOM     52  C   UNL A   1      41.698  32.958  33.166  1.00  0.00     0.029 A 
ATOM     53  C   UNL A   1      40.952  33.309  34.318  1.00  0.00     0.049 A 
ATOM     54  H   UNL A   1      38.860  33.715  34.310  1.00  0.00     0.167 HD
ATOM     55  C   UNL A   1      40.249  27.968  30.039  1.00  0.00     0.037 A 
ATOM     56  C   UNL A   1      41.314  32.927  35.570  1.00  0.00     0.037 A 
ATOM     57  C   UNL A   1      41.533  28.200  30.746  1.00  0.00     0.049 A 
ATOM     58  C   UNL A   1      41.917  31.516  35.590  1.00  0.00     0.074 A 
ATOM     59  C   UNL A   1      42.866  28.336  30.390  1.00  0.00     0.029 A 
ATOM     60  N   UNL A   1      41.518  28.413  32.121  1.00  0.00    -0.354 N 
ATOM     61  N   UNL A   1      42.149  30.762  34.532  1.00  0.00    -0.248 NA
ATOM     62  C   UNL A   1      42.301  30.838  36.824  1.00  0.00     0.031 C 
ATOM     63  C   UNL A   1      43.626  28.656  31.557  1.00  0.00     0.029 A 
ATOM     64  C   UNL A   1      42.767  28.638  32.640  1.00  0.00     0.049 A 
ATOM     65  H   UNL A   1      40.698  28.404  32.664  1.00  0.00     0.167 HD
ATOM     66  C   UNL A   1      42.633  29.533  34.921  1.00  0.00     0.074 A 
ATOM     67  C   UNL A   1      42.695  29.636  36.371  1.00  0.00     0.031 C 
ATOM     68  C   UNL A   1      42.934  28.496  34.073  1.00  0.00     0.037 A 
BRANCH  55  69
ATOM     69  C   UNL A   1      40.202  27.282  28.653  1.00  0.00     0.057 A 
ATOM     70  C   UNL A   1      39.625  26.000  28.506  1.00  0.00     0.134 A 
ATOM     71  C   UNL A   1      40.849  27.733  27.478  1.00  0.00     0.134 A 
ATOM     72  F   UNL A   1      38.900  25.448  29.489  1.00  0.00    -0.206 F 
ATOM     73  C   UNL A   1      39.756  25.208  27.350  1.00  0.00     0.040 A 
ATOM     74  C   UNL A   1      40.916  26.982  26.285  1.00  0.00     0.040 A 
ATOM     75  F   UNL A   1      41.496  28.903  27.421  1.00  0.00    -0.206 F 
ATOM     76  C   UNL A   1      40.399  25.699  26.227  1.00  0.00     0.006 A 
ENDBRANCH  55  69
BRANCH  56  77
ATOM     77  C   UNL A   1      40.429  33.690  36.516  1.00  0.00     0.057 A 
ATOM     78  C   UNL A   1      39.546  32.849  37.247  1.00  0.00     0.134 A 
ATOM     79  C   UNL A   1      40.968  34.780  37.212  1.00  0.00     0.134 A 
ATOM     80  F   UNL A   1      38.982  31.788  36.644  1.00  0.00    -0.206 F 
ATOM     81  C   UNL A   1      39.477  32.893  38.645  1.00  0.00     0.040 A 
ATOM     82  C   UNL A   1      40.868  34.854  38.613  1.00  0.00     0.040 A 
ATOM     83  F   UNL A   1      41.817  35.617  36.599  1.00  0.00    -0.206 F 
ATOM     84  C   UNL A   1      40.190  33.867  39.336  1.00  0.00     0.006 A 
ENDBRANCH  56  77
BRANCH  68  85
ATOM     85  C   UNL A   1      43.343  27.114  34.527  1.00  0.00     0.057 A 
ATOM     86  C   UNL A   1      42.438  26.142  34.952  1.00  0.00     0.134 A 
ATOM     87  C   UNL A   1      44.711  26.752  34.624  1.00  0.00     0.134 A 
ATOM     88  F   UNL A   1      41.131  26.419  35.063  1.00  0.00    -0.206 F 
ATOM     89  C   UNL A   1      42.851  24.853  35.307  1.00  0.00     0.040 A 
ATOM     90  C   UNL A   1      45.137  25.492  35.040  1.00  0.00     0.040 A 
ATOM     91  F   UNL A   1      45.702  27.597  34.310  1.00  0.00    -0.206 F 
ATOM     92  C   UNL A   1      44.202  24.520  35.343  1.00  0.00     0.006 A 
ENDBRANCH  68  85
ENDBRANCH  42  43
ENDBRANCH  35  37
ENDBRANCH  34  35
ENDBRANCH  33  34
ENDBRANCH  32  33
ENDBRANCH  31  32
ENDBRANCH  30  31
ENDBRANCH  29  30
ENDBRANCH  28  29
ENDBRANCH   1  28
TORSDOF 23
ENDMDL
MODEL 3
REMARK VINA RESULT:     -10.1      4.751      9.900
REMARK SMILES Cc1ccc(Nc2c(Cl)cc(Cl)cc2Cl)c(CC(=O)OCCOCCOCCOCCOC(=O)c2ccc(-c3c4nc(c(-c5c(F)cccc5F)c5ccc([nH]5)c(-c5c(F)cccc5F)c5nc(c(-c6c(F)cccc6F)c6ccc3[nH]6)C=C5)C=C4)cc2)c1
REMARK SMILES IDX 25 1 24 2 23 3 22 4 21 5 20 6 18 7 19 8 17 9 16 10 1 11 2 12
REMARK SMILES IDX 3 13 89 14 4 15 5 16 6 17 7 19 8 20 14 21 9 22 10 23 13 24
REMARK SMILES IDX 15 25 11 26 12 27 26 28 27 29 28 30 29 31 30 32 31 33 32 34
REMARK SMILES IDX 33 35 34 36 35 37 36 38 88 39 37 40 87 41 38 42 39 43 40 44
REMARK SMILES IDX 81 45 41 46 86 47 80 48 82 49 42 50 85 51 79 52 78 53 43 55
REMARK SMILES IDX 69 56 52 57 68 58 53 59 56 60 67 61 83 62 54 63 55 64 66 66
REMARK SMILES IDX 84 67 57 68 44 69 45 70 50 71 46 72 47 73 49 74 51 75 48 76
REMARK SMILES IDX 70 77 71 78 76 79 72 80 73 81 75 82 77 83 74 84 58 85 59 86
REMARK SMILES IDX 64 87 60 88 61 89 63 90 65 91 62 92
REMARK H PARENT 6 18 82 54 56 65
REMARK Flexibility Score: inf
ROOT
ATOM      1  C   UNL A   1      34.254  20.722  24.644  1.00  0.00     0.188 C 
ENDROOT
BRANCH   1   2
ATOM      2  C   UNL A   1      33.038  20.238  25.383  1.00  0.00     0.188 C 
BRANCH   2   3
ATOM      3  O   UNL A   1      31.832  20.951  25.442  1.00  0.00    -0.376 OA
BRANCH   3   4
ATOM      4  C   UNL A   1      31.787  21.855  26.514  1.00  0.00     0.202 C 
BRANCH   4   5
ATOM      5  C   UNL A   1      31.051  23.215  26.367  1.00  0.00     0.261 C 
BRANCH   5   6
ATOM      6  O   UNL A   1      31.467  24.277  27.241  1.00  0.00    -0.463 OA
BRANCH   6   7
ATOM      7  C   UNL A   1      31.761  25.432  26.586  1.00  0.00     0.310 C 
ATOM      8  O   UNL A   1      30.994  26.388  26.502  1.00  0.00    -0.252 OA
BRANCH   7   9
ATOM      9  C   UNL A   1      33.113  25.448  25.910  1.00  0.00     0.160 C 
BRANCH   9  10
ATOM     10  C   UNL A   1      33.219  25.391  24.391  1.00  0.00    -0.013 A 
ATOM     11  C   UNL A   1      32.593  22.515  21.902  1.00  0.00     0.044 C 
ATOM     12  C   UNL A   1      32.957  23.860  22.461  1.00  0.00    -0.051 A 
ATOM     13  C   UNL A   1      33.192  24.933  21.614  1.00  0.00     0.005 A 
ATOM     14  C   UNL A   1      33.006  24.091  23.837  1.00  0.00     0.009 A 
ATOM     15  C   UNL A   1      33.486  26.201  22.136  1.00  0.00     0.026 A 
ATOM     16  C   UNL A   1      33.483  26.496  23.518  1.00  0.00     0.042 A 
BRANCH  16  17
ATOM     17  N   UNL A   1      33.771  27.842  23.978  1.00  0.00    -0.353 N 
ATOM     18  H   UNL A   1      34.606  28.237  23.638  1.00  0.00     0.167 HD
BRANCH  17  19
ATOM     19  C   UNL A   1      32.997  28.685  24.870  1.00  0.00     0.076 A 
ATOM     20  C   UNL A   1      31.717  29.150  24.520  1.00  0.00     0.067 A 
ATOM     21  C   UNL A   1      33.534  29.261  26.061  1.00  0.00     0.067 A 
ATOM     22  Cl  UNL A   1      30.726  28.275  23.398  1.00  0.00    -0.082 Cl
ATOM     23  C   UNL A   1      31.132  30.264  25.142  1.00  0.00     0.043 A 
ATOM     24  C   UNL A   1      32.995  30.425  26.641  1.00  0.00     0.043 A 
ATOM     25  Cl  UNL A   1      34.768  28.494  27.017  1.00  0.00    -0.082 Cl
ATOM     26  C   UNL A   1      31.806  30.936  26.152  1.00  0.00     0.044 A 
ATOM     27  Cl  UNL A   1      31.128  32.358  26.844  1.00  0.00    -0.084 Cl
ENDBRANCH  17  19
ENDBRANCH  16  17
ENDBRANCH   9  10
ENDBRANCH   7   9
ENDBRANCH   6   7
ENDBRANCH   5   6
ENDBRANCH   4   5
ENDBRANCH   3   4
ENDBRANCH   2   3
ENDBRANCH   1   2
BRANCH   1  28
ATOM     28  O   UNL A   1      35.341  20.898  25.561  1.00  0.00    -0.377 OA
BRANCH  28  29
ATOM     29  C   UNL A   1      35.306  22.135  26.265  1.00  0.00     0.188 C 
BRANCH  29  30
ATOM     30  C   UNL A   1      36.289  23.195  25.797  1.00  0.00     0.188 C 
BRANCH  30  31
ATOM     31  O   UNL A   1      37.348  22.523  25.144  1.00  0.00    -0.376 OA
BRANCH  31  32
ATOM     32  C   UNL A   1      38.529  22.304  25.893  1.00  0.00     0.202 C 
BRANCH  32  33
ATOM     33  C   UNL A   1      39.000  20.872  25.658  1.00  0.00     0.261 C 
BRANCH  33  34
ATOM     34  O   UNL A   1      39.972  20.541  26.677  1.00  0.00    -0.460 OA
BRANCH  34  35
ATOM     35  C   UNL A   1      41.215  20.246  26.189  1.00  0.00     0.338 C 
ATOM     36  O   UNL A   1      41.509  19.235  25.588  1.00  0.00    -0.246 OA
BRANCH  35  37
ATOM     37  C   UNL A   1      42.238  21.203  26.726  1.00  0.00     0.060 A 
ATOM     38  C   UNL A   1      42.341  21.380  28.118  1.00  0.00     0.016 A 
ATOM     39  C   UNL A   1      42.868  22.110  25.883  1.00  0.00     0.016 A 
ATOM     40  C   UNL A   1      42.893  22.558  28.655  1.00  0.00     0.010 A 
ATOM     41  C   UNL A   1      43.389  23.279  26.422  1.00  0.00     0.010 A 
ATOM     42  C   UNL A   1      43.320  23.570  27.800  1.00  0.00    -0.014 A 
BRANCH  42  43
ATOM     43  C   UNL A   1      43.506  25.005  28.173  1.00  0.00     0.031 A 
ATOM     44  C   UNL A   1      42.307  25.919  28.112  1.00  0.00     0.074 A 
ATOM     45  C   UNL A   1      44.628  25.335  28.878  1.00  0.00     0.049 A 
ATOM     46  N   UNL A   1      42.278  27.157  28.485  1.00  0.00    -0.248 NA
ATOM     47  C   UNL A   1      41.013  25.501  27.551  1.00  0.00     0.031 C 
ATOM     48  C   UNL A   1      44.793  26.135  30.094  1.00  0.00     0.029 A 
ATOM     49  N   UNL A   1      45.934  24.911  28.693  1.00  0.00    -0.354 N 
ATOM     50  C   UNL A   1      40.946  27.569  28.535  1.00  0.00     0.074 A 
ATOM     51  C   UNL A   1      40.223  26.543  27.830  1.00  0.00     0.031 C 
ATOM     52  C   UNL A   1      46.071  26.306  30.434  1.00  0.00     0.029 A 
ATOM     53  C   UNL A   1      46.833  25.760  29.372  1.00  0.00     0.049 A 
ATOM     54  H   UNL A   1      46.198  24.127  28.161  1.00  0.00     0.167 HD
ATOM     55  C   UNL A   1      40.582  28.632  29.324  1.00  0.00     0.037 A 
ATOM     56  C   UNL A   1      47.744  26.488  28.676  1.00  0.00     0.037 A 
ATOM     57  C   UNL A   1      41.752  29.390  29.834  1.00  0.00     0.049 A 
ATOM     58  C   UNL A   1      47.288  27.939  28.471  1.00  0.00     0.074 A 
ATOM     59  C   UNL A   1      42.079  30.072  30.995  1.00  0.00     0.029 A 
ATOM     60  N   UNL A   1      42.907  29.449  29.060  1.00  0.00    -0.354 N 
ATOM     61  N   UNL A   1      46.190  28.479  28.965  1.00  0.00    -0.248 NA
ATOM     62  C   UNL A   1      48.045  28.900  27.675  1.00  0.00     0.031 C 
ATOM     63  C   UNL A   1      43.437  30.508  30.908  1.00  0.00     0.029 A 
ATOM     64  C   UNL A   1      43.916  30.158  29.659  1.00  0.00     0.049 A 
ATOM     65  H   UNL A   1      42.991  29.027  28.175  1.00  0.00     0.167 HD
ATOM     66  C   UNL A   1      46.061  29.778  28.530  1.00  0.00     0.074 A 
ATOM     67  C   UNL A   1      47.248  29.982  27.715  1.00  0.00     0.031 C 
ATOM     68  C   UNL A   1      45.009  30.611  28.821  1.00  0.00     0.037 A 
BRANCH  55  69
ATOM     69  C   UNL A   1      39.156  28.889  29.866  1.00  0.00     0.057 A 
ATOM     70  C   UNL A   1      38.208  29.593  29.088  1.00  0.00     0.134 A 
ATOM     71  C   UNL A   1      38.707  28.636  31.184  1.00  0.00     0.134 A 
ATOM     72  F   UNL A   1      38.427  29.848  27.790  1.00  0.00    -0.206 F 
ATOM     73  C   UNL A   1      36.985  30.079  29.589  1.00  0.00     0.040 A 
ATOM     74  C   UNL A   1      37.448  29.047  31.674  1.00  0.00     0.040 A 
ATOM     75  F   UNL A   1      39.470  28.021  32.094  1.00  0.00    -0.206 F 
ATOM     76  C   UNL A   1      36.595  29.802  30.887  1.00  0.00     0.006 A 
ENDBRANCH  55  69
BRANCH  56  77
ATOM     77  C   UNL A   1      48.500  25.509  27.822  1.00  0.00     0.057 A 
ATOM     78  C   UNL A   1      48.279  25.702  26.430  1.00  0.00     0.134 A 
ATOM     79  C   UNL A   1      49.800  25.148  28.200  1.00  0.00     0.134 A 
ATOM     80  F   UNL A   1      47.055  26.041  25.989  1.00  0.00    -0.206 F 
ATOM     81  C   UNL A   1      49.342  25.860  25.532  1.00  0.00     0.040 A 
ATOM     82  C   UNL A   1      50.867  25.264  27.291  1.00  0.00     0.040 A 
ATOM     83  F   UNL A   1      50.095  24.956  29.493  1.00  0.00    -0.206 F 
ATOM     84  C   UNL A   1      50.649  25.696  25.979  1.00  0.00     0.006 A 
ENDBRANCH  56  77
BRANCH  68  85
ATOM     85  C   UNL A   1      44.823  31.990  28.231  1.00  0.00     0.057 A 
ATOM     86  C   UNL A   1      45.116  33.167  28.916  1.00  0.00     0.134 A 
ATOM     87  C   UNL A   1      44.248  32.162  26.946  1.00  0.00     0.134 A 
ATOM     88  F   UNL A   1      45.510  33.140  30.199  1.00  0.00    -0.206 F 
ATOM     89  C   UNL A   1      44.987  34.425  28.314  1.00  0.00     0.040 A 
ATOM     90  C   UNL A   1      44.053  33.412  26.362  1.00  0.00     0.040 A 
ATOM     91  F   UNL A   1      43.857  31.129  26.189  1.00  0.00    -0.206 F 
ATOM     92  C   UNL A   1      44.464  34.551  27.031  1.00  0.00     0.006 A 
ENDBRANCH  68  85
ENDBRANCH  42  43
ENDBRANCH  35  37
ENDBRANCH  34  35
ENDBRANCH  33  34
ENDBRANCH  32  33
ENDBRANCH  31  32
ENDBRANCH  30  31
ENDBRANCH  29  30
ENDBRANCH  28  29
ENDBRANCH   1  28
TORSDOF 23
ENDMDL
