MODEL 1
REMARK VINA RESULT:     -10.3      0.000      0.000
REMARK SMILES Cc1cccc([C@@H](CC(=O)OCCOCCOCCOCCOC(=O)c2ccc(-c3c4nc(c(-c5c(F)cccc5F)c5ccc([nH]5)c(-c5c(F)cccc5F)c5nc(c(-c6c(F)cccc6F)c6ccc3[nH]6)C=C5)C=C4)cc2)NC(=O)OC(C)(C)C)c1
REMARK SMILES IDX 16 1 15 2 14 3 13 4 12 5 11 6 9 7 10 8 8 9 7 10 6 11 1 12
REMARK SMILES IDX 2 13 3 14 88 15 4 16 5 17 80 18 81 19 82 21 83 22 84 23
REMARK SMILES IDX 85 24 86 25 87 26 17 27 18 28 19 29 20 30 21 31 22 32 23 33
REMARK SMILES IDX 24 34 25 35 26 36 27 37 79 38 28 39 78 40 29 41 30 42 31 43
REMARK SMILES IDX 72 44 32 45 77 46 71 47 73 48 33 49 76 50 70 51 69 52 34 54
REMARK SMILES IDX 60 55 43 56 59 57 44 58 47 59 58 60 74 61 45 62 46 63 57 65
REMARK SMILES IDX 75 66 48 67 35 68 36 69 41 70 37 71 38 72 40 73 42 74 39 75
REMARK SMILES IDX 61 76 62 77 67 78 63 79 64 80 66 81 68 82 65 83 49 84 50 85
REMARK SMILES IDX 55 86 51 87 52 88 54 89 56 90 53 91
REMARK H PARENT 80 20 73 53 47 64
REMARK Flexibility Score: inf
ROOT
ATOM      1  C   UNL A   1      34.682  31.513  28.126  1.00  0.00     0.188 C 
ENDROOT
BRANCH   1   2
ATOM      2  C   UNL A   1      33.785  30.569  27.326  1.00  0.00     0.188 C 
BRANCH   2   3
ATOM      3  O   UNL A   1      34.429  29.662  26.440  1.00  0.00    -0.376 OA
BRANCH   3   4
ATOM      4  C   UNL A   1      33.626  29.055  25.425  1.00  0.00     0.202 C 
BRANCH   4   5
ATOM      5  C   UNL A   1      33.583  27.522  25.340  1.00  0.00     0.261 C 
BRANCH   5   6
ATOM      6  O   UNL A   1      33.053  26.985  26.595  1.00  0.00    -0.463 OA
BRANCH   6   7
ATOM      7  C   UNL A   1      31.728  26.968  26.842  1.00  0.00     0.308 C 
ATOM      8  O   UNL A   1      31.214  27.675  27.706  1.00  0.00    -0.252 OA
BRANCH   7   9
ATOM      9  C   UNL A   1      30.926  25.867  26.112  1.00  0.00     0.152 C 
BRANCH   9  10
ATOM     10  C   UNL A   1      30.515  25.714  24.594  1.00  0.00     0.127 C 
BRANCH  10  11
ATOM     11  C   UNL A   1      29.401  26.639  24.001  1.00  0.00    -0.025 A 
ATOM     12  C   UNL A   1      29.869  30.248  21.617  1.00  0.00     0.044 C 
ATOM     13  C   UNL A   1      29.172  29.523  22.761  1.00  0.00    -0.051 A 
ATOM     14  C   UNL A   1      27.360  29.501  22.915  1.00  0.00     0.003 A 
ATOM     15  C   UNL A   1      30.162  28.175  23.407  1.00  0.00     0.009 A 
ATOM     16  C   UNL A   1      26.521  28.038  23.679  1.00  0.00     0.001 A 
ATOM     17  C   UNL A   1      27.545  26.517  24.009  1.00  0.00     0.006 A 
ENDBRANCH  10  11
BRANCH  10  18
ATOM     18  N   UNL A   1      30.543  24.432  23.970  1.00  0.00    -0.314 N 
ATOM     19  C   UNL A   1      31.583  23.623  23.627  1.00  0.00     0.408 C 
ATOM     20  H   UNL A   1      29.655  24.068  23.749  1.00  0.00     0.167 HD
ATOM     21  O   UNL A   1      31.351  22.510  23.167  1.00  0.00    -0.225 OA
BRANCH  19  22
ATOM     22  O   UNL A   1      32.822  24.155  23.783  1.00  0.00    -0.444 OA
BRANCH  22  23
ATOM     23  C   UNL A   1      33.752  23.463  24.675  1.00  0.00     0.106 C 
ATOM     24  C   UNL A   1      35.057  24.257  24.838  1.00  0.00     0.056 C 
ATOM     25  C   UNL A   1      33.109  23.147  26.039  1.00  0.00     0.056 C 
ATOM     26  C   UNL A   1      34.088  22.119  24.009  1.00  0.00     0.056 C 
ENDBRANCH  22  23
ENDBRANCH  19  22
ENDBRANCH  10  18
ENDBRANCH   9  10
ENDBRANCH   7   9
ENDBRANCH   6   7
ENDBRANCH   5   6
ENDBRANCH   4   5
ENDBRANCH   3   4
ENDBRANCH   2   3
ENDBRANCH   1   2
BRANCH   1  27
ATOM     27  O   UNL A   1      34.743  32.830  27.608  1.00  0.00    -0.377 OA
BRANCH  27  28
ATOM     28  C   UNL A   1      33.650  33.630  27.998  1.00  0.00     0.188 C 
BRANCH  28  29
ATOM     29  C   UNL A   1      34.022  34.794  28.867  1.00  0.00     0.188 C 
BRANCH  29  30
ATOM     30  O   UNL A   1      33.166  34.716  29.989  1.00  0.00    -0.376 OA
BRANCH  30  31
ATOM     31  C   UNL A   1      32.793  35.996  30.466  1.00  0.00     0.202 C 
BRANCH  31  32
ATOM     32  C   UNL A   1      33.259  36.209  31.910  1.00  0.00     0.261 C 
BRANCH  32  33
ATOM     33  O   UNL A   1      34.628  35.748  32.009  1.00  0.00    -0.460 OA
BRANCH  33  34
ATOM     34  C   UNL A   1      34.926  35.057  33.142  1.00  0.00     0.338 C 
ATOM     35  O   UNL A   1      34.876  35.520  34.271  1.00  0.00    -0.246 OA
BRANCH  34  36
ATOM     36  C   UNL A   1      35.605  33.759  32.807  1.00  0.00     0.060 A 
ATOM     37  C   UNL A   1      35.887  32.850  33.838  1.00  0.00     0.016 A 
ATOM     38  C   UNL A   1      36.194  33.548  31.561  1.00  0.00     0.016 A 
ATOM     39  C   UNL A   1      36.874  31.853  33.670  1.00  0.00     0.010 A 
ATOM     40  C   UNL A   1      37.190  32.575  31.418  1.00  0.00     0.010 A 
ATOM     41  C   UNL A   1      37.616  31.770  32.488  1.00  0.00    -0.014 A 
BRANCH  41  42
ATOM     42  C   UNL A   1      38.861  30.950  32.336  1.00  0.00     0.031 A 
ATOM     43  C   UNL A   1      38.824  29.686  31.576  1.00  0.00     0.074 A 
ATOM     44  C   UNL A   1      40.117  31.444  32.543  1.00  0.00     0.049 A 
ATOM     45  N   UNL A   1      39.807  28.862  31.514  1.00  0.00    -0.248 NA
ATOM     46  C   UNL A   1      37.760  29.322  30.661  1.00  0.00     0.031 C 
ATOM     47  C   UNL A   1      41.473  30.962  32.355  1.00  0.00     0.029 A 
ATOM     48  N   UNL A   1      40.476  32.686  32.953  1.00  0.00    -0.354 N 
ATOM     49  C   UNL A   1      39.786  28.285  30.265  1.00  0.00     0.074 A 
ATOM     50  C   UNL A   1      38.409  28.472  29.857  1.00  0.00     0.031 C 
ATOM     51  C   UNL A   1      42.380  31.675  33.070  1.00  0.00     0.029 A 
ATOM     52  C   UNL A   1      41.597  32.635  33.830  1.00  0.00     0.049 A 
ATOM     53  H   UNL A   1      40.022  33.516  32.680  1.00  0.00     0.167 HD
ATOM     54  C   UNL A   1      40.988  27.906  29.710  1.00  0.00     0.037 A 
ATOM     55  C   UNL A   1      41.640  33.172  35.191  1.00  0.00     0.037 A 
ATOM     56  C   UNL A   1      42.135  28.085  30.694  1.00  0.00     0.049 A 
ATOM     57  C   UNL A   1      42.051  31.447  35.691  1.00  0.00     0.074 A 
ATOM     58  C   UNL A   1      43.423  28.618  30.677  1.00  0.00     0.029 A 
ATOM     59  N   UNL A   1      41.898  27.873  32.080  1.00  0.00    -0.354 N 
ATOM     60  N   UNL A   1      41.792  30.363  34.933  1.00  0.00    -0.248 NA
ATOM     61  C   UNL A   1      42.789  30.929  36.865  1.00  0.00     0.031 C 
ATOM     62  C   UNL A   1      43.897  28.768  32.032  1.00  0.00     0.029 A 
ATOM     63  C   UNL A   1      42.891  28.384  32.915  1.00  0.00     0.049 A 
ATOM     64  H   UNL A   1      41.102  27.406  32.421  1.00  0.00     0.167 HD
ATOM     65  C   UNL A   1      42.544  29.240  35.253  1.00  0.00     0.074 A 
ATOM     66  C   UNL A   1      42.949  29.607  36.603  1.00  0.00     0.031 C 
ATOM     67  C   UNL A   1      42.850  28.168  34.390  1.00  0.00     0.037 A 
BRANCH  54  68
ATOM     68  C   UNL A   1      41.167  27.569  28.200  1.00  0.00     0.057 A 
ATOM     69  C   UNL A   1      40.595  26.423  27.606  1.00  0.00     0.134 A 
ATOM     70  C   UNL A   1      41.903  28.329  27.258  1.00  0.00     0.134 A 
ATOM     71  F   UNL A   1      39.793  25.599  28.286  1.00  0.00    -0.206 F 
ATOM     72  C   UNL A   1      40.777  26.053  26.254  1.00  0.00     0.040 A 
ATOM     73  C   UNL A   1      42.101  27.972  25.909  1.00  0.00     0.040 A 
ATOM     74  F   UNL A   1      42.447  29.508  27.546  1.00  0.00    -0.206 F 
ATOM     75  C   UNL A   1      41.539  26.825  25.396  1.00  0.00     0.006 A 
ENDBRANCH  54  68
BRANCH  55  76
ATOM     76  C   UNL A   1      40.772  34.890  36.135  1.00  0.00     0.057 A 
ATOM     77  C   UNL A   1      39.519  35.059  36.979  1.00  0.00     0.134 A 
ATOM     78  C   UNL A   1      41.468  36.195  36.706  1.00  0.00     0.134 A 
ATOM     79  F   UNL A   1      38.295  34.726  36.517  1.00  0.00    -0.206 F 
ATOM     80  C   UNL A   1      39.436  35.579  38.321  1.00  0.00     0.040 A 
ATOM     81  C   UNL A   1      41.462  36.654  38.059  1.00  0.00     0.040 A 
ATOM     82  F   UNL A   1      42.329  36.932  35.958  1.00  0.00    -0.206 F 
ATOM     83  C   UNL A   1      40.494  36.222  38.924  1.00  0.00     0.006 A 
ENDBRANCH  55  76
BRANCH  67  84
ATOM     84  C   UNL A   1      43.258  26.706  34.742  1.00  0.00     0.057 A 
ATOM     85  C   UNL A   1      44.552  26.193  34.777  1.00  0.00     0.134 A 
ATOM     86  C   UNL A   1      42.278  25.744  35.172  1.00  0.00     0.134 A 
ATOM     87  F   UNL A   1      45.592  26.863  34.282  1.00  0.00    -0.206 F 
ATOM     88  C   UNL A   1      44.855  24.916  35.293  1.00  0.00     0.040 A 
ATOM     89  C   UNL A   1      42.567  24.490  35.713  1.00  0.00     0.040 A 
ATOM     90  F   UNL A   1      40.957  25.932  35.086  1.00  0.00    -0.206 F 
ATOM     91  C   UNL A   1      43.871  24.076  35.798  1.00  0.00     0.006 A 
ENDBRANCH  67  84
ENDBRANCH  41  42
ENDBRANCH  34  36
ENDBRANCH  33  34
ENDBRANCH  32  33
ENDBRANCH  31  32
ENDBRANCH  30  31
ENDBRANCH  29  30
ENDBRANCH  28  29
ENDBRANCH  27  28
ENDBRANCH   1  27
TORSDOF 25
ENDMDL
MODEL 2
REMARK VINA RESULT:     -10.2      1.818      3.559
REMARK SMILES Cc1cccc([C@@H](CC(=O)OCCOCCOCCOCCOC(=O)c2ccc(-c3c4nc(c(-c5c(F)cccc5F)c5ccc([nH]5)c(-c5c(F)cccc5F)c5nc(c(-c6c(F)cccc6F)c6ccc3[nH]6)C=C5)C=C4)cc2)NC(=O)OC(C)(C)C)c1
REMARK SMILES IDX 16 1 15 2 14 3 13 4 12 5 11 6 9 7 10 8 8 9 7 10 6 11 1 12
REMARK SMILES IDX 2 13 3 14 88 15 4 16 5 17 80 18 81 19 82 21 83 22 84 23
REMARK SMILES IDX 85 24 86 25 87 26 17 27 18 28 19 29 20 30 21 31 22 32 23 33
REMARK SMILES IDX 24 34 25 35 26 36 27 37 79 38 28 39 78 40 29 41 30 42 31 43
REMARK SMILES IDX 72 44 32 45 77 46 71 47 73 48 33 49 76 50 70 51 69 52 34 54
REMARK SMILES IDX 60 55 43 56 59 57 44 58 47 59 58 60 74 61 45 62 46 63 57 65
REMARK SMILES IDX 75 66 48 67 35 68 36 69 41 70 37 71 38 72 40 73 42 74 39 75
REMARK SMILES IDX 61 76 62 77 67 78 63 79 64 80 66 81 68 82 65 83 49 84 50 85
REMARK SMILES IDX 55 86 51 87 52 88 54 89 56 90 53 91
REMARK H PARENT 80 20 73 53 47 64
REMARK Flexibility Score: inf
ROOT
ATOM      1  C   UNL A   1      34.411  33.162  30.263  1.00  0.00     0.188 C 
ENDROOT
BRANCH   1   2
ATOM      2  C   UNL A   1      35.681  32.364  29.968  1.00  0.00     0.188 C 
BRANCH   2   3
ATOM      3  O   UNL A   1      36.071  32.251  28.605  1.00  0.00    -0.376 OA
BRANCH   3   4
ATOM      4  C   UNL A   1      37.043  31.254  28.281  1.00  0.00     0.202 C 
BRANCH   4   5
ATOM      5  C   UNL A   1      36.618  30.076  27.392  1.00  0.00     0.261 C 
BRANCH   5   6
ATOM      6  O   UNL A   1      35.396  29.478  27.934  1.00  0.00    -0.463 OA
BRANCH   6   7
ATOM      7  C   UNL A   1      34.232  29.539  27.258  1.00  0.00     0.308 C 
ATOM      8  O   UNL A   1      33.702  30.608  26.962  1.00  0.00    -0.252 OA
BRANCH   7   9
ATOM      9  C   UNL A   1      33.506  28.190  27.056  1.00  0.00     0.152 C 
BRANCH   9  10
ATOM     10  C   UNL A   1      33.268  27.323  25.756  1.00  0.00     0.127 C 
BRANCH  10  11
ATOM     11  C   UNL A   1      33.447  25.771  25.822  1.00  0.00    -0.025 A 
ATOM     12  C   UNL A   1      30.411  22.724  26.479  1.00  0.00     0.044 C 
ATOM     13  C   UNL A   1      31.801  23.267  26.786  1.00  0.00    -0.051 A 
ATOM     14  C   UNL A   1      33.277  22.205  26.716  1.00  0.00     0.003 A 
ATOM     15  C   UNL A   1      31.923  25.027  26.468  1.00  0.00     0.009 A 
ATOM     16  C   UNL A   1      34.909  22.934  26.238  1.00  0.00     0.001 A 
ATOM     17  C   UNL A   1      34.929  24.675  25.574  1.00  0.00     0.006 A 
ENDBRANCH  10  11
BRANCH  10  18
ATOM     18  N   UNL A   1      33.597  27.852  24.473  1.00  0.00    -0.314 N 
ATOM     19  C   UNL A   1      32.858  28.566  23.581  1.00  0.00     0.408 C 
ATOM     20  H   UNL A   1      34.519  27.667  24.182  1.00  0.00     0.167 HD
ATOM     21  O   UNL A   1      33.393  28.988  22.561  1.00  0.00    -0.225 OA
BRANCH  19  22
ATOM     22  O   UNL A   1      31.543  28.712  23.884  1.00  0.00    -0.444 OA
BRANCH  22  23
ATOM     23  C   UNL A   1      30.587  27.833  23.210  1.00  0.00     0.106 C 
ATOM     24  C   UNL A   1      31.275  27.002  22.116  1.00  0.00     0.056 C 
ATOM     25  C   UNL A   1      29.831  26.938  24.210  1.00  0.00     0.056 C 
ATOM     26  C   UNL A   1      29.546  28.743  22.539  1.00  0.00     0.056 C 
ENDBRANCH  22  23
ENDBRANCH  19  22
ENDBRANCH  10  18
ENDBRANCH   9  10
ENDBRANCH   7   9
ENDBRANCH   6   7
ENDBRANCH   5   6
ENDBRANCH   4   5
ENDBRANCH   3   4
ENDBRANCH   2   3
ENDBRANCH   1   2
BRANCH   1  27
ATOM     27  O   UNL A   1      34.496  34.534  29.924  1.00  0.00    -0.377 OA
BRANCH  27  28
ATOM     28  C   UNL A   1      33.252  35.100  29.581  1.00  0.00     0.188 C 
BRANCH  28  29
ATOM     29  C   UNL A   1      33.204  36.593  29.701  1.00  0.00     0.188 C 
BRANCH  29  30
ATOM     30  O   UNL A   1      32.600  36.853  30.953  1.00  0.00    -0.376 OA
BRANCH  30  31
ATOM     31  C   UNL A   1      33.486  37.496  31.850  1.00  0.00     0.202 C 
BRANCH  31  32
ATOM     32  C   UNL A   1      33.628  36.706  33.154  1.00  0.00     0.261 C 
BRANCH  32  33
ATOM     33  O   UNL A   1      34.930  36.073  33.153  1.00  0.00    -0.460 OA
BRANCH  33  34
ATOM     34  C   UNL A   1      34.919  34.725  33.339  1.00  0.00     0.338 C 
ATOM     35  O   UNL A   1      33.917  34.064  33.560  1.00  0.00    -0.246 OA
BRANCH  34  36
ATOM     36  C   UNL A   1      36.316  34.206  33.533  1.00  0.00     0.060 A 
ATOM     37  C   UNL A   1      37.288  34.484  32.560  1.00  0.00     0.016 A 
ATOM     38  C   UNL A   1      36.606  33.248  34.502  1.00  0.00     0.016 A 
ATOM     39  C   UNL A   1      38.455  33.693  32.460  1.00  0.00     0.010 A 
ATOM     40  C   UNL A   1      37.752  32.453  34.374  1.00  0.00     0.010 A 
ATOM     41  C   UNL A   1      38.652  32.596  33.304  1.00  0.00    -0.014 A 
BRANCH  41  42
ATOM     42  C   UNL A   1      39.695  31.544  33.081  1.00  0.00     0.031 A 
ATOM     43  C   UNL A   1      39.344  30.292  32.384  1.00  0.00     0.074 A 
ATOM     44  C   UNL A   1      41.037  31.786  33.156  1.00  0.00     0.049 A 
ATOM     45  N   UNL A   1      40.139  29.289  32.274  1.00  0.00    -0.248 NA
ATOM     46  C   UNL A   1      38.148  30.120  31.582  1.00  0.00     0.031 C 
ATOM     47  C   UNL A   1      42.250  31.043  32.872  1.00  0.00     0.029 A 
ATOM     48  N   UNL A   1      41.666  32.944  33.478  1.00  0.00    -0.354 N 
ATOM     49  C   UNL A   1      39.889  28.695  31.058  1.00  0.00     0.074 A 
ATOM     50  C   UNL A   1      38.542  29.138  30.763  1.00  0.00     0.031 C 
ATOM     51  C   UNL A   1      43.341  31.583  33.473  1.00  0.00     0.029 A 
ATOM     52  C   UNL A   1      42.833  32.698  34.254  1.00  0.00     0.049 A 
ATOM     53  H   UNL A   1      41.357  33.839  33.209  1.00  0.00     0.167 HD
ATOM     54  C   UNL A   1      40.938  28.073  30.417  1.00  0.00     0.037 A 
ATOM     55  C   UNL A   1      43.108  33.251  35.582  1.00  0.00     0.037 A 
ATOM     56  C   UNL A   1      42.185  28.049  31.290  1.00  0.00     0.049 A 
ATOM     57  C   UNL A   1      43.223  31.493  36.120  1.00  0.00     0.074 A 
ATOM     58  C   UNL A   1      43.544  28.318  31.137  1.00  0.00     0.029 A 
ATOM     59  N   UNL A   1      42.043  27.925  32.699  1.00  0.00    -0.354 N 
ATOM     60  N   UNL A   1      42.688  30.461  35.436  1.00  0.00    -0.248 NA
ATOM     61  C   UNL A   1      43.954  30.872  37.247  1.00  0.00     0.031 C 
ATOM     62  C   UNL A   1      44.164  28.407  32.437  1.00  0.00     0.029 A 
ATOM     63  C   UNL A   1      43.190  28.252  33.420  1.00  0.00     0.049 A 
ATOM     64  H   UNL A   1      41.207  27.632  33.128  1.00  0.00     0.167 HD
ATOM     65  C   UNL A   1      43.236  29.221  35.739  1.00  0.00     0.074 A 
ATOM     66  C   UNL A   1      43.830  29.537  37.031  1.00  0.00     0.031 C 
ATOM     67  C   UNL A   1      43.247  28.088  34.901  1.00  0.00     0.037 A 
BRANCH  54  68
ATOM     68  C   UNL A   1      40.905  27.667  28.914  1.00  0.00     0.057 A 
ATOM     69  C   UNL A   1      40.168  26.559  28.444  1.00  0.00     0.134 A 
ATOM     70  C   UNL A   1      41.588  28.322  27.860  1.00  0.00     0.134 A 
ATOM     71  F   UNL A   1      39.384  25.836  29.249  1.00  0.00    -0.206 F 
ATOM     72  C   UNL A   1      40.154  26.125  27.098  1.00  0.00     0.040 A 
ATOM     73  C   UNL A   1      41.591  27.900  26.514  1.00  0.00     0.040 A 
ATOM     74  F   UNL A   1      42.263  29.455  28.028  1.00  0.00    -0.206 F 
ATOM     75  C   UNL A   1      40.873  26.792  26.124  1.00  0.00     0.006 A 
ENDBRANCH  54  68
BRANCH  55  76
ATOM     76  C   UNL A   1      42.681  35.131  36.521  1.00  0.00     0.057 A 
ATOM     77  C   UNL A   1      42.532  35.525  37.981  1.00  0.00     0.134 A 
ATOM     78  C   UNL A   1      43.016  36.604  36.042  1.00  0.00     0.134 A 
ATOM     79  F   UNL A   1      41.620  34.942  38.790  1.00  0.00    -0.206 F 
ATOM     80  C   UNL A   1      43.283  36.526  38.696  1.00  0.00     0.040 A 
ATOM     81  C   UNL A   1      43.842  37.561  36.709  1.00  0.00     0.040 A 
ATOM     82  F   UNL A   1      42.680  37.047  34.803  1.00  0.00    -0.206 F 
ATOM     83  C   UNL A   1      44.090  37.435  38.048  1.00  0.00     0.006 A 
ENDBRANCH  55  76
BRANCH  67  84
ATOM     84  C   UNL A   1      43.396  26.584  35.281  1.00  0.00     0.057 A 
ATOM     85  C   UNL A   1      42.392  25.620  35.255  1.00  0.00     0.134 A 
ATOM     86  C   UNL A   1      44.679  26.027  35.620  1.00  0.00     0.134 A 
ATOM     87  F   UNL A   1      41.107  25.941  35.110  1.00  0.00    -0.206 F 
ATOM     88  C   UNL A   1      42.649  24.244  35.424  1.00  0.00     0.040 A 
ATOM     89  C   UNL A   1      44.952  24.665  35.759  1.00  0.00     0.040 A 
ATOM     90  F   UNL A   1      45.772  26.757  35.862  1.00  0.00    -0.206 F 
ATOM     91  C   UNL A   1      43.931  23.757  35.638  1.00  0.00     0.006 A 
ENDBRANCH  67  84
ENDBRANCH  41  42
ENDBRANCH  34  36
ENDBRANCH  33  34
ENDBRANCH  32  33
ENDBRANCH  31  32
ENDBRANCH  30  31
ENDBRANCH  29  30
ENDBRANCH  28  29
ENDBRANCH  27  28
ENDBRANCH   1  27
TORSDOF 25
ENDMDL
MODEL 3
REMARK VINA RESULT:      -9.2      2.545      4.585
REMARK SMILES Cc1cccc([C@@H](CC(=O)OCCOCCOCCOCCOC(=O)c2ccc(-c3c4nc(c(-c5c(F)cccc5F)c5ccc([nH]5)c(-c5c(F)cccc5F)c5nc(c(-c6c(F)cccc6F)c6ccc3[nH]6)C=C5)C=C4)cc2)NC(=O)OC(C)(C)C)c1
REMARK SMILES IDX 16 1 15 2 14 3 13 4 12 5 11 6 9 7 10 8 8 9 7 10 6 11 1 12
REMARK SMILES IDX 2 13 3 14 88 15 4 16 5 17 80 18 81 19 82 21 83 22 84 23
REMARK SMILES IDX 85 24 86 25 87 26 17 27 18 28 19 29 20 30 21 31 22 32 23 33
REMARK SMILES IDX 24 34 25 35 26 36 27 37 79 38 28 39 78 40 29 41 30 42 31 43
REMARK SMILES IDX 72 44 32 45 77 46 71 47 73 48 33 49 76 50 70 51 69 52 34 54
REMARK SMILES IDX 60 55 43 56 59 57 44 58 47 59 58 60 74 61 45 62 46 63 57 65
REMARK SMILES IDX 75 66 48 67 35 68 36 69 41 70 37 71 38 72 40 73 42 74 39 75
REMARK SMILES IDX 61 76 62 77 67 78 63 79 64 80 66 81 68 82 65 83 49 84 50 85
REMARK SMILES IDX 55 86 51 87 52 88 54 89 56 90 53 91
REMARK H PARENT 80 20 73 53 47 64
REMARK Flexibility Score: inf
ROOT
ATOM      1  C   UNL A   1      33.399  28.395  23.614  1.00  0.00     0.188 C 
ENDROOT
BRANCH   1   2
ATOM      2  C   UNL A   1      32.175  28.825  22.806  1.00  0.00     0.188 C 
BRANCH   2   3
ATOM      3  O   UNL A   1      31.282  27.798  22.391  1.00  0.00    -0.376 OA
BRANCH   3   4
ATOM      4  C   UNL A   1      31.124  26.675  23.262  1.00  0.00     0.202 C 
BRANCH   4   5
ATOM      5  C   UNL A   1      30.885  25.292  22.640  1.00  0.00     0.261 C 
BRANCH   5   6
ATOM      6  O   UNL A   1      31.887  25.051  21.600  1.00  0.00    -0.463 OA
BRANCH   6   7
ATOM      7  C   UNL A   1      33.190  24.901  21.908  1.00  0.00     0.308 C 
ATOM      8  O   UNL A   1      34.037  25.736  21.598  1.00  0.00    -0.252 OA
BRANCH   7   9
ATOM      9  C   UNL A   1      33.584  23.528  22.497  1.00  0.00     0.152 C 
BRANCH   9  10
ATOM     10  C   UNL A   1      33.585  22.997  23.985  1.00  0.00     0.127 C 
BRANCH  10  11
ATOM     11  C   UNL A   1      32.802  23.786  25.085  1.00  0.00    -0.025 A 
ATOM     12  C   UNL A   1      29.212  22.590  27.233  1.00  0.00     0.044 C 
ATOM     13  C   UNL A   1      29.986  23.670  26.488  1.00  0.00    -0.051 A 
ATOM     14  C   UNL A   1      30.206  25.337  27.182  1.00  0.00     0.003 A 
ATOM     15  C   UNL A   1      31.203  22.976  25.369  1.00  0.00     0.009 A 
ATOM     16  C   UNL A   1      31.737  26.300  26.789  1.00  0.00     0.001 A 
ATOM     17  C   UNL A   1      33.128  25.415  25.922  1.00  0.00     0.006 A 
ENDBRANCH  10  11
BRANCH  10  18
ATOM     18  N   UNL A   1      34.736  22.337  24.509  1.00  0.00    -0.314 N 
ATOM     19  C   UNL A   1      34.870  21.149  25.160  1.00  0.00     0.408 C 
ATOM     20  H   UNL A   1      35.581  22.826  24.376  1.00  0.00     0.167 HD
ATOM     21  O   UNL A   1      35.993  20.746  25.446  1.00  0.00    -0.225 OA
BRANCH  19  22
ATOM     22  O   UNL A   1      33.713  20.520  25.490  1.00  0.00    -0.444 OA
BRANCH  22  23
ATOM     23  C   UNL A   1      33.430  19.237  24.848  1.00  0.00     0.106 C 
ATOM     24  C   UNL A   1      34.725  18.547  24.393  1.00  0.00     0.056 C 
ATOM     25  C   UNL A   1      32.587  18.318  25.754  1.00  0.00     0.056 C 
ATOM     26  C   UNL A   1      32.585  19.543  23.601  1.00  0.00     0.056 C 
ENDBRANCH  22  23
ENDBRANCH  19  22
ENDBRANCH  10  18
ENDBRANCH   9  10
ENDBRANCH   7   9
ENDBRANCH   6   7
ENDBRANCH   5   6
ENDBRANCH   4   5
ENDBRANCH   3   4
ENDBRANCH   2   3
ENDBRANCH   1   2
BRANCH   1  27
ATOM     27  O   UNL A   1      33.377  28.815  24.967  1.00  0.00    -0.377 OA
BRANCH  27  28
ATOM     28  C   UNL A   1      32.399  29.796  25.227  1.00  0.00     0.188 C 
BRANCH  28  29
ATOM     29  C   UNL A   1      31.984  29.880  26.665  1.00  0.00     0.188 C 
BRANCH  29  30
ATOM     30  O   UNL A   1      32.439  31.140  27.117  1.00  0.00    -0.376 OA
BRANCH  30  31
ATOM     31  C   UNL A   1      33.790  31.100  27.539  1.00  0.00     0.202 C 
BRANCH  31  32
ATOM     32  C   UNL A   1      34.263  32.475  28.018  1.00  0.00     0.261 C 
BRANCH  32  33
ATOM     33  O   UNL A   1      35.611  32.330  28.526  1.00  0.00    -0.460 OA
BRANCH  33  34
ATOM     34  C   UNL A   1      35.724  31.603  29.671  1.00  0.00     0.338 C 
ATOM     35  O   UNL A   1      35.223  31.911  30.740  1.00  0.00    -0.246 OA
BRANCH  34  36
ATOM     36  C   UNL A   1      36.780  30.544  29.523  1.00  0.00     0.060 A 
ATOM     37  C   UNL A   1      36.799  29.469  30.424  1.00  0.00     0.016 A 
ATOM     38  C   UNL A   1      37.885  30.732  28.695  1.00  0.00     0.016 A 
ATOM     39  C   UNL A   1      37.974  28.706  30.610  1.00  0.00     0.010 A 
ATOM     40  C   UNL A   1      39.051  29.987  28.911  1.00  0.00     0.010 A 
ATOM     41  C   UNL A   1      39.152  29.024  29.929  1.00  0.00    -0.014 A 
BRANCH  41  42
ATOM     42  C   UNL A   1      40.499  28.467  30.278  1.00  0.00     0.031 A 
ATOM     43  C   UNL A   1      41.037  27.315  29.529  1.00  0.00     0.074 A 
ATOM     44  C   UNL A   1      41.432  29.151  31.001  1.00  0.00     0.049 A 
ATOM     45  N   UNL A   1      42.114  26.695  29.852  1.00  0.00    -0.248 NA
ATOM     46  C   UNL A   1      40.528  26.874  28.245  1.00  0.00     0.031 C 
ATOM     47  C   UNL A   1      42.820  28.948  31.374  1.00  0.00     0.029 A 
ATOM     48  N   UNL A   1      41.325  30.381  31.564  1.00  0.00    -0.354 N 
ATOM     49  C   UNL A   1      42.714  26.274  28.687  1.00  0.00     0.074 A 
ATOM     50  C   UNL A   1      41.608  26.256  27.754  1.00  0.00     0.031 C 
ATOM     51  C   UNL A   1      43.193  29.725  32.423  1.00  0.00     0.029 A 
ATOM     52  C   UNL A   1      41.988  30.432  32.822  1.00  0.00     0.049 A 
ATOM     53  H   UNL A   1      40.851  31.141  31.154  1.00  0.00     0.167 HD
ATOM     54  C   UNL A   1      44.089  26.186  28.666  1.00  0.00     0.037 A 
ATOM     55  C   UNL A   1      41.372  30.804  34.097  1.00  0.00     0.037 A 
ATOM     56  C   UNL A   1      44.683  26.453  30.042  1.00  0.00     0.049 A 
ATOM     57  C   UNL A   1      41.907  29.135  34.665  1.00  0.00     0.074 A 
ATOM     58  C   UNL A   1      45.726  27.209  30.576  1.00  0.00     0.029 A 
ATOM     59  N   UNL A   1      43.966  26.041  31.198  1.00  0.00    -0.354 N 
ATOM     60  N   UNL A   1      42.208  28.118  33.832  1.00  0.00    -0.248 NA
ATOM     61  C   UNL A   1      42.210  28.625  36.022  1.00  0.00     0.031 C 
ATOM     62  C   UNL A   1      45.580  27.282  32.010  1.00  0.00     0.029 A 
ATOM     63  C   UNL A   1      44.413  26.622  32.385  1.00  0.00     0.049 A 
ATOM     64  H   UNL A   1      43.220  25.401  31.164  1.00  0.00     0.167 HD
ATOM     65  C   UNL A   1      42.991  27.120  34.397  1.00  0.00     0.074 A 
ATOM     66  C   UNL A   1      42.738  27.394  35.805  1.00  0.00     0.031 C 
ATOM     67  C   UNL A   1      43.836  26.230  33.704  1.00  0.00     0.037 A 
BRANCH  54  68
ATOM     68  C   UNL A   1      44.920  26.067  27.355  1.00  0.00     0.057 A 
ATOM     69  C   UNL A   1      44.858  24.931  26.519  1.00  0.00     0.134 A 
ATOM     70  C   UNL A   1      45.820  27.036  26.847  1.00  0.00     0.134 A 
ATOM     71  F   UNL A   1      44.017  23.921  26.759  1.00  0.00    -0.206 F 
ATOM     72  C   UNL A   1      45.635  24.759  25.350  1.00  0.00     0.040 A 
ATOM     73  C   UNL A   1      46.607  26.880  25.688  1.00  0.00     0.040 A 
ATOM     74  F   UNL A   1      45.974  28.237  27.395  1.00  0.00    -0.206 F 
ATOM     75  C   UNL A   1      46.521  25.734  24.930  1.00  0.00     0.006 A 
ENDBRANCH  54  68
BRANCH  55  76
ATOM     76  C   UNL A   1      39.856  32.214  34.654  1.00  0.00     0.057 A 
ATOM     77  C   UNL A   1      39.827  33.734  34.632  1.00  0.00     0.134 A 
ATOM     78  C   UNL A   1      38.278  32.072  34.627  1.00  0.00     0.134 A 
ATOM     79  F   UNL A   1      40.730  34.477  35.306  1.00  0.00    -0.206 F 
ATOM     80  C   UNL A   1      38.885  34.578  33.940  1.00  0.00     0.040 A 
ATOM     81  C   UNL A   1      37.355  32.851  33.863  1.00  0.00     0.040 A 
ATOM     82  F   UNL A   1      37.643  31.026  35.215  1.00  0.00    -0.206 F 
ATOM     83  C   UNL A   1      37.724  34.082  33.392  1.00  0.00     0.006 A 
ENDBRANCH  55  76
BRANCH  67  84
ATOM     84  C   UNL A   1      44.371  24.835  34.145  1.00  0.00     0.057 A 
ATOM     85  C   UNL A   1      43.611  23.692  34.374  1.00  0.00     0.134 A 
ATOM     86  C   UNL A   1      45.783  24.585  34.266  1.00  0.00     0.134 A 
ATOM     87  F   UNL A   1      42.282  23.730  34.457  1.00  0.00    -0.206 F 
ATOM     88  C   UNL A   1      44.186  22.420  34.580  1.00  0.00     0.040 A 
ATOM     89  C   UNL A   1      46.365  23.329  34.439  1.00  0.00     0.040 A 
ATOM     90  F   UNL A   1      46.717  25.542  34.247  1.00  0.00    -0.206 F 
ATOM     91  C   UNL A   1      45.561  22.226  34.575  1.00  0.00     0.006 A 
ENDBRANCH  67  84
ENDBRANCH  41  42
ENDBRANCH  34  36
ENDBRANCH  33  34
ENDBRANCH  32  33
ENDBRANCH  31  32
ENDBRANCH  30  31
ENDBRANCH  29  30
ENDBRANCH  28  29
ENDBRANCH  27  28
ENDBRANCH   1  27
TORSDOF 25
ENDMDL
