MODEL 1
REMARK VINA RESULT:     -10.1      0.000      0.000
REMARK SMILES CCc1ccccc1NC(=O)c1cc(S(=O)(=O)N2CCC[C@H](C(=O)OCCOCCOCCOCCOC(=O)c3ccc(-c4c5nc(c(-c6c(F)cccc6F)c6ccc([nH]6)c(-c6c(F)cccc6F)c6nc(c(-c7c(F)cccc7F)c7ccc4[nH]7)C=C6)C=C5)cc3)C2)ccc1F
REMARK SMILES IDX 29 1 28 2 27 3 26 4 25 5 23 6 24 7 22 8 18 9 19 10 94 11
REMARK SMILES IDX 20 12 21 13 15 14 16 15 17 16 14 17 12 18 13 19 97 20 96 21
REMARK SMILES IDX 98 22 95 23 10 24 9 25 11 27 8 28 3 29 4 30 5 31 7 32 6 33
REMARK SMILES IDX 2 34 1 35 30 36 31 37 32 38 33 39 34 40 35 41 36 42 37 43
REMARK SMILES IDX 38 44 39 45 40 46 41 47 93 48 42 49 92 50 43 51 44 52 45 53
REMARK SMILES IDX 86 54 46 55 91 56 85 57 87 58 47 59 90 60 84 61 83 62 48 64
REMARK SMILES IDX 74 65 57 66 73 67 58 68 61 69 72 70 88 71 59 72 60 73 71 75
REMARK SMILES IDX 89 76 62 77 49 78 50 79 55 80 51 81 52 82 54 83 56 84 53 85
REMARK SMILES IDX 75 86 76 87 81 88 77 89 78 90 80 91 82 92 79 93 63 94 64 95
REMARK SMILES IDX 69 96 65 97 66 98 68 99 70 100 67 101
REMARK H PARENT 9 26 87 63 61 74
REMARK Flexibility Score: inf
ROOT
ATOM      1  C   UNL A   1      43.651  22.456  25.912  1.00  0.00     0.188 C 
ENDROOT
BRANCH   1   2
ATOM      2  O   UNL A   1      42.258  22.745  25.939  1.00  0.00    -0.376 OA
BRANCH   2   3
ATOM      3  C   UNL A   1      41.446  21.729  26.512  1.00  0.00     0.202 C 
BRANCH   3   4
ATOM      4  C   UNL A   1      40.046  22.208  26.905  1.00  0.00     0.261 C 
BRANCH   4   5
ATOM      5  O   UNL A   1      39.110  22.355  25.828  1.00  0.00    -0.463 OA
BRANCH   5   6
ATOM      6  C   UNL A   1      38.123  23.250  26.004  1.00  0.00     0.310 C 
ATOM      7  O   UNL A   1      38.055  24.034  26.947  1.00  0.00    -0.252 OA
BRANCH   6   8
ATOM      8  C   UNL A   1      37.003  23.116  24.998  1.00  0.00     0.114 C 
ATOM      9  N   UNL A   1      35.207  21.708  26.101  1.00  0.00    -0.197 NA
ATOM     10  C   UNL A   1      35.440  20.585  25.164  1.00  0.00     0.102 C 
ATOM     11  C   UNL A   1      35.731  23.074  25.821  1.00  0.00     0.117 C 
ATOM     12  C   UNL A   1      36.782  20.648  24.467  1.00  0.00     0.018 C 
ATOM     13  C   UNL A   1      37.046  22.036  23.922  1.00  0.00     0.018 C 
BRANCH   9  14
ATOM     14  S   UNL A   1      33.689  21.686  26.878  1.00  0.00     0.243 S 
ATOM     15  O   UNL A   1      33.788  22.540  28.041  1.00  0.00    -0.207 OA
ATOM     16  O   UNL A   1      33.242  20.312  26.972  1.00  0.00    -0.207 OA
BRANCH  14  17
ATOM     17  C   UNL A   1      32.564  22.506  25.761  1.00  0.00     0.083 A 
ATOM     18  C   UNL A   1      31.224  24.444  25.326  1.00  0.00     0.077 A 
ATOM     19  C   UNL A   1      32.082  23.745  26.176  1.00  0.00     0.038 A 
ATOM     20  C   UNL A   1      30.979  24.005  24.025  1.00  0.00     0.136 A 
ATOM     21  C   UNL A   1      31.438  22.760  23.622  1.00  0.00     0.041 A 
ATOM     22  F   UNL A   1      30.216  24.715  23.184  1.00  0.00    -0.206 F 
ATOM     23  C   UNL A   1      32.182  21.986  24.513  1.00  0.00     0.025 A 
BRANCH  18  24
ATOM     24  C   UNL A   1      30.449  25.543  25.898  1.00  0.00     0.258 C 
ATOM     25  N   UNL A   1      30.772  26.850  25.599  1.00  0.00    -0.322 N 
ATOM     26  H   UNL A   1      30.246  27.518  26.097  1.00  0.00     0.170 HD
ATOM     27  O   UNL A   1      29.513  25.273  26.647  1.00  0.00    -0.269 OA
BRANCH  25  28
ATOM     28  C   UNL A   1      31.724  27.408  24.706  1.00  0.00     0.044 A 
ATOM     29  C   UNL A   1      32.998  27.754  25.203  1.00  0.00    -0.025 A 
ATOM     30  C   UNL A   1      34.013  28.078  24.280  1.00  0.00     0.006 A 
ATOM     31  C   UNL A   1      33.758  28.146  22.911  1.00  0.00     0.000 A 
ATOM     32  C   UNL A   1      31.459  27.609  23.343  1.00  0.00     0.026 A 
ATOM     33  C   UNL A   1      32.470  27.949  22.445  1.00  0.00     0.002 A 
BRANCH  29  34
ATOM     34  C   UNL A   1      33.277  27.730  26.693  1.00  0.00     0.034 C 
ATOM     35  C   UNL A   1      34.037  28.918  27.268  1.00  0.00     0.009 C 
ENDBRANCH  29  34
ENDBRANCH  25  28
ENDBRANCH  18  24
ENDBRANCH  14  17
ENDBRANCH   9  14
ENDBRANCH   6   8
ENDBRANCH   5   6
ENDBRANCH   4   5
ENDBRANCH   3   4
ENDBRANCH   2   3
ENDBRANCH   1   2
BRANCH   1  36
ATOM     36  C   UNL A   1      44.367  22.603  27.261  1.00  0.00     0.188 C 
BRANCH  36  37
ATOM     37  O   UNL A   1      43.707  23.276  28.324  1.00  0.00    -0.377 OA
BRANCH  37  38
ATOM     38  C   UNL A   1      44.488  23.958  29.303  1.00  0.00     0.188 C 
BRANCH  38  39
ATOM     39  C   UNL A   1      44.011  23.970  30.769  1.00  0.00     0.188 C 
BRANCH  39  40
ATOM     40  O   UNL A   1      45.044  23.756  31.721  1.00  0.00    -0.376 OA
BRANCH  40  41
ATOM     41  C   UNL A   1      44.664  23.181  32.963  1.00  0.00     0.202 C 
BRANCH  41  42
ATOM     42  C   UNL A   1      45.767  23.133  34.030  1.00  0.00     0.261 C 
BRANCH  42  43
ATOM     43  O   UNL A   1      46.720  24.210  33.971  1.00  0.00    -0.460 OA
BRANCH  43  44
ATOM     44  C   UNL A   1      46.722  25.096  34.988  1.00  0.00     0.338 C 
ATOM     45  O   UNL A   1      47.506  25.169  35.915  1.00  0.00    -0.246 OA
BRANCH  44  46
ATOM     46  C   UNL A   1      45.678  26.097  34.712  1.00  0.00     0.060 A 
ATOM     47  C   UNL A   1      44.407  25.924  35.272  1.00  0.00     0.016 A 
ATOM     48  C   UNL A   1      45.948  27.170  33.861  1.00  0.00     0.016 A 
ATOM     49  C   UNL A   1      43.381  26.809  34.942  1.00  0.00     0.010 A 
ATOM     50  C   UNL A   1      44.915  28.042  33.516  1.00  0.00     0.010 A 
ATOM     51  C   UNL A   1      43.621  27.839  34.024  1.00  0.00    -0.014 A 
BRANCH  51  52
ATOM     52  C   UNL A   1      42.479  28.562  33.421  1.00  0.00     0.031 A 
ATOM     53  C   UNL A   1      42.172  28.319  31.970  1.00  0.00     0.074 A 
ATOM     54  C   UNL A   1      41.726  29.409  34.144  1.00  0.00     0.049 A 
ATOM     55  N   UNL A   1      41.256  28.861  31.210  1.00  0.00    -0.248 NA
ATOM     56  C   UNL A   1      43.019  27.329  31.281  1.00  0.00     0.031 C 
ATOM     57  C   UNL A   1      41.905  29.701  35.564  1.00  0.00     0.029 A 
ATOM     58  N   UNL A   1      40.661  30.188  33.768  1.00  0.00    -0.354 N 
ATOM     59  C   UNL A   1      41.415  28.281  29.959  1.00  0.00     0.074 A 
ATOM     60  C   UNL A   1      42.532  27.367  30.050  1.00  0.00     0.031 C 
ATOM     61  C   UNL A   1      40.985  30.609  35.938  1.00  0.00     0.029 A 
ATOM     62  C   UNL A   1      40.174  30.977  34.779  1.00  0.00     0.049 A 
ATOM     63  H   UNL A   1      40.283  30.180  32.859  1.00  0.00     0.167 HD
ATOM     64  C   UNL A   1      40.689  28.484  28.836  1.00  0.00     0.037 A 
ATOM     65  C   UNL A   1      39.197  31.904  34.758  1.00  0.00     0.037 A 
ATOM     66  C   UNL A   1      39.585  29.399  28.742  1.00  0.00     0.049 A 
ATOM     67  C   UNL A   1      38.449  32.164  33.477  1.00  0.00     0.074 A 
ATOM     68  C   UNL A   1      38.781  29.671  27.649  1.00  0.00     0.029 A 
ATOM     69  N   UNL A   1      39.137  30.199  29.781  1.00  0.00    -0.354 N 
ATOM     70  N   UNL A   1      38.587  31.590  32.306  1.00  0.00    -0.248 NA
ATOM     71  C   UNL A   1      37.407  33.200  33.516  1.00  0.00     0.031 C 
ATOM     72  C   UNL A   1      37.870  30.667  28.017  1.00  0.00     0.029 A 
ATOM     73  C   UNL A   1      38.080  30.982  29.351  1.00  0.00     0.049 A 
ATOM     74  H   UNL A   1      39.515  30.209  30.690  1.00  0.00     0.167 HD
ATOM     75  C   UNL A   1      37.634  32.173  31.479  1.00  0.00     0.074 A 
ATOM     76  C   UNL A   1      36.917  33.140  32.285  1.00  0.00     0.031 C 
ATOM     77  C   UNL A   1      37.372  31.930  30.171  1.00  0.00     0.037 A 
BRANCH  64  78
ATOM     78  C   UNL A   1      41.089  27.713  27.613  1.00  0.00     0.057 A 
ATOM     79  C   UNL A   1      40.617  26.417  27.373  1.00  0.00     0.134 A 
ATOM     80  C   UNL A   1      41.945  28.280  26.662  1.00  0.00     0.134 A 
ATOM     81  F   UNL A   1      39.811  25.811  28.256  1.00  0.00    -0.206 F 
ATOM     82  C   UNL A   1      40.999  25.703  26.236  1.00  0.00     0.040 A 
ATOM     83  C   UNL A   1      42.316  27.585  25.510  1.00  0.00     0.040 A 
ATOM     84  F   UNL A   1      42.433  29.517  26.835  1.00  0.00    -0.206 F 
ATOM     85  C   UNL A   1      41.847  26.290  25.297  1.00  0.00     0.006 A 
ENDBRANCH  64  78
BRANCH  65  86
ATOM     86  C   UNL A   1      38.870  32.667  35.988  1.00  0.00     0.057 A 
ATOM     87  C   UNL A   1      39.340  33.972  36.178  1.00  0.00     0.134 A 
ATOM     88  C   UNL A   1      38.106  32.100  37.015  1.00  0.00     0.134 A 
ATOM     89  F   UNL A   1      40.099  34.558  35.240  1.00  0.00    -0.206 F 
ATOM     90  C   UNL A   1      39.076  34.681  37.351  1.00  0.00     0.040 A 
ATOM     91  C   UNL A   1      37.814  32.806  38.184  1.00  0.00     0.040 A 
ATOM     92  F   UNL A   1      37.630  30.852  36.895  1.00  0.00    -0.206 F 
ATOM     93  C   UNL A   1      38.307  34.099  38.357  1.00  0.00     0.006 A 
ENDBRANCH  65  86
BRANCH  77  94
ATOM     94  C   UNL A   1      36.245  32.692  29.541  1.00  0.00     0.057 A 
ATOM     95  C   UNL A   1      36.407  34.002  29.075  1.00  0.00     0.134 A 
ATOM     96  C   UNL A   1      34.995  32.087  29.353  1.00  0.00     0.134 A 
ATOM     97  F   UNL A   1      37.576  34.641  29.234  1.00  0.00    -0.206 F 
ATOM     98  C   UNL A   1      35.359  34.692  28.463  1.00  0.00     0.040 A 
ATOM     99  C   UNL A   1      33.948  32.757  28.721  1.00  0.00     0.040 A 
ATOM    100  F   UNL A   1      34.778  30.829  29.767  1.00  0.00    -0.206 F 
ATOM    101  C   UNL A   1      34.127  34.066  28.278  1.00  0.00     0.006 A 
ENDBRANCH  77  94
ENDBRANCH  51  52
ENDBRANCH  44  46
ENDBRANCH  43  44
ENDBRANCH  42  43
ENDBRANCH  41  42
ENDBRANCH  40  41
ENDBRANCH  39  40
ENDBRANCH  38  39
ENDBRANCH  37  38
ENDBRANCH  36  37
ENDBRANCH   1  36
TORSDOF 25
ENDMDL
MODEL 2
REMARK VINA RESULT:      -9.0      5.413     11.819
REMARK SMILES CCc1ccccc1NC(=O)c1cc(S(=O)(=O)N2CCC[C@H](C(=O)OCCOCCOCCOCCOC(=O)c3ccc(-c4c5nc(c(-c6c(F)cccc6F)c6ccc([nH]6)c(-c6c(F)cccc6F)c6nc(c(-c7c(F)cccc7F)c7ccc4[nH]7)C=C6)C=C5)cc3)C2)ccc1F
REMARK SMILES IDX 29 1 28 2 27 3 26 4 25 5 23 6 24 7 22 8 18 9 19 10 94 11
REMARK SMILES IDX 20 12 21 13 15 14 16 15 17 16 14 17 12 18 13 19 97 20 96 21
REMARK SMILES IDX 98 22 95 23 10 24 9 25 11 27 8 28 3 29 4 30 5 31 7 32 6 33
REMARK SMILES IDX 2 34 1 35 30 36 31 37 32 38 33 39 34 40 35 41 36 42 37 43
REMARK SMILES IDX 38 44 39 45 40 46 41 47 93 48 42 49 92 50 43 51 44 52 45 53
REMARK SMILES IDX 86 54 46 55 91 56 85 57 87 58 47 59 90 60 84 61 83 62 48 64
REMARK SMILES IDX 74 65 57 66 73 67 58 68 61 69 72 70 88 71 59 72 60 73 71 75
REMARK SMILES IDX 89 76 62 77 49 78 50 79 55 80 51 81 52 82 54 83 56 84 53 85
REMARK SMILES IDX 75 86 76 87 81 88 77 89 78 90 80 91 82 92 79 93 63 94 64 95
REMARK SMILES IDX 69 96 65 97 66 98 68 99 70 100 67 101
REMARK H PARENT 9 26 87 63 61 74
REMARK Flexibility Score: inf
ROOT
ATOM      1  C   UNL A   1      45.227  30.850  26.625  1.00  0.00     0.188 C 
ENDROOT
BRANCH   1   2
ATOM      2  O   UNL A   1      45.371  31.941  25.723  1.00  0.00    -0.376 OA
BRANCH   2   3
ATOM      3  C   UNL A   1      44.281  32.852  25.705  1.00  0.00     0.202 C 
BRANCH   3   4
ATOM      4  C   UNL A   1      44.339  33.905  26.816  1.00  0.00     0.261 C 
BRANCH   4   5
ATOM      5  O   UNL A   1      44.543  35.257  26.385  1.00  0.00    -0.463 OA
BRANCH   5   6
ATOM      6  C   UNL A   1      43.551  36.128  26.639  1.00  0.00     0.310 C 
ATOM      7  O   UNL A   1      42.355  35.867  26.538  1.00  0.00    -0.252 OA
BRANCH   6   8
ATOM      8  C   UNL A   1      44.038  37.529  26.928  1.00  0.00     0.114 C 
ATOM      9  N   UNL A   1      45.411  37.392  29.054  1.00  0.00    -0.197 NA
ATOM     10  C   UNL A   1      44.411  38.177  29.812  1.00  0.00     0.102 C 
ATOM     11  C   UNL A   1      45.401  37.353  27.565  1.00  0.00     0.117 C 
ATOM     12  C   UNL A   1      43.046  38.208  29.159  1.00  0.00     0.018 C 
ATOM     13  C   UNL A   1      43.157  38.520  27.682  1.00  0.00     0.018 C 
BRANCH   9  14
ATOM     14  S   UNL A   1      46.970  37.365  29.745  1.00  0.00     0.243 S 
ATOM     15  O   UNL A   1      46.910  38.128  30.973  1.00  0.00    -0.207 OA
ATOM     16  O   UNL A   1      47.937  37.656  28.708  1.00  0.00    -0.207 OA
BRANCH  14  17
ATOM     17  C   UNL A   1      47.250  35.671  30.234  1.00  0.00     0.083 A 
ATOM     18  C   UNL A   1      46.816  33.947  31.840  1.00  0.00     0.077 A 
ATOM     19  C   UNL A   1      46.655  35.270  31.428  1.00  0.00     0.038 A 
ATOM     20  C   UNL A   1      47.413  32.998  31.010  1.00  0.00     0.136 A 
ATOM     21  C   UNL A   1      48.028  33.403  29.835  1.00  0.00     0.041 A 
ATOM     22  F   UNL A   1      47.500  31.713  31.375  1.00  0.00    -0.206 F 
ATOM     23  C   UNL A   1      47.996  34.751  29.477  1.00  0.00     0.025 A 
BRANCH  18  24
ATOM     24  C   UNL A   1      46.510  33.628  33.233  1.00  0.00     0.258 C 
ATOM     25  N   UNL A   1      45.244  33.214  33.589  1.00  0.00    -0.322 N 
ATOM     26  H   UNL A   1      45.115  33.103  34.559  1.00  0.00     0.170 HD
ATOM     27  O   UNL A   1      47.402  33.742  34.071  1.00  0.00    -0.269 OA
BRANCH  25  28
ATOM     28  C   UNL A   1      44.094  32.917  32.812  1.00  0.00     0.044 A 
ATOM     29  C   UNL A   1      43.056  33.870  32.746  1.00  0.00    -0.025 A 
ATOM     30  C   UNL A   1      42.033  33.685  31.794  1.00  0.00     0.006 A 
ATOM     31  C   UNL A   1      41.985  32.548  30.989  1.00  0.00     0.000 A 
ATOM     32  C   UNL A   1      43.954  31.724  32.087  1.00  0.00     0.026 A 
ATOM     33  C   UNL A   1      42.925  31.548  31.161  1.00  0.00     0.002 A 
BRANCH  29  34
ATOM     34  C   UNL A   1      43.070  35.089  33.649  1.00  0.00     0.034 C 
ATOM     35  C   UNL A   1      43.388  36.425  32.992  1.00  0.00     0.009 C 
ENDBRANCH  29  34
ENDBRANCH  25  28
ENDBRANCH  18  24
ENDBRANCH  14  17
ENDBRANCH   9  14
ENDBRANCH   6   8
ENDBRANCH   5   6
ENDBRANCH   4   5
ENDBRANCH   3   4
ENDBRANCH   2   3
ENDBRANCH   1   2
BRANCH   1  36
ATOM     36  C   UNL A   1      46.111  29.634  26.312  1.00  0.00     0.188 C 
BRANCH  36  37
ATOM     37  O   UNL A   1      46.545  29.421  24.977  1.00  0.00    -0.377 OA
BRANCH  37  38
ATOM     38  C   UNL A   1      46.452  28.112  24.419  1.00  0.00     0.188 C 
BRANCH  38  39
ATOM     39  C   UNL A   1      47.458  27.033  24.865  1.00  0.00     0.188 C 
BRANCH  39  40
ATOM     40  O   UNL A   1      46.925  26.074  25.768  1.00  0.00    -0.376 OA
BRANCH  40  41
ATOM     41  C   UNL A   1      47.211  24.709  25.499  1.00  0.00     0.202 C 
BRANCH  41  42
ATOM     42  C   UNL A   1      46.054  23.901  24.895  1.00  0.00     0.261 C 
BRANCH  42  43
ATOM     43  O   UNL A   1      44.892  24.672  24.542  1.00  0.00    -0.460 OA
BRANCH  43  44
ATOM     44  C   UNL A   1      43.684  24.147  24.834  1.00  0.00     0.338 C 
ATOM     45  O   UNL A   1      43.266  23.036  24.566  1.00  0.00    -0.246 OA
BRANCH  44  46
ATOM     46  C   UNL A   1      42.976  25.108  25.695  1.00  0.00     0.060 A 
ATOM     47  C   UNL A   1      43.446  26.424  25.774  1.00  0.00     0.016 A 
ATOM     48  C   UNL A   1      41.884  24.689  26.458  1.00  0.00     0.016 A 
ATOM     49  C   UNL A   1      42.847  27.320  26.658  1.00  0.00     0.010 A 
ATOM     50  C   UNL A   1      41.299  25.581  27.357  1.00  0.00     0.010 A 
ATOM     51  C   UNL A   1      41.805  26.886  27.488  1.00  0.00    -0.014 A 
BRANCH  51  52
ATOM     52  C   UNL A   1      41.396  27.715  28.644  1.00  0.00     0.031 A 
ATOM     53  C   UNL A   1      42.177  27.584  29.921  1.00  0.00     0.074 A 
ATOM     54  C   UNL A   1      40.361  28.568  28.561  1.00  0.00     0.049 A 
ATOM     55  N   UNL A   1      41.988  28.169  31.076  1.00  0.00    -0.248 NA
ATOM     56  C   UNL A   1      43.328  26.665  29.892  1.00  0.00     0.031 C 
ATOM     57  C   UNL A   1      39.551  28.806  27.369  1.00  0.00     0.029 A 
ATOM     58  N   UNL A   1      39.813  29.389  29.515  1.00  0.00    -0.354 N 
ATOM     59  C   UNL A   1      42.992  27.691  31.907  1.00  0.00     0.074 A 
ATOM     60  C   UNL A   1      43.771  26.747  31.137  1.00  0.00     0.031 C 
ATOM     61  C   UNL A   1      38.596  29.706  27.668  1.00  0.00     0.029 A 
ATOM     62  C   UNL A   1      38.716  30.084  29.075  1.00  0.00     0.049 A 
ATOM     63  H   UNL A   1      40.174  29.470  30.427  1.00  0.00     0.167 HD
ATOM     64  C   UNL A   1      43.248  28.016  33.195  1.00  0.00     0.037 A 
ATOM     65  C   UNL A   1      37.894  30.917  29.743  1.00  0.00     0.037 A 
ATOM     66  C   UNL A   1      42.469  28.946  33.964  1.00  0.00     0.049 A 
ATOM     67  C   UNL A   1      38.157  31.208  31.197  1.00  0.00     0.074 A 
ATOM     68  C   UNL A   1      42.652  29.349  35.275  1.00  0.00     0.029 A 
ATOM     69  N   UNL A   1      41.349  29.613  33.491  1.00  0.00    -0.354 N 
ATOM     70  N   UNL A   1      39.126  30.774  31.967  1.00  0.00    -0.248 NA
ATOM     71  C   UNL A   1      37.214  32.110  31.874  1.00  0.00     0.031 C 
ATOM     72  C   UNL A   1      41.617  30.230  35.608  1.00  0.00     0.029 A 
ATOM     73  C   UNL A   1      40.817  30.408  34.490  1.00  0.00     0.049 A 
ATOM     74  H   UNL A   1      40.987  29.532  32.579  1.00  0.00     0.167 HD
ATOM     75  C   UNL A   1      38.925  31.369  33.207  1.00  0.00     0.074 A 
ATOM     76  C   UNL A   1      37.747  32.203  33.084  1.00  0.00     0.031 C 
ATOM     77  C   UNL A   1      39.650  31.240  34.345  1.00  0.00     0.037 A 
BRANCH  64  78
ATOM     78  C   UNL A   1      44.411  27.336  33.854  1.00  0.00     0.057 A 
ATOM     79  C   UNL A   1      44.271  26.106  34.508  1.00  0.00     0.134 A 
ATOM     80  C   UNL A   1      45.686  27.913  33.821  1.00  0.00     0.134 A 
ATOM     81  F   UNL A   1      43.072  25.513  34.592  1.00  0.00    -0.206 F 
ATOM     82  C   UNL A   1      45.357  25.482  35.125  1.00  0.00     0.040 A 
ATOM     83  C   UNL A   1      46.783  27.288  34.414  1.00  0.00     0.040 A 
ATOM     84  F   UNL A   1      45.886  29.091  33.212  1.00  0.00    -0.206 F 
ATOM     85  C   UNL A   1      46.619  26.071  35.073  1.00  0.00     0.006 A 
ENDBRANCH  64  78
BRANCH  65  86
ATOM     86  C   UNL A   1      36.733  31.530  29.051  1.00  0.00     0.057 A 
ATOM     87  C   UNL A   1      35.587  30.782  28.755  1.00  0.00     0.134 A 
ATOM     88  C   UNL A   1      36.753  32.869  28.642  1.00  0.00     0.134 A 
ATOM     89  F   UNL A   1      35.520  29.487  29.099  1.00  0.00    -0.206 F 
ATOM     90  C   UNL A   1      34.509  31.338  28.065  1.00  0.00     0.040 A 
ATOM     91  C   UNL A   1      35.673  33.445  27.971  1.00  0.00     0.040 A 
ATOM     92  F   UNL A   1      37.824  33.637  28.893  1.00  0.00    -0.206 F 
ATOM     93  C   UNL A   1      34.549  32.675  27.674  1.00  0.00     0.006 A 
ENDBRANCH  65  86
BRANCH  77  94
ATOM     94  C   UNL A   1      39.216  32.043  35.534  1.00  0.00     0.057 A 
ATOM     95  C   UNL A   1      38.392  31.504  36.530  1.00  0.00     0.134 A 
ATOM     96  C   UNL A   1      39.669  33.357  35.709  1.00  0.00     0.134 A 
ATOM     97  F   UNL A   1      37.917  30.254  36.416  1.00  0.00    -0.206 F 
ATOM     98  C   UNL A   1      38.017  32.251  37.648  1.00  0.00     0.040 A 
ATOM     99  C   UNL A   1      39.320  34.105  36.834  1.00  0.00     0.040 A 
ATOM    100  F   UNL A   1      40.470  33.929  34.797  1.00  0.00    -0.206 F 
ATOM    101  C   UNL A   1      38.488  33.554  37.805  1.00  0.00     0.006 A 
ENDBRANCH  77  94
ENDBRANCH  51  52
ENDBRANCH  44  46
ENDBRANCH  43  44
ENDBRANCH  42  43
ENDBRANCH  41  42
ENDBRANCH  40  41
ENDBRANCH  39  40
ENDBRANCH  38  39
ENDBRANCH  37  38
ENDBRANCH  36  37
ENDBRANCH   1  36
TORSDOF 25
ENDMDL
MODEL 3
REMARK VINA RESULT:      -8.8      5.045     12.013
REMARK SMILES CCc1ccccc1NC(=O)c1cc(S(=O)(=O)N2CCC[C@H](C(=O)OCCOCCOCCOCCOC(=O)c3ccc(-c4c5nc(c(-c6c(F)cccc6F)c6ccc([nH]6)c(-c6c(F)cccc6F)c6nc(c(-c7c(F)cccc7F)c7ccc4[nH]7)C=C6)C=C5)cc3)C2)ccc1F
REMARK SMILES IDX 29 1 28 2 27 3 26 4 25 5 23 6 24 7 22 8 18 9 19 10 94 11
REMARK SMILES IDX 20 12 21 13 15 14 16 15 17 16 14 17 12 18 13 19 97 20 96 21
REMARK SMILES IDX 98 22 95 23 10 24 9 25 11 27 8 28 3 29 4 30 5 31 7 32 6 33
REMARK SMILES IDX 2 34 1 35 30 36 31 37 32 38 33 39 34 40 35 41 36 42 37 43
REMARK SMILES IDX 38 44 39 45 40 46 41 47 93 48 42 49 92 50 43 51 44 52 45 53
REMARK SMILES IDX 86 54 46 55 91 56 85 57 87 58 47 59 90 60 84 61 83 62 48 64
REMARK SMILES IDX 74 65 57 66 73 67 58 68 61 69 72 70 88 71 59 72 60 73 71 75
REMARK SMILES IDX 89 76 62 77 49 78 50 79 55 80 51 81 52 82 54 83 56 84 53 85
REMARK SMILES IDX 75 86 76 87 81 88 77 89 78 90 80 91 82 92 79 93 63 94 64 95
REMARK SMILES IDX 69 96 65 97 66 98 68 99 70 100 67 101
REMARK H PARENT 9 26 87 63 61 74
REMARK Flexibility Score: inf
ROOT
ATOM      1  C   UNL A   1      45.273  30.874  26.637  1.00  0.00     0.188 C 
ENDROOT
BRANCH   1   2
ATOM      2  O   UNL A   1      45.906  31.997  26.033  1.00  0.00    -0.376 OA
BRANCH   2   3
ATOM      3  C   UNL A   1      45.097  33.160  25.935  1.00  0.00     0.202 C 
BRANCH   3   4
ATOM      4  C   UNL A   1      44.090  33.309  27.079  1.00  0.00     0.261 C 
BRANCH   4   5
ATOM      5  O   UNL A   1      44.023  34.606  27.688  1.00  0.00    -0.463 OA
BRANCH   5   6
ATOM      6  C   UNL A   1      42.859  35.268  27.571  1.00  0.00     0.310 C 
ATOM      7  O   UNL A   1      42.360  35.613  26.503  1.00  0.00    -0.252 OA
BRANCH   6   8
ATOM      8  C   UNL A   1      42.270  35.690  28.897  1.00  0.00     0.114 C 
ATOM      9  N   UNL A   1      43.597  34.488  30.691  1.00  0.00    -0.197 NA
ATOM     10  C   UNL A   1      42.433  33.654  31.067  1.00  0.00     0.102 C 
ATOM     11  C   UNL A   1      43.438  35.715  29.862  1.00  0.00     0.117 C 
ATOM     12  C   UNL A   1      41.363  33.596  29.998  1.00  0.00     0.018 C 
ATOM     13  C   UNL A   1      41.048  34.978  29.468  1.00  0.00     0.018 C 
BRANCH   9  14
ATOM     14  S   UNL A   1      44.808  34.603  31.888  1.00  0.00     0.243 S 
ATOM     15  O   UNL A   1      46.049  34.917  31.216  1.00  0.00    -0.207 OA
ATOM     16  O   UNL A   1      44.683  33.467  32.777  1.00  0.00    -0.207 OA
BRANCH  14  17
ATOM     17  C   UNL A   1      44.394  36.047  32.853  1.00  0.00     0.083 A 
ATOM     18  C   UNL A   1      43.256  36.919  34.773  1.00  0.00     0.077 A 
ATOM     19  C   UNL A   1      43.584  35.830  33.965  1.00  0.00     0.038 A 
ATOM     20  C   UNL A   1      43.850  38.166  34.580  1.00  0.00     0.136 A 
ATOM     21  C   UNL A   1      44.635  38.388  33.459  1.00  0.00     0.041 A 
ATOM     22  F   UNL A   1      43.593  39.192  35.402  1.00  0.00    -0.206 F 
ATOM     23  C   UNL A   1      44.858  37.341  32.565  1.00  0.00     0.025 A 
BRANCH  18  24
ATOM     24  C   UNL A   1      42.140  36.762  35.704  1.00  0.00     0.258 C 
ATOM     25  N   UNL A   1      42.357  36.264  36.971  1.00  0.00    -0.322 N 
ATOM     26  H   UNL A   1      41.535  36.119  37.492  1.00  0.00     0.170 HD
ATOM     27  O   UNL A   1      41.014  37.081  35.329  1.00  0.00    -0.269 OA
BRANCH  25  28
ATOM     28  C   UNL A   1      43.550  35.923  37.661  1.00  0.00     0.044 A 
ATOM     29  C   UNL A   1      43.816  34.563  37.924  1.00  0.00    -0.025 A 
ATOM     30  C   UNL A   1      45.098  34.206  38.387  1.00  0.00     0.006 A 
ATOM     31  C   UNL A   1      46.065  35.170  38.669  1.00  0.00     0.000 A 
ATOM     32  C   UNL A   1      44.489  36.881  38.073  1.00  0.00     0.026 A 
ATOM     33  C   UNL A   1      45.748  36.512  38.548  1.00  0.00     0.002 A 
BRANCH  29  34
ATOM     34  C   UNL A   1      42.758  33.507  37.666  1.00  0.00     0.034 C 
ATOM     35  C   UNL A   1      42.923  32.179  38.393  1.00  0.00     0.009 C 
ENDBRANCH  29  34
ENDBRANCH  25  28
ENDBRANCH  18  24
ENDBRANCH  14  17
ENDBRANCH   9  14
ENDBRANCH   6   8
ENDBRANCH   5   6
ENDBRANCH   4   5
ENDBRANCH   3   4
ENDBRANCH   2   3
ENDBRANCH   1   2
BRANCH   1  36
ATOM     36  C   UNL A   1      45.950  29.524  26.358  1.00  0.00     0.188 C 
BRANCH  36  37
ATOM     37  O   UNL A   1      46.551  29.303  25.090  1.00  0.00    -0.377 OA
BRANCH  37  38
ATOM     38  C   UNL A   1      46.403  28.028  24.468  1.00  0.00     0.188 C 
BRANCH  38  39
ATOM     39  C   UNL A   1      47.387  26.898  24.829  1.00  0.00     0.188 C 
BRANCH  39  40
ATOM     40  O   UNL A   1      46.860  25.927  25.722  1.00  0.00    -0.376 OA
BRANCH  40  41
ATOM     41  C   UNL A   1      47.138  24.565  25.430  1.00  0.00     0.202 C 
BRANCH  41  42
ATOM     42  C   UNL A   1      45.968  23.767  24.839  1.00  0.00     0.261 C 
BRANCH  42  43
ATOM     43  O   UNL A   1      44.802  24.544  24.514  1.00  0.00    -0.460 OA
BRANCH  43  44
ATOM     44  C   UNL A   1      43.598  24.031  24.842  1.00  0.00     0.338 C 
ATOM     45  O   UNL A   1      43.171  22.917  24.607  1.00  0.00    -0.246 OA
BRANCH  44  46
ATOM     46  C   UNL A   1      42.912  25.013  25.698  1.00  0.00     0.060 A 
ATOM     47  C   UNL A   1      43.406  26.321  25.761  1.00  0.00     0.016 A 
ATOM     48  C   UNL A   1      41.817  24.621  26.470  1.00  0.00     0.016 A 
ATOM     49  C   UNL A   1      42.828  27.236  26.639  1.00  0.00     0.010 A 
ATOM     50  C   UNL A   1      41.252  25.532  27.363  1.00  0.00     0.010 A 
ATOM     51  C   UNL A   1      41.783  26.828  27.479  1.00  0.00    -0.014 A 
BRANCH  51  52
ATOM     52  C   UNL A   1      41.394  27.676  28.628  1.00  0.00     0.031 A 
ATOM     53  C   UNL A   1      42.188  27.554  29.899  1.00  0.00     0.074 A 
ATOM     54  C   UNL A   1      40.367  28.538  28.546  1.00  0.00     0.049 A 
ATOM     55  N   UNL A   1      42.017  28.154  31.048  1.00  0.00    -0.248 NA
ATOM     56  C   UNL A   1      43.330  26.624  29.868  1.00  0.00     0.031 C 
ATOM     57  C   UNL A   1      39.546  28.769  27.360  1.00  0.00     0.029 A 
ATOM     58  N   UNL A   1      39.838  29.376  29.495  1.00  0.00    -0.354 N 
ATOM     59  C   UNL A   1      43.026  27.677  31.874  1.00  0.00     0.074 A 
ATOM     60  C   UNL A   1      43.788  26.716  31.107  1.00  0.00     0.031 C 
ATOM     61  C   UNL A   1      38.603  29.681  27.658  1.00  0.00     0.029 A 
ATOM     62  C   UNL A   1      38.742  30.077  29.059  1.00  0.00     0.049 A 
ATOM     63  H   UNL A   1      40.209  29.465  30.403  1.00  0.00     0.167 HD
ATOM     64  C   UNL A   1      43.300  28.016  33.155  1.00  0.00     0.037 A 
ATOM     65  C   UNL A   1      37.935  30.925  29.725  1.00  0.00     0.037 A 
ATOM     66  C   UNL A   1      42.538  28.963  33.920  1.00  0.00     0.049 A 
ATOM     67  C   UNL A   1      38.218  31.232  31.173  1.00  0.00     0.074 A 
ATOM     68  C   UNL A   1      42.739  29.380  35.224  1.00  0.00     0.029 A 
ATOM     69  N   UNL A   1      41.420  29.635  33.451  1.00  0.00    -0.354 N 
ATOM     70  N   UNL A   1      39.191  30.798  31.937  1.00  0.00    -0.248 NA
ATOM     71  C   UNL A   1      37.290  32.151  31.849  1.00  0.00     0.031 C 
ATOM     72  C   UNL A   1      41.717  30.275  35.557  1.00  0.00     0.029 A 
ATOM     73  C   UNL A   1      40.907  30.448  34.446  1.00  0.00     0.049 A 
ATOM     74  H   UNL A   1      41.046  29.546  32.544  1.00  0.00     0.167 HD
ATOM     75  C   UNL A   1      39.009  31.411  33.172  1.00  0.00     0.074 A 
ATOM     76  C   UNL A   1      37.838  32.254  33.052  1.00  0.00     0.031 C 
ATOM     77  C   UNL A   1      39.746  31.289  34.303  1.00  0.00     0.037 A 
BRANCH  64  78
ATOM     78  C   UNL A   1      44.463  27.333  33.809  1.00  0.00     0.057 A 
ATOM     79  C   UNL A   1      44.331  26.084  34.429  1.00  0.00     0.134 A 
ATOM     80  C   UNL A   1      45.731  27.926  33.807  1.00  0.00     0.134 A 
ATOM     81  F   UNL A   1      43.139  25.474  34.483  1.00  0.00    -0.206 F 
ATOM     82  C   UNL A   1      45.418  25.458  35.042  1.00  0.00     0.040 A 
ATOM     83  C   UNL A   1      46.830  27.299  34.396  1.00  0.00     0.040 A 
ATOM     84  F   UNL A   1      45.923  29.123  33.231  1.00  0.00    -0.206 F 
ATOM     85  C   UNL A   1      46.673  26.063  35.021  1.00  0.00     0.006 A 
ENDBRANCH  64  78
BRANCH  65  86
ATOM     86  C   UNL A   1      36.773  31.541  29.038  1.00  0.00     0.057 A 
ATOM     87  C   UNL A   1      35.616  30.800  28.766  1.00  0.00     0.134 A 
ATOM     88  C   UNL A   1      36.802  32.874  28.612  1.00  0.00     0.134 A 
ATOM     89  F   UNL A   1      35.540  29.511  29.127  1.00  0.00    -0.206 F 
ATOM     90  C   UNL A   1      34.536  31.358  28.080  1.00  0.00     0.040 A 
ATOM     91  C   UNL A   1      35.719  33.452  27.946  1.00  0.00     0.040 A 
ATOM     92  F   UNL A   1      37.882  33.634  28.841  1.00  0.00    -0.206 F 
ATOM     93  C   UNL A   1      34.585  32.690  27.672  1.00  0.00     0.006 A 
ENDBRANCH  65  86
BRANCH  77  94
ATOM     94  C   UNL A   1      39.332  32.111  35.487  1.00  0.00     0.057 A 
ATOM     95  C   UNL A   1      38.508  31.595  36.495  1.00  0.00     0.134 A 
ATOM     96  C   UNL A   1      39.806  33.420  35.645  1.00  0.00     0.134 A 
ATOM     97  F   UNL A   1      38.013  30.351  36.397  1.00  0.00    -0.206 F 
ATOM     98  C   UNL A   1      38.152  32.359  37.607  1.00  0.00     0.040 A 
ATOM     99  C   UNL A   1      39.478  34.185  36.764  1.00  0.00     0.040 A 
ATOM    100  F   UNL A   1      40.609  33.970  34.721  1.00  0.00    -0.206 F 
ATOM    101  C   UNL A   1      38.644  33.656  37.747  1.00  0.00     0.006 A 
ENDBRANCH  77  94
ENDBRANCH  51  52
ENDBRANCH  44  46
ENDBRANCH  43  44
ENDBRANCH  42  43
ENDBRANCH  41  42
ENDBRANCH  40  41
ENDBRANCH  39  40
ENDBRANCH  38  39
ENDBRANCH  37  38
ENDBRANCH  36  37
ENDBRANCH   1  36
TORSDOF 25
ENDMDL
