MODEL 1
REMARK VINA RESULT:     -10.9      0.000      0.000
REMARK SMILES O=C(N/N=C/c1ccc(C(=O)OCCOCCOCCOCCOC(=O)c2ccc(-c3c4nc(c(-c5c(F)cccc5F)c5ccc([nH]5)c(-c5c(F)cccc5F)c5nc(c(-c6c(F)cccc6F)c6ccc3[nH]6)C=C5)C=C4)cc2)cc1)C(=O)Nc1ccc2c(c1)OCO2
REMARK SMILES IDX 17 1 16 2 15 3 14 4 13 5 12 6 10 7 11 8 9 9 6 10 7 11 82 12
REMARK SMILES IDX 8 13 81 14 5 15 4 16 3 17 1 18 2 19 83 21 84 22 85 23 86 25
REMARK SMILES IDX 87 26 91 27 88 28 90 29 89 30 92 31 94 32 93 33 18 34 19 35
REMARK SMILES IDX 20 36 21 37 22 38 23 39 24 40 25 41 26 42 27 43 28 44 80 45
REMARK SMILES IDX 29 46 79 47 30 48 31 49 32 50 73 51 33 52 78 53 72 54 74 55
REMARK SMILES IDX 34 56 77 57 71 58 70 59 35 61 61 62 44 63 60 64 45 65 48 66
REMARK SMILES IDX 59 67 75 68 46 69 47 70 58 72 76 73 49 74 36 75 37 76 42 77
REMARK SMILES IDX 38 78 39 79 41 80 43 81 40 82 62 83 63 84 68 85 64 86 65 87
REMARK SMILES IDX 67 88 69 89 66 90 50 91 51 92 56 93 52 94 53 95 55 96 57 97
REMARK SMILES IDX 54 98
REMARK H PARENT 3 20 85 24 74 60 48 71
REMARK Flexibility Score: inf
ROOT
ATOM      1  C   UNL A   1      44.376  18.290  26.176  1.00  0.00     0.188 C 
ENDROOT
BRANCH   1   2
ATOM      2  C   UNL A   1      42.839  18.379  26.098  1.00  0.00     0.188 C 
BRANCH   2   3
ATOM      3  O   UNL A   1      42.261  19.005  27.234  1.00  0.00    -0.376 OA
BRANCH   3   4
ATOM      4  C   UNL A   1      41.165  19.883  27.053  1.00  0.00     0.202 C 
BRANCH   4   5
ATOM      5  C   UNL A   1      41.442  21.387  26.900  1.00  0.00     0.261 C 
BRANCH   5   6
ATOM      6  O   UNL A   1      40.529  22.107  26.070  1.00  0.00    -0.460 OA
BRANCH   6   7
ATOM      7  C   UNL A   1      39.819  23.092  26.657  1.00  0.00     0.338 C 
ATOM      8  O   UNL A   1      40.251  23.980  27.371  1.00  0.00    -0.246 OA
BRANCH   7   9
ATOM      9  C   UNL A   1      38.438  23.046  26.131  1.00  0.00     0.060 A 
ATOM     10  C   UNL A   1      35.718  23.014  24.708  1.00  0.00    -0.005 A 
ATOM     11  C   UNL A   1      36.699  21.884  24.888  1.00  0.00     0.010 A 
ATOM     12  C   UNL A   1      36.237  23.984  25.753  1.00  0.00     0.010 A 
ATOM     13  C   UNL A   1      37.996  21.921  25.471  1.00  0.00     0.016 A 
ATOM     14  C   UNL A   1      37.510  24.026  26.385  1.00  0.00     0.016 A 
BRANCH  10  15
ATOM     15  C   UNL A   1      34.178  23.237  23.233  1.00  0.00     0.141 C 
ATOM     16  N   UNL A   1      34.021  23.885  22.028  1.00  0.00    -0.180 NA
BRANCH  16  17
ATOM     17  N   UNL A   1      32.735  24.197  21.756  1.00  0.00    -0.239 N 
ATOM     18  O   UNL A   1      31.024  25.670  21.638  1.00  0.00    -0.262 OA
ATOM     19  C   UNL A   1      32.213  25.475  21.894  1.00  0.00     0.329 C 
ATOM     20  H   UNL A   1      32.138  23.479  21.444  1.00  0.00     0.194 HD
BRANCH  19  21
ATOM     21  C   UNL A   1      33.100  26.700  22.259  1.00  0.00     0.315 C 
ATOM     22  O   UNL A   1      34.019  26.991  21.491  1.00  0.00    -0.263 OA
ATOM     23  N   UNL A   1      32.837  27.577  23.317  1.00  0.00    -0.318 N 
ATOM     24  H   UNL A   1      33.000  28.537  23.170  1.00  0.00     0.170 HD
BRANCH  23  25
ATOM     25  C   UNL A   1      32.358  27.179  24.575  1.00  0.00     0.045 A 
ATOM     26  C   UNL A   1      30.521  27.090  24.735  1.00  0.00     0.030 A 
ATOM     27  C   UNL A   1      33.431  26.046  25.536  1.00  0.00     0.076 A 
ATOM     28  C   UNL A   1      29.774  25.808  25.818  1.00  0.00     0.053 A 
ATOM     29  C   UNL A   1      32.642  24.698  26.459  1.00  0.00     0.167 A 
ATOM     30  C   UNL A   1      30.852  24.587  26.581  1.00  0.00     0.165 A 
ATOM     31  O   UNL A   1      33.130  23.545  26.980  1.00  0.00    -0.454 OA
ATOM     32  O   UNL A   1      30.584  23.415  27.201  1.00  0.00    -0.454 OA
ATOM     33  C   UNL A   1      31.899  22.741  27.136  1.00  0.00     0.468 C 
ENDBRANCH  23  25
ENDBRANCH  19  21
ENDBRANCH  16  17
ENDBRANCH  10  15
ENDBRANCH   7   9
ENDBRANCH   6   7
ENDBRANCH   5   6
ENDBRANCH   4   5
ENDBRANCH   3   4
ENDBRANCH   2   3
ENDBRANCH   1   2
BRANCH   1  34
ATOM     34  O   UNL A   1      45.058  18.075  24.951  1.00  0.00    -0.377 OA
BRANCH  34  35
ATOM     35  C   UNL A   1      45.722  19.174  24.326  1.00  0.00     0.188 C 
BRANCH  35  36
ATOM     36  C   UNL A   1      45.359  20.654  24.617  1.00  0.00     0.188 C 
BRANCH  36  37
ATOM     37  O   UNL A   1      44.574  21.294  23.625  1.00  0.00    -0.376 OA
BRANCH  37  38
ATOM     38  C   UNL A   1      44.516  22.710  23.649  1.00  0.00     0.202 C 
BRANCH  38  39
ATOM     39  C   UNL A   1      44.028  23.320  24.969  1.00  0.00     0.261 C 
BRANCH  39  40
ATOM     40  O   UNL A   1      43.752  24.727  24.930  1.00  0.00    -0.460 OA
BRANCH  40  41
ATOM     41  C   UNL A   1      44.758  25.559  25.282  1.00  0.00     0.338 C 
ATOM     42  O   UNL A   1      45.739  25.853  24.627  1.00  0.00    -0.246 OA
BRANCH  41  43
ATOM     43  C   UNL A   1      44.369  26.213  26.547  1.00  0.00     0.060 A 
ATOM     44  C   UNL A   1      43.506  25.544  27.425  1.00  0.00     0.016 A 
ATOM     45  C   UNL A   1      44.862  27.481  26.859  1.00  0.00     0.016 A 
ATOM     46  C   UNL A   1      43.097  26.165  28.603  1.00  0.00     0.010 A 
ATOM     47  C   UNL A   1      44.435  28.111  28.027  1.00  0.00     0.010 A 
ATOM     48  C   UNL A   1      43.520  27.472  28.883  1.00  0.00    -0.014 A 
BRANCH  48  49
ATOM     49  C   UNL A   1      42.826  28.256  29.930  1.00  0.00     0.031 A 
ATOM     50  C   UNL A   1      43.462  28.327  31.291  1.00  0.00     0.074 A 
ATOM     51  C   UNL A   1      41.676  28.903  29.683  1.00  0.00     0.049 A 
ATOM     52  N   UNL A   1      43.032  28.903  32.383  1.00  0.00    -0.248 NA
ATOM     53  C   UNL A   1      44.760  27.646  31.439  1.00  0.00     0.031 C 
ATOM     54  C   UNL A   1      40.988  28.946  28.394  1.00  0.00     0.029 A 
ATOM     55  N   UNL A   1      40.880  29.644  30.519  1.00  0.00    -0.354 N 
ATOM     56  C   UNL A   1      44.001  28.650  33.346  1.00  0.00     0.074 A 
ATOM     57  C   UNL A   1      45.021  27.838  32.721  1.00  0.00     0.031 C 
ATOM     58  C   UNL A   1      39.863  29.672  28.529  1.00  0.00     0.029 A 
ATOM     59  C   UNL A   1      39.739  30.113  29.919  1.00  0.00     0.049 A 
ATOM     60  H   UNL A   1      41.106  29.822  31.461  1.00  0.00     0.167 HD
ATOM     61  C   UNL A   1      44.043  29.066  34.633  1.00  0.00     0.037 A 
ATOM     62  C   UNL A   1      38.706  30.803  30.441  1.00  0.00     0.037 A 
ATOM     63  C   UNL A   1      43.021  29.864  35.256  1.00  0.00     0.049 A 
ATOM     64  C   UNL A   1      38.733  31.184  31.899  1.00  0.00     0.074 A 
ATOM     65  C   UNL A   1      42.969  30.343  36.552  1.00  0.00     0.029 A 
ATOM     66  N   UNL A   1      41.861  30.290  34.623  1.00  0.00    -0.354 N 
ATOM     67  N   UNL A   1      39.661  30.960  32.798  1.00  0.00    -0.248 NA
ATOM     68  C   UNL A   1      37.567  31.917  32.413  1.00  0.00     0.031 C 
ATOM     69  C   UNL A   1      41.753  31.013  36.721  1.00  0.00     0.029 A 
ATOM     70  C   UNL A   1      41.076  31.005  35.511  1.00  0.00     0.049 A 
ATOM     71  H   UNL A   1      41.632  30.110  33.683  1.00  0.00     0.167 HD
ATOM     72  C   UNL A   1      39.209  31.556  33.971  1.00  0.00     0.074 A 
ATOM     73  C   UNL A   1      37.929  32.156  33.666  1.00  0.00     0.031 C 
ATOM     74  C   UNL A   1      39.806  31.608  35.188  1.00  0.00     0.037 A 
BRANCH  61  75
ATOM     75  C   UNL A   1      45.220  28.628  35.456  1.00  0.00     0.057 A 
ATOM     76  C   UNL A   1      45.207  27.439  36.200  1.00  0.00     0.134 A 
ATOM     77  C   UNL A   1      46.382  29.407  35.507  1.00  0.00     0.134 A 
ATOM     78  F   UNL A   1      44.118  26.656  36.210  1.00  0.00    -0.206 F 
ATOM     79  C   UNL A   1      46.294  27.058  36.987  1.00  0.00     0.040 A 
ATOM     80  C   UNL A   1      47.488  29.022  36.267  1.00  0.00     0.040 A 
ATOM     81  F   UNL A   1      46.464  30.556  34.820  1.00  0.00    -0.206 F 
ATOM     82  C   UNL A   1      47.442  27.849  37.017  1.00  0.00     0.006 A 
ENDBRANCH  61  75
BRANCH  62  83
ATOM     83  C   UNL A   1      37.554  31.179  29.583  1.00  0.00     0.057 A 
ATOM     84  C   UNL A   1      36.520  30.273  29.320  1.00  0.00     0.134 A 
ATOM     85  C   UNL A   1      37.467  32.444  28.989  1.00  0.00     0.134 A 
ATOM     86  F   UNL A   1      36.558  29.037  29.839  1.00  0.00    -0.206 F 
ATOM     87  C   UNL A   1      35.451  30.604  28.484  1.00  0.00     0.040 A 
ATOM     88  C   UNL A   1      36.391  32.798  28.173  1.00  0.00     0.040 A 
ATOM     89  F   UNL A   1      38.426  33.359  29.199  1.00  0.00    -0.206 F 
ATOM     90  C   UNL A   1      35.383  31.874  27.913  1.00  0.00     0.006 A 
ENDBRANCH  62  83
BRANCH  74  91
ATOM     91  C   UNL A   1      39.107  32.381  36.270  1.00  0.00     0.057 A 
ATOM     92  C   UNL A   1      38.130  31.804  37.090  1.00  0.00     0.134 A 
ATOM     93  C   UNL A   1      39.452  33.717  36.521  1.00  0.00     0.134 A 
ATOM     94  F   UNL A   1      37.746  30.533  36.898  1.00  0.00    -0.206 F 
ATOM     95  C   UNL A   1      37.503  32.533  38.103  1.00  0.00     0.040 A 
ATOM     96  C   UNL A   1      38.855  34.446  37.549  1.00  0.00     0.040 A 
ATOM     97  F   UNL A   1      40.389  34.329  35.780  1.00  0.00    -0.206 F 
ATOM     98  C   UNL A   1      37.871  33.857  38.339  1.00  0.00     0.006 A 
ENDBRANCH  74  91
ENDBRANCH  48  49
ENDBRANCH  41  43
ENDBRANCH  40  41
ENDBRANCH  39  40
ENDBRANCH  38  39
ENDBRANCH  37  38
ENDBRANCH  36  37
ENDBRANCH  35  36
ENDBRANCH  34  35
ENDBRANCH   1  34
TORSDOF 24
ENDMDL
MODEL 2
REMARK VINA RESULT:     -10.7      1.919      6.357
REMARK SMILES O=C(N/N=C/c1ccc(C(=O)OCCOCCOCCOCCOC(=O)c2ccc(-c3c4nc(c(-c5c(F)cccc5F)c5ccc([nH]5)c(-c5c(F)cccc5F)c5nc(c(-c6c(F)cccc6F)c6ccc3[nH]6)C=C5)C=C4)cc2)cc1)C(=O)Nc1ccc2c(c1)OCO2
REMARK SMILES IDX 17 1 16 2 15 3 14 4 13 5 12 6 10 7 11 8 9 9 6 10 7 11 82 12
REMARK SMILES IDX 8 13 81 14 5 15 4 16 3 17 1 18 2 19 83 21 84 22 85 23 86 25
REMARK SMILES IDX 87 26 91 27 88 28 90 29 89 30 92 31 94 32 93 33 18 34 19 35
REMARK SMILES IDX 20 36 21 37 22 38 23 39 24 40 25 41 26 42 27 43 28 44 80 45
REMARK SMILES IDX 29 46 79 47 30 48 31 49 32 50 73 51 33 52 78 53 72 54 74 55
REMARK SMILES IDX 34 56 77 57 71 58 70 59 35 61 61 62 44 63 60 64 45 65 48 66
REMARK SMILES IDX 59 67 75 68 46 69 47 70 58 72 76 73 49 74 36 75 37 76 42 77
REMARK SMILES IDX 38 78 39 79 41 80 43 81 40 82 62 83 63 84 68 85 64 86 65 87
REMARK SMILES IDX 67 88 69 89 66 90 50 91 51 92 56 93 52 94 53 95 55 96 57 97
REMARK SMILES IDX 54 98
REMARK H PARENT 3 20 85 24 74 60 48 71
REMARK Flexibility Score: inf
ROOT
ATOM      1  C   UNL A   1      45.196  18.320  25.684  1.00  0.00     0.188 C 
ENDROOT
BRANCH   1   2
ATOM      2  C   UNL A   1      43.764  18.133  25.143  1.00  0.00     0.188 C 
BRANCH   2   3
ATOM      3  O   UNL A   1      42.776  18.169  26.163  1.00  0.00    -0.376 OA
BRANCH   3   4
ATOM      4  C   UNL A   1      41.879  19.263  26.213  1.00  0.00     0.202 C 
BRANCH   4   5
ATOM      5  C   UNL A   1      42.367  20.592  26.813  1.00  0.00     0.261 C 
BRANCH   5   6
ATOM      6  O   UNL A   1      41.641  21.757  26.418  1.00  0.00    -0.460 OA
BRANCH   6   7
ATOM      7  C   UNL A   1      40.974  22.416  27.386  1.00  0.00     0.338 C 
ATOM      8  O   UNL A   1      41.408  22.756  28.473  1.00  0.00    -0.246 OA
BRANCH   7   9
ATOM      9  C   UNL A   1      39.669  22.847  26.841  1.00  0.00     0.060 A 
ATOM     10  C   UNL A   1      36.837  23.734  26.056  1.00  0.00    -0.005 A 
ATOM     11  C   UNL A   1      37.992  24.581  26.527  1.00  0.00     0.010 A 
ATOM     12  C   UNL A   1      37.576  22.462  25.685  1.00  0.00     0.010 A 
ATOM     13  C   UNL A   1      39.275  24.160  26.972  1.00  0.00     0.016 A 
ATOM     14  C   UNL A   1      38.872  22.029  26.079  1.00  0.00     0.016 A 
BRANCH  10  15
ATOM     15  C   UNL A   1      34.738  24.168  26.117  1.00  0.00     0.141 C 
ATOM     16  N   UNL A   1      33.560  23.455  26.096  1.00  0.00    -0.180 NA
BRANCH  16  17
ATOM     17  N   UNL A   1      32.522  24.158  25.592  1.00  0.00    -0.239 N 
ATOM     18  O   UNL A   1      31.431  25.148  23.876  1.00  0.00    -0.262 OA
ATOM     19  C   UNL A   1      32.404  24.491  24.250  1.00  0.00     0.329 C 
ATOM     20  H   UNL A   1      31.814  24.451  26.209  1.00  0.00     0.194 HD
BRANCH  19  21
ATOM     21  C   UNL A   1      33.402  23.974  23.174  1.00  0.00     0.315 C 
ATOM     22  O   UNL A   1      33.839  24.789  22.359  1.00  0.00    -0.263 OA
ATOM     23  N   UNL A   1      33.947  22.685  23.157  1.00  0.00    -0.318 N 
ATOM     24  H   UNL A   1      34.893  22.589  22.904  1.00  0.00     0.170 HD
BRANCH  23  25
ATOM     25  C   UNL A   1      33.232  21.520  23.477  1.00  0.00     0.045 A 
ATOM     26  C   UNL A   1      32.139  20.864  22.144  1.00  0.00     0.030 A 
ATOM     27  C   UNL A   1      34.024  20.380  24.675  1.00  0.00     0.076 A 
ATOM     28  C   UNL A   1      31.905  19.049  21.984  1.00  0.00     0.053 A 
ATOM     29  C   UNL A   1      33.893  18.596  24.373  1.00  0.00     0.167 A 
ATOM     30  C   UNL A   1      32.861  17.958  23.048  1.00  0.00     0.165 A 
ATOM     31  O   UNL A   1      34.598  17.539  24.848  1.00  0.00    -0.454 OA
ATOM     32  O   UNL A   1      33.086  16.625  22.997  1.00  0.00    -0.454 OA
ATOM     33  C   UNL A   1      34.293  16.499  23.843  1.00  0.00     0.468 C 
ENDBRANCH  23  25
ENDBRANCH  19  21
ENDBRANCH  16  17
ENDBRANCH  10  15
ENDBRANCH   7   9
ENDBRANCH   6   7
ENDBRANCH   5   6
ENDBRANCH   4   5
ENDBRANCH   3   4
ENDBRANCH   2   3
ENDBRANCH   1   2
BRANCH   1  34
ATOM     34  O   UNL A   1      46.209  18.543  24.718  1.00  0.00    -0.377 OA
BRANCH  34  35
ATOM     35  C   UNL A   1      46.780  19.847  24.602  1.00  0.00     0.188 C 
BRANCH  35  36
ATOM     36  C   UNL A   1      45.984  21.145  24.905  1.00  0.00     0.188 C 
BRANCH  36  37
ATOM     37  O   UNL A   1      44.885  21.398  24.045  1.00  0.00    -0.376 OA
BRANCH  37  38
ATOM     38  C   UNL A   1      44.642  22.744  23.674  1.00  0.00     0.202 C 
BRANCH  38  39
ATOM     39  C   UNL A   1      43.674  23.507  24.587  1.00  0.00     0.261 C 
BRANCH  39  40
ATOM     40  O   UNL A   1      43.817  24.935  24.577  1.00  0.00    -0.460 OA
BRANCH  40  41
ATOM     41  C   UNL A   1      44.681  25.470  25.467  1.00  0.00     0.338 C 
ATOM     42  O   UNL A   1      45.896  25.484  25.405  1.00  0.00    -0.246 OA
BRANCH  41  43
ATOM     43  C   UNL A   1      43.887  26.218  26.461  1.00  0.00     0.060 A 
ATOM     44  C   UNL A   1      44.102  27.595  26.610  1.00  0.00     0.016 A 
ATOM     45  C   UNL A   1      42.933  25.558  27.236  1.00  0.00     0.016 A 
ATOM     46  C   UNL A   1      43.390  28.309  27.572  1.00  0.00     0.010 A 
ATOM     47  C   UNL A   1      42.236  26.268  28.214  1.00  0.00     0.010 A 
ATOM     48  C   UNL A   1      42.492  27.636  28.412  1.00  0.00    -0.014 A 
BRANCH  48  49
ATOM     49  C   UNL A   1      42.004  28.300  29.643  1.00  0.00     0.031 A 
ATOM     50  C   UNL A   1      40.737  29.104  29.552  1.00  0.00     0.074 A 
ATOM     51  C   UNL A   1      42.652  28.183  30.813  1.00  0.00     0.049 A 
ATOM     52  N   UNL A   1      40.133  29.817  30.467  1.00  0.00    -0.248 NA
ATOM     53  C   UNL A   1      40.062  29.109  28.242  1.00  0.00     0.031 C 
ATOM     54  C   UNL A   1      43.863  27.396  31.037  1.00  0.00     0.029 A 
ATOM     55  N   UNL A   1      42.377  28.740  32.036  1.00  0.00    -0.354 N 
ATOM     56  C   UNL A   1      39.015  30.357  29.845  1.00  0.00     0.074 A 
ATOM     57  C   UNL A   1      39.043  29.922  28.466  1.00  0.00     0.031 C 
ATOM     58  C   UNL A   1      44.232  27.528  32.323  1.00  0.00     0.029 A 
ATOM     59  C   UNL A   1      43.304  28.435  33.000  1.00  0.00     0.049 A 
ATOM     60  H   UNL A   1      41.590  29.306  32.206  1.00  0.00     0.167 HD
ATOM     61  C   UNL A   1      38.045  31.137  30.376  1.00  0.00     0.037 A 
ATOM     62  C   UNL A   1      43.399  28.856  34.276  1.00  0.00     0.037 A 
ATOM     63  C   UNL A   1      38.026  31.578  31.745  1.00  0.00     0.049 A 
ATOM     64  C   UNL A   1      42.353  29.794  34.825  1.00  0.00     0.074 A 
ATOM     65  C   UNL A   1      37.088  32.366  32.385  1.00  0.00     0.029 A 
ATOM     66  N   UNL A   1      39.004  31.276  32.682  1.00  0.00    -0.354 N 
ATOM     67  N   UNL A   1      41.288  30.284  34.238  1.00  0.00    -0.248 NA
ATOM     68  C   UNL A   1      42.524  30.234  36.217  1.00  0.00     0.031 C 
ATOM     69  C   UNL A   1      37.524  32.587  33.696  1.00  0.00     0.029 A 
ATOM     70  C   UNL A   1      38.702  31.883  33.889  1.00  0.00     0.049 A 
ATOM     71  H   UNL A   1      39.793  30.712  32.514  1.00  0.00     0.167 HD
ATOM     72  C   UNL A   1      40.643  31.056  35.197  1.00  0.00     0.074 A 
ATOM     73  C   UNL A   1      41.434  30.964  36.405  1.00  0.00     0.031 C 
ATOM     74  C   UNL A   1      39.496  31.772  35.089  1.00  0.00     0.037 A 
BRANCH  61  75
ATOM     75  C   UNL A   1      36.949  31.589  29.455  1.00  0.00     0.057 A 
ATOM     76  C   UNL A   1      36.926  32.876  28.900  1.00  0.00     0.134 A 
ATOM     77  C   UNL A   1      35.900  30.723  29.120  1.00  0.00     0.134 A 
ATOM     78  F   UNL A   1      37.890  33.761  29.195  1.00  0.00    -0.206 F 
ATOM     79  C   UNL A   1      35.884  33.296  28.072  1.00  0.00     0.040 A 
ATOM     80  C   UNL A   1      34.868  31.122  28.269  1.00  0.00     0.040 A 
ATOM     81  F   UNL A   1      35.859  29.477  29.614  1.00  0.00    -0.206 F 
ATOM     82  C   UNL A   1      34.854  32.415  27.749  1.00  0.00     0.006 A 
ENDBRANCH  61  75
BRANCH  62  83
ATOM     83  C   UNL A   1      44.526  28.400  35.129  1.00  0.00     0.057 A 
ATOM     84  C   UNL A   1      44.440  27.216  35.870  1.00  0.00     0.134 A 
ATOM     85  C   UNL A   1      45.707  29.144  35.239  1.00  0.00     0.134 A 
ATOM     86  F   UNL A   1      43.325  26.472  35.827  1.00  0.00    -0.206 F 
ATOM     87  C   UNL A   1      45.480  26.796  36.703  1.00  0.00     0.040 A 
ATOM     88  C   UNL A   1      46.765  28.723  36.047  1.00  0.00     0.040 A 
ATOM     89  F   UNL A   1      45.853  30.289  34.556  1.00  0.00    -0.206 F 
ATOM     90  C   UNL A   1      46.649  27.549  36.788  1.00  0.00     0.006 A 
ENDBRANCH  62  83
BRANCH  74  91
ATOM     91  C   UNL A   1      38.996  32.470  36.322  1.00  0.00     0.057 A 
ATOM     92  C   UNL A   1      39.363  33.784  36.637  1.00  0.00     0.134 A 
ATOM     93  C   UNL A   1      38.096  31.828  37.184  1.00  0.00     0.134 A 
ATOM     94  F   UNL A   1      40.228  34.453  35.861  1.00  0.00    -0.206 F 
ATOM     95  C   UNL A   1      38.875  34.425  37.778  1.00  0.00     0.040 A 
ATOM     96  C   UNL A   1      37.577  32.468  38.310  1.00  0.00     0.040 A 
ATOM     97  F   UNL A   1      37.692  30.573  36.935  1.00  0.00    -0.206 F 
ATOM     98  C   UNL A   1      37.973  33.767  38.615  1.00  0.00     0.006 A 
ENDBRANCH  74  91
ENDBRANCH  48  49
ENDBRANCH  41  43
ENDBRANCH  40  41
ENDBRANCH  39  40
ENDBRANCH  38  39
ENDBRANCH  37  38
ENDBRANCH  36  37
ENDBRANCH  35  36
ENDBRANCH  34  35
ENDBRANCH   1  34
TORSDOF 24
ENDMDL
MODEL 3
REMARK VINA RESULT:      -9.9      6.367     11.803
REMARK SMILES O=C(N/N=C/c1ccc(C(=O)OCCOCCOCCOCCOC(=O)c2ccc(-c3c4nc(c(-c5c(F)cccc5F)c5ccc([nH]5)c(-c5c(F)cccc5F)c5nc(c(-c6c(F)cccc6F)c6ccc3[nH]6)C=C5)C=C4)cc2)cc1)C(=O)Nc1ccc2c(c1)OCO2
REMARK SMILES IDX 17 1 16 2 15 3 14 4 13 5 12 6 10 7 11 8 9 9 6 10 7 11 82 12
REMARK SMILES IDX 8 13 81 14 5 15 4 16 3 17 1 18 2 19 83 21 84 22 85 23 86 25
REMARK SMILES IDX 87 26 91 27 88 28 90 29 89 30 92 31 94 32 93 33 18 34 19 35
REMARK SMILES IDX 20 36 21 37 22 38 23 39 24 40 25 41 26 42 27 43 28 44 80 45
REMARK SMILES IDX 29 46 79 47 30 48 31 49 32 50 73 51 33 52 78 53 72 54 74 55
REMARK SMILES IDX 34 56 77 57 71 58 70 59 35 61 61 62 44 63 60 64 45 65 48 66
REMARK SMILES IDX 59 67 75 68 46 69 47 70 58 72 76 73 49 74 36 75 37 76 42 77
REMARK SMILES IDX 38 78 39 79 41 80 43 81 40 82 62 83 63 84 68 85 64 86 65 87
REMARK SMILES IDX 67 88 69 89 66 90 50 91 51 92 56 93 52 94 53 95 55 96 57 97
REMARK SMILES IDX 54 98
REMARK H PARENT 3 20 85 24 74 60 48 71
REMARK Flexibility Score: inf
ROOT
ATOM      1  C   UNL A   1      34.484  23.477  24.175  1.00  0.00     0.188 C 
ENDROOT
BRANCH   1   2
ATOM      2  C   UNL A   1      33.415  23.661  23.079  1.00  0.00     0.188 C 
BRANCH   2   3
ATOM      3  O   UNL A   1      33.702  24.739  22.199  1.00  0.00    -0.376 OA
BRANCH   3   4
ATOM      4  C   UNL A   1      32.802  25.024  21.144  1.00  0.00     0.202 C 
BRANCH   4   5
ATOM      5  C   UNL A   1      31.925  26.283  21.243  1.00  0.00     0.261 C 
BRANCH   5   6
ATOM      6  O   UNL A   1      31.109  26.384  22.412  1.00  0.00    -0.460 OA
BRANCH   6   7
ATOM      7  C   UNL A   1      30.723  27.622  22.778  1.00  0.00     0.338 C 
ATOM      8  O   UNL A   1      29.812  28.276  22.301  1.00  0.00    -0.246 OA
BRANCH   7   9
ATOM      9  C   UNL A   1      31.458  27.994  24.006  1.00  0.00     0.060 A 
ATOM     10  C   UNL A   1      33.231  28.927  26.332  1.00  0.00    -0.005 A 
ATOM     11  C   UNL A   1      32.147  29.688  25.612  1.00  0.00     0.010 A 
ATOM     12  C   UNL A   1      32.900  27.513  25.892  1.00  0.00     0.010 A 
ATOM     13  C   UNL A   1      31.387  29.286  24.479  1.00  0.00     0.016 A 
ATOM     14  C   UNL A   1      32.112  27.077  24.792  1.00  0.00     0.016 A 
BRANCH  10  15
ATOM     15  C   UNL A   1      34.882  29.688  27.469  1.00  0.00     0.141 C 
ATOM     16  N   UNL A   1      35.371  30.923  27.835  1.00  0.00    -0.180 NA
BRANCH  16  17
ATOM     17  N   UNL A   1      36.703  30.921  28.057  1.00  0.00    -0.239 N 
ATOM     18  O   UNL A   1      38.494  30.901  29.438  1.00  0.00    -0.262 OA
ATOM     19  C   UNL A   1      37.267  30.886  29.324  1.00  0.00     0.329 C 
ATOM     20  H   UNL A   1      37.305  30.948  27.279  1.00  0.00     0.194 HD
BRANCH  19  21
ATOM     21  C   UNL A   1      36.409  30.717  30.612  1.00  0.00     0.315 C 
ATOM     22  O   UNL A   1      36.065  29.576  30.925  1.00  0.00    -0.263 OA
ATOM     23  N   UNL A   1      36.125  31.750  31.511  1.00  0.00    -0.318 N 
ATOM     24  H   UNL A   1      36.133  31.538  32.473  1.00  0.00     0.170 HD
BRANCH  23  25
ATOM     25  C   UNL A   1      35.830  33.070  31.134  1.00  0.00     0.045 A 
ATOM     26  C   UNL A   1      34.535  33.255  29.832  1.00  0.00     0.030 A 
ATOM     27  C   UNL A   1      36.042  34.354  32.424  1.00  0.00     0.076 A 
ATOM     28  C   UNL A   1      33.413  34.708  29.881  1.00  0.00     0.053 A 
ATOM     29  C   UNL A   1      34.807  35.679  32.522  1.00  0.00     0.167 A 
ATOM     30  C   UNL A   1      33.520  35.837  31.278  1.00  0.00     0.165 A 
ATOM     31  O   UNL A   1      34.492  36.558  33.507  1.00  0.00    -0.454 OA
ATOM     32  O   UNL A   1      32.692  36.816  31.707  1.00  0.00    -0.454 OA
ATOM     33  C   UNL A   1      33.132  36.979  33.109  1.00  0.00     0.468 C 
ENDBRANCH  23  25
ENDBRANCH  19  21
ENDBRANCH  16  17
ENDBRANCH  10  15
ENDBRANCH   7   9
ENDBRANCH   6   7
ENDBRANCH   5   6
ENDBRANCH   4   5
ENDBRANCH   3   4
ENDBRANCH   2   3
ENDBRANCH   1   2
BRANCH   1  34
ATOM     34  O   UNL A   1      35.130  22.216  24.219  1.00  0.00    -0.377 OA
BRANCH  34  35
ATOM     35  C   UNL A   1      36.556  22.171  24.281  1.00  0.00     0.188 C 
BRANCH  35  36
ATOM     36  C   UNL A   1      37.340  22.083  25.617  1.00  0.00     0.188 C 
BRANCH  36  37
ATOM     37  O   UNL A   1      38.701  21.702  25.499  1.00  0.00    -0.376 OA
BRANCH  37  38
ATOM     38  C   UNL A   1      39.579  22.084  26.543  1.00  0.00     0.202 C 
BRANCH  38  39
ATOM     39  C   UNL A   1      41.066  22.105  26.169  1.00  0.00     0.261 C 
BRANCH  39  40
ATOM     40  O   UNL A   1      41.745  23.345  26.418  1.00  0.00    -0.460 OA
BRANCH  40  41
ATOM     41  C   UNL A   1      42.702  23.339  27.371  1.00  0.00     0.338 C 
ATOM     42  O   UNL A   1      43.001  22.425  28.116  1.00  0.00    -0.246 OA
BRANCH  41  43
ATOM     43  C   UNL A   1      43.472  24.591  27.234  1.00  0.00     0.060 A 
ATOM     44  C   UNL A   1      43.841  25.028  25.954  1.00  0.00     0.016 A 
ATOM     45  C   UNL A   1      43.821  25.327  28.367  1.00  0.00     0.016 A 
ATOM     46  C   UNL A   1      44.603  26.186  25.809  1.00  0.00     0.010 A 
ATOM     47  C   UNL A   1      44.603  26.473  28.223  1.00  0.00     0.010 A 
ATOM     48  C   UNL A   1      45.030  26.884  26.948  1.00  0.00    -0.014 A 
BRANCH  48  49
ATOM     49  C   UNL A   1      46.110  27.889  26.827  1.00  0.00     0.031 A 
ATOM     50  C   UNL A   1      45.721  29.342  26.828  1.00  0.00     0.074 A 
ATOM     51  C   UNL A   1      47.401  27.532  26.735  1.00  0.00     0.049 A 
ATOM     52  N   UNL A   1      46.468  30.405  26.686  1.00  0.00    -0.248 NA
ATOM     53  C   UNL A   1      44.288  29.631  27.008  1.00  0.00     0.031 C 
ATOM     54  C   UNL A   1      47.906  26.161  26.768  1.00  0.00     0.029 A 
ATOM     55  N   UNL A   1      48.525  28.304  26.587  1.00  0.00    -0.354 N 
ATOM     56  C   UNL A   1      45.597  31.486  26.754  1.00  0.00     0.074 A 
ATOM     57  C   UNL A   1      44.263  30.950  26.912  1.00  0.00     0.031 C 
ATOM     58  C   UNL A   1      49.244  26.190  26.635  1.00  0.00     0.029 A 
ATOM     59  C   UNL A   1      49.682  27.576  26.474  1.00  0.00     0.049 A 
ATOM     60  H   UNL A   1      48.503  29.289  26.564  1.00  0.00     0.167 HD
ATOM     61  C   UNL A   1      45.884  32.808  26.700  1.00  0.00     0.037 A 
ATOM     62  C   UNL A   1      50.945  27.986  26.247  1.00  0.00     0.037 A 
ATOM     63  C   UNL A   1      47.209  33.338  26.531  1.00  0.00     0.049 A 
ATOM     64  C   UNL A   1      51.231  29.460  26.106  1.00  0.00     0.074 A 
ATOM     65  C   UNL A   1      47.609  34.660  26.469  1.00  0.00     0.029 A 
ATOM     66  N   UNL A   1      48.353  32.566  26.384  1.00  0.00    -0.354 N 
ATOM     67  N   UNL A   1      50.407  30.476  26.192  1.00  0.00    -0.248 NA
ATOM     68  C   UNL A   1      52.625  29.841  25.839  1.00  0.00     0.031 C 
ATOM     69  C   UNL A   1      48.987  34.689  26.230  1.00  0.00     0.029 A 
ATOM     70  C   UNL A   1      49.455  33.384  26.207  1.00  0.00     0.049 A 
ATOM     71  H   UNL A   1      48.377  31.581  26.404  1.00  0.00     0.167 HD
ATOM     72  C   UNL A   1      51.187  31.616  26.028  1.00  0.00     0.074 A 
ATOM     73  C   UNL A   1      52.549  31.164  25.844  1.00  0.00     0.031 C 
ATOM     74  C   UNL A   1      50.810  32.919  26.036  1.00  0.00     0.037 A 
BRANCH  61  75
ATOM     75  C   UNL A   1      44.728  33.763  26.788  1.00  0.00     0.057 A 
ATOM     76  C   UNL A   1      44.319  34.325  28.006  1.00  0.00     0.134 A 
ATOM     77  C   UNL A   1      44.014  34.123  25.639  1.00  0.00     0.134 A 
ATOM     78  F   UNL A   1      44.949  34.007  29.147  1.00  0.00    -0.206 F 
ATOM     79  C   UNL A   1      43.223  35.186  28.081  1.00  0.00     0.040 A 
ATOM     80  C   UNL A   1      42.934  35.006  25.697  1.00  0.00     0.040 A 
ATOM     81  F   UNL A   1      44.351  33.623  24.441  1.00  0.00    -0.206 F 
ATOM     82  C   UNL A   1      42.531  35.533  26.922  1.00  0.00     0.006 A 
ENDBRANCH  61  75
BRANCH  62  83
ATOM     83  C   UNL A   1      52.041  26.990  26.136  1.00  0.00     0.057 A 
ATOM     84  C   UNL A   1      52.318  26.349  24.923  1.00  0.00     0.134 A 
ATOM     85  C   UNL A   1      52.825  26.639  27.242  1.00  0.00     0.134 A 
ATOM     86  F   UNL A   1      51.585  26.623  23.834  1.00  0.00    -0.206 F 
ATOM     87  C   UNL A   1      53.321  25.384  24.817  1.00  0.00     0.040 A 
ATOM     88  C   UNL A   1      53.849  25.696  27.144  1.00  0.00     0.040 A 
ATOM     89  F   UNL A   1      52.611  27.215  28.435  1.00  0.00    -0.206 F 
ATOM     90  C   UNL A   1      54.095  25.060  25.930  1.00  0.00     0.006 A 
ENDBRANCH  62  83
BRANCH  74  91
ATOM     91  C   UNL A   1      51.889  33.954  25.893  1.00  0.00     0.057 A 
ATOM     92  C   UNL A   1      52.524  34.529  27.001  1.00  0.00     0.134 A 
ATOM     93  C   UNL A   1      52.329  34.348  24.622  1.00  0.00     0.134 A 
ATOM     94  F   UNL A   1      52.146  34.204  28.246  1.00  0.00    -0.206 F 
ATOM     95  C   UNL A   1      53.538  35.477  26.850  1.00  0.00     0.040 A 
ATOM     96  C   UNL A   1      53.362  35.271  24.458  1.00  0.00     0.040 A 
ATOM     97  F   UNL A   1      51.772  33.828  23.517  1.00  0.00    -0.206 F 
ATOM     98  C   UNL A   1      53.964  35.845  25.574  1.00  0.00     0.006 A 
ENDBRANCH  74  91
ENDBRANCH  48  49
ENDBRANCH  41  43
ENDBRANCH  40  41
ENDBRANCH  39  40
ENDBRANCH  38  39
ENDBRANCH  37  38
ENDBRANCH  36  37
ENDBRANCH  35  36
ENDBRANCH  34  35
ENDBRANCH   1  34
TORSDOF 24
ENDMDL
