MODEL 1
REMARK VINA RESULT:     -10.5      0.000      0.000
REMARK SMILES O=C(OCCOCCOCCOCCOC(=O)c1cc(Cl)ncc1-c1cccc(C(F)(F)F)c1)c1ccc(-c2c3nc(c(-c4c(F)cccc4F)c4ccc([nH]4)c(-c4c(F)cccc4F)c4nc(c(-c5c(F)cccc5F)c5ccc2[nH]5)C=C4)C=C3)cc1
REMARK SMILES IDX 9 1 8 2 7 3 6 4 5 5 4 6 3 7 2 8 1 9 35 10 36 11 88 12 37 13
REMARK SMILES IDX 87 14 38 15 39 16 40 17 81 18 41 19 86 20 80 21 82 22 42 23
REMARK SMILES IDX 85 24 79 25 78 26 43 28 69 29 52 30 68 31 53 32 56 33 67 34
REMARK SMILES IDX 83 35 54 36 55 37 66 39 84 40 57 41 44 42 45 43 50 44 46 45
REMARK SMILES IDX 47 46 49 47 51 48 48 49 70 50 71 51 76 52 72 53 73 54 75 55
REMARK SMILES IDX 77 56 74 57 58 58 59 59 64 60 60 61 61 62 63 63 65 64 62 65
REMARK SMILES IDX 10 66 11 67 12 68 13 69 14 70 15 71 16 72 17 73 18 74 19 75
REMARK SMILES IDX 24 76 20 77 23 78 21 79 22 80 25 81 26 82 34 83 27 84 29 85
REMARK SMILES IDX 28 86 30 87 31 88 32 89 33 90
REMARK H PARENT 82 27 56 38
REMARK Flexibility Score: inf
ROOT
ATOM      1  O   UNL A   1      42.290  19.609  27.032  1.00  0.00    -0.377 OA
ENDROOT
BRANCH   1   2
ATOM      2  C   UNL A   1      42.709  19.015  25.814  1.00  0.00     0.188 C 
BRANCH   2   3
ATOM      3  C   UNL A   1      44.206  18.771  25.779  1.00  0.00     0.188 C 
BRANCH   3   4
ATOM      4  O   UNL A   1      44.776  19.290  24.591  1.00  0.00    -0.376 OA
BRANCH   4   5
ATOM      5  C   UNL A   1      44.556  20.646  24.264  1.00  0.00     0.202 C 
BRANCH   5   6
ATOM      6  C   UNL A   1      44.960  21.460  25.496  1.00  0.00     0.261 C 
BRANCH   6   7
ATOM      7  O   UNL A   1      43.880  22.281  25.987  1.00  0.00    -0.460 OA
BRANCH   7   8
ATOM      8  C   UNL A   1      43.715  23.573  25.604  1.00  0.00     0.338 C 
ATOM      9  O   UNL A   1      43.845  23.895  24.425  1.00  0.00    -0.246 OA
BRANCH   8  10
ATOM     10  C   UNL A   1      43.116  24.566  26.549  1.00  0.00     0.060 A 
ATOM     11  C   UNL A   1      42.209  24.265  27.571  1.00  0.00     0.016 A 
ATOM     12  C   UNL A   1      43.666  25.852  26.512  1.00  0.00     0.016 A 
ATOM     13  C   UNL A   1      41.872  25.204  28.548  1.00  0.00     0.010 A 
ATOM     14  C   UNL A   1      43.337  26.797  27.488  1.00  0.00     0.010 A 
ATOM     15  C   UNL A   1      42.443  26.474  28.521  1.00  0.00    -0.014 A 
BRANCH  15  16
ATOM     16  C   UNL A   1      42.034  27.497  29.511  1.00  0.00     0.031 A 
ATOM     17  C   UNL A   1      42.802  27.582  30.796  1.00  0.00     0.074 A 
ATOM     18  C   UNL A   1      41.016  28.342  29.261  1.00  0.00     0.049 A 
ATOM     19  N   UNL A   1      42.526  28.242  31.889  1.00  0.00    -0.248 NA
ATOM     20  C   UNL A   1      44.055  26.808  30.859  1.00  0.00     0.031 C 
ATOM     21  C   UNL A   1      40.265  28.421  28.007  1.00  0.00     0.029 A 
ATOM     22  N   UNL A   1      40.431  29.298  30.057  1.00  0.00    -0.354 N 
ATOM     23  C   UNL A   1      43.540  27.923  32.782  1.00  0.00     0.074 A 
ATOM     24  C   UNL A   1      44.441  27.018  32.107  1.00  0.00     0.031 C 
ATOM     25  C   UNL A   1      39.318  29.369  28.119  1.00  0.00     0.029 A 
ATOM     26  C   UNL A   1      39.345  29.909  29.475  1.00  0.00     0.049 A 
ATOM     27  H   UNL A   1      40.759  29.524  30.957  1.00  0.00     0.167 HD
ATOM     28  C   UNL A   1      43.690  28.346  34.058  1.00  0.00     0.037 A 
ATOM     29  C   UNL A   1      38.446  30.765  30.001  1.00  0.00     0.037 A 
ATOM     30  C   UNL A   1      42.797  29.275  34.697  1.00  0.00     0.049 A 
ATOM     31  C   UNL A   1      38.595  31.160  31.449  1.00  0.00     0.074 A 
ATOM     32  C   UNL A   1      42.853  29.777  35.984  1.00  0.00     0.029 A 
ATOM     33  N   UNL A   1      41.687  29.842  34.089  1.00  0.00    -0.354 N 
ATOM     34  N   UNL A   1      39.535  30.832  32.305  1.00  0.00    -0.248 NA
ATOM     35  C   UNL A   1      37.549  32.024  32.015  1.00  0.00     0.031 C 
ATOM     36  C   UNL A   1      41.743  30.605  36.173  1.00  0.00     0.029 A 
ATOM     37  C   UNL A   1      41.029  30.664  34.986  1.00  0.00     0.049 A 
ATOM     38  H   UNL A   1      41.409  29.684  33.158  1.00  0.00     0.167 HD
ATOM     39  C   UNL A   1      39.202  31.459  33.499  1.00  0.00     0.074 A 
ATOM     40  C   UNL A   1      37.991  32.212  33.249  1.00  0.00     0.031 C 
ATOM     41  C   UNL A   1      39.830  31.410  34.700  1.00  0.00     0.037 A 
BRANCH  28  42
ATOM     42  C   UNL A   1      44.813  27.765  34.861  1.00  0.00     0.057 A 
ATOM     43  C   UNL A   1      44.678  26.584  35.601  1.00  0.00     0.134 A 
ATOM     44  C   UNL A   1      46.070  28.386  34.860  1.00  0.00     0.134 A 
ATOM     45  F   UNL A   1      43.496  25.952  35.664  1.00  0.00    -0.206 F 
ATOM     46  C   UNL A   1      45.749  26.047  36.319  1.00  0.00     0.040 A 
ATOM     47  C   UNL A   1      47.153  27.846  35.552  1.00  0.00     0.040 A 
ATOM     48  F   UNL A   1      46.266  29.523  34.176  1.00  0.00    -0.206 F 
ATOM     49  C   UNL A   1      46.994  26.674  36.287  1.00  0.00     0.006 A 
ENDBRANCH  28  42
BRANCH  29  50
ATOM     50  C   UNL A   1      37.281  31.242  29.203  1.00  0.00     0.057 A 
ATOM     51  C   UNL A   1      37.231  32.541  28.680  1.00  0.00     0.134 A 
ATOM     52  C   UNL A   1      36.153  30.433  29.001  1.00  0.00     0.134 A 
ATOM     53  F   UNL A   1      38.260  33.382  28.860  1.00  0.00    -0.206 F 
ATOM     54  C   UNL A   1      36.099  33.025  28.018  1.00  0.00     0.040 A 
ATOM     55  C   UNL A   1      35.029  30.892  28.310  1.00  0.00     0.040 A 
ATOM     56  F   UNL A   1      36.122  29.181  29.481  1.00  0.00    -0.206 F 
ATOM     57  C   UNL A   1      34.995  32.197  27.828  1.00  0.00     0.006 A 
ENDBRANCH  29  50
BRANCH  41  58
ATOM     58  C   UNL A   1      39.232  32.210  35.817  1.00  0.00     0.057 A 
ATOM     59  C   UNL A   1      39.542  33.563  36.005  1.00  0.00     0.134 A 
ATOM     60  C   UNL A   1      38.294  31.633  36.685  1.00  0.00     0.134 A 
ATOM     61  F   UNL A   1      40.441  34.169  35.215  1.00  0.00    -0.206 F 
ATOM     62  C   UNL A   1      38.960  34.307  37.030  1.00  0.00     0.040 A 
ATOM     63  C   UNL A   1      37.681  32.377  37.692  1.00  0.00     0.040 A 
ATOM     64  F   UNL A   1      37.944  30.345  36.550  1.00  0.00    -0.206 F 
ATOM     65  C   UNL A   1      38.019  33.716  37.872  1.00  0.00     0.006 A 
ENDBRANCH  41  58
ENDBRANCH  15  16
ENDBRANCH   8  10
ENDBRANCH   7   8
ENDBRANCH   6   7
ENDBRANCH   5   6
ENDBRANCH   4   5
ENDBRANCH   3   4
ENDBRANCH   2   3
ENDBRANCH   1   2
BRANCH   1  66
ATOM     66  C   UNL A   1      40.932  19.961  27.193  1.00  0.00     0.188 C 
BRANCH  66  67
ATOM     67  C   UNL A   1      40.444  21.029  26.190  1.00  0.00     0.188 C 
BRANCH  67  68
ATOM     68  O   UNL A   1      39.078  21.053  25.808  1.00  0.00    -0.376 OA
BRANCH  68  69
ATOM     69  C   UNL A   1      38.497  22.313  25.498  1.00  0.00     0.202 C 
BRANCH  69  70
ATOM     70  C   UNL A   1      36.997  22.536  25.794  1.00  0.00     0.261 C 
BRANCH  70  71
ATOM     71  O   UNL A   1      36.424  23.792  25.356  1.00  0.00    -0.460 OA
BRANCH  71  72
ATOM     72  C   UNL A   1      35.543  23.777  24.313  1.00  0.00     0.339 C 
ATOM     73  O   UNL A   1      35.752  23.408  23.179  1.00  0.00    -0.246 OA
BRANCH  72  74
ATOM     74  C   UNL A   1      34.227  24.295  24.786  1.00  0.00     0.072 A 
ATOM     75  C   UNL A   1      34.270  25.526  25.452  1.00  0.00     0.057 A 
ATOM     76  C   UNL A   1      32.994  23.622  24.601  1.00  0.00     0.015 A 
ATOM     77  C   UNL A   1      33.084  26.058  25.905  1.00  0.00     0.129 A 
ATOM     78  C   UNL A   1      31.871  24.282  25.112  1.00  0.00     0.122 A 
ATOM     79  Cl  UNL A   1      33.042  27.563  26.723  1.00  0.00    -0.062 Cl
ATOM     80  N   UNL A   1      31.885  25.471  25.756  1.00  0.00    -0.244 NA
BRANCH  76  81
ATOM     81  C   UNL A   1      32.774  22.297  23.989  1.00  0.00    -0.015 A 
ATOM     82  C   UNL A   1      32.319  22.166  22.673  1.00  0.00     0.009 A 
ATOM     83  C   UNL A   1      32.887  21.116  24.755  1.00  0.00     0.021 A 
ATOM     84  C   UNL A   1      32.014  20.910  22.135  1.00  0.00     0.001 A 
ATOM     85  C   UNL A   1      32.657  19.838  24.203  1.00  0.00     0.056 A 
ATOM     86  C   UNL A   1      32.198  19.750  22.888  1.00  0.00     0.013 A 
BRANCH  85  87
ATOM     87  C   UNL A   1      32.906  18.581  24.998  1.00  0.00     0.416 C 
ATOM     88  F   UNL A   1      31.952  17.630  24.815  1.00  0.00    -0.166 F 
ATOM     89  F   UNL A   1      34.095  17.990  24.699  1.00  0.00    -0.166 F 
ATOM     90  F   UNL A   1      32.940  18.815  26.339  1.00  0.00    -0.166 F 
ENDBRANCH  85  87
ENDBRANCH  76  81
ENDBRANCH  72  74
ENDBRANCH  71  72
ENDBRANCH  70  71
ENDBRANCH  69  70
ENDBRANCH  68  69
ENDBRANCH  67  68
ENDBRANCH  66  67
ENDBRANCH   1  66
TORSDOF 22
ENDMDL
MODEL 2
REMARK VINA RESULT:     -10.4      2.706      6.864
REMARK SMILES O=C(OCCOCCOCCOCCOC(=O)c1cc(Cl)ncc1-c1cccc(C(F)(F)F)c1)c1ccc(-c2c3nc(c(-c4c(F)cccc4F)c4ccc([nH]4)c(-c4c(F)cccc4F)c4nc(c(-c5c(F)cccc5F)c5ccc2[nH]5)C=C4)C=C3)cc1
REMARK SMILES IDX 9 1 8 2 7 3 6 4 5 5 4 6 3 7 2 8 1 9 35 10 36 11 88 12 37 13
REMARK SMILES IDX 87 14 38 15 39 16 40 17 81 18 41 19 86 20 80 21 82 22 42 23
REMARK SMILES IDX 85 24 79 25 78 26 43 28 69 29 52 30 68 31 53 32 56 33 67 34
REMARK SMILES IDX 83 35 54 36 55 37 66 39 84 40 57 41 44 42 45 43 50 44 46 45
REMARK SMILES IDX 47 46 49 47 51 48 48 49 70 50 71 51 76 52 72 53 73 54 75 55
REMARK SMILES IDX 77 56 74 57 58 58 59 59 64 60 60 61 61 62 63 63 65 64 62 65
REMARK SMILES IDX 10 66 11 67 12 68 13 69 14 70 15 71 16 72 17 73 18 74 19 75
REMARK SMILES IDX 24 76 20 77 23 78 21 79 22 80 25 81 26 82 34 83 27 84 29 85
REMARK SMILES IDX 28 86 30 87 31 88 32 89 33 90
REMARK H PARENT 82 27 56 38
REMARK Flexibility Score: inf
ROOT
ATOM      1  O   UNL A   1      40.249  21.069  26.986  1.00  0.00    -0.377 OA
ENDROOT
BRANCH   1   2
ATOM      2  C   UNL A   1      41.392  20.466  26.401  1.00  0.00     0.188 C 
BRANCH   2   3
ATOM      3  C   UNL A   1      42.598  21.388  26.413  1.00  0.00     0.188 C 
BRANCH   3   4
ATOM      4  O   UNL A   1      43.053  21.642  25.096  1.00  0.00    -0.376 OA
BRANCH   4   5
ATOM      5  C   UNL A   1      43.452  22.952  24.753  1.00  0.00     0.202 C 
BRANCH   5   6
ATOM      6  C   UNL A   1      42.550  23.902  25.544  1.00  0.00     0.261 C 
BRANCH   6   7
ATOM      7  O   UNL A   1      43.206  25.149  25.854  1.00  0.00    -0.460 OA
BRANCH   7   8
ATOM      8  C   UNL A   1      42.584  26.350  25.735  1.00  0.00     0.338 C 
ATOM      9  O   UNL A   1      42.281  26.786  24.626  1.00  0.00    -0.246 OA
BRANCH   8  10
ATOM     10  C   UNL A   1      42.021  27.028  26.943  1.00  0.00     0.060 A 
ATOM     11  C   UNL A   1      41.184  26.429  27.891  1.00  0.00     0.016 A 
ATOM     12  C   UNL A   1      42.540  28.296  27.228  1.00  0.00     0.016 A 
ATOM     13  C   UNL A   1      40.886  27.057  29.102  1.00  0.00     0.010 A 
ATOM     14  C   UNL A   1      42.249  28.930  28.439  1.00  0.00     0.010 A 
ATOM     15  C   UNL A   1      41.426  28.308  29.390  1.00  0.00    -0.014 A 
BRANCH  15  16
ATOM     16  C   UNL A   1      41.056  29.010  30.641  1.00  0.00     0.031 A 
ATOM     17  C   UNL A   1      39.879  29.939  30.606  1.00  0.00     0.074 A 
ATOM     18  C   UNL A   1      41.740  28.809  31.783  1.00  0.00     0.049 A 
ATOM     19  N   UNL A   1      39.478  30.808  31.494  1.00  0.00    -0.248 NA
ATOM     20  C   UNL A   1      39.040  29.882  29.396  1.00  0.00     0.031 C 
ATOM     21  C   UNL A   1      42.834  27.853  31.961  1.00  0.00     0.029 A 
ATOM     22  N   UNL A   1      41.616  29.404  33.016  1.00  0.00    -0.354 N 
ATOM     23  C   UNL A   1      38.375  31.435  30.931  1.00  0.00     0.074 A 
ATOM     24  C   UNL A   1      38.163  30.846  29.628  1.00  0.00     0.031 C 
ATOM     25  C   UNL A   1      43.285  27.930  33.226  1.00  0.00     0.029 A 
ATOM     26  C   UNL A   1      42.564  28.991  33.923  1.00  0.00     0.049 A 
ATOM     27  H   UNL A   1      40.917  30.063  33.229  1.00  0.00     0.167 HD
ATOM     28  C   UNL A   1      37.619  32.425  31.458  1.00  0.00     0.037 A 
ATOM     29  C   UNL A   1      42.848  29.459  35.155  1.00  0.00     0.037 A 
ATOM     30  C   UNL A   1      37.830  32.972  32.771  1.00  0.00     0.049 A 
ATOM     31  C   UNL A   1      42.037  30.615  35.687  1.00  0.00     0.074 A 
ATOM     32  C   UNL A   1      37.123  33.973  33.411  1.00  0.00     0.029 A 
ATOM     33  N   UNL A   1      38.823  32.555  33.645  1.00  0.00    -0.354 N 
ATOM     34  N   UNL A   1      41.015  31.230  35.139  1.00  0.00    -0.248 NA
ATOM     35  C   UNL A   1      42.429  31.158  36.995  1.00  0.00     0.031 C 
ATOM     36  C   UNL A   1      37.726  34.203  34.650  1.00  0.00     0.029 A 
ATOM     37  C   UNL A   1      38.770  33.304  34.807  1.00  0.00     0.049 A 
ATOM     38  H   UNL A   1      39.469  31.834  33.465  1.00  0.00     0.167 HD
ATOM     39  C   UNL A   1      40.636  32.218  36.040  1.00  0.00     0.074 A 
ATOM     40  C   UNL A   1      41.517  32.099  37.183  1.00  0.00     0.031 C 
ATOM     41  C   UNL A   1      39.658  33.151  35.932  1.00  0.00     0.037 A 
BRANCH  28  42
ATOM     42  C   UNL A   1      36.545  33.019  30.598  1.00  0.00     0.057 A 
ATOM     43  C   UNL A   1      35.184  32.780  30.820  1.00  0.00     0.134 A 
ATOM     44  C   UNL A   1      36.886  33.881  29.546  1.00  0.00     0.134 A 
ATOM     45  F   UNL A   1      34.789  31.946  31.795  1.00  0.00    -0.206 F 
ATOM     46  C   UNL A   1      34.201  33.369  30.022  1.00  0.00     0.040 A 
ATOM     47  C   UNL A   1      35.914  34.495  28.759  1.00  0.00     0.040 A 
ATOM     48  F   UNL A   1      38.173  34.149  29.277  1.00  0.00    -0.206 F 
ATOM     49  C   UNL A   1      34.565  34.237  28.994  1.00  0.00     0.006 A 
ENDBRANCH  28  42
BRANCH  29  50
ATOM     50  C   UNL A   1      43.991  28.913  35.940  1.00  0.00     0.057 A 
ATOM     51  C   UNL A   1      45.288  29.426  35.804  1.00  0.00     0.134 A 
ATOM     52  C   UNL A   1      43.831  27.815  36.796  1.00  0.00     0.134 A 
ATOM     53  F   UNL A   1      45.524  30.456  34.979  1.00  0.00    -0.206 F 
ATOM     54  C   UNL A   1      46.380  28.852  36.461  1.00  0.00     0.040 A 
ATOM     55  C   UNL A   1      44.907  27.253  37.488  1.00  0.00     0.040 A 
ATOM     56  F   UNL A   1      42.621  27.262  36.970  1.00  0.00    -0.206 F 
ATOM     57  C   UNL A   1      46.190  27.764  37.310  1.00  0.00     0.006 A 
ENDBRANCH  29  50
BRANCH  41  58
ATOM     58  C   UNL A   1      39.477  34.090  37.086  1.00  0.00     0.057 A 
ATOM     59  C   UNL A   1      39.976  35.398  37.058  1.00  0.00     0.134 A 
ATOM     60  C   UNL A   1      38.750  33.696  38.218  1.00  0.00     0.134 A 
ATOM     61  F   UNL A   1      40.691  35.831  36.009  1.00  0.00    -0.206 F 
ATOM     62  C   UNL A   1      39.779  36.274  38.125  1.00  0.00     0.040 A 
ATOM     63  C   UNL A   1      38.519  34.575  39.276  1.00  0.00     0.040 A 
ATOM     64  F   UNL A   1      38.234  32.461  38.300  1.00  0.00    -0.206 F 
ATOM     65  C   UNL A   1      39.040  35.866  39.234  1.00  0.00     0.006 A 
ENDBRANCH  41  58
ENDBRANCH  15  16
ENDBRANCH   8  10
ENDBRANCH   7   8
ENDBRANCH   6   7
ENDBRANCH   5   6
ENDBRANCH   4   5
ENDBRANCH   3   4
ENDBRANCH   2   3
ENDBRANCH   1   2
BRANCH   1  66
ATOM     66  C   UNL A   1      39.368  21.807  26.166  1.00  0.00     0.188 C 
BRANCH  66  67
ATOM     67  C   UNL A   1      39.203  23.280  26.598  1.00  0.00     0.188 C 
BRANCH  67  68
ATOM     68  O   UNL A   1      38.212  24.082  25.976  1.00  0.00    -0.376 OA
BRANCH  68  69
ATOM     69  C   UNL A   1      36.853  23.692  26.121  1.00  0.00     0.202 C 
BRANCH  69  70
ATOM     70  C   UNL A   1      36.098  23.147  24.889  1.00  0.00     0.261 C 
BRANCH  70  71
ATOM     71  O   UNL A   1      35.874  21.717  24.839  1.00  0.00    -0.460 OA
BRANCH  71  72
ATOM     72  C   UNL A   1      34.871  21.186  25.598  1.00  0.00     0.339 C 
ATOM     73  O   UNL A   1      34.678  21.353  26.781  1.00  0.00    -0.246 OA
BRANCH  72  74
ATOM     74  C   UNL A   1      34.002  20.343  24.727  1.00  0.00     0.072 A 
ATOM     75  C   UNL A   1      34.379  18.998  24.625  1.00  0.00     0.057 A 
ATOM     76  C   UNL A   1      32.868  20.825  24.029  1.00  0.00     0.015 A 
ATOM     77  C   UNL A   1      33.609  18.168  23.842  1.00  0.00     0.129 A 
ATOM     78  C   UNL A   1      32.181  19.868  23.274  1.00  0.00     0.122 A 
ATOM     79  Cl  UNL A   1      33.991  16.507  23.667  1.00  0.00    -0.062 Cl
ATOM     80  N   UNL A   1      32.521  18.565  23.161  1.00  0.00    -0.244 NA
BRANCH  76  81
ATOM     81  C   UNL A   1      32.371  22.214  23.967  1.00  0.00    -0.015 A 
ATOM     82  C   UNL A   1      31.510  22.726  24.943  1.00  0.00     0.009 A 
ATOM     83  C   UNL A   1      32.641  23.032  22.848  1.00  0.00     0.021 A 
ATOM     84  C   UNL A   1      30.962  24.010  24.822  1.00  0.00     0.001 A 
ATOM     85  C   UNL A   1      32.157  24.354  22.750  1.00  0.00     0.056 A 
ATOM     86  C   UNL A   1      31.297  24.826  23.742  1.00  0.00     0.013 A 
BRANCH  85  87
ATOM     87  C   UNL A   1      32.560  25.256  21.611  1.00  0.00     0.416 C 
ATOM     88  F   UNL A   1      31.573  26.106  21.223  1.00  0.00    -0.166 F 
ATOM     89  F   UNL A   1      33.638  26.033  21.904  1.00  0.00    -0.166 F 
ATOM     90  F   UNL A   1      32.903  24.558  20.494  1.00  0.00    -0.166 F 
ENDBRANCH  85  87
ENDBRANCH  76  81
ENDBRANCH  72  74
ENDBRANCH  71  72
ENDBRANCH  70  71
ENDBRANCH  69  70
ENDBRANCH  68  69
ENDBRANCH  67  68
ENDBRANCH  66  67
ENDBRANCH   1  66
TORSDOF 22
ENDMDL
MODEL 3
REMARK VINA RESULT:     -10.4      1.489      6.321
REMARK SMILES O=C(OCCOCCOCCOCCOC(=O)c1cc(Cl)ncc1-c1cccc(C(F)(F)F)c1)c1ccc(-c2c3nc(c(-c4c(F)cccc4F)c4ccc([nH]4)c(-c4c(F)cccc4F)c4nc(c(-c5c(F)cccc5F)c5ccc2[nH]5)C=C4)C=C3)cc1
REMARK SMILES IDX 9 1 8 2 7 3 6 4 5 5 4 6 3 7 2 8 1 9 35 10 36 11 88 12 37 13
REMARK SMILES IDX 87 14 38 15 39 16 40 17 81 18 41 19 86 20 80 21 82 22 42 23
REMARK SMILES IDX 85 24 79 25 78 26 43 28 69 29 52 30 68 31 53 32 56 33 67 34
REMARK SMILES IDX 83 35 54 36 55 37 66 39 84 40 57 41 44 42 45 43 50 44 46 45
REMARK SMILES IDX 47 46 49 47 51 48 48 49 70 50 71 51 76 52 72 53 73 54 75 55
REMARK SMILES IDX 77 56 74 57 58 58 59 59 64 60 60 61 61 62 63 63 65 64 62 65
REMARK SMILES IDX 10 66 11 67 12 68 13 69 14 70 15 71 16 72 17 73 18 74 19 75
REMARK SMILES IDX 24 76 20 77 23 78 21 79 22 80 25 81 26 82 34 83 27 84 29 85
REMARK SMILES IDX 28 86 30 87 31 88 32 89 33 90
REMARK H PARENT 82 27 56 38
REMARK Flexibility Score: inf
ROOT
ATOM      1  O   UNL A   1      41.213  20.174  26.696  1.00  0.00    -0.377 OA
ENDROOT
BRANCH   1   2
ATOM      2  C   UNL A   1      42.279  19.964  25.784  1.00  0.00     0.188 C 
BRANCH   2   3
ATOM      3  C   UNL A   1      43.362  21.021  25.913  1.00  0.00     0.188 C 
BRANCH   3   4
ATOM      4  O   UNL A   1      43.644  21.612  24.657  1.00  0.00    -0.376 OA
BRANCH   4   5
ATOM      5  C   UNL A   1      43.887  23.001  24.596  1.00  0.00     0.202 C 
BRANCH   5   6
ATOM      6  C   UNL A   1      42.800  23.669  25.442  1.00  0.00     0.261 C 
BRANCH   6   7
ATOM      7  O   UNL A   1      43.238  24.922  26.007  1.00  0.00    -0.460 OA
BRANCH   7   8
ATOM      8  C   UNL A   1      42.554  26.081  25.828  1.00  0.00     0.338 C 
ATOM      9  O   UNL A   1      42.190  26.422  24.704  1.00  0.00    -0.246 OA
BRANCH   8  10
ATOM     10  C   UNL A   1      42.005  26.820  27.007  1.00  0.00     0.060 A 
ATOM     11  C   UNL A   1      41.083  26.305  27.926  1.00  0.00     0.016 A 
ATOM     12  C   UNL A   1      42.618  28.042  27.300  1.00  0.00     0.016 A 
ATOM     13  C   UNL A   1      40.793  26.971  29.118  1.00  0.00     0.010 A 
ATOM     14  C   UNL A   1      42.335  28.714  28.494  1.00  0.00     0.010 A 
ATOM     15  C   UNL A   1      41.426  28.175  29.417  1.00  0.00    -0.014 A 
BRANCH  15  16
ATOM     16  C   UNL A   1      41.068  28.922  30.645  1.00  0.00     0.031 A 
ATOM     17  C   UNL A   1      39.897  29.856  30.587  1.00  0.00     0.074 A 
ATOM     18  C   UNL A   1      41.758  28.755  31.789  1.00  0.00     0.049 A 
ATOM     19  N   UNL A   1      39.507  30.758  31.447  1.00  0.00    -0.248 NA
ATOM     20  C   UNL A   1      39.049  29.764  29.384  1.00  0.00     0.031 C 
ATOM     21  C   UNL A   1      42.848  27.799  31.993  1.00  0.00     0.029 A 
ATOM     22  N   UNL A   1      41.647  29.392  33.002  1.00  0.00    -0.354 N 
ATOM     23  C   UNL A   1      38.404  31.373  30.870  1.00  0.00     0.074 A 
ATOM     24  C   UNL A   1      38.180  30.741  29.589  1.00  0.00     0.031 C 
ATOM     25  C   UNL A   1      43.307  27.916  33.251  1.00  0.00     0.029 A 
ATOM     26  C   UNL A   1      42.597  29.004  33.916  1.00  0.00     0.049 A 
ATOM     27  H   UNL A   1      40.952  30.062  33.197  1.00  0.00     0.167 HD
ATOM     28  C   UNL A   1      37.658  32.384  31.368  1.00  0.00     0.037 A 
ATOM     29  C   UNL A   1      42.893  29.512  35.130  1.00  0.00     0.037 A 
ATOM     30  C   UNL A   1      37.881  32.974  32.660  1.00  0.00     0.049 A 
ATOM     31  C   UNL A   1      42.092  30.690  35.627  1.00  0.00     0.074 A 
ATOM     32  C   UNL A   1      37.184  34.001  33.270  1.00  0.00     0.029 A 
ATOM     33  N   UNL A   1      38.877  32.581  33.542  1.00  0.00    -0.354 N 
ATOM     34  N   UNL A   1      41.071  31.293  35.066  1.00  0.00    -0.248 NA
ATOM     35  C   UNL A   1      42.497  31.274  36.914  1.00  0.00     0.031 C 
ATOM     36  C   UNL A   1      37.797  34.268  34.498  1.00  0.00     0.029 A 
ATOM     37  C   UNL A   1      38.836  33.368  34.678  1.00  0.00     0.049 A 
ATOM     38  H   UNL A   1      39.517  31.850  33.382  1.00  0.00     0.167 HD
ATOM     39  C   UNL A   1      40.703  32.313  35.935  1.00  0.00     0.074 A 
ATOM     40  C   UNL A   1      41.591  32.227  37.075  1.00  0.00     0.031 C 
ATOM     41  C   UNL A   1      39.730  33.248  35.801  1.00  0.00     0.037 A 
BRANCH  28  42
ATOM     42  C   UNL A   1      36.582  32.956  30.495  1.00  0.00     0.057 A 
ATOM     43  C   UNL A   1      35.227  32.661  30.681  1.00  0.00     0.134 A 
ATOM     44  C   UNL A   1      36.914  33.851  29.469  1.00  0.00     0.134 A 
ATOM     45  F   UNL A   1      34.841  31.793  31.629  1.00  0.00    -0.206 F 
ATOM     46  C   UNL A   1      34.240  33.230  29.872  1.00  0.00     0.040 A 
ATOM     47  C   UNL A   1      35.937  34.445  28.671  1.00  0.00     0.040 A 
ATOM     48  F   UNL A   1      38.195  34.173  29.235  1.00  0.00    -0.206 F 
ATOM     49  C   UNL A   1      34.594  34.133  28.870  1.00  0.00     0.006 A 
ENDBRANCH  28  42
BRANCH  29  50
ATOM     50  C   UNL A   1      44.038  28.985  35.926  1.00  0.00     0.057 A 
ATOM     51  C   UNL A   1      43.876  27.933  36.837  1.00  0.00     0.134 A 
ATOM     52  C   UNL A   1      45.311  29.567  35.848  1.00  0.00     0.134 A 
ATOM     53  F   UNL A   1      42.680  27.348  36.989  1.00  0.00    -0.206 F 
ATOM     54  C   UNL A   1      44.923  27.503  37.658  1.00  0.00     0.040 A 
ATOM     55  C   UNL A   1      46.376  29.124  36.636  1.00  0.00     0.040 A 
ATOM     56  F   UNL A   1      45.540  30.585  35.006  1.00  0.00    -0.206 F 
ATOM     57  C   UNL A   1      46.179  28.097  37.555  1.00  0.00     0.006 A 
ENDBRANCH  29  50
BRANCH  41  58
ATOM     58  C   UNL A   1      39.563  34.226  36.924  1.00  0.00     0.057 A 
ATOM     59  C   UNL A   1      38.875  33.893  38.097  1.00  0.00     0.134 A 
ATOM     60  C   UNL A   1      40.142  35.500  36.851  1.00  0.00     0.134 A 
ATOM     61  F   UNL A   1      38.287  32.694  38.223  1.00  0.00    -0.206 F 
ATOM     62  C   UNL A   1      38.748  34.801  39.149  1.00  0.00     0.040 A 
ATOM     63  C   UNL A   1      40.050  36.403  37.910  1.00  0.00     0.040 A 
ATOM     64  F   UNL A   1      40.826  35.876  35.760  1.00  0.00    -0.206 F 
ATOM     65  C   UNL A   1      39.345  36.057  39.060  1.00  0.00     0.006 A 
ENDBRANCH  41  58
ENDBRANCH  15  16
ENDBRANCH   8  10
ENDBRANCH   7   8
ENDBRANCH   6   7
ENDBRANCH   5   6
ENDBRANCH   4   5
ENDBRANCH   3   4
ENDBRANCH   2   3
ENDBRANCH   1   2
BRANCH   1  66
ATOM     66  C   UNL A   1      40.002  20.723  26.220  1.00  0.00     0.188 C 
BRANCH  66  67
ATOM     67  C   UNL A   1      39.794  22.202  26.610  1.00  0.00     0.188 C 
BRANCH  67  68
ATOM     68  O   UNL A   1      38.520  22.799  26.429  1.00  0.00    -0.376 OA
BRANCH  68  69
ATOM     69  C   UNL A   1      37.596  22.144  25.569  1.00  0.00     0.202 C 
BRANCH  69  70
ATOM     70  C   UNL A   1      36.121  22.601  25.574  1.00  0.00     0.261 C 
BRANCH  70  71
ATOM     71  O   UNL A   1      35.842  23.917  25.036  1.00  0.00    -0.460 OA
BRANCH  71  72
ATOM     72  C   UNL A   1      34.868  24.039  24.086  1.00  0.00     0.339 C 
ATOM     73  O   UNL A   1      35.000  23.975  22.885  1.00  0.00    -0.246 OA
BRANCH  72  74
ATOM     74  C   UNL A   1      33.560  24.266  24.765  1.00  0.00     0.072 A 
ATOM     75  C   UNL A   1      33.447  25.475  25.463  1.00  0.00     0.057 A 
ATOM     76  C   UNL A   1      32.479  23.352  24.736  1.00  0.00     0.015 A 
ATOM     77  C   UNL A   1      32.257  25.744  26.103  1.00  0.00     0.129 A 
ATOM     78  C   UNL A   1      31.333  23.759  25.428  1.00  0.00     0.122 A 
ATOM     79  Cl  UNL A   1      32.029  27.202  26.973  1.00  0.00    -0.062 Cl
ATOM     80  N   UNL A   1      31.198  24.920  26.107  1.00  0.00    -0.244 NA
BRANCH  76  81
ATOM     81  C   UNL A   1      32.448  22.013  24.112  1.00  0.00    -0.015 A 
ATOM     82  C   UNL A   1      32.159  21.846  22.754  1.00  0.00     0.009 A 
ATOM     83  C   UNL A   1      32.577  20.845  24.896  1.00  0.00     0.021 A 
ATOM     84  C   UNL A   1      32.030  20.569  22.194  1.00  0.00     0.001 A 
ATOM     85  C   UNL A   1      32.525  19.553  24.331  1.00  0.00     0.056 A 
ATOM     86  C   UNL A   1      32.229  19.429  22.973  1.00  0.00     0.013 A 
BRANCH  85  87
ATOM     87  C   UNL A   1      32.791  18.322  25.159  1.00  0.00     0.416 C 
ATOM     88  F   UNL A   1      33.986  17.736  24.884  1.00  0.00    -0.166 F 
ATOM     89  F   UNL A   1      32.790  18.572  26.498  1.00  0.00    -0.166 F 
ATOM     90  F   UNL A   1      31.854  17.354  24.966  1.00  0.00    -0.166 F 
ENDBRANCH  85  87
ENDBRANCH  76  81
ENDBRANCH  72  74
ENDBRANCH  71  72
ENDBRANCH  70  71
ENDBRANCH  69  70
ENDBRANCH  68  69
ENDBRANCH  67  68
ENDBRANCH  66  67
ENDBRANCH   1  66
TORSDOF 22
ENDMDL
