MODEL 1
REMARK VINA RESULT:     -14.2      0.000      0.000
REMARK SMILES Cc1c(NC(=O)[C@@H]2CC=CC[C@@H]2C(=O)OCCOCCOCCOCCOC(=O)c2ccc(-c3c4nc(c(-c5c(F)cccc5F)c5ccc([nH]5)c(-c5c(F)cccc5F)c5nc(c(-c6c(F)cccc6F)c6ccc3[nH]6)C=C5)C=C4)cc2)cccc1C(=O)N1CCOCC1
REMARK SMILES IDX 20 1 19 2 18 3 17 4 16 5 15 6 13 7 14 8 12 9 7 10 8 11 9 12
REMARK SMILES IDX 11 13 10 14 5 15 4 16 6 18 3 19 1 20 2 21 87 22 84 23 86 24
REMARK SMILES IDX 85 25 88 26 89 27 90 28 91 29 95 30 92 31 94 32 93 33 21 34
REMARK SMILES IDX 22 35 23 36 24 37 25 38 26 39 27 40 28 41 29 42 30 43 31 44
REMARK SMILES IDX 83 45 32 46 82 47 33 48 34 49 35 50 76 51 36 52 81 53 75 54
REMARK SMILES IDX 77 55 37 56 80 57 74 58 73 59 38 61 64 62 47 63 63 64 48 65
REMARK SMILES IDX 51 66 62 67 78 68 49 69 50 70 61 72 79 73 52 74 39 75 40 76
REMARK SMILES IDX 45 77 41 78 42 79 44 80 46 81 43 82 65 83 66 84 71 85 67 86
REMARK SMILES IDX 68 87 70 88 72 89 69 90 53 91 54 92 59 93 55 94 56 95 58 96
REMARK SMILES IDX 60 97 57 98
REMARK H PARENT 4 17 77 60 51 71
REMARK Flexibility Score: inf
ROOT
ATOM      1  C   UNL A   1      33.332  35.454  29.061  1.00  0.00     0.188 C 
ENDROOT
BRANCH   1   2
ATOM      2  C   UNL A   1      34.284  34.562  27.993  1.00  0.00     0.188 C 
BRANCH   2   3
ATOM      3  O   UNL A   1      34.784  32.841  27.922  1.00  0.00    -0.376 OA
BRANCH   3   4
ATOM      4  C   UNL A   1      33.945  31.276  27.689  1.00  0.00     0.202 C 
BRANCH   4   5
ATOM      5  C   UNL A   1      34.574  29.584  27.031  1.00  0.00     0.261 C 
BRANCH   5   6
ATOM      6  O   UNL A   1      33.719  27.983  26.951  1.00  0.00    -0.463 OA
BRANCH   6   7
ATOM      7  C   UNL A   1      32.842  27.127  26.194  1.00  0.00     0.310 C 
ATOM      8  O   UNL A   1      33.049  25.929  25.923  1.00  0.00    -0.252 OA
BRANCH   7   9
ATOM      9  C   UNL A   1      31.296  27.421  25.731  1.00  0.00     0.116 C 
ATOM     10  C   UNL A   1      30.091  26.615  25.124  1.00  0.00     0.097 C 
ATOM     11  C   UNL A   1      29.990  26.638  23.573  1.00  0.00     0.041 C 
ATOM     12  C   UNL A   1      30.159  28.007  23.001  1.00  0.00    -0.030 C 
ATOM     13  C   UNL A   1      31.225  28.880  25.101  1.00  0.00     0.043 C 
ATOM     14  C   UNL A   1      30.683  29.017  23.702  1.00  0.00    -0.030 C 
BRANCH  10  15
ATOM     15  C   UNL A   1      29.864  25.341  25.903  1.00  0.00     0.228 C 
ATOM     16  N   UNL A   1      30.529  24.178  25.723  1.00  0.00    -0.326 N 
ATOM     17  H   UNL A   1      30.331  23.540  26.447  1.00  0.00     0.169 HD
ATOM     18  O   UNL A   1      28.983  25.292  26.769  1.00  0.00    -0.274 OA
BRANCH  16  19
ATOM     19  C   UNL A   1      31.422  23.625  24.793  1.00  0.00     0.044 A 
ATOM     20  C   UNL A   1      32.523  22.541  26.778  1.00  0.00     0.047 C 
ATOM     21  C   UNL A   1      32.361  22.680  25.284  1.00  0.00    -0.015 A 
ATOM     22  C   UNL A   1      33.180  21.979  24.374  1.00  0.00     0.045 A 
ATOM     23  C   UNL A   1      31.385  23.915  23.428  1.00  0.00     0.026 A 
ATOM     24  C   UNL A   1      33.191  22.373  23.026  1.00  0.00     0.014 A 
ATOM     25  C   UNL A   1      32.318  23.353  22.561  1.00  0.00     0.003 A 
BRANCH  22  26
ATOM     26  C   UNL A   1      34.193  20.951  24.754  1.00  0.00     0.254 C 
ATOM     27  O   UNL A   1      33.850  19.773  24.630  1.00  0.00    -0.269 OA
ATOM     28  N   UNL A   1      35.466  21.290  25.204  1.00  0.00    -0.334 N 
ATOM     29  C   UNL A   1      35.928  22.560  25.785  1.00  0.00     0.148 C 
ATOM     30  C   UNL A   1      36.479  20.234  25.252  1.00  0.00     0.148 C 
ATOM     31  C   UNL A   1      37.306  22.967  25.217  1.00  0.00     0.181 C 
ATOM     32  C   UNL A   1      37.760  20.732  24.583  1.00  0.00     0.181 C 
ATOM     33  O   UNL A   1      38.258  21.891  25.271  1.00  0.00    -0.378 OA
ENDBRANCH  22  26
ENDBRANCH  16  19
ENDBRANCH  10  15
ENDBRANCH   7   9
ENDBRANCH   6   7
ENDBRANCH   5   6
ENDBRANCH   4   5
ENDBRANCH   3   4
ENDBRANCH   2   3
ENDBRANCH   1   2
BRANCH   1  34
ATOM     34  O   UNL A   1      32.664  35.028  30.269  1.00  0.00    -0.377 OA
BRANCH  34  35
ATOM     35  C   UNL A   1      32.580  35.728  31.503  1.00  0.00     0.188 C 
BRANCH  35  36
ATOM     36  C   UNL A   1      33.599  35.409  32.556  1.00  0.00     0.188 C 
BRANCH  36  37
ATOM     37  O   UNL A   1      33.597  34.003  32.694  1.00  0.00    -0.376 OA
BRANCH  37  38
ATOM     38  C   UNL A   1      34.840  33.464  33.095  1.00  0.00     0.202 C 
BRANCH  38  39
ATOM     39  C   UNL A   1      35.880  33.598  31.982  1.00  0.00     0.261 C 
BRANCH  39  40
ATOM     40  O   UNL A   1      35.995  32.324  31.307  1.00  0.00    -0.460 OA
BRANCH  40  41
ATOM     41  C   UNL A   1      37.101  31.584  31.624  1.00  0.00     0.338 C 
ATOM     42  O   UNL A   1      38.037  31.955  32.296  1.00  0.00    -0.246 OA
BRANCH  41  43
ATOM     43  C   UNL A   1      37.151  30.393  30.725  1.00  0.00     0.060 A 
ATOM     44  C   UNL A   1      37.465  29.145  31.231  1.00  0.00     0.016 A 
ATOM     45  C   UNL A   1      37.123  30.489  29.358  1.00  0.00     0.016 A 
ATOM     46  C   UNL A   1      38.181  28.230  30.420  1.00  0.00     0.010 A 
ATOM     47  C   UNL A   1      37.777  29.492  28.595  1.00  0.00     0.010 A 
ATOM     48  C   UNL A   1      38.716  28.565  29.168  1.00  0.00    -0.014 A 
BRANCH  48  49
ATOM     49  C   UNL A   1      40.431  28.105  28.665  1.00  0.00     0.031 A 
ATOM     50  C   UNL A   1      41.078  26.526  27.642  1.00  0.00     0.074 A 
ATOM     51  C   UNL A   1      41.247  28.990  29.339  1.00  0.00     0.049 A 
ATOM     52  N   UNL A   1      41.712  25.462  28.220  1.00  0.00    -0.248 NA
ATOM     53  C   UNL A   1      40.550  25.693  26.375  1.00  0.00     0.031 C 
ATOM     54  C   UNL A   1      42.625  29.235  29.107  1.00  0.00     0.029 A 
ATOM     55  N   UNL A   1      41.077  29.734  30.516  1.00  0.00    -0.354 N 
ATOM     56  C   UNL A   1      41.816  24.251  27.587  1.00  0.00     0.074 A 
ATOM     57  C   UNL A   1      40.883  24.400  26.541  1.00  0.00     0.031 C 
ATOM     58  C   UNL A   1      43.274  29.529  30.238  1.00  0.00     0.029 A 
ATOM     59  C   UNL A   1      42.278  29.722  31.224  1.00  0.00     0.049 A 
ATOM     60  H   UNL A   1      40.250  30.187  30.795  1.00  0.00     0.167 HD
ATOM     61  C   UNL A   1      42.695  23.250  27.941  1.00  0.00     0.037 A 
ATOM     62  C   UNL A   1      42.448  29.637  32.554  1.00  0.00     0.037 A 
ATOM     63  C   UNL A   1      43.742  23.672  28.910  1.00  0.00     0.049 A 
ATOM     64  C   UNL A   1      43.154  28.341  32.928  1.00  0.00     0.074 A 
ATOM     65  C   UNL A   1      45.057  24.091  28.734  1.00  0.00     0.029 A 
ATOM     66  N   UNL A   1      43.475  23.950  30.246  1.00  0.00    -0.354 N 
ATOM     67  N   UNL A   1      43.548  27.402  32.086  1.00  0.00    -0.248 NA
ATOM     68  C   UNL A   1      43.430  27.987  34.313  1.00  0.00     0.031 C 
ATOM     69  C   UNL A   1      45.482  24.797  29.901  1.00  0.00     0.029 A 
ATOM     70  C   UNL A   1      44.474  24.734  30.851  1.00  0.00     0.049 A 
ATOM     71  H   UNL A   1      42.672  23.633  30.717  1.00  0.00     0.167 HD
ATOM     72  C   UNL A   1      44.027  26.306  32.783  1.00  0.00     0.074 A 
ATOM     73  C   UNL A   1      43.940  26.752  34.177  1.00  0.00     0.031 C 
ATOM     74  C   UNL A   1      44.435  25.083  32.283  1.00  0.00     0.037 A 
BRANCH  61  75
ATOM     75  C   UNL A   1      42.804  22.000  27.050  1.00  0.00     0.057 A 
ATOM     76  C   UNL A   1      41.987  20.867  27.225  1.00  0.00     0.134 A 
ATOM     77  C   UNL A   1      43.766  21.844  26.026  1.00  0.00     0.134 A 
ATOM     78  F   UNL A   1      40.907  20.895  28.015  1.00  0.00    -0.206 F 
ATOM     79  C   UNL A   1      42.231  19.638  26.581  1.00  0.00     0.040 A 
ATOM     80  C   UNL A   1      44.068  20.606  25.429  1.00  0.00     0.040 A 
ATOM     81  F   UNL A   1      44.430  22.902  25.536  1.00  0.00    -0.206 F 
ATOM     82  C   UNL A   1      43.312  19.485  25.727  1.00  0.00     0.006 A 
ENDBRANCH  61  75
BRANCH  62  83
ATOM     83  C   UNL A   1      41.505  30.594  33.210  1.00  0.00     0.057 A 
ATOM     84  C   UNL A   1      40.442  29.949  33.902  1.00  0.00     0.134 A 
ATOM     85  C   UNL A   1      41.938  31.808  33.751  1.00  0.00     0.134 A 
ATOM     86  F   UNL A   1      39.959  28.782  33.439  1.00  0.00    -0.206 F 
ATOM     87  C   UNL A   1      40.039  30.336  35.187  1.00  0.00     0.040 A 
ATOM     88  C   UNL A   1      41.493  32.237  35.019  1.00  0.00     0.040 A 
ATOM     89  F   UNL A   1      42.936  32.488  33.172  1.00  0.00    -0.206 F 
ATOM     90  C   UNL A   1      40.604  31.461  35.768  1.00  0.00     0.006 A 
ENDBRANCH  62  83
BRANCH  74  91
ATOM     91  C   UNL A   1      44.916  24.000  33.222  1.00  0.00     0.057 A 
ATOM     92  C   UNL A   1      44.084  22.992  33.725  1.00  0.00     0.134 A 
ATOM     93  C   UNL A   1      46.237  24.002  33.707  1.00  0.00     0.134 A 
ATOM     94  F   UNL A   1      42.774  22.963  33.431  1.00  0.00    -0.206 F 
ATOM     95  C   UNL A   1      44.573  21.966  34.541  1.00  0.00     0.040 A 
ATOM     96  C   UNL A   1      46.715  23.032  34.588  1.00  0.00     0.040 A 
ATOM     97  F   UNL A   1      47.132  24.922  33.323  1.00  0.00    -0.206 F 
ATOM     98  C   UNL A   1      45.894  21.984  34.975  1.00  0.00     0.006 A 
ENDBRANCH  74  91
ENDBRANCH  48  49
ENDBRANCH  41  43
ENDBRANCH  40  41
ENDBRANCH  39  40
ENDBRANCH  38  39
ENDBRANCH  37  38
ENDBRANCH  36  37
ENDBRANCH  35  36
ENDBRANCH  34  35
ENDBRANCH   1  34
TORSDOF 23
ENDMDL
MODEL 2
REMARK VINA RESULT:     -14.1      3.820     10.541
REMARK SMILES Cc1c(NC(=O)[C@@H]2CC=CC[C@@H]2C(=O)OCCOCCOCCOCCOC(=O)c2ccc(-c3c4nc(c(-c5c(F)cccc5F)c5ccc([nH]5)c(-c5c(F)cccc5F)c5nc(c(-c6c(F)cccc6F)c6ccc3[nH]6)C=C5)C=C4)cc2)cccc1C(=O)N1CCOCC1
REMARK SMILES IDX 20 1 19 2 18 3 17 4 16 5 15 6 13 7 14 8 12 9 7 10 8 11 9 12
REMARK SMILES IDX 11 13 10 14 5 15 4 16 6 18 3 19 1 20 2 21 87 22 84 23 86 24
REMARK SMILES IDX 85 25 88 26 89 27 90 28 91 29 95 30 92 31 94 32 93 33 21 34
REMARK SMILES IDX 22 35 23 36 24 37 25 38 26 39 27 40 28 41 29 42 30 43 31 44
REMARK SMILES IDX 83 45 32 46 82 47 33 48 34 49 35 50 76 51 36 52 81 53 75 54
REMARK SMILES IDX 77 55 37 56 80 57 74 58 73 59 38 61 64 62 47 63 63 64 48 65
REMARK SMILES IDX 51 66 62 67 78 68 49 69 50 70 61 72 79 73 52 74 39 75 40 76
REMARK SMILES IDX 45 77 41 78 42 79 44 80 46 81 43 82 65 83 66 84 71 85 67 86
REMARK SMILES IDX 68 87 70 88 72 89 69 90 53 91 54 92 59 93 55 94 56 95 58 96
REMARK SMILES IDX 60 97 57 98
REMARK H PARENT 4 17 77 60 51 71
REMARK Flexibility Score: inf
ROOT
ATOM      1  C   UNL A   1      41.821  19.566  26.157  1.00  0.00     0.188 C 
ENDROOT
BRANCH   1   2
ATOM      2  C   UNL A   1      41.370  21.002  26.919  1.00  0.00     0.188 C 
BRANCH   2   3
ATOM      3  O   UNL A   1      39.798  21.828  27.171  1.00  0.00    -0.376 OA
BRANCH   3   4
ATOM      4  C   UNL A   1      38.604  22.650  26.120  1.00  0.00     0.202 C 
BRANCH   4   5
ATOM      5  C   UNL A   1      36.858  22.116  25.523  1.00  0.00     0.261 C 
BRANCH   5   6
ATOM      6  O   UNL A   1      35.980  22.539  23.990  1.00  0.00    -0.463 OA
BRANCH   6   7
ATOM      7  C   UNL A   1      34.716  22.865  23.381  1.00  0.00     0.310 C 
ATOM      8  O   UNL A   1      34.557  23.554  22.355  1.00  0.00    -0.252 OA
BRANCH   7   9
ATOM      9  C   UNL A   1      33.240  22.233  23.718  1.00  0.00     0.116 C 
ATOM     10  C   UNL A   1      32.598  21.291  24.800  1.00  0.00     0.097 C 
ATOM     11  C   UNL A   1      32.563  19.781  24.430  1.00  0.00     0.041 C 
ATOM     12  C   UNL A   1      32.076  19.536  23.040  1.00  0.00    -0.030 C 
ATOM     13  C   UNL A   1      32.501  21.912  22.346  1.00  0.00     0.043 C 
ATOM     14  C   UNL A   1      32.019  20.503  22.119  1.00  0.00    -0.030 C 
BRANCH  10  15
ATOM     15  C   UNL A   1      32.980  21.746  26.188  1.00  0.00     0.228 C 
ATOM     16  N   UNL A   1      32.431  22.786  26.855  1.00  0.00    -0.326 N 
ATOM     17  H   UNL A   1      32.717  22.794  27.798  1.00  0.00     0.169 HD
ATOM     18  O   UNL A   1      33.890  21.176  26.801  1.00  0.00    -0.274 OA
BRANCH  16  19
ATOM     19  C   UNL A   1      31.568  23.858  26.580  1.00  0.00     0.044 A 
ATOM     20  C   UNL A   1      33.662  25.213  26.253  1.00  0.00     0.047 C 
ATOM     21  C   UNL A   1      32.165  25.068  26.137  1.00  0.00    -0.015 A 
ATOM     22  C   UNL A   1      31.342  26.127  25.700  1.00  0.00     0.045 A 
ATOM     23  C   UNL A   1      30.179  23.765  26.666  1.00  0.00     0.026 A 
ATOM     24  C   UNL A   1      29.954  26.038  25.902  1.00  0.00     0.014 A 
ATOM     25  C   UNL A   1      29.378  24.875  26.406  1.00  0.00     0.003 A 
BRANCH  22  26
ATOM     26  C   UNL A   1      31.836  27.441  25.196  1.00  0.00     0.254 C 
ATOM     27  O   UNL A   1      31.860  28.366  26.011  1.00  0.00    -0.269 OA
ATOM     28  N   UNL A   1      32.268  27.622  23.885  1.00  0.00    -0.334 N 
ATOM     29  C   UNL A   1      31.962  26.811  22.696  1.00  0.00     0.148 C 
ATOM     30  C   UNL A   1      33.017  28.840  23.571  1.00  0.00     0.148 C 
ATOM     31  C   UNL A   1      33.223  26.586  21.832  1.00  0.00     0.181 C 
ATOM     32  C   UNL A   1      34.281  28.472  22.795  1.00  0.00     0.181 C 
ATOM     33  O   UNL A   1      33.931  27.809  21.569  1.00  0.00    -0.378 OA
ENDBRANCH  22  26
ENDBRANCH  16  19
ENDBRANCH  10  15
ENDBRANCH   7   9
ENDBRANCH   6   7
ENDBRANCH   5   6
ENDBRANCH   4   5
ENDBRANCH   3   4
ENDBRANCH   2   3
ENDBRANCH   1   2
BRANCH   1  34
ATOM     34  O   UNL A   1      42.777  19.353  25.095  1.00  0.00    -0.377 OA
BRANCH  34  35
ATOM     35  C   UNL A   1      44.195  19.384  25.190  1.00  0.00     0.188 C 
BRANCH  35  36
ATOM     36  C   UNL A   1      44.931  20.340  24.299  1.00  0.00     0.188 C 
BRANCH  36  37
ATOM     37  O   UNL A   1      45.321  21.423  25.118  1.00  0.00    -0.376 OA
BRANCH  37  38
ATOM     38  C   UNL A   1      44.310  22.389  25.314  1.00  0.00     0.202 C 
BRANCH  38  39
ATOM     39  C   UNL A   1      44.676  23.343  26.452  1.00  0.00     0.261 C 
BRANCH  39  40
ATOM     40  O   UNL A   1      43.536  24.192  26.722  1.00  0.00    -0.460 OA
BRANCH  40  41
ATOM     41  C   UNL A   1      43.424  25.302  25.931  1.00  0.00     0.338 C 
ATOM     42  O   UNL A   1      44.341  25.912  25.427  1.00  0.00    -0.246 OA
BRANCH  41  43
ATOM     43  C   UNL A   1      42.047  25.858  26.081  1.00  0.00     0.060 A 
ATOM     44  C   UNL A   1      41.768  27.155  25.693  1.00  0.00     0.016 A 
ATOM     45  C   UNL A   1      41.065  25.230  26.801  1.00  0.00     0.016 A 
ATOM     46  C   UNL A   1      40.800  27.899  26.412  1.00  0.00     0.010 A 
ATOM     47  C   UNL A   1      40.068  26.020  27.421  1.00  0.00     0.010 A 
ATOM     48  C   UNL A   1      40.199  27.443  27.593  1.00  0.00    -0.014 A 
BRANCH  48  49
ATOM     49  C   UNL A   1      40.004  28.510  29.086  1.00  0.00     0.031 A 
ATOM     50  C   UNL A   1      38.478  29.661  29.640  1.00  0.00     0.074 A 
ATOM     51  C   UNL A   1      41.253  28.529  29.673  1.00  0.00     0.049 A 
ATOM     52  N   UNL A   1      38.483  31.023  29.527  1.00  0.00    -0.248 NA
ATOM     53  C   UNL A   1      36.879  29.531  29.602  1.00  0.00     0.031 C 
ATOM     54  C   UNL A   1      41.583  28.987  30.975  1.00  0.00     0.029 A 
ATOM     55  N   UNL A   1      42.545  28.323  29.168  1.00  0.00    -0.354 N 
ATOM     56  C   UNL A   1      37.325  31.755  29.560  1.00  0.00     0.074 A 
ATOM     57  C   UNL A   1      36.352  30.749  29.387  1.00  0.00     0.031 C 
ATOM     58  C   UNL A   1      42.800  29.538  31.013  1.00  0.00     0.029 A 
ATOM     59  C   UNL A   1      43.407  29.238  29.770  1.00  0.00     0.049 A 
ATOM     60  H   UNL A   1      42.800  27.646  28.500  1.00  0.00     0.167 HD
ATOM     61  C   UNL A   1      37.258  33.115  29.778  1.00  0.00     0.037 A 
ATOM     62  C   UNL A   1      44.431  29.898  29.205  1.00  0.00     0.037 A 
ATOM     63  C   UNL A   1      38.530  33.719  30.258  1.00  0.00     0.049 A 
ATOM     64  C   UNL A   1      44.164  31.397  29.183  1.00  0.00     0.074 A 
ATOM     65  C   UNL A   1      38.987  34.032  31.534  1.00  0.00     0.029 A 
ATOM     66  N   UNL A   1      39.651  33.874  29.450  1.00  0.00    -0.354 N 
ATOM     67  N   UNL A   1      43.078  31.998  29.639  1.00  0.00    -0.248 NA
ATOM     68  C   UNL A   1      45.105  32.338  28.592  1.00  0.00     0.031 C 
ATOM     69  C   UNL A   1      40.409  34.167  31.501  1.00  0.00     0.029 A 
ATOM     70  C   UNL A   1      40.837  34.040  30.188  1.00  0.00     0.049 A 
ATOM     71  H   UNL A   1      39.618  33.867  28.467  1.00  0.00     0.167 HD
ATOM     72  C   UNL A   1      43.115  33.346  29.332  1.00  0.00     0.074 A 
ATOM     73  C   UNL A   1      44.425  33.493  28.691  1.00  0.00     0.031 C 
ATOM     74  C   UNL A   1      42.134  34.300  29.536  1.00  0.00     0.037 A 
BRANCH  61  75
ATOM     75  C   UNL A   1      35.879  33.781  29.933  1.00  0.00     0.057 A 
ATOM     76  C   UNL A   1      35.122  34.227  28.834  1.00  0.00     0.134 A 
ATOM     77  C   UNL A   1      35.278  34.065  31.180  1.00  0.00     0.134 A 
ATOM     78  F   UNL A   1      35.437  33.886  27.579  1.00  0.00    -0.206 F 
ATOM     79  C   UNL A   1      33.981  35.043  28.967  1.00  0.00     0.040 A 
ATOM     80  C   UNL A   1      34.184  34.937  31.332  1.00  0.00     0.040 A 
ATOM     81  F   UNL A   1      35.709  33.474  32.305  1.00  0.00    -0.206 F 
ATOM     82  C   UNL A   1      33.544  35.454  30.218  1.00  0.00     0.006 A 
ENDBRANCH  61  75
BRANCH  62  83
ATOM     83  C   UNL A   1      45.237  28.922  28.408  1.00  0.00     0.057 A 
ATOM     84  C   UNL A   1      45.100  29.098  27.002  1.00  0.00     0.134 A 
ATOM     85  C   UNL A   1      46.477  28.452  28.847  1.00  0.00     0.134 A 
ATOM     86  F   UNL A   1      43.934  29.536  26.497  1.00  0.00    -0.206 F 
ATOM     87  C   UNL A   1      46.200  29.081  26.134  1.00  0.00     0.040 A 
ATOM     88  C   UNL A   1      47.577  28.374  27.968  1.00  0.00     0.040 A 
ATOM     89  F   UNL A   1      46.702  28.257  30.154  1.00  0.00    -0.206 F 
ATOM     90  C   UNL A   1      47.456  28.763  26.631  1.00  0.00     0.006 A 
ENDBRANCH  62  83
BRANCH  74  91
ATOM     91  C   UNL A   1      42.365  35.732  29.113  1.00  0.00     0.057 A 
ATOM     92  C   UNL A   1      41.887  36.265  27.909  1.00  0.00     0.134 A 
ATOM     93  C   UNL A   1      43.159  36.595  29.892  1.00  0.00     0.134 A 
ATOM     94  F   UNL A   1      41.225  35.501  27.026  1.00  0.00    -0.206 F 
ATOM     95  C   UNL A   1      42.063  37.612  27.574  1.00  0.00     0.040 A 
ATOM     96  C   UNL A   1      43.411  37.918  29.528  1.00  0.00     0.040 A 
ATOM     97  F   UNL A   1      43.695  36.206  31.056  1.00  0.00    -0.206 F 
ATOM     98  C   UNL A   1      42.826  38.444  28.386  1.00  0.00     0.006 A 
ENDBRANCH  74  91
ENDBRANCH  48  49
ENDBRANCH  41  43
ENDBRANCH  40  41
ENDBRANCH  39  40
ENDBRANCH  38  39
ENDBRANCH  37  38
ENDBRANCH  36  37
ENDBRANCH  35  36
ENDBRANCH  34  35
ENDBRANCH   1  34
TORSDOF 23
ENDMDL
MODEL 3
REMARK VINA RESULT:     -14.0      4.202     10.068
REMARK SMILES Cc1c(NC(=O)[C@@H]2CC=CC[C@@H]2C(=O)OCCOCCOCCOCCOC(=O)c2ccc(-c3c4nc(c(-c5c(F)cccc5F)c5ccc([nH]5)c(-c5c(F)cccc5F)c5nc(c(-c6c(F)cccc6F)c6ccc3[nH]6)C=C5)C=C4)cc2)cccc1C(=O)N1CCOCC1
REMARK SMILES IDX 20 1 19 2 18 3 17 4 16 5 15 6 13 7 14 8 12 9 7 10 8 11 9 12
REMARK SMILES IDX 11 13 10 14 5 15 4 16 6 18 3 19 1 20 2 21 87 22 84 23 86 24
REMARK SMILES IDX 85 25 88 26 89 27 90 28 91 29 95 30 92 31 94 32 93 33 21 34
REMARK SMILES IDX 22 35 23 36 24 37 25 38 26 39 27 40 28 41 29 42 30 43 31 44
REMARK SMILES IDX 83 45 32 46 82 47 33 48 34 49 35 50 76 51 36 52 81 53 75 54
REMARK SMILES IDX 77 55 37 56 80 57 74 58 73 59 38 61 64 62 47 63 63 64 48 65
REMARK SMILES IDX 51 66 62 67 78 68 49 69 50 70 61 72 79 73 52 74 39 75 40 76
REMARK SMILES IDX 45 77 41 78 42 79 44 80 46 81 43 82 65 83 66 84 71 85 67 86
REMARK SMILES IDX 68 87 70 88 72 89 69 90 53 91 54 92 59 93 55 94 56 95 58 96
REMARK SMILES IDX 60 97 57 98
REMARK H PARENT 4 17 77 60 51 71
REMARK Flexibility Score: inf
ROOT
ATOM      1  C   UNL A   1      41.080  19.951  27.081  1.00  0.00     0.188 C 
ENDROOT
BRANCH   1   2
ATOM      2  C   UNL A   1      40.811  21.612  27.197  1.00  0.00     0.188 C 
BRANCH   2   3
ATOM      3  O   UNL A   1      39.375  22.654  26.939  1.00  0.00    -0.376 OA
BRANCH   3   4
ATOM      4  C   UNL A   1      37.973  22.642  25.826  1.00  0.00     0.202 C 
BRANCH   4   5
ATOM      5  C   UNL A   1      36.292  23.571  25.891  1.00  0.00     0.261 C 
BRANCH   5   6
ATOM      6  O   UNL A   1      35.321  24.303  24.541  1.00  0.00    -0.463 OA
BRANCH   6   7
ATOM      7  C   UNL A   1      34.187  25.114  24.181  1.00  0.00     0.310 C 
ATOM      8  O   UNL A   1      33.768  25.308  23.024  1.00  0.00    -0.252 OA
BRANCH   7   9
ATOM      9  C   UNL A   1      33.050  25.757  25.173  1.00  0.00     0.116 C 
ATOM     10  C   UNL A   1      31.530  26.151  25.099  1.00  0.00     0.097 C 
ATOM     11  C   UNL A   1      31.244  27.626  24.702  1.00  0.00     0.041 C 
ATOM     12  C   UNL A   1      32.092  28.603  25.449  1.00  0.00    -0.030 C 
ATOM     13  C   UNL A   1      33.748  26.835  26.112  1.00  0.00     0.043 C 
ATOM     14  C   UNL A   1      33.195  28.237  26.108  1.00  0.00    -0.030 C 
BRANCH  10  15
ATOM     15  C   UNL A   1      30.720  25.015  24.520  1.00  0.00     0.228 C 
ATOM     16  N   UNL A   1      30.835  23.712  24.861  1.00  0.00    -0.326 N 
ATOM     17  H   UNL A   1      30.099  23.178  24.480  1.00  0.00     0.169 HD
ATOM     18  O   UNL A   1      29.889  25.234  23.632  1.00  0.00    -0.274 OA
BRANCH  16  19
ATOM     19  C   UNL A   1      31.710  22.906  25.605  1.00  0.00     0.044 A 
ATOM     20  C   UNL A   1      32.108  21.674  23.447  1.00  0.00     0.047 C 
ATOM     21  C   UNL A   1      32.474  21.950  24.885  1.00  0.00    -0.015 A 
ATOM     22  C   UNL A   1      33.479  21.219  25.554  1.00  0.00     0.045 A 
ATOM     23  C   UNL A   1      31.897  23.043  26.981  1.00  0.00     0.026 A 
ATOM     24  C   UNL A   1      33.564  21.306  26.954  1.00  0.00     0.014 A 
ATOM     25  C   UNL A   1      32.761  22.192  27.666  1.00  0.00     0.003 A 
BRANCH  22  26
ATOM     26  C   UNL A   1      34.363  20.200  24.917  1.00  0.00     0.254 C 
ATOM     27  O   UNL A   1      35.510  20.563  24.649  1.00  0.00    -0.269 OA
ATOM     28  N   UNL A   1      33.934  18.903  24.651  1.00  0.00    -0.334 N 
ATOM     29  C   UNL A   1      32.559  18.397  24.519  1.00  0.00     0.148 C 
ATOM     30  C   UNL A   1      34.948  17.900  24.319  1.00  0.00     0.148 C 
ATOM     31  C   UNL A   1      32.387  17.045  25.246  1.00  0.00     0.181 C 
ATOM     32  C   UNL A   1      34.719  16.649  25.166  1.00  0.00     0.181 C 
ATOM     33  O   UNL A   1      33.417  16.104  24.899  1.00  0.00    -0.378 OA
ENDBRANCH  22  26
ENDBRANCH  16  19
ENDBRANCH  10  15
ENDBRANCH   7   9
ENDBRANCH   6   7
ENDBRANCH   5   6
ENDBRANCH   4   5
ENDBRANCH   3   4
ENDBRANCH   2   3
ENDBRANCH   1   2
BRANCH   1  34
ATOM     34  O   UNL A   1      41.846  19.212  26.104  1.00  0.00    -0.377 OA
BRANCH  34  35
ATOM     35  C   UNL A   1      43.257  19.045  26.058  1.00  0.00     0.188 C 
BRANCH  35  36
ATOM     36  C   UNL A   1      43.982  19.575  24.857  1.00  0.00     0.188 C 
BRANCH  36  37
ATOM     37  O   UNL A   1      44.652  20.744  25.283  1.00  0.00    -0.376 OA
BRANCH  37  38
ATOM     38  C   UNL A   1      43.900  21.929  25.122  1.00  0.00     0.202 C 
BRANCH  38  39
ATOM     39  C   UNL A   1      44.413  23.034  26.047  1.00  0.00     0.261 C 
BRANCH  39  40
ATOM     40  O   UNL A   1      43.321  23.939  26.328  1.00  0.00    -0.460 OA
BRANCH  40  41
ATOM     41  C   UNL A   1      43.406  25.171  25.741  1.00  0.00     0.338 C 
ATOM     42  O   UNL A   1      44.429  25.758  25.465  1.00  0.00    -0.246 OA
BRANCH  41  43
ATOM     43  C   UNL A   1      42.071  25.833  25.825  1.00  0.00     0.060 A 
ATOM     44  C   UNL A   1      41.929  27.170  25.503  1.00  0.00     0.016 A 
ATOM     45  C   UNL A   1      40.987  25.250  26.429  1.00  0.00     0.016 A 
ATOM     46  C   UNL A   1      40.972  27.951  26.196  1.00  0.00     0.010 A 
ATOM     47  C   UNL A   1      40.012  26.086  27.024  1.00  0.00     0.010 A 
ATOM     48  C   UNL A   1      40.244  27.479  27.297  1.00  0.00    -0.014 A 
BRANCH  48  49
ATOM     49  C   UNL A   1      40.019  28.470  28.838  1.00  0.00     0.031 A 
ATOM     50  C   UNL A   1      38.490  29.606  29.411  1.00  0.00     0.074 A 
ATOM     51  C   UNL A   1      41.252  28.446  29.457  1.00  0.00     0.049 A 
ATOM     52  N   UNL A   1      38.509  30.972  29.370  1.00  0.00    -0.248 NA
ATOM     53  C   UNL A   1      36.890  29.494  29.324  1.00  0.00     0.031 C 
ATOM     54  C   UNL A   1      41.552  28.832  30.789  1.00  0.00     0.029 A 
ATOM     55  N   UNL A   1      42.555  28.253  28.976  1.00  0.00    -0.354 N 
ATOM     56  C   UNL A   1      37.358  31.713  29.410  1.00  0.00     0.074 A 
ATOM     57  C   UNL A   1      36.381  30.728  29.160  1.00  0.00     0.031 C 
ATOM     58  C   UNL A   1      42.773  29.368  30.887  1.00  0.00     0.029 A 
ATOM     59  C   UNL A   1      43.409  29.127  29.647  1.00  0.00     0.049 A 
ATOM     60  H   UNL A   1      42.822  27.609  28.281  1.00  0.00     0.167 HD
ATOM     61  C   UNL A   1      37.297  33.061  29.697  1.00  0.00     0.037 A 
ATOM     62  C   UNL A   1      44.454  29.804  29.144  1.00  0.00     0.037 A 
ATOM     63  C   UNL A   1      38.561  33.626  30.241  1.00  0.00     0.049 A 
ATOM     64  C   UNL A   1      44.201  31.305  29.193  1.00  0.00     0.074 A 
ATOM     65  C   UNL A   1      38.987  33.868  31.542  1.00  0.00     0.029 A 
ATOM     66  N   UNL A   1      39.704  33.811  29.471  1.00  0.00    -0.354 N 
ATOM     67  N   UNL A   1      43.109  31.893  29.651  1.00  0.00    -0.248 NA
ATOM     68  C   UNL A   1      45.165  32.266  28.676  1.00  0.00     0.031 C 
ATOM     69  C   UNL A   1      40.411  33.989  31.553  1.00  0.00     0.029 A 
ATOM     70  C   UNL A   1      40.872  33.927  30.247  1.00  0.00     0.049 A 
ATOM     71  H   UNL A   1      39.697  33.856  28.488  1.00  0.00     0.167 HD
ATOM     72  C   UNL A   1      43.165  33.255  29.416  1.00  0.00     0.074 A 
ATOM     73  C   UNL A   1      44.494  33.421  28.817  1.00  0.00     0.031 C 
ATOM     74  C   UNL A   1      42.188  34.206  29.643  1.00  0.00     0.037 A 
BRANCH  61  75
ATOM     75  C   UNL A   1      35.920  33.732  29.850  1.00  0.00     0.057 A 
ATOM     76  C   UNL A   1      35.168  34.185  28.751  1.00  0.00     0.134 A 
ATOM     77  C   UNL A   1      35.316  34.014  31.096  1.00  0.00     0.134 A 
ATOM     78  F   UNL A   1      35.486  33.848  27.495  1.00  0.00    -0.206 F 
ATOM     79  C   UNL A   1      34.030  35.006  28.884  1.00  0.00     0.040 A 
ATOM     80  C   UNL A   1      34.226  34.890  31.249  1.00  0.00     0.040 A 
ATOM     81  F   UNL A   1      35.742  33.416  32.220  1.00  0.00    -0.206 F 
ATOM     82  C   UNL A   1      33.591  35.413  30.135  1.00  0.00     0.006 A 
ENDBRANCH  61  75
BRANCH  62  83
ATOM     83  C   UNL A   1      45.272  28.863  28.318  1.00  0.00     0.057 A 
ATOM     84  C   UNL A   1      45.178  29.115  26.921  1.00  0.00     0.134 A 
ATOM     85  C   UNL A   1      46.494  28.354  28.766  1.00  0.00     0.134 A 
ATOM     86  F   UNL A   1      44.031  29.594  26.407  1.00  0.00    -0.206 F 
ATOM     87  C   UNL A   1      46.301  29.132  26.085  1.00  0.00     0.040 A 
ATOM     88  C   UNL A   1      47.617  28.310  27.916  1.00  0.00     0.040 A 
ATOM     89  F   UNL A   1      46.679  28.087  30.066  1.00  0.00    -0.206 F 
ATOM     90  C   UNL A   1      47.539  28.772  26.598  1.00  0.00     0.006 A 
ENDBRANCH  62  83
BRANCH  74  91
ATOM     91  C   UNL A   1      42.443  35.656  29.301  1.00  0.00     0.057 A 
ATOM     92  C   UNL A   1      41.885  36.293  28.185  1.00  0.00     0.134 A 
ATOM     93  C   UNL A   1      43.338  36.430  30.064  1.00  0.00     0.134 A 
ATOM     94  F   UNL A   1      41.115  35.620  27.316  1.00  0.00    -0.206 F 
ATOM     95  C   UNL A   1      42.089  37.654  27.930  1.00  0.00     0.040 A 
ATOM     96  C   UNL A   1      43.615  37.766  29.770  1.00  0.00     0.040 A 
ATOM     97  F   UNL A   1      43.957  35.938  31.145  1.00  0.00    -0.206 F 
ATOM     98  C   UNL A   1      42.956  38.395  28.726  1.00  0.00     0.006 A 
ENDBRANCH  74  91
ENDBRANCH  48  49
ENDBRANCH  41  43
ENDBRANCH  40  41
ENDBRANCH  39  40
ENDBRANCH  38  39
ENDBRANCH  37  38
ENDBRANCH  36  37
ENDBRANCH  35  36
ENDBRANCH  34  35
ENDBRANCH   1  34
TORSDOF 23
ENDMDL
