MODEL 1
REMARK VINA RESULT:      -7.5      0.000      0.000
REMARK SMILES COC(=O)c1c(NC(=O)[C@@H]2C[C@@H]2C(=O)OCCOCCOCCOCCOC(=O)c2ccc(-c3c4nc(c(-c5c(F)cccc5F)c5ccc([nH]5)c(-c5c(F)cccc5F)c5nc(c(-c6c(F)cccc6F)c6ccc3[nH]6)C=C5)C=C4)cc2)sc2c1CC[N@@H+](Cc1ccccc1)C2
REMARK SMILES IDX 20 1 19 2 18 3 17 4 16 5 15 6 13 7 14 8 12 9 10 10 11 11
REMARK SMILES IDX 8 12 7 13 9 15 6 16 5 17 86 18 84 19 85 20 87 21 97 22 88 23
REMARK SMILES IDX 89 24 3 26 4 27 2 28 1 29 90 30 91 31 92 32 96 33 93 34
REMARK SMILES IDX 95 35 94 36 21 37 22 38 23 39 24 40 25 41 26 42 27 43 28 44
REMARK SMILES IDX 29 45 30 46 31 47 83 48 32 49 82 50 33 51 34 52 35 53 76 54
REMARK SMILES IDX 36 55 81 56 75 57 77 58 37 59 80 60 74 61 73 62 38 64 64 65
REMARK SMILES IDX 47 66 63 67 48 68 51 69 62 70 78 71 49 72 50 73 61 75 79 76
REMARK SMILES IDX 52 77 39 78 40 79 45 80 41 81 42 82 44 83 46 84 43 85 65 86
REMARK SMILES IDX 66 87 71 88 67 89 68 90 70 91 72 92 69 93 53 94 54 95 59 96
REMARK SMILES IDX 55 97 56 98 58 99 60 100 57 101
REMARK H PARENT 7 14 89 25 77 63 51 74
REMARK Flexibility Score: inf
ROOT
ATOM      1  C   UNL A   1      44.870  33.531  34.437  1.00  0.00     0.188 C 
ENDROOT
BRANCH   1   2
ATOM      2  C   UNL A   1      45.157  32.095  33.921  1.00  0.00     0.188 C 
BRANCH   2   3
ATOM      3  O   UNL A   1      45.463  31.050  34.838  1.00  0.00    -0.376 OA
BRANCH   3   4
ATOM      4  C   UNL A   1      45.078  29.725  34.519  1.00  0.00     0.202 C 
BRANCH   4   5
ATOM      5  C   UNL A   1      45.982  28.927  33.576  1.00  0.00     0.261 C 
BRANCH   5   6
ATOM      6  O   UNL A   1      45.962  29.344  32.199  1.00  0.00    -0.463 OA
BRANCH   6   7
ATOM      7  C   UNL A   1      44.794  29.203  31.539  1.00  0.00     0.309 C 
ATOM      8  O   UNL A   1      44.160  30.129  31.020  1.00  0.00    -0.252 OA
BRANCH   7   9
ATOM      9  C   UNL A   1      44.265  27.810  31.459  1.00  0.00     0.112 C 
ATOM     10  C   UNL A   1      44.657  26.740  30.455  1.00  0.00     0.094 C 
ATOM     11  C   UNL A   1      43.268  27.327  30.440  1.00  0.00     0.030 C 
BRANCH  10  12
ATOM     12  C   UNL A   1      45.545  26.889  29.281  1.00  0.00     0.229 C 
ATOM     13  N   UNL A   1      45.261  26.327  28.065  1.00  0.00    -0.317 N 
ATOM     14  H   UNL A   1      45.838  26.620  27.323  1.00  0.00     0.170 HD
ATOM     15  O   UNL A   1      46.552  27.587  29.400  1.00  0.00    -0.274 OA
BRANCH  13  16
ATOM     16  C   UNL A   1      44.290  25.416  27.725  1.00  0.00     0.110 A 
ATOM     17  C   UNL A   1      43.037  25.426  27.136  1.00  0.00     0.098 A 
ATOM     18  C   UNL A   1      42.317  24.245  27.558  1.00  0.00    -0.006 A 
ATOM     19  S   UNL A   1      44.745  23.853  28.267  1.00  0.00    -0.116 S 
ATOM     20  C   UNL A   1      43.179  23.267  28.013  1.00  0.00     0.065 A 
ATOM     21  C   UNL A   1      40.861  23.937  27.335  1.00  0.00     0.099 C 
ATOM     22  C   UNL A   1      42.802  21.826  28.152  1.00  0.00     0.310 C 
ATOM     23  C   UNL A   1      40.549  22.427  27.461  1.00  0.00     0.267 C 
ATOM     24  N   UNL A   1      41.673  21.493  27.260  1.00  0.00    -0.326 N 
ATOM     25  H   UNL A   1      41.341  20.572  27.547  1.00  0.00     0.348 HD
BRANCH  17  26
ATOM     26  C   UNL A   1      42.456  26.446  26.269  1.00  0.00     0.341 C 
ATOM     27  O   UNL A   1      42.265  26.280  25.065  1.00  0.00    -0.246 OA
BRANCH  26  28
ATOM     28  O   UNL A   1      42.142  27.608  26.915  1.00  0.00    -0.465 OA
ATOM     29  C   UNL A   1      42.844  28.746  26.410  1.00  0.00     0.282 C 
ENDBRANCH  26  28
ENDBRANCH  17  26
BRANCH  24  30
ATOM     30  C   UNL A   1      42.034  21.234  25.851  1.00  0.00     0.299 C 
BRANCH  30  31
ATOM     31  C   UNL A   1      43.368  20.586  25.525  1.00  0.00     0.006 A 
ATOM     32  C   UNL A   1      44.475  21.360  25.141  1.00  0.00     0.009 A 
ATOM     33  C   UNL A   1      43.538  19.196  25.634  1.00  0.00     0.009 A 
ATOM     34  C   UNL A   1      45.728  20.772  24.946  1.00  0.00     0.001 A 
ATOM     35  C   UNL A   1      44.794  18.609  25.452  1.00  0.00     0.001 A 
ATOM     36  C   UNL A   1      45.890  19.398  25.114  1.00  0.00     0.000 A 
ENDBRANCH  30  31
ENDBRANCH  24  30
ENDBRANCH  13  16
ENDBRANCH  10  12
ENDBRANCH   7   9
ENDBRANCH   6   7
ENDBRANCH   5   6
ENDBRANCH   4   5
ENDBRANCH   3   4
ENDBRANCH   2   3
ENDBRANCH   1   2
BRANCH   1  37
ATOM     37  O   UNL A   1      45.632  33.903  35.573  1.00  0.00    -0.377 OA
BRANCH  37  38
ATOM     38  C   UNL A   1      45.215  35.094  36.216  1.00  0.00     0.188 C 
BRANCH  38  39
ATOM     39  C   UNL A   1      45.647  36.423  35.565  1.00  0.00     0.188 C 
BRANCH  39  40
ATOM     40  O   UNL A   1      44.640  37.427  35.575  1.00  0.00    -0.376 OA
BRANCH  40  41
ATOM     41  C   UNL A   1      44.030  37.866  34.374  1.00  0.00     0.202 C 
BRANCH  41  42
ATOM     42  C   UNL A   1      44.743  37.324  33.131  1.00  0.00     0.261 C 
BRANCH  42  43
ATOM     43  O   UNL A   1      44.103  37.718  31.925  1.00  0.00    -0.460 OA
BRANCH  43  44
ATOM     44  C   UNL A   1      44.756  37.348  30.815  1.00  0.00     0.338 C 
ATOM     45  O   UNL A   1      45.792  37.823  30.362  1.00  0.00    -0.246 OA
BRANCH  44  46
ATOM     46  C   UNL A   1      44.000  36.302  30.133  1.00  0.00     0.060 A 
ATOM     47  C   UNL A   1      42.771  36.719  29.623  1.00  0.00     0.016 A 
ATOM     48  C   UNL A   1      44.300  34.967  30.434  1.00  0.00     0.016 A 
ATOM     49  C   UNL A   1      41.716  35.880  29.823  1.00  0.00     0.010 A 
ATOM     50  C   UNL A   1      43.241  34.131  30.645  1.00  0.00     0.010 A 
ATOM     51  C   UNL A   1      41.968  34.667  30.471  1.00  0.00    -0.014 A 
BRANCH  51  52
ATOM     52  C   UNL A   1      40.834  34.034  31.087  1.00  0.00     0.031 A 
ATOM     53  C   UNL A   1      41.018  33.759  32.516  1.00  0.00     0.074 A 
ATOM     54  C   UNL A   1      39.724  33.767  30.378  1.00  0.00     0.049 A 
ATOM     55  N   UNL A   1      41.054  32.616  33.111  1.00  0.00    -0.248 NA
ATOM     56  C   UNL A   1      41.349  34.912  33.365  1.00  0.00     0.031 C 
ATOM     57  C   UNL A   1      39.349  34.254  29.045  1.00  0.00     0.029 A 
ATOM     58  N   UNL A   1      38.634  33.063  30.770  1.00  0.00    -0.354 N 
ATOM     59  C   UNL A   1      41.232  32.918  34.454  1.00  0.00     0.074 A 
ATOM     60  C   UNL A   1      41.575  34.313  34.531  1.00  0.00     0.031 C 
ATOM     61  C   UNL A   1      38.034  34.013  28.845  1.00  0.00     0.029 A 
ATOM     62  C   UNL A   1      37.520  33.254  29.974  1.00  0.00     0.049 A 
ATOM     63  H   UNL A   1      38.635  32.467  31.554  1.00  0.00     0.167 HD
ATOM     64  C   UNL A   1      40.842  32.058  35.428  1.00  0.00     0.037 A 
ATOM     65  C   UNL A   1      36.255  32.897  30.295  1.00  0.00     0.037 A 
ATOM     66  C   UNL A   1      40.732  30.710  34.940  1.00  0.00     0.049 A 
ATOM     67  C   UNL A   1      36.334  31.896  31.394  1.00  0.00     0.074 A 
ATOM     68  C   UNL A   1      41.620  29.805  34.392  1.00  0.00     0.029 A 
ATOM     69  N   UNL A   1      39.480  30.220  34.663  1.00  0.00    -0.354 N 
ATOM     70  N   UNL A   1      36.791  30.683  31.253  1.00  0.00    -0.248 NA
ATOM     71  C   UNL A   1      36.293  32.385  32.765  1.00  0.00     0.031 C 
ATOM     72  C   UNL A   1      40.863  29.059  33.443  1.00  0.00     0.029 A 
ATOM     73  C   UNL A   1      39.554  29.544  33.471  1.00  0.00     0.049 A 
ATOM     74  H   UNL A   1      38.674  30.333  35.218  1.00  0.00     0.167 HD
ATOM     75  C   UNL A   1      37.455  30.406  32.440  1.00  0.00     0.074 A 
ATOM     76  C   UNL A   1      37.024  31.444  33.369  1.00  0.00     0.031 C 
ATOM     77  C   UNL A   1      38.504  29.531  32.477  1.00  0.00     0.037 A 
BRANCH  64  78
ATOM     78  C   UNL A   1      40.238  32.528  36.722  1.00  0.00     0.057 A 
ATOM     79  C   UNL A   1      38.974  33.132  36.712  1.00  0.00     0.134 A 
ATOM     80  C   UNL A   1      40.954  32.645  37.934  1.00  0.00     0.134 A 
ATOM     81  F   UNL A   1      38.214  33.119  35.607  1.00  0.00    -0.206 F 
ATOM     82  C   UNL A   1      38.476  33.837  37.814  1.00  0.00     0.040 A 
ATOM     83  C   UNL A   1      40.443  33.293  39.058  1.00  0.00     0.040 A 
ATOM     84  F   UNL A   1      42.220  32.228  38.067  1.00  0.00    -0.206 F 
ATOM     85  C   UNL A   1      39.210  33.918  38.991  1.00  0.00     0.006 A 
ENDBRANCH  64  78
BRANCH  65  86
ATOM     86  C   UNL A   1      35.006  33.602  29.937  1.00  0.00     0.057 A 
ATOM     87  C   UNL A   1      34.540  34.683  30.695  1.00  0.00     0.134 A 
ATOM     88  C   UNL A   1      34.361  33.387  28.704  1.00  0.00     0.134 A 
ATOM     89  F   UNL A   1      35.124  34.996  31.861  1.00  0.00    -0.206 F 
ATOM     90  C   UNL A   1      33.499  35.508  30.250  1.00  0.00     0.040 A 
ATOM     91  C   UNL A   1      33.313  34.195  28.254  1.00  0.00     0.040 A 
ATOM     92  F   UNL A   1      34.783  32.442  27.852  1.00  0.00    -0.206 F 
ATOM     93  C   UNL A   1      32.885  35.267  29.025  1.00  0.00     0.006 A 
ENDBRANCH  65  86
BRANCH  77  94
ATOM     94  C   UNL A   1      38.745  28.690  31.254  1.00  0.00     0.057 A 
ATOM     95  C   UNL A   1      39.332  29.189  30.082  1.00  0.00     0.134 A 
ATOM     96  C   UNL A   1      38.516  27.312  31.310  1.00  0.00     0.134 A 
ATOM     97  F   UNL A   1      39.686  30.477  29.981  1.00  0.00    -0.206 F 
ATOM     98  C   UNL A   1      39.634  28.361  28.996  1.00  0.00     0.040 A 
ATOM     99  C   UNL A   1      38.842  26.468  30.245  1.00  0.00     0.040 A 
ATOM    100  F   UNL A   1      38.017  26.754  32.425  1.00  0.00    -0.206 F 
ATOM    101  C   UNL A   1      39.393  26.995  29.078  1.00  0.00     0.006 A 
ENDBRANCH  77  94
ENDBRANCH  51  52
ENDBRANCH  44  46
ENDBRANCH  43  44
ENDBRANCH  42  43
ENDBRANCH  41  42
ENDBRANCH  40  41
ENDBRANCH  39  40
ENDBRANCH  38  39
ENDBRANCH  37  38
ENDBRANCH   1  37
TORSDOF 26
ENDMDL
MODEL 2
REMARK VINA RESULT:      -6.8     11.300     16.483
REMARK SMILES COC(=O)c1c(NC(=O)[C@@H]2C[C@@H]2C(=O)OCCOCCOCCOCCOC(=O)c2ccc(-c3c4nc(c(-c5c(F)cccc5F)c5ccc([nH]5)c(-c5c(F)cccc5F)c5nc(c(-c6c(F)cccc6F)c6ccc3[nH]6)C=C5)C=C4)cc2)sc2c1CC[N@@H+](Cc1ccccc1)C2
REMARK SMILES IDX 20 1 19 2 18 3 17 4 16 5 15 6 13 7 14 8 12 9 10 10 11 11
REMARK SMILES IDX 8 12 7 13 9 15 6 16 5 17 86 18 84 19 85 20 87 21 97 22 88 23
REMARK SMILES IDX 89 24 3 26 4 27 2 28 1 29 90 30 91 31 92 32 96 33 93 34
REMARK SMILES IDX 95 35 94 36 21 37 22 38 23 39 24 40 25 41 26 42 27 43 28 44
REMARK SMILES IDX 29 45 30 46 31 47 83 48 32 49 82 50 33 51 34 52 35 53 76 54
REMARK SMILES IDX 36 55 81 56 75 57 77 58 37 59 80 60 74 61 73 62 38 64 64 65
REMARK SMILES IDX 47 66 63 67 48 68 51 69 62 70 78 71 49 72 50 73 61 75 79 76
REMARK SMILES IDX 52 77 39 78 40 79 45 80 41 81 42 82 44 83 46 84 43 85 65 86
REMARK SMILES IDX 66 87 71 88 67 89 68 90 70 91 72 92 69 93 53 94 54 95 59 96
REMARK SMILES IDX 55 97 56 98 58 99 60 100 57 101
REMARK H PARENT 7 14 89 25 77 63 51 74
REMARK Flexibility Score: inf
ROOT
ATOM      1  C   UNL A   1      44.861  34.090  26.550  1.00  0.00     0.188 C 
ENDROOT
BRANCH   1   2
ATOM      2  C   UNL A   1      46.065  33.121  26.401  1.00  0.00     0.188 C 
BRANCH   2   3
ATOM      3  O   UNL A   1      45.882  31.718  26.560  1.00  0.00    -0.376 OA
BRANCH   3   4
ATOM      4  C   UNL A   1      46.917  30.955  27.154  1.00  0.00     0.202 C 
BRANCH   4   5
ATOM      5  C   UNL A   1      47.208  29.570  26.571  1.00  0.00     0.261 C 
BRANCH   5   6
ATOM      6  O   UNL A   1      48.212  28.806  27.260  1.00  0.00    -0.463 OA
BRANCH   6   7
ATOM      7  C   UNL A   1      48.357  27.517  26.887  1.00  0.00     0.309 C 
ATOM      8  O   UNL A   1      49.120  26.708  27.426  1.00  0.00    -0.252 OA
BRANCH   7   9
ATOM      9  C   UNL A   1      47.517  27.085  25.731  1.00  0.00     0.112 C 
ATOM     10  C   UNL A   1      46.571  25.898  25.683  1.00  0.00     0.094 C 
ATOM     11  C   UNL A   1      47.821  25.911  24.841  1.00  0.00     0.030 C 
BRANCH  10  12
ATOM     12  C   UNL A   1      46.376  24.859  26.718  1.00  0.00     0.229 C 
ATOM     13  N   UNL A   1      45.192  24.695  27.385  1.00  0.00    -0.317 N 
ATOM     14  H   UNL A   1      45.130  23.880  27.934  1.00  0.00     0.170 HD
ATOM     15  O   UNL A   1      47.307  24.086  26.947  1.00  0.00    -0.274 OA
BRANCH  13  16
ATOM     16  C   UNL A   1      44.076  25.497  27.401  1.00  0.00     0.110 A 
ATOM     17  C   UNL A   1      42.812  25.507  26.834  1.00  0.00     0.098 A 
ATOM     18  C   UNL A   1      42.329  26.869  26.802  1.00  0.00    -0.006 A 
ATOM     19  S   UNL A   1      44.390  26.910  28.321  1.00  0.00    -0.116 S 
ATOM     20  C   UNL A   1      43.002  27.661  27.712  1.00  0.00     0.065 A 
ATOM     21  C   UNL A   1      41.104  27.386  26.099  1.00  0.00     0.099 C 
ATOM     22  C   UNL A   1      42.497  28.984  28.194  1.00  0.00     0.310 C 
ATOM     23  C   UNL A   1      40.618  28.739  26.670  1.00  0.00     0.267 C 
ATOM     24  N   UNL A   1      41.031  29.069  28.048  1.00  0.00    -0.326 N 
ATOM     25  H   UNL A   1      40.781  30.046  28.199  1.00  0.00     0.348 HD
BRANCH  17  26
ATOM     26  C   UNL A   1      42.060  24.381  26.290  1.00  0.00     0.341 C 
ATOM     27  O   UNL A   1      40.835  24.379  26.179  1.00  0.00    -0.246 OA
BRANCH  26  28
ATOM     28  O   UNL A   1      42.839  23.325  25.912  1.00  0.00    -0.465 OA
ATOM     29  C   UNL A   1      42.218  22.055  26.124  1.00  0.00     0.282 C 
ENDBRANCH  26  28
ENDBRANCH  17  26
BRANCH  24  30
ATOM     30  C   UNL A   1      40.247  28.412  29.115  1.00  0.00     0.299 C 
BRANCH  30  31
ATOM     31  C   UNL A   1      39.084  29.150  29.754  1.00  0.00     0.006 A 
ATOM     32  C   UNL A   1      38.222  28.503  30.653  1.00  0.00     0.009 A 
ATOM     33  C   UNL A   1      38.861  30.511  29.487  1.00  0.00     0.009 A 
ATOM     34  C   UNL A   1      37.218  29.212  31.321  1.00  0.00     0.001 A 
ATOM     35  C   UNL A   1      37.867  31.223  30.163  1.00  0.00     0.001 A 
ATOM     36  C   UNL A   1      37.049  30.575  31.085  1.00  0.00     0.000 A 
ENDBRANCH  30  31
ENDBRANCH  24  30
ENDBRANCH  13  16
ENDBRANCH  10  12
ENDBRANCH   7   9
ENDBRANCH   6   7
ENDBRANCH   5   6
ENDBRANCH   4   5
ENDBRANCH   3   4
ENDBRANCH   2   3
ENDBRANCH   1   2
BRANCH   1  37
ATOM     37  O   UNL A   1      44.285  34.106  27.846  1.00  0.00    -0.377 OA
BRANCH  37  38
ATOM     38  C   UNL A   1      44.511  35.288  28.592  1.00  0.00     0.188 C 
BRANCH  38  39
ATOM     39  C   UNL A   1      44.339  36.626  27.844  1.00  0.00     0.188 C 
BRANCH  39  40
ATOM     40  O   UNL A   1      43.022  37.159  27.908  1.00  0.00    -0.376 OA
BRANCH  40  41
ATOM     41  C   UNL A   1      42.652  38.289  27.138  1.00  0.00     0.202 C 
BRANCH  41  42
ATOM     42  C   UNL A   1      43.685  39.417  27.229  1.00  0.00     0.261 C 
BRANCH  42  43
ATOM     43  O   UNL A   1      43.131  40.686  26.913  1.00  0.00    -0.460 OA
BRANCH  43  44
ATOM     44  C   UNL A   1      43.641  41.244  25.807  1.00  0.00     0.338 C 
ATOM     45  O   UNL A   1      43.134  41.291  24.691  1.00  0.00    -0.246 OA
BRANCH  44  46
ATOM     46  C   UNL A   1      44.979  41.753  26.091  1.00  0.00     0.060 A 
ATOM     47  C   UNL A   1      45.000  42.959  26.788  1.00  0.00     0.016 A 
ATOM     48  C   UNL A   1      46.039  41.298  25.296  1.00  0.00     0.016 A 
ATOM     49  C   UNL A   1      45.887  43.897  26.350  1.00  0.00     0.010 A 
ATOM     50  C   UNL A   1      46.921  42.242  24.849  1.00  0.00     0.010 A 
ATOM     51  C   UNL A   1      46.720  43.550  25.283  1.00  0.00    -0.014 A 
BRANCH  51  52
ATOM     52  C   UNL A   1      47.283  44.645  24.541  1.00  0.00     0.031 A 
ATOM     53  C   UNL A   1      46.510  45.006  23.348  1.00  0.00     0.074 A 
ATOM     54  C   UNL A   1      48.401  45.261  24.961  1.00  0.00     0.049 A 
ATOM     55  N   UNL A   1      46.871  44.940  22.112  1.00  0.00    -0.248 NA
ATOM     56  C   UNL A   1      45.097  45.347  23.565  1.00  0.00     0.031 C 
ATOM     57  C   UNL A   1      49.068  45.158  26.265  1.00  0.00     0.029 A 
ATOM     58  N   UNL A   1      49.125  46.206  24.315  1.00  0.00    -0.354 N 
ATOM     59  C   UNL A   1      45.779  45.413  21.396  1.00  0.00     0.074 A 
ATOM     60  C   UNL A   1      44.673  45.484  22.313  1.00  0.00     0.031 C 
ATOM     61  C   UNL A   1      49.956  46.170  26.383  1.00  0.00     0.029 A 
ATOM     62  C   UNL A   1      50.001  46.903  25.127  1.00  0.00     0.049 A 
ATOM     63  H   UNL A   1      49.034  46.384  23.350  1.00  0.00     0.167 HD
ATOM     64  C   UNL A   1      45.926  45.948  20.158  1.00  0.00     0.037 A 
ATOM     65  C   UNL A   1      50.625  48.058  24.801  1.00  0.00     0.037 A 
ATOM     66  C   UNL A   1      47.143  45.514  19.527  1.00  0.00     0.049 A 
ATOM     67  C   UNL A   1      50.569  48.198  23.320  1.00  0.00     0.074 A 
ATOM     68  C   UNL A   1      47.647  44.287  19.140  1.00  0.00     0.029 A 
ATOM     69  N   UNL A   1      48.210  46.378  19.511  1.00  0.00    -0.354 N 
ATOM     70  N   UNL A   1      51.226  47.442  22.484  1.00  0.00    -0.248 NA
ATOM     71  C   UNL A   1      49.442  48.919  22.746  1.00  0.00     0.031 C 
ATOM     72  C   UNL A   1      49.056  44.377  19.336  1.00  0.00     0.029 A 
ATOM     73  C   UNL A   1      49.333  45.656  19.823  1.00  0.00     0.049 A 
ATOM     74  H   UNL A   1      48.175  47.342  19.310  1.00  0.00     0.167 HD
ATOM     75  C   UNL A   1      50.377  47.282  21.397  1.00  0.00     0.074 A 
ATOM     76  C   UNL A   1      49.344  48.297  21.568  1.00  0.00     0.031 C 
ATOM     77  C   UNL A   1      50.432  46.164  20.615  1.00  0.00     0.037 A 
BRANCH  64  78
ATOM     78  C   UNL A   1      45.119  47.126  19.690  1.00  0.00     0.057 A 
ATOM     79  C   UNL A   1      44.193  46.957  18.652  1.00  0.00     0.134 A 
ATOM     80  C   UNL A   1      45.399  48.466  20.037  1.00  0.00     0.134 A 
ATOM     81  F   UNL A   1      43.872  45.732  18.209  1.00  0.00    -0.206 F 
ATOM     82  C   UNL A   1      43.619  48.043  17.981  1.00  0.00     0.040 A 
ATOM     83  C   UNL A   1      44.787  49.555  19.416  1.00  0.00     0.040 A 
ATOM     84  F   UNL A   1      46.347  48.799  20.923  1.00  0.00    -0.206 F 
ATOM     85  C   UNL A   1      43.915  49.346  18.363  1.00  0.00     0.006 A 
ENDBRANCH  64  78
BRANCH  65  86
ATOM     86  C   UNL A   1      50.968  49.178  25.702  1.00  0.00     0.057 A 
ATOM     87  C   UNL A   1      49.972  49.921  26.346  1.00  0.00     0.134 A 
ATOM     88  C   UNL A   1      52.286  49.396  26.145  1.00  0.00     0.134 A 
ATOM     89  F   UNL A   1      48.681  49.747  26.027  1.00  0.00    -0.206 F 
ATOM     90  C   UNL A   1      50.267  50.826  27.374  1.00  0.00     0.040 A 
ATOM     91  C   UNL A   1      52.596  50.304  27.161  1.00  0.00     0.040 A 
ATOM     92  F   UNL A   1      53.310  48.674  25.669  1.00  0.00    -0.206 F 
ATOM     93  C   UNL A   1      51.582  51.016  27.788  1.00  0.00     0.006 A 
ENDBRANCH  65  86
BRANCH  77  94
ATOM     94  C   UNL A   1      51.604  45.242  20.809  1.00  0.00     0.057 A 
ATOM     95  C   UNL A   1      51.633  44.231  21.782  1.00  0.00     0.134 A 
ATOM     96  C   UNL A   1      52.665  45.276  19.901  1.00  0.00     0.134 A 
ATOM     97  F   UNL A   1      50.608  44.054  22.625  1.00  0.00    -0.206 F 
ATOM     98  C   UNL A   1      52.695  43.326  21.875  1.00  0.00     0.040 A 
ATOM     99  C   UNL A   1      53.718  44.359  19.962  1.00  0.00     0.040 A 
ATOM    100  F   UNL A   1      52.673  46.175  18.903  1.00  0.00    -0.206 F 
ATOM    101  C   UNL A   1      53.740  43.386  20.959  1.00  0.00     0.006 A 
ENDBRANCH  77  94
ENDBRANCH  51  52
ENDBRANCH  44  46
ENDBRANCH  43  44
ENDBRANCH  42  43
ENDBRANCH  41  42
ENDBRANCH  40  41
ENDBRANCH  39  40
ENDBRANCH  38  39
ENDBRANCH  37  38
ENDBRANCH   1  37
TORSDOF 26
ENDMDL
MODEL 3
REMARK VINA RESULT:      -6.7      5.826     11.866
REMARK SMILES COC(=O)c1c(NC(=O)[C@@H]2C[C@@H]2C(=O)OCCOCCOCCOCCOC(=O)c2ccc(-c3c4nc(c(-c5c(F)cccc5F)c5ccc([nH]5)c(-c5c(F)cccc5F)c5nc(c(-c6c(F)cccc6F)c6ccc3[nH]6)C=C5)C=C4)cc2)sc2c1CC[N@@H+](Cc1ccccc1)C2
REMARK SMILES IDX 20 1 19 2 18 3 17 4 16 5 15 6 13 7 14 8 12 9 10 10 11 11
REMARK SMILES IDX 8 12 7 13 9 15 6 16 5 17 86 18 84 19 85 20 87 21 97 22 88 23
REMARK SMILES IDX 89 24 3 26 4 27 2 28 1 29 90 30 91 31 92 32 96 33 93 34
REMARK SMILES IDX 95 35 94 36 21 37 22 38 23 39 24 40 25 41 26 42 27 43 28 44
REMARK SMILES IDX 29 45 30 46 31 47 83 48 32 49 82 50 33 51 34 52 35 53 76 54
REMARK SMILES IDX 36 55 81 56 75 57 77 58 37 59 80 60 74 61 73 62 38 64 64 65
REMARK SMILES IDX 47 66 63 67 48 68 51 69 62 70 78 71 49 72 50 73 61 75 79 76
REMARK SMILES IDX 52 77 39 78 40 79 45 80 41 81 42 82 44 83 46 84 43 85 65 86
REMARK SMILES IDX 66 87 71 88 67 89 68 90 70 91 72 92 69 93 53 94 54 95 59 96
REMARK SMILES IDX 55 97 56 98 58 99 60 100 57 101
REMARK H PARENT 7 14 89 25 77 63 51 74
REMARK Flexibility Score: inf
ROOT
ATOM      1  C   UNL A   1      44.732  32.654  28.216  1.00  0.00     0.188 C 
ENDROOT
BRANCH   1   2
ATOM      2  C   UNL A   1      44.978  33.831  29.199  1.00  0.00     0.188 C 
BRANCH   2   3
ATOM      3  O   UNL A   1      43.882  34.584  29.708  1.00  0.00    -0.376 OA
BRANCH   3   4
ATOM      4  C   UNL A   1      43.631  34.573  31.101  1.00  0.00     0.202 C 
BRANCH   4   5
ATOM      5  C   UNL A   1      42.188  34.359  31.564  1.00  0.00     0.261 C 
BRANCH   5   6
ATOM      6  O   UNL A   1      41.900  33.062  32.117  1.00  0.00    -0.463 OA
BRANCH   6   7
ATOM      7  C   UNL A   1      42.154  32.893  33.431  1.00  0.00     0.309 C 
ATOM      8  O   UNL A   1      43.264  33.029  33.959  1.00  0.00    -0.252 OA
BRANCH   7   9
ATOM      9  C   UNL A   1      40.980  32.507  34.267  1.00  0.00     0.112 C 
ATOM     10  C   UNL A   1      39.642  33.223  34.349  1.00  0.00     0.094 C 
ATOM     11  C   UNL A   1      40.568  33.199  35.539  1.00  0.00     0.030 C 
BRANCH  10  12
ATOM     12  C   UNL A   1      39.269  34.508  33.718  1.00  0.00     0.229 C 
ATOM     13  N   UNL A   1      38.356  34.591  32.700  1.00  0.00    -0.317 N 
ATOM     14  H   UNL A   1      38.073  35.505  32.466  1.00  0.00     0.170 HD
ATOM     15  O   UNL A   1      39.768  35.541  34.164  1.00  0.00    -0.274 OA
BRANCH  13  16
ATOM     16  C   UNL A   1      37.775  33.591  31.958  1.00  0.00     0.110 A 
ATOM     17  C   UNL A   1      36.723  32.700  32.085  1.00  0.00     0.098 A 
ATOM     18  C   UNL A   1      36.970  31.566  31.222  1.00  0.00    -0.006 A 
ATOM     19  S   UNL A   1      38.671  33.344  30.516  1.00  0.00    -0.116 S 
ATOM     20  C   UNL A   1      37.874  31.880  30.227  1.00  0.00     0.065 A 
ATOM     21  C   UNL A   1      36.208  30.269  31.180  1.00  0.00     0.099 C 
ATOM     22  C   UNL A   1      38.045  31.077  28.977  1.00  0.00     0.310 C 
ATOM     23  C   UNL A   1      36.404  29.509  29.848  1.00  0.00     0.267 C 
ATOM     24  N   UNL A   1      36.822  30.306  28.679  1.00  0.00    -0.326 N 
ATOM     25  H   UNL A   1      37.071  29.641  27.947  1.00  0.00     0.348 HD
BRANCH  17  26
ATOM     26  C   UNL A   1      35.559  32.798  32.959  1.00  0.00     0.341 C 
ATOM     27  O   UNL A   1      35.626  32.708  34.184  1.00  0.00    -0.246 OA
BRANCH  26  28
ATOM     28  O   UNL A   1      34.383  33.001  32.295  1.00  0.00    -0.465 OA
ATOM     29  C   UNL A   1      34.114  34.379  32.025  1.00  0.00     0.282 C 
ENDBRANCH  26  28
ENDBRANCH  17  26
BRANCH  24  30
ATOM     30  C   UNL A   1      35.742  31.063  28.012  1.00  0.00     0.299 C 
BRANCH  30  31
ATOM     31  C   UNL A   1      34.540  30.321  27.455  1.00  0.00     0.006 A 
ATOM     32  C   UNL A   1      33.260  30.900  27.472  1.00  0.00     0.009 A 
ATOM     33  C   UNL A   1      34.683  29.049  26.877  1.00  0.00     0.009 A 
ATOM     34  C   UNL A   1      32.176  30.261  26.863  1.00  0.00     0.001 A 
ATOM     35  C   UNL A   1      33.603  28.415  26.257  1.00  0.00     0.001 A 
ATOM     36  C   UNL A   1      32.351  29.024  26.244  1.00  0.00     0.000 A 
ENDBRANCH  30  31
ENDBRANCH  24  30
ENDBRANCH  13  16
ENDBRANCH  10  12
ENDBRANCH   7   9
ENDBRANCH   6   7
ENDBRANCH   5   6
ENDBRANCH   4   5
ENDBRANCH   3   4
ENDBRANCH   2   3
ENDBRANCH   1   2
BRANCH   1  37
ATOM     37  O   UNL A   1      44.868  33.003  26.848  1.00  0.00    -0.377 OA
BRANCH  37  38
ATOM     38  C   UNL A   1      46.100  33.608  26.499  1.00  0.00     0.188 C 
BRANCH  38  39
ATOM     39  C   UNL A   1      46.025  34.960  25.761  1.00  0.00     0.188 C 
BRANCH  39  40
ATOM     40  O   UNL A   1      47.293  35.490  25.395  1.00  0.00    -0.376 OA
BRANCH  40  41
ATOM     41  C   UNL A   1      48.483  35.039  26.016  1.00  0.00     0.202 C 
BRANCH  41  42
ATOM     42  C   UNL A   1      49.652  36.004  25.799  1.00  0.00     0.261 C 
BRANCH  42  43
ATOM     43  O   UNL A   1      49.876  36.845  26.922  1.00  0.00    -0.460 OA
BRANCH  43  44
ATOM     44  C   UNL A   1      50.820  36.396  27.760  1.00  0.00     0.338 C 
ATOM     45  O   UNL A   1      51.691  35.564  27.530  1.00  0.00    -0.246 OA
BRANCH  44  46
ATOM     46  C   UNL A   1      50.628  36.998  29.076  1.00  0.00     0.060 A 
ATOM     47  C   UNL A   1      49.932  36.197  29.979  1.00  0.00     0.016 A 
ATOM     48  C   UNL A   1      50.712  38.392  29.182  1.00  0.00     0.016 A 
ATOM     49  C   UNL A   1      48.974  36.816  30.726  1.00  0.00     0.010 A 
ATOM     50  C   UNL A   1      49.744  39.011  29.922  1.00  0.00     0.010 A 
ATOM     51  C   UNL A   1      48.812  38.194  30.555  1.00  0.00    -0.014 A 
BRANCH  51  52
ATOM     52  C   UNL A   1      47.542  38.734  30.958  1.00  0.00     0.031 A 
ATOM     53  C   UNL A   1      46.746  39.258  29.844  1.00  0.00     0.074 A 
ATOM     54  C   UNL A   1      47.160  38.709  32.246  1.00  0.00     0.049 A 
ATOM     55  N   UNL A   1      46.370  40.473  29.633  1.00  0.00    -0.248 NA
ATOM     56  C   UNL A   1      46.459  38.321  28.749  1.00  0.00     0.031 C 
ATOM     57  C   UNL A   1      47.752  37.964  33.363  1.00  0.00     0.029 A 
ATOM     58  N   UNL A   1      46.069  39.290  32.803  1.00  0.00    -0.354 N 
ATOM     59  C   UNL A   1      45.632  40.420  28.458  1.00  0.00     0.074 A 
ATOM     60  C   UNL A   1      45.861  39.125  27.875  1.00  0.00     0.031 C 
ATOM     61  C   UNL A   1      46.883  37.964  34.399  1.00  0.00     0.029 A 
ATOM     62  C   UNL A   1      45.746  38.804  34.056  1.00  0.00     0.049 A 
ATOM     63  H   UNL A   1      45.550  39.996  32.353  1.00  0.00     0.167 HD
ATOM     64  C   UNL A   1      44.689  41.353  28.175  1.00  0.00     0.037 A 
ATOM     65  C   UNL A   1      44.574  39.007  34.699  1.00  0.00     0.037 A 
ATOM     66  C   UNL A   1      44.906  42.573  28.905  1.00  0.00     0.049 A 
ATOM     67  C   UNL A   1      43.903  40.170  34.058  1.00  0.00     0.074 A 
ATOM     68  C   UNL A   1      45.924  43.506  28.949  1.00  0.00     0.029 A 
ATOM     69  N   UNL A   1      44.131  42.812  30.013  1.00  0.00    -0.354 N 
ATOM     70  N   UNL A   1      44.325  41.402  34.141  1.00  0.00    -0.248 NA
ATOM     71  C   UNL A   1      42.985  39.906  32.959  1.00  0.00     0.031 C 
ATOM     72  C   UNL A   1      45.959  43.964  30.298  1.00  0.00     0.029 A 
ATOM     73  C   UNL A   1      44.956  43.293  30.998  1.00  0.00     0.049 A 
ATOM     74  H   UNL A   1      43.160  42.666  30.087  1.00  0.00     0.167 HD
ATOM     75  C   UNL A   1      44.050  41.964  32.902  1.00  0.00     0.074 A 
ATOM     76  C   UNL A   1      43.132  41.033  32.257  1.00  0.00     0.031 C 
ATOM     77  C   UNL A   1      44.808  42.985  32.403  1.00  0.00     0.037 A 
BRANCH  64  78
ATOM     78  C   UNL A   1      43.394  41.008  27.495  1.00  0.00     0.057 A 
ATOM     79  C   UNL A   1      42.555  40.040  28.063  1.00  0.00     0.134 A 
ATOM     80  C   UNL A   1      43.063  41.397  26.178  1.00  0.00     0.134 A 
ATOM     81  F   UNL A   1      42.789  39.565  29.295  1.00  0.00    -0.206 F 
ATOM     82  C   UNL A   1      41.489  39.471  27.357  1.00  0.00     0.040 A 
ATOM     83  C   UNL A   1      41.967  40.880  25.487  1.00  0.00     0.040 A 
ATOM     84  F   UNL A   1      43.832  42.219  25.453  1.00  0.00    -0.206 F 
ATOM     85  C   UNL A   1      41.192  39.891  26.066  1.00  0.00     0.006 A 
ENDBRANCH  64  78
BRANCH  65  86
ATOM     86  C   UNL A   1      43.870  38.069  35.600  1.00  0.00     0.057 A 
ATOM     87  C   UNL A   1      43.265  36.908  35.108  1.00  0.00     0.134 A 
ATOM     88  C   UNL A   1      43.980  38.165  37.001  1.00  0.00     0.134 A 
ATOM     89  F   UNL A   1      43.159  36.704  33.787  1.00  0.00    -0.206 F 
ATOM     90  C   UNL A   1      42.799  35.895  35.958  1.00  0.00     0.040 A 
ATOM     91  C   UNL A   1      43.509  37.168  37.860  1.00  0.00     0.040 A 
ATOM     92  F   UNL A   1      44.625  39.186  37.581  1.00  0.00    -0.206 F 
ATOM     93  C   UNL A   1      42.925  36.022  37.338  1.00  0.00     0.006 A 
ENDBRANCH  65  86
BRANCH  77  94
ATOM     94  C   UNL A   1      45.777  43.647  33.344  1.00  0.00     0.057 A 
ATOM     95  C   UNL A   1      47.112  43.238  33.485  1.00  0.00     0.134 A 
ATOM     96  C   UNL A   1      45.399  44.816  34.011  1.00  0.00     0.134 A 
ATOM     97  F   UNL A   1      47.591  42.193  32.798  1.00  0.00    -0.206 F 
ATOM     98  C   UNL A   1      48.016  43.935  34.294  1.00  0.00     0.040 A 
ATOM     99  C   UNL A   1      46.300  45.539  34.797  1.00  0.00     0.040 A 
ATOM    100  F   UNL A   1      44.156  45.303  33.870  1.00  0.00    -0.206 F 
ATOM    101  C   UNL A   1      47.612  45.093  34.948  1.00  0.00     0.006 A 
ENDBRANCH  77  94
ENDBRANCH  51  52
ENDBRANCH  44  46
ENDBRANCH  43  44
ENDBRANCH  42  43
ENDBRANCH  41  42
ENDBRANCH  40  41
ENDBRANCH  39  40
ENDBRANCH  38  39
ENDBRANCH  37  38
ENDBRANCH   1  37
TORSDOF 26
ENDMDL
