MODEL 1
REMARK VINA RESULT:      -9.2      0.000      0.000
REMARK SMILES Cc1nsc(N[C@H](C)c2cccs2)c1C(=O)OCCOCCOCCOCCOC(=O)c1ccc(-c2c3nc(c(-c4c(F)cccc4F)c4ccc([nH]4)c(-c4c(F)cccc4F)c4nc(c(-c5c(F)cccc5F)c5ccc2[nH]5)C=C4)C=C3)cc1
REMARK SMILES IDX 22 1 21 2 20 3 19 4 18 5 17 6 15 7 16 8 14 9 1 10 2 11 3 12
REMARK SMILES IDX 4 13 5 14 6 15 7 17 8 18 9 19 10 20 13 21 11 22 12 23 23 24
REMARK SMILES IDX 24 25 25 26 26 27 27 28 28 29 29 30 30 31 31 32 32 33 33 34
REMARK SMILES IDX 85 35 34 36 84 37 35 38 36 39 37 40 78 41 38 42 83 43 77 44
REMARK SMILES IDX 79 45 39 46 82 47 76 48 75 49 40 51 66 52 49 53 65 54 50 55
REMARK SMILES IDX 53 56 64 57 80 58 51 59 52 60 63 62 81 63 54 64 41 65 42 66
REMARK SMILES IDX 47 67 43 68 44 69 46 70 48 71 45 72 67 73 68 74 73 75 69 76
REMARK SMILES IDX 70 77 72 78 74 79 71 80 55 81 56 82 61 83 57 84 58 85 60 86
REMARK SMILES IDX 62 87 59 88
REMARK H PARENT 6 16 79 50 53 61
REMARK Flexibility Score: inf
ROOT
ATOM      1  C   UNL A   1      34.035  31.829  28.175  1.00  0.00     0.188 C 
ENDROOT
BRANCH   1   2
ATOM      2  C   UNL A   1      33.172  30.993  27.202  1.00  0.00     0.188 C 
BRANCH   2   3
ATOM      3  O   UNL A   1      33.847  29.888  26.636  1.00  0.00    -0.376 OA
BRANCH   3   4
ATOM      4  C   UNL A   1      33.153  28.939  25.859  1.00  0.00     0.202 C 
BRANCH   4   5
ATOM      5  C   UNL A   1      33.522  28.727  24.383  1.00  0.00     0.261 C 
BRANCH   5   6
ATOM      6  O   UNL A   1      33.045  27.526  23.766  1.00  0.00    -0.460 OA
BRANCH   6   7
ATOM      7  C   UNL A   1      33.583  27.193  22.565  1.00  0.00     0.343 C 
ATOM      8  O   UNL A   1      34.148  27.997  21.825  1.00  0.00    -0.246 OA
BRANCH   7   9
ATOM      9  C   UNL A   1      33.612  25.749  22.357  1.00  0.00     0.117 A 
ATOM     10  C   UNL A   1      32.273  25.598  20.100  1.00  0.00     0.069 C 
ATOM     11  C   UNL A   1      33.060  25.027  21.234  1.00  0.00     0.068 A 
ATOM     12  N   UNL A   1      33.236  23.707  21.255  1.00  0.00    -0.195 NA
ATOM     13  S   UNL A   1      34.005  23.290  22.651  1.00  0.00    -0.018 S 
ATOM     14  C   UNL A   1      34.040  24.857  23.348  1.00  0.00     0.124 A 
BRANCH  14  15
ATOM     15  N   UNL A   1      34.354  25.196  24.636  1.00  0.00    -0.368 N 
ATOM     16  H   UNL A   1      34.934  25.987  24.726  1.00  0.00     0.162 HD
BRANCH  15  17
ATOM     17  C   UNL A   1      33.968  24.570  25.899  1.00  0.00     0.117 C 
ATOM     18  C   UNL A   1      35.008  23.535  26.326  1.00  0.00     0.037 C 
BRANCH  17  19
ATOM     19  C   UNL A   1      32.540  24.109  26.142  1.00  0.00     0.027 A 
ATOM     20  C   UNL A   1      31.374  24.787  26.449  1.00  0.00     0.017 A 
ATOM     21  S   UNL A   1      32.218  22.406  26.028  1.00  0.00    -0.147 S 
ATOM     22  C   UNL A   1      30.227  23.933  26.510  1.00  0.00     0.012 A 
ATOM     23  C   UNL A   1      30.549  22.615  26.298  1.00  0.00     0.065 A 
ENDBRANCH  17  19
ENDBRANCH  15  17
ENDBRANCH  14  15
ENDBRANCH   7   9
ENDBRANCH   6   7
ENDBRANCH   5   6
ENDBRANCH   4   5
ENDBRANCH   3   4
ENDBRANCH   2   3
ENDBRANCH   1   2
BRANCH   1  24
ATOM     24  O   UNL A   1      34.942  32.790  27.654  1.00  0.00    -0.377 OA
BRANCH  24  25
ATOM     25  C   UNL A   1      35.116  34.030  28.333  1.00  0.00     0.188 C 
BRANCH  25  26
ATOM     26  C   UNL A   1      34.065  34.596  29.339  1.00  0.00     0.188 C 
BRANCH  26  27
ATOM     27  O   UNL A   1      34.497  34.767  30.678  1.00  0.00    -0.376 OA
BRANCH  27  28
ATOM     28  C   UNL A   1      34.056  34.017  31.793  1.00  0.00     0.202 C 
BRANCH  28  29
ATOM     29  C   UNL A   1      34.799  32.760  32.233  1.00  0.00     0.261 C 
BRANCH  29  30
ATOM     30  O   UNL A   1      35.877  32.439  31.386  1.00  0.00    -0.460 OA
BRANCH  30  31
ATOM     31  C   UNL A   1      36.182  31.134  31.374  1.00  0.00     0.338 C 
ATOM     32  O   UNL A   1      36.022  30.326  32.284  1.00  0.00    -0.246 OA
BRANCH  31  33
ATOM     33  C   UNL A   1      36.791  30.826  30.075  1.00  0.00     0.060 A 
ATOM     34  C   UNL A   1      36.721  29.475  29.741  1.00  0.00     0.016 A 
ATOM     35  C   UNL A   1      37.859  31.654  29.706  1.00  0.00     0.016 A 
ATOM     36  C   UNL A   1      37.914  28.856  29.504  1.00  0.00     0.010 A 
ATOM     37  C   UNL A   1      39.057  31.037  29.518  1.00  0.00     0.010 A 
ATOM     38  C   UNL A   1      39.067  29.644  29.550  1.00  0.00    -0.014 A 
BRANCH  38  39
ATOM     39  C   UNL A   1      40.334  28.976  29.603  1.00  0.00     0.031 A 
ATOM     40  C   UNL A   1      40.836  28.894  30.981  1.00  0.00     0.074 A 
ATOM     41  C   UNL A   1      40.876  28.439  28.498  1.00  0.00     0.049 A 
ATOM     42  N   UNL A   1      41.842  29.527  31.480  1.00  0.00    -0.248 NA
ATOM     43  C   UNL A   1      39.972  28.244  31.981  1.00  0.00     0.031 C 
ATOM     44  C   UNL A   1      40.295  28.300  27.159  1.00  0.00     0.029 A 
ATOM     45  N   UNL A   1      42.056  27.776  28.394  1.00  0.00    -0.354 N 
ATOM     46  C   UNL A   1      41.863  29.166  32.819  1.00  0.00     0.074 A 
ATOM     47  C   UNL A   1      40.576  28.602  33.111  1.00  0.00     0.031 C 
ATOM     48  C   UNL A   1      41.015  27.394  26.457  1.00  0.00     0.029 A 
ATOM     49  C   UNL A   1      42.154  26.983  27.256  1.00  0.00     0.049 A 
ATOM     50  H   UNL A   1      42.774  27.851  29.063  1.00  0.00     0.167 HD
ATOM     51  C   UNL A   1      43.038  29.086  33.495  1.00  0.00     0.037 A 
ATOM     52  C   UNL A   1      43.054  25.977  27.112  1.00  0.00     0.037 A 
ATOM     53  C   UNL A   1      44.081  29.797  32.795  1.00  0.00     0.049 A 
ATOM     54  C   UNL A   1      44.147  26.235  28.101  1.00  0.00     0.074 A 
ATOM     55  C   UNL A   1      44.257  31.115  32.420  1.00  0.00     0.029 A 
ATOM     56  N   UNL A   1      44.944  29.059  32.019  1.00  0.00    -0.354 N 
ATOM     57  N   UNL A   1      44.966  27.250  28.013  1.00  0.00    -0.248 NA
ATOM     58  C   UNL A   1      43.986  25.684  29.443  1.00  0.00     0.031 C 
ATOM     59  C   UNL A   1      44.863  31.055  31.131  1.00  0.00     0.029 A 
ATOM     60  C   UNL A   1      45.090  29.712  30.822  1.00  0.00     0.049 A 
ATOM     61  H   UNL A   1      45.378  28.214  32.277  1.00  0.00     0.167 HD
ATOM     62  C   UNL A   1      45.087  27.727  29.313  1.00  0.00     0.074 A 
ATOM     63  C   UNL A   1      44.512  26.684  30.160  1.00  0.00     0.031 C 
ATOM     64  C   UNL A   1      45.353  29.044  29.567  1.00  0.00     0.037 A 
BRANCH  51  65
ATOM     65  C   UNL A   1      43.327  28.044  34.543  1.00  0.00     0.057 A 
ATOM     66  C   UNL A   1      43.637  28.474  35.844  1.00  0.00     0.134 A 
ATOM     67  C   UNL A   1      43.597  26.683  34.283  1.00  0.00     0.134 A 
ATOM     68  F   UNL A   1      43.420  29.744  36.218  1.00  0.00    -0.206 F 
ATOM     69  C   UNL A   1      44.260  27.641  36.777  1.00  0.00     0.040 A 
ATOM     70  C   UNL A   1      44.170  25.829  35.226  1.00  0.00     0.040 A 
ATOM     71  F   UNL A   1      43.422  26.118  33.083  1.00  0.00    -0.206 F 
ATOM     72  C   UNL A   1      44.540  26.318  36.465  1.00  0.00     0.006 A 
ENDBRANCH  51  65
BRANCH  52  73
ATOM     73  C   UNL A   1      42.833  24.667  26.458  1.00  0.00     0.057 A 
ATOM     74  C   UNL A   1      43.582  24.272  25.342  1.00  0.00     0.134 A 
ATOM     75  C   UNL A   1      42.044  23.662  27.051  1.00  0.00     0.134 A 
ATOM     76  F   UNL A   1      44.404  25.140  24.733  1.00  0.00    -0.206 F 
ATOM     77  C   UNL A   1      43.552  22.958  24.849  1.00  0.00     0.040 A 
ATOM     78  C   UNL A   1      41.997  22.352  26.565  1.00  0.00     0.040 A 
ATOM     79  F   UNL A   1      41.352  23.890  28.176  1.00  0.00    -0.206 F 
ATOM     80  C   UNL A   1      42.762  21.992  25.465  1.00  0.00     0.006 A 
ENDBRANCH  52  73
BRANCH  64  81
ATOM     81  C   UNL A   1      45.708  29.934  28.405  1.00  0.00     0.057 A 
ATOM     82  C   UNL A   1      44.761  30.650  27.656  1.00  0.00     0.134 A 
ATOM     83  C   UNL A   1      47.053  30.233  28.171  1.00  0.00     0.134 A 
ATOM     84  F   UNL A   1      43.450  30.513  27.886  1.00  0.00    -0.206 F 
ATOM     85  C   UNL A   1      45.138  31.593  26.694  1.00  0.00     0.040 A 
ATOM     86  C   UNL A   1      47.442  31.197  27.238  1.00  0.00     0.040 A 
ATOM     87  F   UNL A   1      48.013  29.637  28.895  1.00  0.00    -0.206 F 
ATOM     88  C   UNL A   1      46.484  31.875  26.489  1.00  0.00     0.006 A 
ENDBRANCH  64  81
ENDBRANCH  38  39
ENDBRANCH  31  33
ENDBRANCH  30  31
ENDBRANCH  29  30
ENDBRANCH  28  29
ENDBRANCH  27  28
ENDBRANCH  26  27
ENDBRANCH  25  26
ENDBRANCH  24  25
ENDBRANCH   1  24
TORSDOF 23
ENDMDL
MODEL 2
REMARK VINA RESULT:      -9.2      2.069      6.123
REMARK SMILES Cc1nsc(N[C@H](C)c2cccs2)c1C(=O)OCCOCCOCCOCCOC(=O)c1ccc(-c2c3nc(c(-c4c(F)cccc4F)c4ccc([nH]4)c(-c4c(F)cccc4F)c4nc(c(-c5c(F)cccc5F)c5ccc2[nH]5)C=C4)C=C3)cc1
REMARK SMILES IDX 22 1 21 2 20 3 19 4 18 5 17 6 15 7 16 8 14 9 1 10 2 11 3 12
REMARK SMILES IDX 4 13 5 14 6 15 7 17 8 18 9 19 10 20 13 21 11 22 12 23 23 24
REMARK SMILES IDX 24 25 25 26 26 27 27 28 28 29 29 30 30 31 31 32 32 33 33 34
REMARK SMILES IDX 85 35 34 36 84 37 35 38 36 39 37 40 78 41 38 42 83 43 77 44
REMARK SMILES IDX 79 45 39 46 82 47 76 48 75 49 40 51 66 52 49 53 65 54 50 55
REMARK SMILES IDX 53 56 64 57 80 58 51 59 52 60 63 62 81 63 54 64 41 65 42 66
REMARK SMILES IDX 47 67 43 68 44 69 46 70 48 71 45 72 67 73 68 74 73 75 69 76
REMARK SMILES IDX 70 77 72 78 74 79 71 80 55 81 56 82 61 83 57 84 58 85 60 86
REMARK SMILES IDX 62 87 59 88
REMARK H PARENT 6 16 79 50 53 61
REMARK Flexibility Score: inf
ROOT
ATOM      1  C   UNL A   1      34.028  31.149  27.878  1.00  0.00     0.188 C 
ENDROOT
BRANCH   1   2
ATOM      2  C   UNL A   1      33.071  30.268  27.044  1.00  0.00     0.188 C 
BRANCH   2   3
ATOM      3  O   UNL A   1      33.724  29.422  26.120  1.00  0.00    -0.376 OA
BRANCH   3   4
ATOM      4  C   UNL A   1      33.103  29.061  24.907  1.00  0.00     0.202 C 
BRANCH   4   5
ATOM      5  C   UNL A   1      33.861  28.221  23.868  1.00  0.00     0.261 C 
BRANCH   5   6
ATOM      6  O   UNL A   1      33.279  28.131  22.563  1.00  0.00    -0.460 OA
BRANCH   6   7
ATOM      7  C   UNL A   1      32.986  26.887  22.103  1.00  0.00     0.343 C 
ATOM      8  O   UNL A   1      33.653  26.302  21.250  1.00  0.00    -0.246 OA
BRANCH   7   9
ATOM      9  C   UNL A   1      31.936  26.244  22.884  1.00  0.00     0.117 A 
ATOM     10  C   UNL A   1      30.095  28.118  22.784  1.00  0.00     0.069 C 
ATOM     11  C   UNL A   1      30.621  26.772  23.164  1.00  0.00     0.068 A 
ATOM     12  N   UNL A   1      29.823  25.982  23.881  1.00  0.00    -0.195 NA
ATOM     13  S   UNL A   1      30.650  24.619  24.298  1.00  0.00    -0.018 S 
ATOM     14  C   UNL A   1      32.161  25.077  23.625  1.00  0.00     0.124 A 
BRANCH  14  15
ATOM     15  N   UNL A   1      33.377  24.479  23.810  1.00  0.00    -0.368 N 
ATOM     16  H   UNL A   1      34.039  24.659  23.103  1.00  0.00     0.162 HD
BRANCH  15  17
ATOM     17  C   UNL A   1      33.851  23.615  24.889  1.00  0.00     0.117 C 
ATOM     18  C   UNL A   1      35.117  24.191  25.522  1.00  0.00     0.037 C 
BRANCH  17  19
ATOM     19  C   UNL A   1      33.908  22.105  24.720  1.00  0.00     0.027 A 
ATOM     20  C   UNL A   1      34.896  21.170  24.971  1.00  0.00     0.017 A 
ATOM     21  S   UNL A   1      32.493  21.315  24.098  1.00  0.00    -0.147 S 
ATOM     22  C   UNL A   1      34.469  19.825  24.731  1.00  0.00     0.012 A 
ATOM     23  C   UNL A   1      33.182  19.765  24.255  1.00  0.00     0.065 A 
ENDBRANCH  17  19
ENDBRANCH  15  17
ENDBRANCH  14  15
ENDBRANCH   7   9
ENDBRANCH   6   7
ENDBRANCH   5   6
ENDBRANCH   4   5
ENDBRANCH   3   4
ENDBRANCH   2   3
ENDBRANCH   1   2
BRANCH   1  24
ATOM     24  O   UNL A   1      33.769  32.540  27.999  1.00  0.00    -0.377 OA
BRANCH  24  25
ATOM     25  C   UNL A   1      34.456  33.299  28.989  1.00  0.00     0.188 C 
BRANCH  25  26
ATOM     26  C   UNL A   1      35.967  33.672  28.868  1.00  0.00     0.188 C 
BRANCH  26  27
ATOM     27  O   UNL A   1      36.679  33.838  30.082  1.00  0.00    -0.376 OA
BRANCH  27  28
ATOM     28  C   UNL A   1      38.002  33.404  30.332  1.00  0.00     0.202 C 
BRANCH  28  29
ATOM     29  C   UNL A   1      38.270  32.098  31.072  1.00  0.00     0.261 C 
BRANCH  29  30
ATOM     30  O   UNL A   1      38.462  31.008  30.202  1.00  0.00    -0.460 OA
BRANCH  30  31
ATOM     31  C   UNL A   1      37.382  30.227  30.071  1.00  0.00     0.338 C 
ATOM     32  O   UNL A   1      36.269  30.410  30.558  1.00  0.00    -0.246 OA
BRANCH  31  33
ATOM     33  C   UNL A   1      37.762  29.064  29.261  1.00  0.00     0.060 A 
ATOM     34  C   UNL A   1      38.166  27.970  30.024  1.00  0.00     0.016 A 
ATOM     35  C   UNL A   1      38.299  29.364  28.002  1.00  0.00     0.016 A 
ATOM     36  C   UNL A   1      39.423  27.501  29.775  1.00  0.00     0.010 A 
ATOM     37  C   UNL A   1      39.571  28.935  27.778  1.00  0.00     0.010 A 
ATOM     38  C   UNL A   1      40.144  28.111  28.744  1.00  0.00    -0.014 A 
BRANCH  38  39
ATOM     39  C   UNL A   1      41.551  27.846  28.661  1.00  0.00     0.031 A 
ATOM     40  C   UNL A   1      41.814  26.588  27.949  1.00  0.00     0.074 A 
ATOM     41  C   UNL A   1      42.447  28.735  29.117  1.00  0.00     0.049 A 
ATOM     42  N   UNL A   1      42.262  25.489  28.453  1.00  0.00    -0.248 NA
ATOM     43  C   UNL A   1      41.276  26.455  26.584  1.00  0.00     0.031 C 
ATOM     44  C   UNL A   1      42.226  30.095  29.619  1.00  0.00     0.029 A 
ATOM     45  N   UNL A   1      43.800  28.627  29.102  1.00  0.00    -0.354 N 
ATOM     46  C   UNL A   1      42.270  24.589  27.398  1.00  0.00     0.074 A 
ATOM     47  C   UNL A   1      41.434  25.151  26.375  1.00  0.00     0.031 C 
ATOM     48  C   UNL A   1      43.404  30.760  29.628  1.00  0.00     0.029 A 
ATOM     49  C   UNL A   1      44.460  29.843  29.241  1.00  0.00     0.049 A 
ATOM     50  H   UNL A   1      44.269  27.768  29.001  1.00  0.00     0.167 HD
ATOM     51  C   UNL A   1      43.203  23.605  27.337  1.00  0.00     0.037 A 
ATOM     52  C   UNL A   1      45.760  30.039  28.905  1.00  0.00     0.037 A 
ATOM     53  C   UNL A   1      43.816  23.399  28.627  1.00  0.00     0.049 A 
ATOM     54  C   UNL A   1      46.403  28.689  28.873  1.00  0.00     0.074 A 
ATOM     55  C   UNL A   1      43.338  23.024  29.867  1.00  0.00     0.029 A 
ATOM     56  N   UNL A   1      45.039  23.988  28.851  1.00  0.00    -0.354 N 
ATOM     57  N   UNL A   1      46.581  27.956  29.942  1.00  0.00    -0.248 NA
ATOM     58  C   UNL A   1      46.357  27.948  27.617  1.00  0.00     0.031 C 
ATOM     59  C   UNL A   1      44.068  23.814  30.801  1.00  0.00     0.029 A 
ATOM     60  C   UNL A   1      45.000  24.573  30.090  1.00  0.00     0.049 A 
ATOM     61  H   UNL A   1      45.805  23.988  28.231  1.00  0.00     0.167 HD
ATOM     62  C   UNL A   1      46.246  26.665  29.552  1.00  0.00     0.074 A 
ATOM     63  C   UNL A   1      46.177  26.711  28.092  1.00  0.00     0.031 C 
ATOM     64  C   UNL A   1      45.752  25.756  30.446  1.00  0.00     0.037 A 
BRANCH  51  65
ATOM     65  C   UNL A   1      43.832  23.132  26.053  1.00  0.00     0.057 A 
ATOM     66  C   UNL A   1      43.813  21.756  25.767  1.00  0.00     0.134 A 
ATOM     67  C   UNL A   1      44.694  23.899  25.240  1.00  0.00     0.134 A 
ATOM     68  F   UNL A   1      43.030  20.920  26.465  1.00  0.00    -0.206 F 
ATOM     69  C   UNL A   1      44.659  21.179  24.816  1.00  0.00     0.040 A 
ATOM     70  C   UNL A   1      45.503  23.339  24.251  1.00  0.00     0.040 A 
ATOM     71  F   UNL A   1      44.885  25.212  25.410  1.00  0.00    -0.206 F 
ATOM     72  C   UNL A   1      45.517  21.969  24.064  1.00  0.00     0.006 A 
ENDBRANCH  51  65
BRANCH  52  73
ATOM     73  C   UNL A   1      46.348  31.242  28.270  1.00  0.00     0.057 A 
ATOM     74  C   UNL A   1      47.569  31.774  28.705  1.00  0.00     0.134 A 
ATOM     75  C   UNL A   1      45.848  31.767  27.062  1.00  0.00     0.134 A 
ATOM     76  F   UNL A   1      48.156  31.309  29.817  1.00  0.00    -0.206 F 
ATOM     77  C   UNL A   1      48.252  32.764  27.981  1.00  0.00     0.040 A 
ATOM     78  C   UNL A   1      46.513  32.759  26.336  1.00  0.00     0.040 A 
ATOM     79  F   UNL A   1      44.736  31.277  26.496  1.00  0.00    -0.206 F 
ATOM     80  C   UNL A   1      47.727  33.255  26.789  1.00  0.00     0.006 A 
ENDBRANCH  52  73
BRANCH  64  81
ATOM     81  C   UNL A   1      45.760  26.121  31.907  1.00  0.00     0.057 A 
ATOM     82  C   UNL A   1      44.651  26.653  32.583  1.00  0.00     0.134 A 
ATOM     83  C   UNL A   1      46.849  25.732  32.692  1.00  0.00     0.134 A 
ATOM     84  F   UNL A   1      43.521  26.951  31.930  1.00  0.00    -0.206 F 
ATOM     85  C   UNL A   1      44.641  26.823  33.971  1.00  0.00     0.040 A 
ATOM     86  C   UNL A   1      46.839  25.864  34.083  1.00  0.00     0.040 A 
ATOM     87  F   UNL A   1      47.919  25.155  32.124  1.00  0.00    -0.206 F 
ATOM     88  C   UNL A   1      45.737  26.419  34.726  1.00  0.00     0.006 A 
ENDBRANCH  64  81
ENDBRANCH  38  39
ENDBRANCH  31  33
ENDBRANCH  30  31
ENDBRANCH  29  30
ENDBRANCH  28  29
ENDBRANCH  27  28
ENDBRANCH  26  27
ENDBRANCH  25  26
ENDBRANCH  24  25
ENDBRANCH   1  24
TORSDOF 23
ENDMDL
MODEL 3
REMARK VINA RESULT:      -9.1      3.909      8.347
REMARK SMILES Cc1nsc(N[C@H](C)c2cccs2)c1C(=O)OCCOCCOCCOCCOC(=O)c1ccc(-c2c3nc(c(-c4c(F)cccc4F)c4ccc([nH]4)c(-c4c(F)cccc4F)c4nc(c(-c5c(F)cccc5F)c5ccc2[nH]5)C=C4)C=C3)cc1
REMARK SMILES IDX 22 1 21 2 20 3 19 4 18 5 17 6 15 7 16 8 14 9 1 10 2 11 3 12
REMARK SMILES IDX 4 13 5 14 6 15 7 17 8 18 9 19 10 20 13 21 11 22 12 23 23 24
REMARK SMILES IDX 24 25 25 26 26 27 27 28 28 29 29 30 30 31 31 32 32 33 33 34
REMARK SMILES IDX 85 35 34 36 84 37 35 38 36 39 37 40 78 41 38 42 83 43 77 44
REMARK SMILES IDX 79 45 39 46 82 47 76 48 75 49 40 51 66 52 49 53 65 54 50 55
REMARK SMILES IDX 53 56 64 57 80 58 51 59 52 60 63 62 81 63 54 64 41 65 42 66
REMARK SMILES IDX 47 67 43 68 44 69 46 70 48 71 45 72 67 73 68 74 73 75 69 76
REMARK SMILES IDX 70 77 72 78 74 79 71 80 55 81 56 82 61 83 57 84 58 85 60 86
REMARK SMILES IDX 62 87 59 88
REMARK H PARENT 6 16 79 50 53 61
REMARK Flexibility Score: inf
ROOT
ATOM      1  C   UNL A   1      40.447  20.070  26.501  1.00  0.00     0.188 C 
ENDROOT
BRANCH   1   2
ATOM      2  C   UNL A   1      39.764  21.236  25.752  1.00  0.00     0.188 C 
BRANCH   2   3
ATOM      3  O   UNL A   1      38.772  21.904  26.505  1.00  0.00    -0.376 OA
BRANCH   3   4
ATOM      4  C   UNL A   1      38.675  23.309  26.488  1.00  0.00     0.202 C 
BRANCH   4   5
ATOM      5  C   UNL A   1      37.362  23.991  26.073  1.00  0.00     0.261 C 
BRANCH   5   6
ATOM      6  O   UNL A   1      36.421  23.189  25.351  1.00  0.00    -0.460 OA
BRANCH   6   7
ATOM      7  C   UNL A   1      35.115  23.301  25.706  1.00  0.00     0.343 C 
ATOM      8  O   UNL A   1      34.709  23.172  26.860  1.00  0.00    -0.246 OA
BRANCH   7   9
ATOM      9  C   UNL A   1      34.289  23.804  24.614  1.00  0.00     0.117 A 
ATOM     10  C   UNL A   1      34.054  26.315  25.354  1.00  0.00     0.069 C 
ATOM     11  C   UNL A   1      33.839  25.163  24.427  1.00  0.00     0.068 A 
ATOM     12  N   UNL A   1      33.113  25.385  23.332  1.00  0.00    -0.195 NA
ATOM     13  S   UNL A   1      32.893  23.959  22.536  1.00  0.00    -0.018 S 
ATOM     14  C   UNL A   1      33.672  22.954  23.688  1.00  0.00     0.124 A 
BRANCH  14  15
ATOM     15  N   UNL A   1      33.657  21.587  23.755  1.00  0.00    -0.368 N 
ATOM     16  H   UNL A   1      34.512  21.153  23.530  1.00  0.00     0.162 HD
BRANCH  15  17
ATOM     17  C   UNL A   1      32.575  20.670  24.108  1.00  0.00     0.117 C 
ATOM     18  C   UNL A   1      31.859  21.145  25.371  1.00  0.00     0.037 C 
BRANCH  17  19
ATOM     19  C   UNL A   1      32.779  19.164  24.075  1.00  0.00     0.027 A 
ATOM     20  C   UNL A   1      32.906  18.257  23.038  1.00  0.00     0.017 A 
ATOM     21  S   UNL A   1      32.891  18.338  25.598  1.00  0.00    -0.147 S 
ATOM     22  C   UNL A   1      33.169  16.924  23.488  1.00  0.00     0.012 A 
ATOM     23  C   UNL A   1      33.187  16.832  24.859  1.00  0.00     0.065 A 
ENDBRANCH  17  19
ENDBRANCH  15  17
ENDBRANCH  14  15
ENDBRANCH   7   9
ENDBRANCH   6   7
ENDBRANCH   5   6
ENDBRANCH   4   5
ENDBRANCH   3   4
ENDBRANCH   2   3
ENDBRANCH   1   2
BRANCH   1  24
ATOM     24  O   UNL A   1      41.376  20.353  27.537  1.00  0.00    -0.377 OA
BRANCH  24  25
ATOM     25  C   UNL A   1      42.268  21.455  27.397  1.00  0.00     0.188 C 
BRANCH  25  26
ATOM     26  C   UNL A   1      43.418  21.481  26.343  1.00  0.00     0.188 C 
BRANCH  26  27
ATOM     27  O   UNL A   1      43.104  22.026  25.074  1.00  0.00    -0.376 OA
BRANCH  27  28
ATOM     28  C   UNL A   1      43.417  23.332  24.632  1.00  0.00     0.202 C 
BRANCH  28  29
ATOM     29  C   UNL A   1      43.409  24.509  25.602  1.00  0.00     0.261 C 
BRANCH  29  30
ATOM     30  O   UNL A   1      42.238  25.285  25.509  1.00  0.00    -0.460 OA
BRANCH  30  31
ATOM     31  C   UNL A   1      42.427  26.582  25.786  1.00  0.00     0.338 C 
ATOM     32  O   UNL A   1      43.492  27.194  25.785  1.00  0.00    -0.246 OA
BRANCH  31  33
ATOM     33  C   UNL A   1      41.126  27.162  26.138  1.00  0.00     0.060 A 
ATOM     34  C   UNL A   1      41.067  28.540  25.941  1.00  0.00     0.016 A 
ATOM     35  C   UNL A   1      40.437  26.501  27.163  1.00  0.00     0.016 A 
ATOM     36  C   UNL A   1      40.756  29.287  27.041  1.00  0.00     0.010 A 
ATOM     37  C   UNL A   1      40.172  27.238  28.276  1.00  0.00     0.010 A 
ATOM     38  C   UNL A   1      40.462  28.600  28.222  1.00  0.00    -0.014 A 
BRANCH  38  39
ATOM     39  C   UNL A   1      40.428  29.350  29.443  1.00  0.00     0.031 A 
ATOM     40  C   UNL A   1      39.216  30.177  29.526  1.00  0.00     0.074 A 
ATOM     41  C   UNL A   1      41.374  29.183  30.381  1.00  0.00     0.049 A 
ATOM     42  N   UNL A   1      39.148  31.462  29.455  1.00  0.00    -0.248 NA
ATOM     43  C   UNL A   1      37.917  29.493  29.411  1.00  0.00     0.031 C 
ATOM     44  C   UNL A   1      42.461  28.200  30.430  1.00  0.00     0.029 A 
ATOM     45  N   UNL A   1      41.470  29.811  31.579  1.00  0.00    -0.354 N 
ATOM     46  C   UNL A   1      37.793  31.752  29.515  1.00  0.00     0.074 A 
ATOM     47  C   UNL A   1      37.100  30.528  29.232  1.00  0.00     0.031 C 
ATOM     48  C   UNL A   1      42.947  28.141  31.692  1.00  0.00     0.029 A 
ATOM     49  C   UNL A   1      42.281  29.150  32.495  1.00  0.00     0.049 A 
ATOM     50  H   UNL A   1      41.008  30.656  31.781  1.00  0.00     0.167 HD
ATOM     51  C   UNL A   1      37.358  32.903  30.088  1.00  0.00     0.037 A 
ATOM     52  C   UNL A   1      42.250  29.376  33.833  1.00  0.00     0.037 A 
ATOM     53  C   UNL A   1      38.432  33.862  30.193  1.00  0.00     0.049 A 
ATOM     54  C   UNL A   1      41.621  30.719  34.027  1.00  0.00     0.074 A 
ATOM     55  C   UNL A   1      39.246  34.495  29.274  1.00  0.00     0.029 A 
ATOM     56  N   UNL A   1      39.068  33.973  31.408  1.00  0.00    -0.354 N 
ATOM     57  N   UNL A   1      42.186  31.836  33.649  1.00  0.00    -0.248 NA
ATOM     58  C   UNL A   1      40.167  30.773  34.145  1.00  0.00     0.031 C 
ATOM     59  C   UNL A   1      40.531  34.542  29.888  1.00  0.00     0.029 A 
ATOM     60  C   UNL A   1      40.418  34.004  31.171  1.00  0.00     0.049 A 
ATOM     61  H   UNL A   1      38.631  34.023  32.289  1.00  0.00     0.167 HD
ATOM     62  C   UNL A   1      41.162  32.584  33.080  1.00  0.00     0.074 A 
ATOM     63  C   UNL A   1      39.928  31.905  33.473  1.00  0.00     0.031 C 
ATOM     64  C   UNL A   1      41.409  33.498  32.094  1.00  0.00     0.037 A 
BRANCH  51  65
ATOM     65  C   UNL A   1      36.097  33.002  30.907  1.00  0.00     0.057 A 
ATOM     66  C   UNL A   1      35.129  33.947  30.529  1.00  0.00     0.134 A 
ATOM     67  C   UNL A   1      35.915  32.437  32.187  1.00  0.00     0.134 A 
ATOM     68  F   UNL A   1      35.187  34.551  29.333  1.00  0.00    -0.206 F 
ATOM     69  C   UNL A   1      34.118  34.367  31.398  1.00  0.00     0.040 A 
ATOM     70  C   UNL A   1      34.876  32.811  33.041  1.00  0.00     0.040 A 
ATOM     71  F   UNL A   1      36.773  31.568  32.733  1.00  0.00    -0.206 F 
ATOM     72  C   UNL A   1      33.997  33.809  32.663  1.00  0.00     0.006 A 
ENDBRANCH  51  65
BRANCH  52  73
ATOM     73  C   UNL A   1      42.384  28.371  34.913  1.00  0.00     0.057 A 
ATOM     74  C   UNL A   1      41.630  27.190  34.910  1.00  0.00     0.134 A 
ATOM     75  C   UNL A   1      43.429  28.426  35.856  1.00  0.00     0.134 A 
ATOM     76  F   UNL A   1      40.644  27.017  34.018  1.00  0.00    -0.206 F 
ATOM     77  C   UNL A   1      41.901  26.129  35.788  1.00  0.00     0.040 A 
ATOM     78  C   UNL A   1      43.704  27.381  36.742  1.00  0.00     0.040 A 
ATOM     79  F   UNL A   1      44.278  29.463  35.898  1.00  0.00    -0.206 F 
ATOM     80  C   UNL A   1      42.945  26.220  36.703  1.00  0.00     0.006 A 
ENDBRANCH  52  73
BRANCH  64  81
ATOM     81  C   UNL A   1      42.843  33.820  31.768  1.00  0.00     0.057 A 
ATOM     82  C   UNL A   1      43.599  33.126  30.809  1.00  0.00     0.134 A 
ATOM     83  C   UNL A   1      43.406  34.989  32.287  1.00  0.00     0.134 A 
ATOM     84  F   UNL A   1      43.099  32.058  30.176  1.00  0.00    -0.206 F 
ATOM     85  C   UNL A   1      44.869  33.557  30.414  1.00  0.00     0.040 A 
ATOM     86  C   UNL A   1      44.659  35.450  31.876  1.00  0.00     0.040 A 
ATOM     87  F   UNL A   1      42.716  35.741  33.159  1.00  0.00    -0.206 F 
ATOM     88  C   UNL A   1      45.399  34.729  30.943  1.00  0.00     0.006 A 
ENDBRANCH  64  81
ENDBRANCH  38  39
ENDBRANCH  31  33
ENDBRANCH  30  31
ENDBRANCH  29  30
ENDBRANCH  28  29
ENDBRANCH  27  28
ENDBRANCH  26  27
ENDBRANCH  25  26
ENDBRANCH  24  25
ENDBRANCH   1  24
TORSDOF 23
ENDMDL
