MODEL 1
REMARK VINA RESULT:     -10.7      0.000      0.000
REMARK SMILES Cc1c(Cl)cccc1NC(=O)C[C@](C)(C(=O)OCCOCCOCCOCCOC(=O)c1ccc(-c2c3nc(c(-c4c(F)cccc4F)c4ccc([nH]4)c(-c4c(F)cccc4F)c4nc(c(-c5c(F)cccc5F)c5ccc2[nH]5)C=C4)C=C3)cc1)c1ccccc1
REMARK SMILES IDX 22 1 21 2 20 3 19 4 18 5 17 6 15 7 16 8 13 9 14 10 12 11
REMARK SMILES IDX 10 12 9 13 11 15 8 16 1 17 2 18 3 19 4 20 5 21 7 22 6 23
REMARK SMILES IDX 86 24 87 25 91 26 88 27 90 28 89 29 23 30 24 31 25 32 26 33
REMARK SMILES IDX 27 34 28 35 29 36 30 37 31 38 32 39 33 40 85 41 34 42 84 43
REMARK SMILES IDX 35 44 36 45 37 46 78 47 38 48 83 49 77 50 79 51 39 52 82 53
REMARK SMILES IDX 76 54 75 55 40 57 66 58 49 59 65 60 50 61 53 62 64 63 80 64
REMARK SMILES IDX 51 65 52 66 63 68 81 69 54 70 41 71 42 72 47 73 43 74 44 75
REMARK SMILES IDX 46 76 48 77 45 78 67 79 68 80 73 81 69 82 70 83 72 84 74 85
REMARK SMILES IDX 71 86 55 87 56 88 61 89 57 90 58 91 60 92 62 93 59 94
REMARK H PARENT 9 14 79 56 53 67
REMARK Flexibility Score: inf
ROOT
ATOM      1  C   UNL A   1      39.982  22.229  26.975  1.00  0.00     0.188 C 
ENDROOT
BRANCH   1   2
ATOM      2  C   UNL A   1      38.775  22.090  26.040  1.00  0.00     0.188 C 
BRANCH   2   3
ATOM      3  O   UNL A   1      38.082  23.303  25.832  1.00  0.00    -0.376 OA
BRANCH   3   4
ATOM      4  C   UNL A   1      36.677  23.324  25.999  1.00  0.00     0.202 C 
BRANCH   4   5
ATOM      5  C   UNL A   1      35.848  22.042  26.178  1.00  0.00     0.261 C 
BRANCH   5   6
ATOM      6  O   UNL A   1      34.486  22.065  25.733  1.00  0.00    -0.463 OA
BRANCH   6   7
ATOM      7  C   UNL A   1      34.208  22.688  24.568  1.00  0.00     0.316 C 
ATOM      8  O   UNL A   1      34.852  22.494  23.542  1.00  0.00    -0.251 OA
BRANCH   7   9
ATOM      9  C   UNL A   1      33.004  23.673  24.659  1.00  0.00     0.099 C 
ATOM     10  C   UNL A   1      31.624  23.112  24.192  1.00  0.00     0.029 C 
BRANCH   9  11
ATOM     11  C   UNL A   1      32.847  24.034  26.172  1.00  0.00     0.123 C 
BRANCH  11  12
ATOM     12  C   UNL A   1      31.444  24.270  26.742  1.00  0.00     0.225 C 
ATOM     13  N   UNL A   1      30.686  25.390  26.576  1.00  0.00    -0.326 N 
ATOM     14  H   UNL A   1      29.764  25.262  26.897  1.00  0.00     0.169 HD
ATOM     15  O   UNL A   1      30.919  23.362  27.404  1.00  0.00    -0.275 OA
BRANCH  13  16
ATOM     16  C   UNL A   1      30.888  26.686  26.058  1.00  0.00     0.045 A 
ATOM     17  C   UNL A   1      29.463  26.110  23.983  1.00  0.00     0.048 C 
ATOM     18  C   UNL A   1      30.335  27.039  24.797  1.00  0.00    -0.009 A 
ATOM     19  C   UNL A   1      30.651  28.306  24.247  1.00  0.00     0.046 A 
ATOM     20  Cl  UNL A   1      30.099  28.781  22.674  1.00  0.00    -0.084 Cl
ATOM     21  C   UNL A   1      31.457  29.212  24.932  1.00  0.00     0.021 A 
ATOM     22  C   UNL A   1      31.610  27.647  26.766  1.00  0.00     0.026 A 
ATOM     23  C   UNL A   1      31.913  28.891  26.203  1.00  0.00     0.004 A 
ENDBRANCH  13  16
ENDBRANCH  11  12
ENDBRANCH   9  11
BRANCH   9  24
ATOM     24  C   UNL A   1      33.250  24.913  23.727  1.00  0.00    -0.030 A 
ATOM     25  C   UNL A   1      33.986  26.026  24.183  1.00  0.00     0.005 A 
ATOM     26  C   UNL A   1      32.619  25.046  22.472  1.00  0.00     0.005 A 
ATOM     27  C   UNL A   1      34.028  27.222  23.450  1.00  0.00     0.000 A 
ATOM     28  C   UNL A   1      32.665  26.237  21.740  1.00  0.00     0.000 A 
ATOM     29  C   UNL A   1      33.359  27.332  22.234  1.00  0.00     0.000 A 
ENDBRANCH   9  24
ENDBRANCH   7   9
ENDBRANCH   6   7
ENDBRANCH   5   6
ENDBRANCH   4   5
ENDBRANCH   3   4
ENDBRANCH   2   3
ENDBRANCH   1   2
BRANCH   1  30
ATOM     30  O   UNL A   1      40.595  21.038  27.441  1.00  0.00    -0.377 OA
BRANCH  30  31
ATOM     31  C   UNL A   1      40.879  19.985  26.524  1.00  0.00     0.188 C 
BRANCH  31  32
ATOM     32  C   UNL A   1      42.286  19.778  25.921  1.00  0.00     0.188 C 
BRANCH  32  33
ATOM     33  O   UNL A   1      43.208  20.833  26.134  1.00  0.00    -0.376 OA
BRANCH  33  34
ATOM     34  C   UNL A   1      44.192  21.088  25.146  1.00  0.00     0.202 C 
BRANCH  34  35
ATOM     35  C   UNL A   1      44.218  22.484  24.499  1.00  0.00     0.261 C 
BRANCH  35  36
ATOM     36  O   UNL A   1      43.513  23.516  25.206  1.00  0.00    -0.460 OA
BRANCH  36  37
ATOM     37  C   UNL A   1      44.136  24.702  25.325  1.00  0.00     0.338 C 
ATOM     38  O   UNL A   1      45.128  25.085  24.716  1.00  0.00    -0.246 OA
BRANCH  37  39
ATOM     39  C   UNL A   1      43.335  25.564  26.207  1.00  0.00     0.060 A 
ATOM     40  C   UNL A   1      43.633  26.931  26.268  1.00  0.00     0.016 A 
ATOM     41  C   UNL A   1      42.338  25.014  27.015  1.00  0.00     0.016 A 
ATOM     42  C   UNL A   1      42.985  27.742  27.194  1.00  0.00     0.010 A 
ATOM     43  C   UNL A   1      41.702  25.825  27.958  1.00  0.00     0.010 A 
ATOM     44  C   UNL A   1      42.066  27.177  28.088  1.00  0.00    -0.014 A 
BRANCH  44  45
ATOM     45  C   UNL A   1      41.683  27.946  29.295  1.00  0.00     0.031 A 
ATOM     46  C   UNL A   1      40.448  28.802  29.231  1.00  0.00     0.074 A 
ATOM     47  C   UNL A   1      42.370  27.833  30.443  1.00  0.00     0.049 A 
ATOM     48  N   UNL A   1      39.905  29.551  30.156  1.00  0.00    -0.248 NA
ATOM     49  C   UNL A   1      39.726  28.814  27.947  1.00  0.00     0.031 C 
ATOM     50  C   UNL A   1      43.547  26.995  30.639  1.00  0.00     0.029 A 
ATOM     51  N   UNL A   1      42.166  28.423  31.664  1.00  0.00    -0.354 N 
ATOM     52  C   UNL A   1      38.785  30.123  29.566  1.00  0.00     0.074 A 
ATOM     53  C   UNL A   1      38.747  29.671  28.195  1.00  0.00     0.031 C 
ATOM     54  C   UNL A   1      43.964  27.118  31.910  1.00  0.00     0.029 A 
ATOM     55  C   UNL A   1      43.101  28.071  32.606  1.00  0.00     0.049 A 
ATOM     56  H   UNL A   1      41.422  29.040  31.847  1.00  0.00     0.167 HD
ATOM     57  C   UNL A   1      37.863  30.943  30.123  1.00  0.00     0.037 A 
ATOM     58  C   UNL A   1      43.247  28.486  33.879  1.00  0.00     0.037 A 
ATOM     59  C   UNL A   1      37.907  31.395  31.489  1.00  0.00     0.049 A 
ATOM     60  C   UNL A   1      42.254  29.464  34.453  1.00  0.00     0.074 A 
ATOM     61  C   UNL A   1      37.022  32.225  32.152  1.00  0.00     0.029 A 
ATOM     62  N   UNL A   1      38.898  31.057  32.400  1.00  0.00    -0.354 N 
ATOM     63  N   UNL A   1      41.191  29.990  33.894  1.00  0.00    -0.248 NA
ATOM     64  C   UNL A   1      42.481  29.902  35.837  1.00  0.00     0.031 C 
ATOM     65  C   UNL A   1      37.508  32.438  33.445  1.00  0.00     0.029 A 
ATOM     66  C   UNL A   1      38.659  31.685  33.611  1.00  0.00     0.049 A 
ATOM     67  H   UNL A   1      39.659  30.460  32.213  1.00  0.00     0.167 HD
ATOM     68  C   UNL A   1      40.602  30.789  34.868  1.00  0.00     0.074 A 
ATOM     69  C   UNL A   1      41.423  30.670  36.054  1.00  0.00     0.031 C 
ATOM     70  C   UNL A   1      39.480  31.548  34.788  1.00  0.00     0.037 A 
BRANCH  57  71
ATOM     71  C   UNL A   1      36.749  31.428  29.240  1.00  0.00     0.057 A 
ATOM     72  C   UNL A   1      35.671  30.608  28.881  1.00  0.00     0.134 A 
ATOM     73  C   UNL A   1      36.751  32.742  28.751  1.00  0.00     0.134 A 
ATOM     74  F   UNL A   1      35.617  29.335  29.300  1.00  0.00    -0.206 F 
ATOM     75  C   UNL A   1      34.652  31.067  28.045  1.00  0.00     0.040 A 
ATOM     76  C   UNL A   1      35.721  33.220  27.940  1.00  0.00     0.040 A 
ATOM     77  F   UNL A   1      37.751  33.582  29.057  1.00  0.00    -0.206 F 
ATOM     78  C   UNL A   1      34.671  32.379  27.578  1.00  0.00     0.006 A 
ENDBRANCH  57  71
BRANCH  58  79
ATOM     79  C   UNL A   1      44.376  27.982  34.703  1.00  0.00     0.057 A 
ATOM     80  C   UNL A   1      44.242  26.841  35.503  1.00  0.00     0.134 A 
ATOM     81  C   UNL A   1      45.611  28.643  34.727  1.00  0.00     0.134 A 
ATOM     82  F   UNL A   1      43.077  26.177  35.541  1.00  0.00    -0.206 F 
ATOM     83  C   UNL A   1      45.285  26.388  36.312  1.00  0.00     0.040 A 
ATOM     84  C   UNL A   1      46.671  28.185  35.510  1.00  0.00     0.040 A 
ATOM     85  F   UNL A   1      45.805  29.743  33.984  1.00  0.00    -0.206 F 
ATOM     86  C   UNL A   1      46.507  27.059  36.312  1.00  0.00     0.006 A 
ENDBRANCH  58  79
BRANCH  70  87
ATOM     87  C   UNL A   1      39.040  32.265  36.033  1.00  0.00     0.057 A 
ATOM     88  C   UNL A   1      39.425  33.582  36.312  1.00  0.00     0.134 A 
ATOM     89  C   UNL A   1      38.185  31.637  36.948  1.00  0.00     0.134 A 
ATOM     90  F   UNL A   1      40.251  34.241  35.483  1.00  0.00    -0.206 F 
ATOM     91  C   UNL A   1      38.999  34.239  37.468  1.00  0.00     0.040 A 
ATOM     92  C   UNL A   1      37.726  32.292  38.091  1.00  0.00     0.040 A 
ATOM     93  F   UNL A   1      37.767  30.379  36.738  1.00  0.00    -0.206 F 
ATOM     94  C   UNL A   1      38.140  33.595  38.359  1.00  0.00     0.006 A 
ENDBRANCH  70  87
ENDBRANCH  44  45
ENDBRANCH  37  39
ENDBRANCH  36  37
ENDBRANCH  35  36
ENDBRANCH  34  35
ENDBRANCH  33  34
ENDBRANCH  32  33
ENDBRANCH  31  32
ENDBRANCH  30  31
ENDBRANCH   1  30
TORSDOF 24
ENDMDL
MODEL 2
REMARK VINA RESULT:     -10.7      0.900      6.052
REMARK SMILES Cc1c(Cl)cccc1NC(=O)C[C@](C)(C(=O)OCCOCCOCCOCCOC(=O)c1ccc(-c2c3nc(c(-c4c(F)cccc4F)c4ccc([nH]4)c(-c4c(F)cccc4F)c4nc(c(-c5c(F)cccc5F)c5ccc2[nH]5)C=C4)C=C3)cc1)c1ccccc1
REMARK SMILES IDX 22 1 21 2 20 3 19 4 18 5 17 6 15 7 16 8 13 9 14 10 12 11
REMARK SMILES IDX 10 12 9 13 11 15 8 16 1 17 2 18 3 19 4 20 5 21 7 22 6 23
REMARK SMILES IDX 86 24 87 25 91 26 88 27 90 28 89 29 23 30 24 31 25 32 26 33
REMARK SMILES IDX 27 34 28 35 29 36 30 37 31 38 32 39 33 40 85 41 34 42 84 43
REMARK SMILES IDX 35 44 36 45 37 46 78 47 38 48 83 49 77 50 79 51 39 52 82 53
REMARK SMILES IDX 76 54 75 55 40 57 66 58 49 59 65 60 50 61 53 62 64 63 80 64
REMARK SMILES IDX 51 65 52 66 63 68 81 69 54 70 41 71 42 72 47 73 43 74 44 75
REMARK SMILES IDX 46 76 48 77 45 78 67 79 68 80 73 81 69 82 70 83 72 84 74 85
REMARK SMILES IDX 71 86 55 87 56 88 61 89 57 90 58 91 60 92 62 93 59 94
REMARK H PARENT 9 14 79 56 53 67
REMARK Flexibility Score: inf
ROOT
ATOM      1  C   UNL A   1      39.083  22.819  26.530  1.00  0.00     0.188 C 
ENDROOT
BRANCH   1   2
ATOM      2  C   UNL A   1      38.250  21.835  25.701  1.00  0.00     0.188 C 
BRANCH   2   3
ATOM      3  O   UNL A   1      37.048  22.390  25.210  1.00  0.00    -0.376 OA
BRANCH   3   4
ATOM      4  C   UNL A   1      35.881  21.588  25.195  1.00  0.00     0.202 C 
BRANCH   4   5
ATOM      5  C   UNL A   1      34.962  21.447  26.419  1.00  0.00     0.261 C 
BRANCH   5   6
ATOM      6  O   UNL A   1      33.586  21.819  26.262  1.00  0.00    -0.463 OA
BRANCH   6   7
ATOM      7  C   UNL A   1      33.310  23.062  25.817  1.00  0.00     0.316 C 
ATOM      8  O   UNL A   1      33.720  24.074  26.378  1.00  0.00    -0.251 OA
BRANCH   7   9
ATOM      9  C   UNL A   1      32.421  23.084  24.538  1.00  0.00     0.099 C 
ATOM     10  C   UNL A   1      32.557  21.852  23.588  1.00  0.00     0.029 C 
BRANCH   9  11
ATOM     11  C   UNL A   1      30.938  23.098  25.036  1.00  0.00     0.123 C 
BRANCH  11  12
ATOM     12  C   UNL A   1      30.580  23.901  26.291  1.00  0.00     0.225 C 
ATOM     13  N   UNL A   1      30.288  25.231  26.340  1.00  0.00    -0.326 N 
ATOM     14  H   UNL A   1      29.939  25.500  27.220  1.00  0.00     0.169 HD
ATOM     15  O   UNL A   1      30.523  23.302  27.375  1.00  0.00    -0.275 OA
BRANCH  13  16
ATOM     16  C   UNL A   1      30.359  26.320  25.446  1.00  0.00     0.045 A 
ATOM     17  C   UNL A   1      32.370  27.290  26.742  1.00  0.00     0.048 C 
ATOM     18  C   UNL A   1      31.333  27.336  25.644  1.00  0.00    -0.009 A 
ATOM     19  C   UNL A   1      31.306  28.475  24.801  1.00  0.00     0.046 A 
ATOM     20  Cl  UNL A   1      32.394  29.805  25.032  1.00  0.00    -0.084 Cl
ATOM     21  C   UNL A   1      30.374  28.595  23.774  1.00  0.00     0.021 A 
ATOM     22  C   UNL A   1      29.501  26.418  24.350  1.00  0.00     0.026 A 
ATOM     23  C   UNL A   1      29.490  27.554  23.533  1.00  0.00     0.004 A 
ENDBRANCH  13  16
ENDBRANCH  11  12
ENDBRANCH   9  11
BRANCH   9  24
ATOM     24  C   UNL A   1      32.803  24.310  23.634  1.00  0.00    -0.030 A 
ATOM     25  C   UNL A   1      33.833  25.196  24.014  1.00  0.00     0.005 A 
ATOM     26  C   UNL A   1      32.042  24.676  22.504  1.00  0.00     0.005 A 
ATOM     27  C   UNL A   1      34.038  26.408  23.336  1.00  0.00     0.000 A 
ATOM     28  C   UNL A   1      32.250  25.882  21.827  1.00  0.00     0.000 A 
ATOM     29  C   UNL A   1      33.240  26.756  22.250  1.00  0.00     0.000 A 
ENDBRANCH   9  24
ENDBRANCH   7   9
ENDBRANCH   6   7
ENDBRANCH   5   6
ENDBRANCH   4   5
ENDBRANCH   3   4
ENDBRANCH   2   3
ENDBRANCH   1   2
BRANCH   1  30
ATOM     30  O   UNL A   1      40.193  22.303  27.247  1.00  0.00    -0.377 OA
BRANCH  30  31
ATOM     31  C   UNL A   1      40.676  20.995  26.954  1.00  0.00     0.188 C 
BRANCH  31  32
ATOM     32  C   UNL A   1      41.940  20.758  26.098  1.00  0.00     0.188 C 
BRANCH  32  33
ATOM     33  O   UNL A   1      43.100  21.462  26.506  1.00  0.00    -0.376 OA
BRANCH  33  34
ATOM     34  C   UNL A   1      44.256  21.402  25.687  1.00  0.00     0.202 C 
BRANCH  34  35
ATOM     35  C   UNL A   1      44.280  22.265  24.413  1.00  0.00     0.261 C 
BRANCH  35  36
ATOM     36  O   UNL A   1      43.608  23.531  24.500  1.00  0.00    -0.460 OA
BRANCH  36  37
ATOM     37  C   UNL A   1      44.326  24.566  24.971  1.00  0.00     0.338 C 
ATOM     38  O   UNL A   1      45.479  24.864  24.683  1.00  0.00    -0.246 OA
BRANCH  37  39
ATOM     39  C   UNL A   1      43.444  25.411  25.790  1.00  0.00     0.060 A 
ATOM     40  C   UNL A   1      43.736  26.776  25.909  1.00  0.00     0.016 A 
ATOM     41  C   UNL A   1      42.373  24.847  26.485  1.00  0.00     0.016 A 
ATOM     42  C   UNL A   1      43.002  27.568  26.785  1.00  0.00     0.010 A 
ATOM     43  C   UNL A   1      41.649  25.639  27.380  1.00  0.00     0.010 A 
ATOM     44  C   UNL A   1      42.000  26.987  27.574  1.00  0.00    -0.014 A 
BRANCH  44  45
ATOM     45  C   UNL A   1      41.502  27.731  28.754  1.00  0.00     0.031 A 
ATOM     46  C   UNL A   1      42.262  27.605  30.047  1.00  0.00     0.074 A 
ATOM     47  C   UNL A   1      40.445  28.554  28.667  1.00  0.00     0.049 A 
ATOM     48  N   UNL A   1      42.031  28.167  31.205  1.00  0.00    -0.248 NA
ATOM     49  C   UNL A   1      43.443  26.726  30.029  1.00  0.00     0.031 C 
ATOM     50  C   UNL A   1      39.667  28.797  27.458  1.00  0.00     0.029 A 
ATOM     51  N   UNL A   1      39.853  29.346  29.617  1.00  0.00    -0.354 N 
ATOM     52  C   UNL A   1      43.033  27.708  32.051  1.00  0.00     0.074 A 
ATOM     53  C   UNL A   1      43.848  26.791  31.288  1.00  0.00     0.031 C 
ATOM     54  C   UNL A   1      38.696  29.684  27.734  1.00  0.00     0.029 A 
ATOM     55  C   UNL A   1      38.767  30.045  29.149  1.00  0.00     0.049 A 
ATOM     56  H   UNL A   1      40.175  29.408  30.545  1.00  0.00     0.167 HD
ATOM     57  C   UNL A   1      43.261  28.033  33.345  1.00  0.00     0.037 A 
ATOM     58  C   UNL A   1      37.922  30.869  29.798  1.00  0.00     0.037 A 
ATOM     59  C   UNL A   1      42.444  28.944  34.103  1.00  0.00     0.049 A 
ATOM     60  C   UNL A   1      38.147  31.151  31.261  1.00  0.00     0.074 A 
ATOM     61  C   UNL A   1      42.590  29.342  35.419  1.00  0.00     0.029 A 
ATOM     62  N   UNL A   1      41.323  29.594  33.610  1.00  0.00    -0.354 N 
ATOM     63  N   UNL A   1      39.104  30.724  32.050  1.00  0.00    -0.248 NA
ATOM     64  C   UNL A   1      37.176  32.034  31.922  1.00  0.00     0.031 C 
ATOM     65  C   UNL A   1      41.523  30.186  35.741  1.00  0.00     0.029 A 
ATOM     66  C   UNL A   1      40.751  30.370  34.605  1.00  0.00     0.049 A 
ATOM     67  H   UNL A   1      40.982  29.516  32.688  1.00  0.00     0.167 HD
ATOM     68  C   UNL A   1      38.873  31.315  33.287  1.00  0.00     0.074 A 
ATOM     69  C   UNL A   1      37.690  32.137  33.140  1.00  0.00     0.031 C 
ATOM     70  C   UNL A   1      39.579  31.193  34.439  1.00  0.00     0.037 A 
BRANCH  57  71
ATOM     71  C   UNL A   1      44.422  27.368  34.028  1.00  0.00     0.057 A 
ATOM     72  C   UNL A   1      45.699  27.945  34.056  1.00  0.00     0.134 A 
ATOM     73  C   UNL A   1      44.256  26.138  34.678  1.00  0.00     0.134 A 
ATOM     74  F   UNL A   1      45.932  29.113  33.439  1.00  0.00    -0.206 F 
ATOM     75  C   UNL A   1      46.774  27.308  34.680  1.00  0.00     0.040 A 
ATOM     76  C   UNL A   1      45.315  25.508  35.331  1.00  0.00     0.040 A 
ATOM     77  F   UNL A   1      43.059  25.531  34.691  1.00  0.00    -0.206 F 
ATOM     78  C   UNL A   1      46.581  26.089  35.326  1.00  0.00     0.006 A 
ENDBRANCH  57  71
BRANCH  58  79
ATOM     79  C   UNL A   1      36.782  31.488  29.074  1.00  0.00     0.057 A 
ATOM     80  C   UNL A   1      36.807  32.834  28.690  1.00  0.00     0.134 A 
ATOM     81  C   UNL A   1      35.629  30.754  28.768  1.00  0.00     0.134 A 
ATOM     82  F   UNL A   1      37.873  33.597  28.975  1.00  0.00    -0.206 F 
ATOM     83  C   UNL A   1      35.722  33.433  28.049  1.00  0.00     0.040 A 
ATOM     84  C   UNL A   1      34.547  31.332  28.103  1.00  0.00     0.040 A 
ATOM     85  F   UNL A   1      35.540  29.459  29.109  1.00  0.00    -0.206 F 
ATOM     86  C   UNL A   1      34.589  32.678  27.749  1.00  0.00     0.006 A 
ENDBRANCH  58  79
BRANCH  70  87
ATOM     87  C   UNL A   1      39.127  32.008  35.617  1.00  0.00     0.057 A 
ATOM     88  C   UNL A   1      38.259  31.499  36.591  1.00  0.00     0.134 A 
ATOM     89  C   UNL A   1      39.602  33.315  35.799  1.00  0.00     0.134 A 
ATOM     90  F   UNL A   1      37.758  30.258  36.474  1.00  0.00    -0.206 F 
ATOM     91  C   UNL A   1      37.857  32.266  37.686  1.00  0.00     0.040 A 
ATOM     92  C   UNL A   1      39.234  34.081  36.905  1.00  0.00     0.040 A 
ATOM     93  F   UNL A   1      40.446  33.862  34.912  1.00  0.00    -0.206 F 
ATOM     94  C   UNL A   1      38.351  33.560  37.848  1.00  0.00     0.006 A 
ENDBRANCH  70  87
ENDBRANCH  44  45
ENDBRANCH  37  39
ENDBRANCH  36  37
ENDBRANCH  35  36
ENDBRANCH  34  35
ENDBRANCH  33  34
ENDBRANCH  32  33
ENDBRANCH  31  32
ENDBRANCH  30  31
ENDBRANCH   1  30
TORSDOF 24
ENDMDL
MODEL 3
REMARK VINA RESULT:      -9.8      4.429      8.235
REMARK SMILES Cc1c(Cl)cccc1NC(=O)C[C@](C)(C(=O)OCCOCCOCCOCCOC(=O)c1ccc(-c2c3nc(c(-c4c(F)cccc4F)c4ccc([nH]4)c(-c4c(F)cccc4F)c4nc(c(-c5c(F)cccc5F)c5ccc2[nH]5)C=C4)C=C3)cc1)c1ccccc1
REMARK SMILES IDX 22 1 21 2 20 3 19 4 18 5 17 6 15 7 16 8 13 9 14 10 12 11
REMARK SMILES IDX 10 12 9 13 11 15 8 16 1 17 2 18 3 19 4 20 5 21 7 22 6 23
REMARK SMILES IDX 86 24 87 25 91 26 88 27 90 28 89 29 23 30 24 31 25 32 26 33
REMARK SMILES IDX 27 34 28 35 29 36 30 37 31 38 32 39 33 40 85 41 34 42 84 43
REMARK SMILES IDX 35 44 36 45 37 46 78 47 38 48 83 49 77 50 79 51 39 52 82 53
REMARK SMILES IDX 76 54 75 55 40 57 66 58 49 59 65 60 50 61 53 62 64 63 80 64
REMARK SMILES IDX 51 65 52 66 63 68 81 69 54 70 41 71 42 72 47 73 43 74 44 75
REMARK SMILES IDX 46 76 48 77 45 78 67 79 68 80 73 81 69 82 70 83 72 84 74 85
REMARK SMILES IDX 71 86 55 87 56 88 61 89 57 90 58 91 60 92 62 93 59 94
REMARK H PARENT 9 14 79 56 53 67
REMARK Flexibility Score: inf
ROOT
ATOM      1  C   UNL A   1      38.381  23.757  26.264  1.00  0.00     0.188 C 
ENDROOT
BRANCH   1   2
ATOM      2  C   UNL A   1      37.835  22.552  25.490  1.00  0.00     0.188 C 
BRANCH   2   3
ATOM      3  O   UNL A   1      36.559  22.134  25.926  1.00  0.00    -0.376 OA
BRANCH   3   4
ATOM      4  C   UNL A   1      35.991  20.967  25.361  1.00  0.00     0.202 C 
BRANCH   4   5
ATOM      5  C   UNL A   1      34.565  20.937  24.787  1.00  0.00     0.261 C 
BRANCH   5   6
ATOM      6  O   UNL A   1      34.037  22.160  24.260  1.00  0.00    -0.463 OA
BRANCH   6   7
ATOM      7  C   UNL A   1      32.747  22.177  23.864  1.00  0.00     0.316 C 
ATOM      8  O   UNL A   1      32.216  21.230  23.292  1.00  0.00    -0.251 OA
BRANCH   7   9
ATOM      9  C   UNL A   1      32.010  23.509  24.194  1.00  0.00     0.099 C 
ATOM     10  C   UNL A   1      30.512  23.589  23.758  1.00  0.00     0.029 C 
BRANCH   9  11
ATOM     11  C   UNL A   1      32.025  23.644  25.752  1.00  0.00     0.123 C 
BRANCH  11  12
ATOM     12  C   UNL A   1      30.771  24.153  26.470  1.00  0.00     0.225 C 
ATOM     13  N   UNL A   1      30.289  25.427  26.441  1.00  0.00    -0.326 N 
ATOM     14  H   UNL A   1      29.393  25.492  26.845  1.00  0.00     0.169 HD
ATOM     15  O   UNL A   1      30.103  23.344  27.131  1.00  0.00    -0.275 OA
BRANCH  13  16
ATOM     16  C   UNL A   1      30.749  26.677  25.976  1.00  0.00     0.045 A 
ATOM     17  C   UNL A   1      29.235  26.491  23.892  1.00  0.00     0.048 C 
ATOM     18  C   UNL A   1      30.277  27.189  24.736  1.00  0.00    -0.009 A 
ATOM     19  C   UNL A   1      30.843  28.389  24.238  1.00  0.00     0.046 A 
ATOM     20  Cl  UNL A   1      30.397  29.033  22.692  1.00  0.00    -0.084 Cl
ATOM     21  C   UNL A   1      31.816  29.082  24.953  1.00  0.00     0.021 A 
ATOM     22  C   UNL A   1      31.651  27.441  26.717  1.00  0.00     0.026 A 
ATOM     23  C   UNL A   1      32.199  28.622  26.204  1.00  0.00     0.004 A 
ENDBRANCH  13  16
ENDBRANCH  11  12
ENDBRANCH   9  11
BRANCH   9  24
ATOM     24  C   UNL A   1      32.694  24.706  23.442  1.00  0.00    -0.030 A 
ATOM     25  C   UNL A   1      33.599  25.557  24.109  1.00  0.00     0.005 A 
ATOM     26  C   UNL A   1      32.319  25.084  22.135  1.00  0.00     0.005 A 
ATOM     27  C   UNL A   1      34.046  26.750  23.520  1.00  0.00     0.000 A 
ATOM     28  C   UNL A   1      32.769  26.271  21.548  1.00  0.00     0.000 A 
ATOM     29  C   UNL A   1      33.623  27.113  22.245  1.00  0.00     0.000 A 
ENDBRANCH   9  24
ENDBRANCH   7   9
ENDBRANCH   6   7
ENDBRANCH   5   6
ENDBRANCH   4   5
ENDBRANCH   3   4
ENDBRANCH   2   3
ENDBRANCH   1   2
BRANCH   1  30
ATOM     30  O   UNL A   1      39.511  23.550  27.095  1.00  0.00    -0.377 OA
BRANCH  30  31
ATOM     31  C   UNL A   1      40.448  22.527  26.770  1.00  0.00     0.188 C 
BRANCH  31  32
ATOM     32  C   UNL A   1      41.319  21.839  27.845  1.00  0.00     0.188 C 
BRANCH  32  33
ATOM     33  O   UNL A   1      42.325  20.969  27.357  1.00  0.00    -0.376 OA
BRANCH  33  34
ATOM     34  C   UNL A   1      41.964  19.645  27.000  1.00  0.00     0.202 C 
BRANCH  34  35
ATOM     35  C   UNL A   1      42.609  19.039  25.741  1.00  0.00     0.261 C 
BRANCH  35  36
ATOM     36  O   UNL A   1      44.019  19.264  25.588  1.00  0.00    -0.460 OA
BRANCH  36  37
ATOM     37  C   UNL A   1      44.415  19.868  24.453  1.00  0.00     0.338 C 
ATOM     38  O   UNL A   1      44.250  19.475  23.305  1.00  0.00    -0.246 OA
BRANCH  37  39
ATOM     39  C   UNL A   1      44.953  21.194  24.793  1.00  0.00     0.060 A 
ATOM     40  C   UNL A   1      45.455  21.409  26.082  1.00  0.00     0.016 A 
ATOM     41  C   UNL A   1      44.905  22.234  23.863  1.00  0.00     0.016 A 
ATOM     42  C   UNL A   1      45.841  22.688  26.472  1.00  0.00     0.010 A 
ATOM     43  C   UNL A   1      45.274  23.521  24.260  1.00  0.00     0.010 A 
ATOM     44  C   UNL A   1      45.688  23.760  25.583  1.00  0.00    -0.014 A 
BRANCH  44  45
ATOM     45  C   UNL A   1      45.729  25.140  26.120  1.00  0.00     0.031 A 
ATOM     46  C   UNL A   1      47.040  25.878  26.087  1.00  0.00     0.074 A 
ATOM     47  C   UNL A   1      44.618  25.753  26.560  1.00  0.00     0.049 A 
ATOM     48  N   UNL A   1      47.321  27.093  26.482  1.00  0.00    -0.248 NA
ATOM     49  C   UNL A   1      48.189  25.145  25.530  1.00  0.00     0.031 C 
ATOM     50  C   UNL A   1      43.286  25.159  26.589  1.00  0.00     0.029 A 
ATOM     51  N   UNL A   1      44.436  27.018  27.058  1.00  0.00    -0.354 N 
ATOM     52  C   UNL A   1      48.675  27.266  26.226  1.00  0.00     0.074 A 
ATOM     53  C   UNL A   1      49.169  26.022  25.682  1.00  0.00     0.031 C 
ATOM     54  C   UNL A   1      42.417  26.060  27.077  1.00  0.00     0.029 A 
ATOM     55  C   UNL A   1      43.140  27.282  27.425  1.00  0.00     0.049 A 
ATOM     56  H   UNL A   1      45.165  27.673  27.144  1.00  0.00     0.167 HD
ATOM     57  C   UNL A   1      49.437  28.369  26.417  1.00  0.00     0.037 A 
ATOM     58  C   UNL A   1      42.606  28.382  27.990  1.00  0.00     0.037 A 
ATOM     59  C   UNL A   1      48.942  29.605  26.964  1.00  0.00     0.049 A 
ATOM     60  C   UNL A   1      43.492  29.569  28.269  1.00  0.00     0.074 A 
ATOM     61  C   UNL A   1      49.629  30.782  27.196  1.00  0.00     0.029 A 
ATOM     62  N   UNL A   1      47.633  29.819  27.371  1.00  0.00    -0.354 N 
ATOM     63  N   UNL A   1      44.768  29.730  28.012  1.00  0.00    -0.248 NA
ATOM     64  C   UNL A   1      42.860  30.729  28.913  1.00  0.00     0.031 C 
ATOM     65  C   UNL A   1      48.752  31.689  27.798  1.00  0.00     0.029 A 
ATOM     66  C   UNL A   1      47.500  31.101  27.878  1.00  0.00     0.049 A 
ATOM     67  H   UNL A   1      46.906  29.157  27.309  1.00  0.00     0.167 HD
ATOM     68  C   UNL A   1      45.081  31.020  28.427  1.00  0.00     0.074 A 
ATOM     69  C   UNL A   1      43.859  31.599  28.944  1.00  0.00     0.031 C 
ATOM     70  C   UNL A   1      46.273  31.668  28.379  1.00  0.00     0.037 A 
BRANCH  57  71
ATOM     71  C   UNL A   1      50.893  28.271  26.060  1.00  0.00     0.057 A 
ATOM     72  C   UNL A   1      51.348  28.407  24.742  1.00  0.00     0.134 A 
ATOM     73  C   UNL A   1      51.854  28.051  27.055  1.00  0.00     0.134 A 
ATOM     74  F   UNL A   1      50.479  28.602  23.739  1.00  0.00    -0.206 F 
ATOM     75  C   UNL A   1      52.702  28.296  24.422  1.00  0.00     0.040 A 
ATOM     76  C   UNL A   1      53.214  27.970  26.751  1.00  0.00     0.040 A 
ATOM     77  F   UNL A   1      51.489  27.914  28.339  1.00  0.00    -0.206 F 
ATOM     78  C   UNL A   1      53.640  28.084  25.430  1.00  0.00     0.006 A 
ENDBRANCH  57  71
BRANCH  58  79
ATOM     79  C   UNL A   1      41.161  28.418  28.334  1.00  0.00     0.057 A 
ATOM     80  C   UNL A   1      40.211  28.915  27.435  1.00  0.00     0.134 A 
ATOM     81  C   UNL A   1      40.698  27.975  29.579  1.00  0.00     0.134 A 
ATOM     82  F   UNL A   1      40.594  29.376  26.234  1.00  0.00    -0.206 F 
ATOM     83  C   UNL A   1      38.857  28.992  27.768  1.00  0.00     0.040 A 
ATOM     84  C   UNL A   1      39.345  28.019  29.916  1.00  0.00     0.040 A 
ATOM     85  F   UNL A   1      41.557  27.487  30.487  1.00  0.00    -0.206 F 
ATOM     86  C   UNL A   1      38.421  28.537  29.011  1.00  0.00     0.006 A 
ENDBRANCH  58  79
BRANCH  70  87
ATOM     87  C   UNL A   1      46.303  33.095  28.845  1.00  0.00     0.057 A 
ATOM     88  C   UNL A   1      46.632  33.445  30.161  1.00  0.00     0.134 A 
ATOM     89  C   UNL A   1      46.036  34.140  27.950  1.00  0.00     0.134 A 
ATOM     90  F   UNL A   1      46.890  32.495  31.074  1.00  0.00    -0.206 F 
ATOM     91  C   UNL A   1      46.666  34.778  30.576  1.00  0.00     0.040 A 
ATOM     92  C   UNL A   1      46.098  35.476  28.343  1.00  0.00     0.040 A 
ATOM     93  F   UNL A   1      45.725  33.878  26.671  1.00  0.00    -0.206 F 
ATOM     94  C   UNL A   1      46.405  35.799  29.663  1.00  0.00     0.006 A 
ENDBRANCH  70  87
ENDBRANCH  44  45
ENDBRANCH  37  39
ENDBRANCH  36  37
ENDBRANCH  35  36
ENDBRANCH  34  35
ENDBRANCH  33  34
ENDBRANCH  32  33
ENDBRANCH  31  32
ENDBRANCH  30  31
ENDBRANCH   1  30
TORSDOF 24
ENDMDL
