MODEL 1
REMARK VINA RESULT:      -9.8      0.000      0.000
REMARK SMILES CC1(C)CSC[C@](O)([C@H](F)C(=O)OCCOCCOCCOCCOC(=O)c2ccc(-c3c4nc(c(-c5c(F)cccc5F)c5ccc([nH]5)c(-c5c(F)cccc5F)c5nc(c(-c6c(F)cccc6F)c6ccc3[nH]6)C=C5)C=C4)cc2)C1
REMARK SMILES IDX 19 1 18 2 17 3 16 4 15 5 14 6 13 7 11 8 12 9 9 10 10 11 7 12
REMARK SMILES IDX 1 13 2 14 3 15 4 16 82 17 5 18 6 19 8 20 20 22 21 23 22 24
REMARK SMILES IDX 23 25 24 26 25 27 26 28 27 29 28 30 29 31 81 32 30 33 80 34
REMARK SMILES IDX 31 35 32 36 33 37 74 38 34 39 79 40 73 41 75 42 35 43 78 44
REMARK SMILES IDX 72 45 71 46 36 48 62 49 45 50 61 51 46 52 49 53 60 54 76 55
REMARK SMILES IDX 47 56 48 57 59 59 77 60 50 61 37 62 38 63 43 64 39 65 40 66
REMARK SMILES IDX 42 67 44 68 41 69 63 70 64 71 69 72 65 73 66 74 68 75 70 76
REMARK SMILES IDX 67 77 51 78 52 79 57 80 53 81 54 82 56 83 58 84 55 85
REMARK H PARENT 8 21 75 47 49 58
REMARK Flexibility Score: inf
ROOT
ATOM      1  O   UNL A   1      34.053  32.973  28.939  1.00  0.00    -0.377 OA
ENDROOT
BRANCH   1   2
ATOM      2  C   UNL A   1      34.765  32.336  27.901  1.00  0.00     0.188 C 
BRANCH   2   3
ATOM      3  C   UNL A   1      34.408  30.845  27.722  1.00  0.00     0.188 C 
BRANCH   3   4
ATOM      4  O   UNL A   1      33.358  30.401  26.868  1.00  0.00    -0.376 OA
BRANCH   4   5
ATOM      5  C   UNL A   1      33.516  29.427  25.847  1.00  0.00     0.202 C 
BRANCH   5   6
ATOM      6  C   UNL A   1      33.653  27.933  26.145  1.00  0.00     0.261 C 
BRANCH   6   7
ATOM      7  O   UNL A   1      32.452  27.299  26.568  1.00  0.00    -0.461 OA
BRANCH   7   8
ATOM      8  C   UNL A   1      31.957  26.355  25.731  1.00  0.00     0.343 C 
ATOM      9  O   UNL A   1      32.097  26.366  24.514  1.00  0.00    -0.249 OA
BRANCH   8  10
ATOM     10  C   UNL A   1      31.156  25.315  26.500  1.00  0.00     0.308 C 
ATOM     11  F   UNL A   1      29.880  25.185  26.011  1.00  0.00    -0.232 F 
BRANCH  10  12
ATOM     12  C   UNL A   1      31.838  23.942  26.403  1.00  0.00     0.116 C 
ATOM     13  C   UNL A   1      34.105  21.832  27.262  1.00  0.00     0.012 C 
ATOM     14  C   UNL A   1      34.229  22.893  26.153  1.00  0.00    -0.023 C 
ATOM     15  C   UNL A   1      35.702  23.356  26.121  1.00  0.00     0.012 C 
ATOM     16  C   UNL A   1      33.854  22.333  24.768  1.00  0.00     0.076 C 
ATOM     17  C   UNL A   1      33.368  24.137  26.454  1.00  0.00     0.047 C 
ATOM     18  S   UNL A   1      32.153  21.688  24.707  1.00  0.00    -0.158 SA
ATOM     19  C   UNL A   1      31.290  23.217  25.151  1.00  0.00     0.108 C 
BRANCH  12  20
ATOM     20  O   UNL A   1      31.490  23.215  27.602  1.00  0.00    -0.385 OA
ATOM     21  H   UNL A   1      30.956  23.782  28.180  1.00  0.00     0.211 HD
ENDBRANCH  12  20
ENDBRANCH  10  12
ENDBRANCH   8  10
ENDBRANCH   7   8
ENDBRANCH   6   7
ENDBRANCH   5   6
ENDBRANCH   4   5
ENDBRANCH   3   4
ENDBRANCH   2   3
ENDBRANCH   1   2
BRANCH   1  22
ATOM     22  C   UNL A   1      33.404  34.196  28.614  1.00  0.00     0.188 C 
BRANCH  22  23
ATOM     23  C   UNL A   1      33.424  35.330  29.663  1.00  0.00     0.188 C 
BRANCH  23  24
ATOM     24  O   UNL A   1      32.905  34.953  30.929  1.00  0.00    -0.376 OA
BRANCH  24  25
ATOM     25  C   UNL A   1      33.779  34.941  32.047  1.00  0.00     0.202 C 
BRANCH  25  26
ATOM     26  C   UNL A   1      34.080  33.581  32.698  1.00  0.00     0.261 C 
BRANCH  26  27
ATOM     27  O   UNL A   1      35.150  32.819  32.120  1.00  0.00    -0.460 OA
BRANCH  27  28
ATOM     28  C   UNL A   1      36.140  32.407  32.936  1.00  0.00     0.338 C 
ATOM     29  O   UNL A   1      36.183  32.511  34.153  1.00  0.00    -0.246 OA
BRANCH  28  30
ATOM     30  C   UNL A   1      37.092  31.614  32.132  1.00  0.00     0.060 A 
ATOM     31  C   UNL A   1      37.975  30.744  32.786  1.00  0.00     0.016 A 
ATOM     32  C   UNL A   1      37.117  31.731  30.740  1.00  0.00     0.016 A 
ATOM     33  C   UNL A   1      38.917  30.024  32.054  1.00  0.00     0.010 A 
ATOM     34  C   UNL A   1      38.078  31.026  30.010  1.00  0.00     0.010 A 
ATOM     35  C   UNL A   1      39.008  30.202  30.668  1.00  0.00    -0.014 A 
BRANCH  35  36
ATOM     36  C   UNL A   1      40.198  29.698  29.943  1.00  0.00     0.031 A 
ATOM     37  C   UNL A   1      41.353  30.639  29.729  1.00  0.00     0.074 A 
ATOM     38  C   UNL A   1      40.272  28.428  29.508  1.00  0.00     0.049 A 
ATOM     39  N   UNL A   1      42.484  30.443  29.103  1.00  0.00    -0.248 NA
ATOM     40  C   UNL A   1      41.206  31.988  30.299  1.00  0.00     0.031 C 
ATOM     41  C   UNL A   1      39.244  27.408  29.697  1.00  0.00     0.029 A 
ATOM     42  N   UNL A   1      41.264  27.786  28.812  1.00  0.00    -0.354 N 
ATOM     43  C   UNL A   1      43.175  31.645  29.188  1.00  0.00     0.074 A 
ATOM     44  C   UNL A   1      42.326  32.573  29.903  1.00  0.00     0.031 C 
ATOM     45  C   UNL A   1      39.659  26.263  29.126  1.00  0.00     0.029 A 
ATOM     46  C   UNL A   1      40.963  26.482  28.501  1.00  0.00     0.049 A 
ATOM     47  H   UNL A   1      42.111  28.218  28.558  1.00  0.00     0.167 HD
ATOM     48  C   UNL A   1      44.407  31.949  28.718  1.00  0.00     0.037 A 
ATOM     49  C   UNL A   1      41.655  25.580  27.779  1.00  0.00     0.037 A 
ATOM     50  C   UNL A   1      45.250  31.023  28.007  1.00  0.00     0.049 A 
ATOM     51  C   UNL A   1      42.990  25.968  27.194  1.00  0.00     0.074 A 
ATOM     52  C   UNL A   1      46.528  31.221  27.518  1.00  0.00     0.029 A 
ATOM     53  N   UNL A   1      44.889  29.726  27.670  1.00  0.00    -0.354 N 
ATOM     54  N   UNL A   1      43.652  27.093  27.310  1.00  0.00    -0.248 NA
ATOM     55  C   UNL A   1      43.672  24.954  26.376  1.00  0.00     0.031 C 
ATOM     56  C   UNL A   1      46.914  30.070  26.825  1.00  0.00     0.029 A 
ATOM     57  C   UNL A   1      45.904  29.127  26.943  1.00  0.00     0.049 A 
ATOM     58  H   UNL A   1      44.036  29.296  27.910  1.00  0.00     0.167 HD
ATOM     59  C   UNL A   1      44.842  26.912  26.613  1.00  0.00     0.074 A 
ATOM     60  C   UNL A   1      44.814  25.563  26.087  1.00  0.00     0.031 C 
ATOM     61  C   UNL A   1      45.867  27.781  26.429  1.00  0.00     0.037 A 
BRANCH  48  62
ATOM     62  C   UNL A   1      44.897  33.355  28.917  1.00  0.00     0.057 A 
ATOM     63  C   UNL A   1      45.665  33.732  30.027  1.00  0.00     0.134 A 
ATOM     64  C   UNL A   1      44.604  34.345  27.970  1.00  0.00     0.134 A 
ATOM     65  F   UNL A   1      45.967  32.838  30.980  1.00  0.00    -0.206 F 
ATOM     66  C   UNL A   1      46.096  35.049  30.203  1.00  0.00     0.040 A 
ATOM     67  C   UNL A   1      45.058  35.657  28.119  1.00  0.00     0.040 A 
ATOM     68  F   UNL A   1      43.877  34.054  26.881  1.00  0.00    -0.206 F 
ATOM     69  C   UNL A   1      45.799  36.014  29.243  1.00  0.00     0.006 A 
ENDBRANCH  48  62
BRANCH  49  70
ATOM     70  C   UNL A   1      41.105  24.217  27.559  1.00  0.00     0.057 A 
ATOM     71  C   UNL A   1      41.626  23.110  28.240  1.00  0.00     0.134 A 
ATOM     72  C   UNL A   1      40.070  23.982  26.646  1.00  0.00     0.134 A 
ATOM     73  F   UNL A   1      42.637  23.265  29.108  1.00  0.00    -0.206 F 
ATOM     74  C   UNL A   1      41.150  21.817  28.008  1.00  0.00     0.040 A 
ATOM     75  C   UNL A   1      39.566  22.699  26.426  1.00  0.00     0.040 A 
ATOM     76  F   UNL A   1      39.529  24.999  25.959  1.00  0.00    -0.206 F 
ATOM     77  C   UNL A   1      40.113  21.611  27.102  1.00  0.00     0.006 A 
ENDBRANCH  49  70
BRANCH  61  78
ATOM     78  C   UNL A   1      47.064  27.287  25.665  1.00  0.00     0.057 A 
ATOM     79  C   UNL A   1      48.090  26.555  26.276  1.00  0.00     0.134 A 
ATOM     80  C   UNL A   1      47.173  27.520  24.287  1.00  0.00     0.134 A 
ATOM     81  F   UNL A   1      48.055  26.305  27.594  1.00  0.00    -0.206 F 
ATOM     82  C   UNL A   1      49.195  26.101  25.553  1.00  0.00     0.040 A 
ATOM     83  C   UNL A   1      48.255  27.041  23.547  1.00  0.00     0.040 A 
ATOM     84  F   UNL A   1      46.221  28.203  23.633  1.00  0.00    -0.206 F 
ATOM     85  C   UNL A   1      49.275  26.337  24.182  1.00  0.00     0.006 A 
ENDBRANCH  61  78
ENDBRANCH  35  36
ENDBRANCH  28  30
ENDBRANCH  27  28
ENDBRANCH  26  27
ENDBRANCH  25  26
ENDBRANCH  24  25
ENDBRANCH  23  24
ENDBRANCH  22  23
ENDBRANCH   1  22
TORSDOF 22
ENDMDL
MODEL 2
REMARK VINA RESULT:      -9.0      1.514      2.170
REMARK SMILES CC1(C)CSC[C@](O)([C@H](F)C(=O)OCCOCCOCCOCCOC(=O)c2ccc(-c3c4nc(c(-c5c(F)cccc5F)c5ccc([nH]5)c(-c5c(F)cccc5F)c5nc(c(-c6c(F)cccc6F)c6ccc3[nH]6)C=C5)C=C4)cc2)C1
REMARK SMILES IDX 19 1 18 2 17 3 16 4 15 5 14 6 13 7 11 8 12 9 9 10 10 11 7 12
REMARK SMILES IDX 1 13 2 14 3 15 4 16 82 17 5 18 6 19 8 20 20 22 21 23 22 24
REMARK SMILES IDX 23 25 24 26 25 27 26 28 27 29 28 30 29 31 81 32 30 33 80 34
REMARK SMILES IDX 31 35 32 36 33 37 74 38 34 39 79 40 73 41 75 42 35 43 78 44
REMARK SMILES IDX 72 45 71 46 36 48 62 49 45 50 61 51 46 52 49 53 60 54 76 55
REMARK SMILES IDX 47 56 48 57 59 59 77 60 50 61 37 62 38 63 43 64 39 65 40 66
REMARK SMILES IDX 42 67 44 68 41 69 63 70 64 71 69 72 65 73 66 74 68 75 70 76
REMARK SMILES IDX 67 77 51 78 52 79 57 80 53 81 54 82 56 83 58 84 55 85
REMARK H PARENT 8 21 75 47 49 58
REMARK Flexibility Score: inf
ROOT
ATOM      1  O   UNL A   1      33.915  33.093  29.643  1.00  0.00    -0.377 OA
ENDROOT
BRANCH   1   2
ATOM      2  C   UNL A   1      34.788  32.559  28.671  1.00  0.00     0.188 C 
BRANCH   2   3
ATOM      3  C   UNL A   1      34.075  31.748  27.569  1.00  0.00     0.188 C 
BRANCH   3   4
ATOM      4  O   UNL A   1      32.711  31.347  27.668  1.00  0.00    -0.376 OA
BRANCH   4   5
ATOM      5  C   UNL A   1      31.830  31.231  26.561  1.00  0.00     0.202 C 
BRANCH   5   6
ATOM      6  C   UNL A   1      31.703  29.949  25.736  1.00  0.00     0.261 C 
BRANCH   6   7
ATOM      7  O   UNL A   1      32.905  29.197  25.619  1.00  0.00    -0.461 OA
BRANCH   7   8
ATOM      8  C   UNL A   1      32.831  27.903  26.017  1.00  0.00     0.343 C 
ATOM      9  O   UNL A   1      32.184  27.510  26.979  1.00  0.00    -0.249 OA
BRANCH   8  10
ATOM     10  C   UNL A   1      33.707  27.017  25.142  1.00  0.00     0.308 C 
ATOM     11  F   UNL A   1      34.380  26.075  25.879  1.00  0.00    -0.232 F 
BRANCH  10  12
ATOM     12  C   UNL A   1      32.846  26.278  24.107  1.00  0.00     0.116 C 
ATOM     13  C   UNL A   1      30.627  24.098  23.297  1.00  0.00     0.012 C 
ATOM     14  C   UNL A   1      32.138  23.841  23.446  1.00  0.00    -0.023 C 
ATOM     15  C   UNL A   1      32.310  22.399  23.973  1.00  0.00     0.012 C 
ATOM     16  C   UNL A   1      32.885  23.972  22.106  1.00  0.00     0.076 C 
ATOM     17  C   UNL A   1      32.779  24.784  24.485  1.00  0.00     0.047 C 
ATOM     18  S   UNL A   1      32.692  25.617  21.351  1.00  0.00    -0.158 SA
ATOM     19  C   UNL A   1      33.404  26.595  22.698  1.00  0.00     0.108 C 
BRANCH  12  20
ATOM     20  O   UNL A   1      31.500  26.783  24.244  1.00  0.00    -0.385 OA
ATOM     21  H   UNL A   1      31.472  27.711  23.960  1.00  0.00     0.211 HD
ENDBRANCH  12  20
ENDBRANCH  10  12
ENDBRANCH   8  10
ENDBRANCH   7   8
ENDBRANCH   6   7
ENDBRANCH   5   6
ENDBRANCH   4   5
ENDBRANCH   3   4
ENDBRANCH   2   3
ENDBRANCH   1   2
BRANCH   1  22
ATOM     22  C   UNL A   1      33.679  34.494  29.591  1.00  0.00     0.188 C 
BRANCH  22  23
ATOM     23  C   UNL A   1      33.789  35.299  30.905  1.00  0.00     0.188 C 
BRANCH  23  24
ATOM     24  O   UNL A   1      33.425  34.563  32.063  1.00  0.00    -0.376 OA
BRANCH  24  25
ATOM     25  C   UNL A   1      34.279  34.607  33.195  1.00  0.00     0.202 C 
BRANCH  25  26
ATOM     26  C   UNL A   1      35.781  34.376  32.959  1.00  0.00     0.261 C 
BRANCH  26  27
ATOM     27  O   UNL A   1      36.303  33.103  33.367  1.00  0.00    -0.460 OA
BRANCH  27  28
ATOM     28  C   UNL A   1      36.144  32.061  32.528  1.00  0.00     0.338 C 
ATOM     29  O   UNL A   1      35.092  31.530  32.204  1.00  0.00    -0.246 OA
BRANCH  28  30
ATOM     30  C   UNL A   1      37.448  31.784  31.894  1.00  0.00     0.060 A 
ATOM     31  C   UNL A   1      37.593  31.998  30.516  1.00  0.00     0.016 A 
ATOM     32  C   UNL A   1      38.523  31.312  32.652  1.00  0.00     0.016 A 
ATOM     33  C   UNL A   1      38.798  31.696  29.884  1.00  0.00     0.010 A 
ATOM     34  C   UNL A   1      39.723  30.988  32.013  1.00  0.00     0.010 A 
ATOM     35  C   UNL A   1      39.851  31.140  30.621  1.00  0.00    -0.014 A 
BRANCH  35  36
ATOM     36  C   UNL A   1      40.996  30.524  29.909  1.00  0.00     0.031 A 
ATOM     37  C   UNL A   1      42.209  31.375  29.644  1.00  0.00     0.074 A 
ATOM     38  C   UNL A   1      40.980  29.235  29.531  1.00  0.00     0.049 A 
ATOM     39  N   UNL A   1      43.318  31.075  29.018  1.00  0.00    -0.248 NA
ATOM     40  C   UNL A   1      42.161  32.755  30.155  1.00  0.00     0.031 C 
ATOM     41  C   UNL A   1      39.888  28.295  29.774  1.00  0.00     0.029 A 
ATOM     42  N   UNL A   1      41.919  28.496  28.856  1.00  0.00    -0.354 N 
ATOM     43  C   UNL A   1      44.089  32.230  29.044  1.00  0.00     0.074 A 
ATOM     44  C   UNL A   1      43.312  33.244  29.724  1.00  0.00     0.031 C 
ATOM     45  C   UNL A   1      40.218  27.101  29.251  1.00  0.00     0.029 A 
ATOM     46  C   UNL A   1      41.527  27.204  28.606  1.00  0.00     0.049 A 
ATOM     47  H   UNL A   1      42.790  28.859  28.576  1.00  0.00     0.167 HD
ATOM     48  C   UNL A   1      45.334  32.429  28.551  1.00  0.00     0.037 A 
ATOM     49  C   UNL A   1      42.148  26.226  27.920  1.00  0.00     0.037 A 
ATOM     50  C   UNL A   1      46.104  31.418  27.875  1.00  0.00     0.049 A 
ATOM     51  C   UNL A   1      43.499  26.497  27.307  1.00  0.00     0.074 A 
ATOM     52  C   UNL A   1      47.387  31.507  27.367  1.00  0.00     0.029 A 
ATOM     53  N   UNL A   1      45.653  30.135  27.599  1.00  0.00    -0.354 N 
ATOM     54  N   UNL A   1      44.237  27.578  27.367  1.00  0.00    -0.248 NA
ATOM     55  C   UNL A   1      44.103  25.404  26.529  1.00  0.00     0.031 C 
ATOM     56  C   UNL A   1      47.687  30.303  26.722  1.00  0.00     0.029 A 
ATOM     57  C   UNL A   1      46.617  29.437  26.891  1.00  0.00     0.049 A 
ATOM     58  H   UNL A   1      44.776  29.774  27.865  1.00  0.00     0.167 HD
ATOM     59  C   UNL A   1      45.404  27.286  26.669  1.00  0.00     0.074 A 
ATOM     60  C   UNL A   1      45.280  25.920  26.204  1.00  0.00     0.031 C 
ATOM     61  C   UNL A   1      46.484  28.075  26.438  1.00  0.00     0.037 A 
BRANCH  48  62
ATOM     62  C   UNL A   1      45.919  33.806  28.682  1.00  0.00     0.057 A 
ATOM     63  C   UNL A   1      46.702  34.186  29.781  1.00  0.00     0.134 A 
ATOM     64  C   UNL A   1      45.704  34.763  27.682  1.00  0.00     0.134 A 
ATOM     65  F   UNL A   1      46.934  33.324  30.782  1.00  0.00    -0.206 F 
ATOM     66  C   UNL A   1      47.224  35.477  29.894  1.00  0.00     0.040 A 
ATOM     67  C   UNL A   1      46.247  36.046  27.769  1.00  0.00     0.040 A 
ATOM     68  F   UNL A   1      44.967  34.467  26.601  1.00  0.00    -0.206 F 
ATOM     69  C   UNL A   1      47.002  36.409  28.882  1.00  0.00     0.006 A 
ENDBRANCH  48  62
BRANCH  49  70
ATOM     70  C   UNL A   1      41.506  24.895  27.766  1.00  0.00     0.057 A 
ATOM     71  C   UNL A   1      41.925  23.798  28.528  1.00  0.00     0.134 A 
ATOM     72  C   UNL A   1      40.481  24.679  26.836  1.00  0.00     0.134 A 
ATOM     73  F   UNL A   1      42.921  23.933  29.416  1.00  0.00    -0.206 F 
ATOM     74  C   UNL A   1      41.361  22.531  28.360  1.00  0.00     0.040 A 
ATOM     75  C   UNL A   1      39.890  23.424  26.678  1.00  0.00     0.040 A 
ATOM     76  F   UNL A   1      40.035  25.687  26.073  1.00  0.00    -0.206 F 
ATOM     77  C   UNL A   1      40.336  22.344  27.435  1.00  0.00     0.006 A 
ENDBRANCH  49  70
BRANCH  61  78
ATOM     78  C   UNL A   1      47.636  27.468  25.687  1.00  0.00     0.057 A 
ATOM     79  C   UNL A   1      47.738  27.537  24.292  1.00  0.00     0.134 A 
ATOM     80  C   UNL A   1      48.677  26.833  26.378  1.00  0.00     0.134 A 
ATOM     81  F   UNL A   1      46.772  28.121  23.567  1.00  0.00    -0.206 F 
ATOM     82  C   UNL A   1      48.816  26.970  23.609  1.00  0.00     0.040 A 
ATOM     83  C   UNL A   1      49.777  26.293  25.709  1.00  0.00     0.040 A 
ATOM     84  F   UNL A   1      48.653  26.741  27.716  1.00  0.00    -0.206 F 
ATOM     85  C   UNL A   1      49.844  26.352  24.319  1.00  0.00     0.006 A 
ENDBRANCH  61  78
ENDBRANCH  35  36
ENDBRANCH  28  30
ENDBRANCH  27  28
ENDBRANCH  26  27
ENDBRANCH  25  26
ENDBRANCH  24  25
ENDBRANCH  23  24
ENDBRANCH  22  23
ENDBRANCH   1  22
TORSDOF 22
ENDMDL
MODEL 3
REMARK VINA RESULT:      -9.0      4.051      6.614
REMARK SMILES CC1(C)CSC[C@](O)([C@H](F)C(=O)OCCOCCOCCOCCOC(=O)c2ccc(-c3c4nc(c(-c5c(F)cccc5F)c5ccc([nH]5)c(-c5c(F)cccc5F)c5nc(c(-c6c(F)cccc6F)c6ccc3[nH]6)C=C5)C=C4)cc2)C1
REMARK SMILES IDX 19 1 18 2 17 3 16 4 15 5 14 6 13 7 11 8 12 9 9 10 10 11 7 12
REMARK SMILES IDX 1 13 2 14 3 15 4 16 82 17 5 18 6 19 8 20 20 22 21 23 22 24
REMARK SMILES IDX 23 25 24 26 25 27 26 28 27 29 28 30 29 31 81 32 30 33 80 34
REMARK SMILES IDX 31 35 32 36 33 37 74 38 34 39 79 40 73 41 75 42 35 43 78 44
REMARK SMILES IDX 72 45 71 46 36 48 62 49 45 50 61 51 46 52 49 53 60 54 76 55
REMARK SMILES IDX 47 56 48 57 59 59 77 60 50 61 37 62 38 63 43 64 39 65 40 66
REMARK SMILES IDX 42 67 44 68 41 69 63 70 64 71 69 72 65 73 66 74 68 75 70 76
REMARK SMILES IDX 67 77 51 78 52 79 57 80 53 81 54 82 56 83 58 84 55 85
REMARK H PARENT 8 21 75 47 49 58
REMARK Flexibility Score: inf
ROOT
ATOM      1  O   UNL A   1      32.564  34.549  28.400  1.00  0.00    -0.377 OA
ENDROOT
BRANCH   1   2
ATOM      2  C   UNL A   1      33.609  35.491  28.507  1.00  0.00     0.188 C 
BRANCH   2   3
ATOM      3  C   UNL A   1      33.261  36.712  29.385  1.00  0.00     0.188 C 
BRANCH   3   4
ATOM      4  O   UNL A   1      32.366  36.637  30.490  1.00  0.00    -0.376 OA
BRANCH   4   5
ATOM      5  C   UNL A   1      32.738  36.217  31.794  1.00  0.00     0.202 C 
BRANCH   5   6
ATOM      6  C   UNL A   1      33.643  37.051  32.704  1.00  0.00     0.261 C 
BRANCH   6   7
ATOM      7  O   UNL A   1      34.782  36.359  33.204  1.00  0.00    -0.461 OA
BRANCH   7   8
ATOM      8  C   UNL A   1      34.935  35.086  32.766  1.00  0.00     0.343 C 
ATOM      9  O   UNL A   1      35.007  34.762  31.588  1.00  0.00    -0.249 OA
BRANCH   8  10
ATOM     10  C   UNL A   1      34.946  34.110  33.935  1.00  0.00     0.308 C 
ATOM     11  F   UNL A   1      34.261  32.956  33.646  1.00  0.00    -0.232 F 
BRANCH  10  12
ATOM     12  C   UNL A   1      36.389  33.723  34.289  1.00  0.00     0.116 C 
ATOM     13  C   UNL A   1      39.255  32.470  33.549  1.00  0.00     0.012 C 
ATOM     14  C   UNL A   1      38.039  31.695  34.089  1.00  0.00    -0.023 C 
ATOM     15  C   UNL A   1      38.074  30.285  33.458  1.00  0.00     0.012 C 
ATOM     16  C   UNL A   1      38.074  31.552  35.622  1.00  0.00     0.076 C 
ATOM     17  C   UNL A   1      36.709  32.350  33.664  1.00  0.00     0.047 C 
ATOM     18  S   UNL A   1      38.109  33.160  36.476  1.00  0.00    -0.158 SA
ATOM     19  C   UNL A   1      36.554  33.822  35.825  1.00  0.00     0.108 C 
BRANCH  12  20
ATOM     20  O   UNL A   1      37.252  34.672  33.624  1.00  0.00    -0.385 OA
ATOM     21  H   UNL A   1      36.789  35.051  32.860  1.00  0.00     0.211 HD
ENDBRANCH  12  20
ENDBRANCH  10  12
ENDBRANCH   8  10
ENDBRANCH   7   8
ENDBRANCH   6   7
ENDBRANCH   5   6
ENDBRANCH   4   5
ENDBRANCH   3   4
ENDBRANCH   2   3
ENDBRANCH   1   2
BRANCH   1  22
ATOM     22  C   UNL A   1      32.747  33.495  27.463  1.00  0.00     0.188 C 
BRANCH  22  23
ATOM     23  C   UNL A   1      31.489  32.779  26.920  1.00  0.00     0.188 C 
BRANCH  23  24
ATOM     24  O   UNL A   1      31.774  31.661  26.093  1.00  0.00    -0.376 OA
BRANCH  24  25
ATOM     25  C   UNL A   1      32.176  30.446  26.705  1.00  0.00     0.202 C 
BRANCH  25  26
ATOM     26  C   UNL A   1      33.684  30.209  26.890  1.00  0.00     0.261 C 
BRANCH  26  27
ATOM     27  O   UNL A   1      34.140  30.020  28.238  1.00  0.00    -0.460 OA
BRANCH  27  28
ATOM     28  C   UNL A   1      35.082  30.861  28.706  1.00  0.00     0.338 C 
ATOM     29  O   UNL A   1      34.905  31.965  29.199  1.00  0.00    -0.246 OA
BRANCH  28  30
ATOM     30  C   UNL A   1      36.371  30.141  28.714  1.00  0.00     0.060 A 
ATOM     31  C   UNL A   1      36.725  29.392  29.846  1.00  0.00     0.016 A 
ATOM     32  C   UNL A   1      37.230  30.206  27.614  1.00  0.00     0.016 A 
ATOM     33  C   UNL A   1      37.959  28.745  29.899  1.00  0.00     0.010 A 
ATOM     34  C   UNL A   1      38.476  29.577  27.678  1.00  0.00     0.010 A 
ATOM     35  C   UNL A   1      38.861  28.879  28.837  1.00  0.00    -0.014 A 
BRANCH  35  36
ATOM     36  C   UNL A   1      40.275  28.473  29.024  1.00  0.00     0.031 A 
ATOM     37  C   UNL A   1      41.200  29.423  29.735  1.00  0.00     0.074 A 
ATOM     38  C   UNL A   1      40.726  27.279  28.603  1.00  0.00     0.049 A 
ATOM     39  N   UNL A   1      42.477  29.308  29.993  1.00  0.00    -0.248 NA
ATOM     40  C   UNL A   1      40.599  30.676  30.219  1.00  0.00     0.031 C 
ATOM     41  C   UNL A   1      39.919  26.252  27.947  1.00  0.00     0.029 A 
ATOM     42  N   UNL A   1      41.984  26.734  28.665  1.00  0.00    -0.354 N 
ATOM     43  C   UNL A   1      42.835  30.477  30.652  1.00  0.00     0.074 A 
ATOM     44  C   UNL A   1      41.648  31.300  30.730  1.00  0.00     0.031 C 
ATOM     45  C   UNL A   1      40.705  25.198  27.663  1.00  0.00     0.029 A 
ATOM     46  C   UNL A   1      42.074  25.492  28.084  1.00  0.00     0.049 A 
ATOM     47  H   UNL A   1      42.748  27.189  29.085  1.00  0.00     0.167 HD
ATOM     48  C   UNL A   1      44.042  30.833  31.150  1.00  0.00     0.037 A 
ATOM     49  C   UNL A   1      43.146  24.697  27.899  1.00  0.00     0.037 A 
ATOM     50  C   UNL A   1      45.222  30.011  31.069  1.00  0.00     0.049 A 
ATOM     51  C   UNL A   1      44.497  25.152  28.389  1.00  0.00     0.074 A 
ATOM     52  C   UNL A   1      46.485  30.265  31.572  1.00  0.00     0.029 A 
ATOM     53  N   UNL A   1      45.284  28.781  30.431  1.00  0.00    -0.354 N 
ATOM     54  N   UNL A   1      44.821  26.241  29.042  1.00  0.00    -0.248 NA
ATOM     55  C   UNL A   1      45.634  24.260  28.114  1.00  0.00     0.031 C 
ATOM     56  C   UNL A   1      47.329  29.222  31.177  1.00  0.00     0.029 A 
ATOM     57  C   UNL A   1      46.575  28.283  30.490  1.00  0.00     0.049 A 
ATOM     58  H   UNL A   1      44.524  28.330  29.997  1.00  0.00     0.167 HD
ATOM     59  C   UNL A   1      46.187  26.150  29.288  1.00  0.00     0.074 A 
ATOM     60  C   UNL A   1      46.628  24.892  28.722  1.00  0.00     0.031 C 
ATOM     61  C   UNL A   1      47.002  27.026  29.927  1.00  0.00     0.037 A 
BRANCH  48  62
ATOM     62  C   UNL A   1      44.157  32.190  31.783  1.00  0.00     0.057 A 
ATOM     63  C   UNL A   1      43.939  32.400  33.152  1.00  0.00     0.134 A 
ATOM     64  C   UNL A   1      44.507  33.304  31.008  1.00  0.00     0.134 A 
ATOM     65  F   UNL A   1      43.585  31.380  33.948  1.00  0.00    -0.206 F 
ATOM     66  C   UNL A   1      44.033  33.673  33.719  1.00  0.00     0.040 A 
ATOM     67  C   UNL A   1      44.636  34.575  31.571  1.00  0.00     0.040 A 
ATOM     68  F   UNL A   1      44.734  33.175  29.692  1.00  0.00    -0.206 F 
ATOM     69  C   UNL A   1      44.390  34.763  32.929  1.00  0.00     0.006 A 
ENDBRANCH  48  62
BRANCH  49  70
ATOM     70  C   UNL A   1      42.995  23.386  27.215  1.00  0.00     0.057 A 
ATOM     71  C   UNL A   1      42.552  22.255  27.911  1.00  0.00     0.134 A 
ATOM     72  C   UNL A   1      43.318  23.224  25.862  1.00  0.00     0.134 A 
ATOM     73  F   UNL A   1      42.253  22.339  29.216  1.00  0.00    -0.206 F 
ATOM     74  C   UNL A   1      42.451  21.007  27.293  1.00  0.00     0.040 A 
ATOM     75  C   UNL A   1      43.195  21.988  25.224  1.00  0.00     0.040 A 
ATOM     76  F   UNL A   1      43.751  24.267  25.139  1.00  0.00    -0.206 F 
ATOM     77  C   UNL A   1      42.769  20.873  25.943  1.00  0.00     0.006 A 
ENDBRANCH  49  70
BRANCH  61  78
ATOM     78  C   UNL A   1      48.444  26.635  30.092  1.00  0.00     0.057 A 
ATOM     79  C   UNL A   1      48.885  25.833  31.152  1.00  0.00     0.134 A 
ATOM     80  C   UNL A   1      49.401  27.043  29.153  1.00  0.00     0.134 A 
ATOM     81  F   UNL A   1      48.023  25.416  32.093  1.00  0.00    -0.206 F 
ATOM     82  C   UNL A   1      50.228  25.477  31.290  1.00  0.00     0.040 A 
ATOM     83  C   UNL A   1      50.740  26.664  29.260  1.00  0.00     0.040 A 
ATOM     84  F   UNL A   1      49.049  27.802  28.103  1.00  0.00    -0.206 F 
ATOM     85  C   UNL A   1      51.159  25.886  30.337  1.00  0.00     0.006 A 
ENDBRANCH  61  78
ENDBRANCH  35  36
ENDBRANCH  28  30
ENDBRANCH  27  28
ENDBRANCH  26  27
ENDBRANCH  25  26
ENDBRANCH  24  25
ENDBRANCH  23  24
ENDBRANCH  22  23
ENDBRANCH   1  22
TORSDOF 22
ENDMDL
