MODEL 1
REMARK VINA RESULT:     -11.3      0.000      0.000
REMARK SMILES C[C@H]1CCc2sc3ncn4nc(/C=C\C(=O)OCCOCCOCCOCCOC(=O)c5ccc(-c6c7nc(c(-c8c(F)cccc8F)c8ccc([nH]8)c(-c8c(F)cccc8F)c8nc(c(-c9c(F)cccc9F)c9ccc6[nH]9)C=C8)C=C7)cc5)nc4c3c2C1
REMARK SMILES IDX 24 1 23 2 22 3 21 4 20 5 19 6 18 7 17 8 15 9 16 10 14 11
REMARK SMILES IDX 13 12 12 13 1 14 2 15 3 16 90 17 4 18 89 19 5 20 88 21 6 22
REMARK SMILES IDX 7 23 87 24 8 25 10 26 86 27 9 28 11 29 25 30 26 31 27 32
REMARK SMILES IDX 28 33 29 34 30 35 31 36 32 37 33 38 85 39 34 40 84 41 35 42
REMARK SMILES IDX 36 43 37 44 78 45 38 46 83 47 77 48 79 49 39 50 82 51 76 52
REMARK SMILES IDX 75 53 40 55 66 56 49 57 65 58 50 59 53 60 64 61 80 62 51 63
REMARK SMILES IDX 52 64 63 66 81 67 54 68 41 69 42 70 47 71 43 72 44 73 46 74
REMARK SMILES IDX 48 75 45 76 67 77 68 78 73 79 69 80 70 81 72 82 74 83 71 84
REMARK SMILES IDX 55 85 56 86 61 87 57 88 58 89 60 90 62 91 59 92
REMARK H PARENT 79 54 53 65
REMARK Flexibility Score: inf
ROOT
ATOM      1  C   UNL A   1      46.201  22.206  24.616  1.00  0.00     0.188 C 
ENDROOT
BRANCH   1   2
ATOM      2  O   UNL A   1      46.052  21.061  25.436  1.00  0.00    -0.377 OA
BRANCH   2   3
ATOM      3  C   UNL A   1      45.830  19.834  24.753  1.00  0.00     0.188 C 
BRANCH   3   4
ATOM      4  C   UNL A   1      44.403  19.236  24.744  1.00  0.00     0.188 C 
BRANCH   4   5
ATOM      5  O   UNL A   1      44.276  18.073  25.552  1.00  0.00    -0.376 OA
BRANCH   5   6
ATOM      6  C   UNL A   1      43.204  18.070  26.481  1.00  0.00     0.202 C 
BRANCH   6   7
ATOM      7  C   UNL A   1      42.431  19.379  26.498  1.00  0.00     0.261 C 
BRANCH   7   8
ATOM      8  O   UNL A   1      41.039  19.246  26.778  1.00  0.00    -0.460 OA
BRANCH   8   9
ATOM      9  C   UNL A   1      40.149  19.805  25.952  1.00  0.00     0.330 C 
ATOM     10  O   UNL A   1      39.240  19.224  25.377  1.00  0.00    -0.247 OA
BRANCH   9  11
ATOM     11  C   UNL A   1      40.270  21.278  25.982  1.00  0.00     0.097 C 
ATOM     12  C   UNL A   1      39.337  22.246  25.902  1.00  0.00     0.058 C 
BRANCH  12  13
ATOM     13  C   UNL A   1      37.908  22.211  25.808  1.00  0.00     0.175 A 
ATOM     14  C   UNL A   1      34.708  16.274  25.381  1.00  0.00     0.008 C 
ATOM     15  C   UNL A   1      34.812  17.060  24.072  1.00  0.00    -0.009 C 
ATOM     16  C   UNL A   1      33.467  17.147  23.321  1.00  0.00     0.009 C 
ATOM     17  C   UNL A   1      35.407  18.457  24.310  1.00  0.00     0.041 C 
ATOM     18  C   UNL A   1      32.424  18.050  24.010  1.00  0.00     0.047 C 
ATOM     19  C   UNL A   1      34.415  19.504  24.654  1.00  0.00    -0.020 A 
ATOM     20  C   UNL A   1      33.057  19.318  24.502  1.00  0.00     0.011 A 
ATOM     21  C   UNL A   1      34.694  20.800  25.138  1.00  0.00     0.060 A 
ATOM     22  S   UNL A   1      32.154  20.688  24.986  1.00  0.00    -0.120 S 
ATOM     23  C   UNL A   1      33.571  21.573  25.385  1.00  0.00     0.129 A 
ATOM     24  C   UNL A   1      35.968  21.479  25.439  1.00  0.00     0.168 A 
ATOM     25  N   UNL A   1      33.529  22.858  25.878  1.00  0.00    -0.225 NA
ATOM     26  N   UNL A   1      35.897  22.752  25.905  1.00  0.00    -0.201 N 
ATOM     27  N   UNL A   1      37.219  21.100  25.373  1.00  0.00    -0.207 NA
ATOM     28  C   UNL A   1      34.691  23.416  26.127  1.00  0.00     0.227 A 
ATOM     29  N   UNL A   1      37.124  23.260  26.131  1.00  0.00    -0.145 NA
ENDBRANCH  12  13
ENDBRANCH   9  11
ENDBRANCH   8   9
ENDBRANCH   7   8
ENDBRANCH   6   7
ENDBRANCH   5   6
ENDBRANCH   4   5
ENDBRANCH   3   4
ENDBRANCH   2   3
ENDBRANCH   1   2
BRANCH   1  30
ATOM     30  C   UNL A   1      44.870  22.782  24.088  1.00  0.00     0.188 C 
BRANCH  30  31
ATOM     31  O   UNL A   1      43.716  23.001  24.897  1.00  0.00    -0.376 OA
BRANCH  31  32
ATOM     32  C   UNL A   1      43.689  23.836  26.043  1.00  0.00     0.202 C 
BRANCH  32  33
ATOM     33  C   UNL A   1      42.427  24.103  26.857  1.00  0.00     0.261 C 
BRANCH  33  34
ATOM     34  O   UNL A   1      42.131  25.467  27.040  1.00  0.00    -0.460 OA
BRANCH  34  35
ATOM     35  C   UNL A   1      41.175  25.912  26.221  1.00  0.00     0.338 C 
ATOM     36  O   UNL A   1      41.099  25.748  25.000  1.00  0.00    -0.246 OA
BRANCH  35  37
ATOM     37  C   UNL A   1      40.278  26.776  26.980  1.00  0.00     0.060 A 
ATOM     38  C   UNL A   1      40.459  28.137  26.756  1.00  0.00     0.016 A 
ATOM     39  C   UNL A   1      39.645  26.271  28.130  1.00  0.00     0.016 A 
ATOM     40  C   UNL A   1      40.333  28.965  27.836  1.00  0.00     0.010 A 
ATOM     41  C   UNL A   1      39.512  27.107  29.210  1.00  0.00     0.010 A 
ATOM     42  C   UNL A   1      39.979  28.407  29.072  1.00  0.00    -0.014 A 
BRANCH  42  43
ATOM     43  C   UNL A   1      40.112  29.267  30.220  1.00  0.00     0.031 A 
ATOM     44  C   UNL A   1      38.926  30.116  30.421  1.00  0.00     0.074 A 
ATOM     45  C   UNL A   1      41.214  29.290  30.989  1.00  0.00     0.049 A 
ATOM     46  N   UNL A   1      38.838  31.388  30.228  1.00  0.00    -0.248 NA
ATOM     47  C   UNL A   1      37.645  29.440  30.664  1.00  0.00     0.031 C 
ATOM     48  C   UNL A   1      42.339  28.352  31.022  1.00  0.00     0.029 A 
ATOM     49  N   UNL A   1      41.514  30.165  31.981  1.00  0.00    -0.354 N 
ATOM     50  C   UNL A   1      37.521  31.710  30.515  1.00  0.00     0.074 A 
ATOM     51  C   UNL A   1      36.799  30.467  30.603  1.00  0.00     0.031 C 
ATOM     52  C   UNL A   1      43.070  28.580  32.139  1.00  0.00     0.029 A 
ATOM     53  C   UNL A   1      42.547  29.759  32.810  1.00  0.00     0.049 A 
ATOM     54  H   UNL A   1      41.038  31.018  32.102  1.00  0.00     0.167 HD
ATOM     55  C   UNL A   1      37.184  32.967  30.903  1.00  0.00     0.037 A 
ATOM     56  C   UNL A   1      42.861  30.321  34.002  1.00  0.00     0.037 A 
ATOM     57  C   UNL A   1      38.192  33.923  30.518  1.00  0.00     0.049 A 
ATOM     58  C   UNL A   1      42.288  31.695  34.011  1.00  0.00     0.074 A 
ATOM     59  C   UNL A   1      38.715  34.339  29.309  1.00  0.00     0.029 A 
ATOM     60  N   UNL A   1      39.086  34.335  31.476  1.00  0.00    -0.354 N 
ATOM     61  N   UNL A   1      42.724  32.664  33.253  1.00  0.00    -0.248 NA
ATOM     62  C   UNL A   1      40.927  31.859  34.507  1.00  0.00     0.031 C 
ATOM     63  C   UNL A   1      40.100  34.554  29.557  1.00  0.00     0.029 A 
ATOM     64  C   UNL A   1      40.335  34.310  30.911  1.00  0.00     0.049 A 
ATOM     65  H   UNL A   1      38.870  34.601  32.399  1.00  0.00     0.167 HD
ATOM     66  C   UNL A   1      41.580  33.328  32.831  1.00  0.00     0.074 A 
ATOM     67  C   UNL A   1      40.512  32.837  33.696  1.00  0.00     0.031 C 
ATOM     68  C   UNL A   1      41.544  33.993  31.637  1.00  0.00     0.037 A 
BRANCH  55  69
ATOM     69  C   UNL A   1      36.149  33.249  31.955  1.00  0.00     0.057 A 
ATOM     70  C   UNL A   1      34.963  33.902  31.586  1.00  0.00     0.134 A 
ATOM     71  C   UNL A   1      36.390  33.173  33.343  1.00  0.00     0.134 A 
ATOM     72  F   UNL A   1      34.633  34.054  30.294  1.00  0.00    -0.206 F 
ATOM     73  C   UNL A   1      34.116  34.499  32.526  1.00  0.00     0.040 A 
ATOM     74  C   UNL A   1      35.525  33.717  34.292  1.00  0.00     0.040 A 
ATOM     75  F   UNL A   1      37.518  32.667  33.855  1.00  0.00    -0.206 F 
ATOM     76  C   UNL A   1      34.400  34.413  33.884  1.00  0.00     0.006 A 
ENDBRANCH  55  69
BRANCH  56  77
ATOM     77  C   UNL A   1      43.276  29.619  35.240  1.00  0.00     0.057 A 
ATOM     78  C   UNL A   1      42.519  28.563  35.766  1.00  0.00     0.134 A 
ATOM     79  C   UNL A   1      44.561  29.787  35.787  1.00  0.00     0.134 A 
ATOM     80  F   UNL A   1      41.300  28.290  35.277  1.00  0.00    -0.206 F 
ATOM     81  C   UNL A   1      43.016  27.717  36.767  1.00  0.00     0.040 A 
ATOM     82  C   UNL A   1      45.066  28.955  36.790  1.00  0.00     0.040 A 
ATOM     83  F   UNL A   1      45.407  30.709  35.306  1.00  0.00    -0.206 F 
ATOM     84  C   UNL A   1      44.297  27.906  37.276  1.00  0.00     0.006 A 
ENDBRANCH  56  77
BRANCH  68  85
ATOM     85  C   UNL A   1      42.838  34.183  30.892  1.00  0.00     0.057 A 
ATOM     86  C   UNL A   1      43.310  33.300  29.909  1.00  0.00     0.134 A 
ATOM     87  C   UNL A   1      43.525  35.393  31.039  1.00  0.00     0.134 A 
ATOM     88  F   UNL A   1      42.663  32.162  29.631  1.00  0.00    -0.206 F 
ATOM     89  C   UNL A   1      44.432  33.598  29.126  1.00  0.00     0.040 A 
ATOM     90  C   UNL A   1      44.626  35.718  30.241  1.00  0.00     0.040 A 
ATOM     91  F   UNL A   1      43.098  36.311  31.920  1.00  0.00    -0.206 F 
ATOM     92  C   UNL A   1      45.085  34.817  29.285  1.00  0.00     0.006 A 
ENDBRANCH  68  85
ENDBRANCH  42  43
ENDBRANCH  35  37
ENDBRANCH  34  35
ENDBRANCH  33  34
ENDBRANCH  32  33
ENDBRANCH  31  32
ENDBRANCH  30  31
ENDBRANCH   1  30
TORSDOF 21
ENDMDL
MODEL 2
REMARK VINA RESULT:     -11.2      3.618      8.257
REMARK SMILES C[C@H]1CCc2sc3ncn4nc(/C=C\C(=O)OCCOCCOCCOCCOC(=O)c5ccc(-c6c7nc(c(-c8c(F)cccc8F)c8ccc([nH]8)c(-c8c(F)cccc8F)c8nc(c(-c9c(F)cccc9F)c9ccc6[nH]9)C=C8)C=C7)cc5)nc4c3c2C1
REMARK SMILES IDX 24 1 23 2 22 3 21 4 20 5 19 6 18 7 17 8 15 9 16 10 14 11
REMARK SMILES IDX 13 12 12 13 1 14 2 15 3 16 90 17 4 18 89 19 5 20 88 21 6 22
REMARK SMILES IDX 7 23 87 24 8 25 10 26 86 27 9 28 11 29 25 30 26 31 27 32
REMARK SMILES IDX 28 33 29 34 30 35 31 36 32 37 33 38 85 39 34 40 84 41 35 42
REMARK SMILES IDX 36 43 37 44 78 45 38 46 83 47 77 48 79 49 39 50 82 51 76 52
REMARK SMILES IDX 75 53 40 55 66 56 49 57 65 58 50 59 53 60 64 61 80 62 51 63
REMARK SMILES IDX 52 64 63 66 81 67 54 68 41 69 42 70 47 71 43 72 44 73 46 74
REMARK SMILES IDX 48 75 45 76 67 77 68 78 73 79 69 80 70 81 72 82 74 83 71 84
REMARK SMILES IDX 55 85 56 86 61 87 57 88 58 89 60 90 62 91 59 92
REMARK H PARENT 79 54 53 65
REMARK Flexibility Score: inf
ROOT
ATOM      1  C   UNL A   1      42.659  18.093  26.412  1.00  0.00     0.188 C 
ENDROOT
BRANCH   1   2
ATOM      2  O   UNL A   1      41.581  18.738  25.759  1.00  0.00    -0.377 OA
BRANCH   2   3
ATOM      3  C   UNL A   1      40.922  19.754  26.506  1.00  0.00     0.188 C 
BRANCH   3   4
ATOM      4  C   UNL A   1      41.290  21.232  26.237  1.00  0.00     0.188 C 
BRANCH   4   5
ATOM      5  O   UNL A   1      40.182  22.115  26.345  1.00  0.00    -0.376 OA
BRANCH   5   6
ATOM      6  C   UNL A   1      38.898  21.530  26.204  1.00  0.00     0.202 C 
BRANCH   6   7
ATOM      7  C   UNL A   1      37.937  22.395  25.403  1.00  0.00     0.261 C 
BRANCH   7   8
ATOM      8  O   UNL A   1      37.434  21.786  24.215  1.00  0.00    -0.460 OA
BRANCH   8   9
ATOM      9  C   UNL A   1      36.341  22.288  23.635  1.00  0.00     0.330 C 
ATOM     10  O   UNL A   1      36.313  22.954  22.610  1.00  0.00    -0.247 OA
BRANCH   9  11
ATOM     11  C   UNL A   1      35.122  21.754  24.279  1.00  0.00     0.097 C 
ATOM     12  C   UNL A   1      33.875  22.254  24.371  1.00  0.00     0.058 C 
BRANCH  12  13
ATOM     13  C   UNL A   1      33.264  23.440  23.851  1.00  0.00     0.175 A 
ATOM     14  C   UNL A   1      34.185  29.351  26.995  1.00  0.00     0.008 C 
ATOM     15  C   UNL A   1      32.817  28.698  27.211  1.00  0.00    -0.009 C 
ATOM     16  C   UNL A   1      31.649  29.684  27.007  1.00  0.00     0.009 C 
ATOM     17  C   UNL A   1      32.653  27.451  26.328  1.00  0.00     0.041 C 
ATOM     18  C   UNL A   1      31.436  30.106  25.539  1.00  0.00     0.047 C 
ATOM     19  C   UNL A   1      32.116  27.717  24.972  1.00  0.00    -0.020 A 
ATOM     20  C   UNL A   1      31.550  28.924  24.622  1.00  0.00     0.011 A 
ATOM     21  C   UNL A   1      32.076  26.810  23.891  1.00  0.00     0.060 A 
ATOM     22  S   UNL A   1      31.025  28.950  22.994  1.00  0.00    -0.120 S 
ATOM     23  C   UNL A   1      31.524  27.328  22.730  1.00  0.00     0.129 A 
ATOM     24  C   UNL A   1      32.526  25.411  23.770  1.00  0.00     0.168 A 
ATOM     25  N   UNL A   1      31.374  26.692  21.518  1.00  0.00    -0.225 NA
ATOM     26  N   UNL A   1      32.347  24.804  22.568  1.00  0.00    -0.201 N 
ATOM     27  N   UNL A   1      33.111  24.586  24.601  1.00  0.00    -0.207 NA
ATOM     28  C   UNL A   1      31.789  25.448  21.465  1.00  0.00     0.227 A 
ATOM     29  N   UNL A   1      32.789  23.532  22.592  1.00  0.00    -0.145 NA
ENDBRANCH  12  13
ENDBRANCH   9  11
ENDBRANCH   8   9
ENDBRANCH   7   8
ENDBRANCH   6   7
ENDBRANCH   5   6
ENDBRANCH   4   5
ENDBRANCH   3   4
ENDBRANCH   2   3
ENDBRANCH   1   2
BRANCH   1  30
ATOM     30  C   UNL A   1      44.034  18.749  26.160  1.00  0.00     0.188 C 
BRANCH  30  31
ATOM     31  O   UNL A   1      45.117  18.105  25.492  1.00  0.00    -0.376 OA
BRANCH  31  32
ATOM     32  C   UNL A   1      46.423  18.645  25.379  1.00  0.00     0.202 C 
BRANCH  32  33
ATOM     33  C   UNL A   1      46.732  19.949  24.650  1.00  0.00     0.261 C 
BRANCH  33  34
ATOM     34  O   UNL A   1      45.595  20.655  24.214  1.00  0.00    -0.460 OA
BRANCH  34  35
ATOM     35  C   UNL A   1      45.730  21.980  24.311  1.00  0.00     0.338 C 
ATOM     36  O   UNL A   1      46.654  22.673  23.876  1.00  0.00    -0.246 OA
BRANCH  35  37
ATOM     37  C   UNL A   1      44.663  22.494  25.163  1.00  0.00     0.060 A 
ATOM     38  C   UNL A   1      43.786  23.368  24.528  1.00  0.00     0.016 A 
ATOM     39  C   UNL A   1      44.817  22.451  26.560  1.00  0.00     0.016 A 
ATOM     40  C   UNL A   1      43.336  24.433  25.257  1.00  0.00     0.010 A 
ATOM     41  C   UNL A   1      44.356  23.517  27.290  1.00  0.00     0.010 A 
ATOM     42  C   UNL A   1      43.736  24.546  26.596  1.00  0.00    -0.014 A 
BRANCH  42  43
ATOM     43  C   UNL A   1      43.453  25.804  27.239  1.00  0.00     0.031 A 
ATOM     44  C   UNL A   1      44.498  26.809  26.982  1.00  0.00     0.074 A 
ATOM     45  C   UNL A   1      42.365  26.003  28.001  1.00  0.00     0.049 A 
ATOM     46  N   UNL A   1      45.367  27.259  27.822  1.00  0.00    -0.248 NA
ATOM     47  C   UNL A   1      44.731  27.198  25.585  1.00  0.00     0.031 C 
ATOM     48  C   UNL A   1      41.167  25.171  28.141  1.00  0.00     0.029 A 
ATOM     49  N   UNL A   1      42.084  27.078  28.781  1.00  0.00    -0.354 N 
ATOM     50  C   UNL A   1      46.147  28.148  27.098  1.00  0.00     0.074 A 
ATOM     51  C   UNL A   1      45.830  27.940  25.708  1.00  0.00     0.031 C 
ATOM     52  C   UNL A   1      40.203  25.887  28.767  1.00  0.00     0.029 A 
ATOM     53  C   UNL A   1      40.764  27.160  29.190  1.00  0.00     0.049 A 
ATOM     54  H   UNL A   1      42.763  27.744  29.035  1.00  0.00     0.167 HD
ATOM     55  C   UNL A   1      46.809  29.155  27.722  1.00  0.00     0.037 A 
ATOM     56  C   UNL A   1      40.183  28.249  29.750  1.00  0.00     0.037 A 
ATOM     57  C   UNL A   1      46.975  28.883  29.127  1.00  0.00     0.049 A 
ATOM     58  C   UNL A   1      41.273  29.096  30.306  1.00  0.00     0.074 A 
ATOM     59  C   UNL A   1      47.615  27.895  29.850  1.00  0.00     0.029 A 
ATOM     60  N   UNL A   1      46.111  29.490  30.006  1.00  0.00    -0.354 N 
ATOM     61  N   UNL A   1      42.003  28.753  31.333  1.00  0.00    -0.248 NA
ATOM     62  C   UNL A   1      41.867  30.098  29.430  1.00  0.00     0.031 C 
ATOM     63  C   UNL A   1      46.775  27.652  30.973  1.00  0.00     0.029 A 
ATOM     64  C   UNL A   1      45.700  28.539  30.903  1.00  0.00     0.049 A 
ATOM     65  H   UNL A   1      45.838  30.437  29.994  1.00  0.00     0.167 HD
ATOM     66  C   UNL A   1      43.290  29.157  31.007  1.00  0.00     0.074 A 
ATOM     67  C   UNL A   1      43.132  30.048  29.860  1.00  0.00     0.031 C 
ATOM     68  C   UNL A   1      44.386  28.510  31.505  1.00  0.00     0.037 A 
BRANCH  55  69
ATOM     69  C   UNL A   1      46.948  30.530  27.133  1.00  0.00     0.057 A 
ATOM     70  C   UNL A   1      48.219  31.124  27.081  1.00  0.00     0.134 A 
ATOM     71  C   UNL A   1      45.865  31.400  26.890  1.00  0.00     0.134 A 
ATOM     72  F   UNL A   1      49.326  30.404  27.314  1.00  0.00    -0.206 F 
ATOM     73  C   UNL A   1      48.393  32.497  26.874  1.00  0.00     0.040 A 
ATOM     74  C   UNL A   1      46.031  32.760  26.628  1.00  0.00     0.040 A 
ATOM     75  F   UNL A   1      44.588  31.013  26.994  1.00  0.00    -0.206 F 
ATOM     76  C   UNL A   1      47.296  33.321  26.654  1.00  0.00     0.006 A 
ENDBRANCH  55  69
BRANCH  56  77
ATOM     77  C   UNL A   1      38.819  28.767  29.492  1.00  0.00     0.057 A 
ATOM     78  C   UNL A   1      37.854  28.814  30.508  1.00  0.00     0.134 A 
ATOM     79  C   UNL A   1      38.510  29.477  28.317  1.00  0.00     0.134 A 
ATOM     80  F   UNL A   1      38.076  28.210  31.685  1.00  0.00    -0.206 F 
ATOM     81  C   UNL A   1      36.659  29.535  30.368  1.00  0.00     0.040 A 
ATOM     82  C   UNL A   1      37.321  30.194  28.162  1.00  0.00     0.040 A 
ATOM     83  F   UNL A   1      39.391  29.575  27.312  1.00  0.00    -0.206 F 
ATOM     84  C   UNL A   1      36.394  30.235  29.195  1.00  0.00     0.006 A 
ENDBRANCH  56  77
BRANCH  68  85
ATOM     85  C   UNL A   1      44.175  27.493  32.594  1.00  0.00     0.057 A 
ATOM     86  C   UNL A   1      44.063  26.113  32.363  1.00  0.00     0.134 A 
ATOM     87  C   UNL A   1      44.281  27.905  33.927  1.00  0.00     0.134 A 
ATOM     88  F   UNL A   1      44.052  25.617  31.120  1.00  0.00    -0.206 F 
ATOM     89  C   UNL A   1      44.032  25.189  33.414  1.00  0.00     0.040 A 
ATOM     90  C   UNL A   1      44.285  26.991  34.984  1.00  0.00     0.040 A 
ATOM     91  F   UNL A   1      44.446  29.204  34.223  1.00  0.00    -0.206 F 
ATOM     92  C   UNL A   1      44.155  25.629  34.729  1.00  0.00     0.006 A 
ENDBRANCH  68  85
ENDBRANCH  42  43
ENDBRANCH  35  37
ENDBRANCH  34  35
ENDBRANCH  33  34
ENDBRANCH  32  33
ENDBRANCH  31  32
ENDBRANCH  30  31
ENDBRANCH   1  30
TORSDOF 21
ENDMDL
MODEL 3
REMARK VINA RESULT:     -11.0      1.575      2.738
REMARK SMILES C[C@H]1CCc2sc3ncn4nc(/C=C\C(=O)OCCOCCOCCOCCOC(=O)c5ccc(-c6c7nc(c(-c8c(F)cccc8F)c8ccc([nH]8)c(-c8c(F)cccc8F)c8nc(c(-c9c(F)cccc9F)c9ccc6[nH]9)C=C8)C=C7)cc5)nc4c3c2C1
REMARK SMILES IDX 24 1 23 2 22 3 21 4 20 5 19 6 18 7 17 8 15 9 16 10 14 11
REMARK SMILES IDX 13 12 12 13 1 14 2 15 3 16 90 17 4 18 89 19 5 20 88 21 6 22
REMARK SMILES IDX 7 23 87 24 8 25 10 26 86 27 9 28 11 29 25 30 26 31 27 32
REMARK SMILES IDX 28 33 29 34 30 35 31 36 32 37 33 38 85 39 34 40 84 41 35 42
REMARK SMILES IDX 36 43 37 44 78 45 38 46 83 47 77 48 79 49 39 50 82 51 76 52
REMARK SMILES IDX 75 53 40 55 66 56 49 57 65 58 50 59 53 60 64 61 80 62 51 63
REMARK SMILES IDX 52 64 63 66 81 67 54 68 41 69 42 70 47 71 43 72 44 73 46 74
REMARK SMILES IDX 48 75 45 76 67 77 68 78 73 79 69 80 70 81 72 82 74 83 71 84
REMARK SMILES IDX 55 85 56 86 61 87 57 88 58 89 60 90 62 91 59 92
REMARK H PARENT 79 54 53 65
REMARK Flexibility Score: inf
ROOT
ATOM      1  C   UNL A   1      46.025  21.630  24.621  1.00  0.00     0.188 C 
ENDROOT
BRANCH   1   2
ATOM      2  O   UNL A   1      45.556  20.653  25.532  1.00  0.00    -0.377 OA
BRANCH   2   3
ATOM      3  C   UNL A   1      45.305  19.364  24.984  1.00  0.00     0.188 C 
BRANCH   3   4
ATOM      4  C   UNL A   1      43.858  18.820  24.995  1.00  0.00     0.188 C 
BRANCH   4   5
ATOM      5  O   UNL A   1      43.475  18.268  26.248  1.00  0.00    -0.376 OA
BRANCH   5   6
ATOM      6  C   UNL A   1      42.494  18.988  26.977  1.00  0.00     0.202 C 
BRANCH   6   7
ATOM      7  C   UNL A   1      41.389  19.546  26.092  1.00  0.00     0.261 C 
BRANCH   7   8
ATOM      8  O   UNL A   1      40.577  20.542  26.708  1.00  0.00    -0.460 OA
BRANCH   8   9
ATOM      9  C   UNL A   1      39.543  21.053  26.034  1.00  0.00     0.330 C 
ATOM     10  O   UNL A   1      38.770  20.427  25.323  1.00  0.00    -0.247 OA
BRANCH   9  11
ATOM     11  C   UNL A   1      39.314  22.460  26.426  1.00  0.00     0.097 C 
ATOM     12  C   UNL A   1      38.234  23.253  26.295  1.00  0.00     0.058 C 
BRANCH  12  13
ATOM     13  C   UNL A   1      36.916  23.021  25.782  1.00  0.00     0.175 A 
ATOM     14  C   UNL A   1      33.758  27.883  22.310  1.00  0.00     0.008 C 
ATOM     15  C   UNL A   1      33.273  27.682  23.748  1.00  0.00    -0.009 C 
ATOM     16  C   UNL A   1      31.736  27.603  23.852  1.00  0.00     0.009 C 
ATOM     17  C   UNL A   1      33.937  26.454  24.390  1.00  0.00     0.041 C 
ATOM     18  C   UNL A   1      31.135  26.313  23.259  1.00  0.00     0.047 C 
ATOM     19  C   UNL A   1      33.229  25.172  24.158  1.00  0.00    -0.020 A 
ATOM     20  C   UNL A   1      31.946  25.114  23.655  1.00  0.00     0.011 A 
ATOM     21  C   UNL A   1      33.721  23.878  24.430  1.00  0.00     0.060 A 
ATOM     22  S   UNL A   1      31.386  23.507  23.484  1.00  0.00    -0.120 S 
ATOM     23  C   UNL A   1      32.846  22.853  24.107  1.00  0.00     0.129 A 
ATOM     24  C   UNL A   1      35.006  23.418  24.988  1.00  0.00     0.168 A 
ATOM     25  N   UNL A   1      33.057  21.499  24.239  1.00  0.00    -0.225 NA
ATOM     26  N   UNL A   1      35.178  22.077  25.125  1.00  0.00    -0.201 N 
ATOM     27  N   UNL A   1      36.084  24.045  25.383  1.00  0.00    -0.207 NA
ATOM     28  C   UNL A   1      34.216  21.143  24.742  1.00  0.00     0.227 A 
ATOM     29  N   UNL A   1      36.383  21.789  25.651  1.00  0.00    -0.145 NA
ENDBRANCH  12  13
ENDBRANCH   9  11
ENDBRANCH   8   9
ENDBRANCH   7   8
ENDBRANCH   6   7
ENDBRANCH   5   6
ENDBRANCH   4   5
ENDBRANCH   3   4
ENDBRANCH   2   3
ENDBRANCH   1   2
BRANCH   1  30
ATOM     30  C   UNL A   1      44.912  22.318  23.804  1.00  0.00     0.188 C 
BRANCH  30  31
ATOM     31  O   UNL A   1      44.079  23.361  24.307  1.00  0.00    -0.376 OA
BRANCH  31  32
ATOM     32  C   UNL A   1      43.117  23.191  25.335  1.00  0.00     0.202 C 
BRANCH  32  33
ATOM     33  C   UNL A   1      42.813  24.255  26.385  1.00  0.00     0.261 C 
BRANCH  33  34
ATOM     34  O   UNL A   1      41.560  24.878  26.235  1.00  0.00    -0.460 OA
BRANCH  34  35
ATOM     35  C   UNL A   1      41.644  26.122  25.757  1.00  0.00     0.338 C 
ATOM     36  O   UNL A   1      42.463  26.558  24.944  1.00  0.00    -0.246 OA
BRANCH  35  37
ATOM     37  C   UNL A   1      40.685  26.959  26.468  1.00  0.00     0.060 A 
ATOM     38  C   UNL A   1      40.918  28.326  26.360  1.00  0.00     0.016 A 
ATOM     39  C   UNL A   1      39.915  26.397  27.503  1.00  0.00     0.016 A 
ATOM     40  C   UNL A   1      40.687  29.085  27.473  1.00  0.00     0.010 A 
ATOM     41  C   UNL A   1      39.678  27.164  28.615  1.00  0.00     0.010 A 
ATOM     42  C   UNL A   1      40.184  28.456  28.621  1.00  0.00    -0.014 A 
BRANCH  42  43
ATOM     43  C   UNL A   1      40.203  29.235  29.833  1.00  0.00     0.031 A 
ATOM     44  C   UNL A   1      38.996  30.063  29.983  1.00  0.00     0.074 A 
ATOM     45  C   UNL A   1      41.231  29.208  30.698  1.00  0.00     0.049 A 
ATOM     46  N   UNL A   1      38.914  31.345  29.871  1.00  0.00    -0.248 NA
ATOM     47  C   UNL A   1      37.705  29.367  30.061  1.00  0.00     0.031 C 
ATOM     48  C   UNL A   1      42.358  28.274  30.769  1.00  0.00     0.029 A 
ATOM     49  N   UNL A   1      41.432  30.013  31.772  1.00  0.00    -0.354 N 
ATOM     50  C   UNL A   1      37.572  31.642  30.059  1.00  0.00     0.074 A 
ATOM     51  C   UNL A   1      36.858  30.393  29.994  1.00  0.00     0.031 C 
ATOM     52  C   UNL A   1      42.983  28.427  31.961  1.00  0.00     0.029 A 
ATOM     53  C   UNL A   1      42.389  29.554  32.661  1.00  0.00     0.049 A 
ATOM     54  H   UNL A   1      40.937  30.854  31.907  1.00  0.00     0.167 HD
ATOM     55  C   UNL A   1      37.190  32.867  30.500  1.00  0.00     0.037 A 
ATOM     56  C   UNL A   1      42.588  30.032  33.914  1.00  0.00     0.037 A 
ATOM     57  C   UNL A   1      38.218  33.851  30.275  1.00  0.00     0.049 A 
ATOM     58  C   UNL A   1      42.003  31.400  33.965  1.00  0.00     0.074 A 
ATOM     59  C   UNL A   1      38.844  34.353  29.151  1.00  0.00     0.029 A 
ATOM     60  N   UNL A   1      39.018  34.199  31.337  1.00  0.00    -0.354 N 
ATOM     61  N   UNL A   1      42.496  32.422  33.318  1.00  0.00    -0.248 NA
ATOM     62  C   UNL A   1      40.601  31.524  34.345  1.00  0.00     0.031 C 
ATOM     63  C   UNL A   1      40.199  34.555  29.538  1.00  0.00     0.029 A 
ATOM     64  C   UNL A   1      40.313  34.218  30.888  1.00  0.00     0.049 A 
ATOM     65  H   UNL A   1      38.716  34.399  32.253  1.00  0.00     0.167 HD
ATOM     66  C   UNL A   1      41.389  33.109  32.841  1.00  0.00     0.074 A 
ATOM     67  C   UNL A   1      40.251  32.555  33.569  1.00  0.00     0.031 C 
ATOM     68  C   UNL A   1      41.454  33.855  31.697  1.00  0.00     0.037 A 
BRANCH  55  69
ATOM     69  C   UNL A   1      36.060  33.071  31.470  1.00  0.00     0.057 A 
ATOM     70  C   UNL A   1      35.030  33.965  31.138  1.00  0.00     0.134 A 
ATOM     71  C   UNL A   1      36.092  32.660  32.819  1.00  0.00     0.134 A 
ATOM     72  F   UNL A   1      34.907  34.443  29.891  1.00  0.00    -0.206 F 
ATOM     73  C   UNL A   1      34.142  34.467  32.096  1.00  0.00     0.040 A 
ATOM     74  C   UNL A   1      35.177  33.112  33.770  1.00  0.00     0.040 A 
ATOM     75  F   UNL A   1      37.063  31.885  33.317  1.00  0.00    -0.206 F 
ATOM     76  C   UNL A   1      34.218  34.046  33.417  1.00  0.00     0.006 A 
ENDBRANCH  55  69
BRANCH  56  77
ATOM     77  C   UNL A   1      42.896  29.248  35.132  1.00  0.00     0.057 A 
ATOM     78  C   UNL A   1      42.111  28.148  35.507  1.00  0.00     0.134 A 
ATOM     79  C   UNL A   1      44.121  29.389  35.811  1.00  0.00     0.134 A 
ATOM     80  F   UNL A   1      40.949  27.898  34.885  1.00  0.00    -0.206 F 
ATOM     81  C   UNL A   1      42.526  27.237  36.489  1.00  0.00     0.040 A 
ATOM     82  C   UNL A   1      44.543  28.493  36.796  1.00  0.00     0.040 A 
ATOM     83  F   UNL A   1      44.991  30.353  35.479  1.00  0.00    -0.206 F 
ATOM     84  C   UNL A   1      43.750  27.403  37.131  1.00  0.00     0.006 A 
ENDBRANCH  56  77
BRANCH  68  85
ATOM     85  C   UNL A   1      42.808  34.102  31.088  1.00  0.00     0.057 A 
ATOM     86  C   UNL A   1      43.374  33.295  30.089  1.00  0.00     0.134 A 
ATOM     87  C   UNL A   1      43.470  35.298  31.385  1.00  0.00     0.134 A 
ATOM     88  F   UNL A   1      42.763  32.180  29.671  1.00  0.00    -0.206 F 
ATOM     89  C   UNL A   1      44.559  33.652  29.435  1.00  0.00     0.040 A 
ATOM     90  C   UNL A   1      44.636  35.683  30.716  1.00  0.00     0.040 A 
ATOM     91  F   UNL A   1      42.958  36.148  32.289  1.00  0.00    -0.206 F 
ATOM     92  C   UNL A   1      45.186  34.855  29.742  1.00  0.00     0.006 A 
ENDBRANCH  68  85
ENDBRANCH  42  43
ENDBRANCH  35  37
ENDBRANCH  34  35
ENDBRANCH  33  34
ENDBRANCH  32  33
ENDBRANCH  31  32
ENDBRANCH  30  31
ENDBRANCH   1  30
TORSDOF 21
ENDMDL
