MODEL 1
REMARK VINA RESULT:     -11.7      0.000      0.000
REMARK SMILES CC(=O)Nc1cnc(N2CC=C(c3ccccc3C)CC2)c(C(=O)OCCOCCOCCOCCOC(=O)c2ccc(-c3c4nc(c(-c5c(F)cccc5F)c5ccc([nH]5)c(-c5c(F)cccc5F)c5nc(c(-c6c(F)cccc6F)c6ccc3[nH]6)C=C5)C=C4)cc2)c1
REMARK SMILES IDX 31 1 30 2 29 3 28 4 27 5 26 6 25 7 23 8 24 9 22 10 5 11 6 12
REMARK SMILES IDX 94 13 7 14 8 15 4 16 1 17 2 18 3 19 9 21 10 22 21 23 11 24
REMARK SMILES IDX 20 25 12 26 13 27 14 28 18 29 15 30 17 31 19 32 16 33 32 34
REMARK SMILES IDX 33 35 34 36 35 37 36 38 37 39 38 40 39 41 40 42 41 43 93 44
REMARK SMILES IDX 42 45 92 46 43 47 44 48 45 49 86 50 46 51 91 52 85 53 87 54
REMARK SMILES IDX 47 55 90 56 84 57 83 58 48 60 74 61 57 62 73 63 58 64 61 65
REMARK SMILES IDX 72 66 88 67 59 68 60 69 71 71 89 72 62 73 49 74 50 75 55 76
REMARK SMILES IDX 51 77 52 78 54 79 56 80 53 81 75 82 76 83 81 84 77 85 78 86
REMARK SMILES IDX 80 87 82 88 79 89 63 90 64 91 69 92 65 93 66 94 68 95 70 96
REMARK SMILES IDX 67 97
REMARK H PARENT 4 20 87 59 61 70
REMARK Flexibility Score: inf
ROOT
ATOM      1  O   UNL A   1      34.946  30.411  28.468  1.00  0.00    -0.377 OA
ENDROOT
BRANCH   1   2
ATOM      2  C   UNL A   1      34.995  29.407  27.487  1.00  0.00     0.188 C 
BRANCH   2   3
ATOM      3  C   UNL A   1      33.933  29.366  26.395  1.00  0.00     0.188 C 
BRANCH   3   4
ATOM      4  O   UNL A   1      33.185  28.259  25.924  1.00  0.00    -0.376 OA
BRANCH   4   5
ATOM      5  C   UNL A   1      33.714  26.969  26.179  1.00  0.00     0.202 C 
BRANCH   5   6
ATOM      6  C   UNL A   1      34.248  26.089  25.057  1.00  0.00     0.261 C 
BRANCH   6   7
ATOM      7  O   UNL A   1      34.435  24.769  25.522  1.00  0.00    -0.460 OA
BRANCH   7   8
ATOM      8  C   UNL A   1      34.649  23.885  24.523  1.00  0.00     0.342 C 
ATOM      9  O   UNL A   1      35.466  23.930  23.654  1.00  0.00    -0.246 OA
BRANCH   8  10
ATOM     10  C   UNL A   1      33.872  22.716  24.933  1.00  0.00     0.104 A 
ATOM     11  C   UNL A   1      33.828  20.314  25.118  1.00  0.00     0.060 A 
ATOM     12  C   UNL A   1      32.445  20.469  25.178  1.00  0.00     0.139 A 
ATOM     13  C   UNL A   1      34.548  21.480  24.976  1.00  0.00     0.047 A 
ATOM     14  N   UNL A   1      31.768  21.657  25.101  1.00  0.00    -0.236 NA
ATOM     15  C   UNL A   1      32.472  22.805  24.969  1.00  0.00     0.143 A 
BRANCH  11  16
ATOM     16  N   UNL A   1      34.389  19.022  25.109  1.00  0.00    -0.325 N 
ATOM     17  C   UNL A   1      33.124  17.914  23.252  1.00  0.00     0.114 C 
ATOM     18  C   UNL A   1      34.082  17.886  24.412  1.00  0.00     0.221 C 
ATOM     19  O   UNL A   1      34.663  16.840  24.713  1.00  0.00    -0.275 OA
ATOM     20  H   UNL A   1      35.151  18.917  25.723  1.00  0.00     0.169 HD
ENDBRANCH  11  16
BRANCH  15  21
ATOM     21  N   UNL A   1      31.746  23.945  24.580  1.00  0.00    -0.352 N 
ATOM     22  C   UNL A   1      31.329  24.086  23.190  1.00  0.00     0.146 C 
ATOM     23  C   UNL A   1      30.820  24.378  25.617  1.00  0.00     0.123 C 
ATOM     24  C   UNL A   1      30.305  25.180  23.011  1.00  0.00    -0.002 C 
ATOM     25  C   UNL A   1      30.130  25.702  25.424  1.00  0.00     0.057 C 
ATOM     26  C   UNL A   1      29.793  25.940  23.995  1.00  0.00    -0.041 C 
BRANCH  26  27
ATOM     27  C   UNL A   1      28.997  27.137  23.689  1.00  0.00    -0.020 A 
ATOM     28  C   UNL A   1      27.603  27.105  23.844  1.00  0.00     0.008 A 
ATOM     29  C   UNL A   1      29.618  28.299  23.180  1.00  0.00    -0.044 A 
ATOM     30  C   UNL A   1      26.826  28.199  23.462  1.00  0.00     0.001 A 
ATOM     31  C   UNL A   1      28.823  29.391  22.811  1.00  0.00     0.004 A 
ATOM     32  C   UNL A   1      31.114  28.435  23.051  1.00  0.00     0.045 C 
ATOM     33  C   UNL A   1      27.436  29.334  22.933  1.00  0.00     0.000 A 
ENDBRANCH  26  27
ENDBRANCH  15  21
ENDBRANCH   8  10
ENDBRANCH   7   8
ENDBRANCH   6   7
ENDBRANCH   5   6
ENDBRANCH   4   5
ENDBRANCH   3   4
ENDBRANCH   2   3
ENDBRANCH   1   2
BRANCH   1  34
ATOM     34  C   UNL A   1      34.674  31.721  27.997  1.00  0.00     0.188 C 
BRANCH  34  35
ATOM     35  C   UNL A   1      35.786  32.757  28.009  1.00  0.00     0.188 C 
BRANCH  35  36
ATOM     36  O   UNL A   1      35.249  34.006  28.439  1.00  0.00    -0.376 OA
BRANCH  36  37
ATOM     37  C   UNL A   1      33.864  34.207  28.178  1.00  0.00     0.202 C 
BRANCH  37  38
ATOM     38  C   UNL A   1      33.198  35.174  29.167  1.00  0.00     0.261 C 
BRANCH  38  39
ATOM     39  O   UNL A   1      34.049  35.335  30.324  1.00  0.00    -0.460 OA
BRANCH  39  40
ATOM     40  C   UNL A   1      33.444  35.226  31.541  1.00  0.00     0.338 C 
ATOM     41  O   UNL A   1      32.733  36.075  32.055  1.00  0.00    -0.246 OA
BRANCH  40  42
ATOM     42  C   UNL A   1      34.043  34.089  32.311  1.00  0.00     0.060 A 
ATOM     43  C   UNL A   1      34.564  34.287  33.605  1.00  0.00     0.016 A 
ATOM     44  C   UNL A   1      34.422  32.962  31.609  1.00  0.00     0.016 A 
ATOM     45  C   UNL A   1      35.619  33.480  34.092  1.00  0.00     0.010 A 
ATOM     46  C   UNL A   1      35.513  32.244  32.061  1.00  0.00     0.010 A 
ATOM     47  C   UNL A   1      36.189  32.518  33.267  1.00  0.00    -0.014 A 
BRANCH  47  48
ATOM     48  C   UNL A   1      37.529  31.853  33.443  1.00  0.00     0.031 A 
ATOM     49  C   UNL A   1      37.779  30.583  32.652  1.00  0.00     0.074 A 
ATOM     50  C   UNL A   1      38.559  32.605  33.944  1.00  0.00     0.049 A 
ATOM     51  N   UNL A   1      38.906  29.971  32.512  1.00  0.00    -0.248 NA
ATOM     52  C   UNL A   1      36.723  29.900  31.894  1.00  0.00     0.031 C 
ATOM     53  C   UNL A   1      39.979  32.660  33.538  1.00  0.00     0.029 A 
ATOM     54  N   UNL A   1      38.527  33.629  34.878  1.00  0.00    -0.354 N 
ATOM     55  C   UNL A   1      38.816  29.075  31.439  1.00  0.00     0.074 A 
ATOM     56  C   UNL A   1      37.411  29.033  31.141  1.00  0.00     0.031 C 
ATOM     57  C   UNL A   1      40.670  33.567  34.241  1.00  0.00     0.029 A 
ATOM     58  C   UNL A   1      39.824  33.948  35.322  1.00  0.00     0.049 A 
ATOM     59  H   UNL A   1      37.707  34.075  35.190  1.00  0.00     0.167 HD
ATOM     60  C   UNL A   1      39.967  28.586  30.859  1.00  0.00     0.037 A 
ATOM     61  C   UNL A   1      40.172  33.703  36.617  1.00  0.00     0.037 A 
ATOM     62  C   UNL A   1      41.141  28.972  31.675  1.00  0.00     0.049 A 
ATOM     63  C   UNL A   1      40.981  32.398  36.690  1.00  0.00     0.074 A 
ATOM     64  C   UNL A   1      42.350  29.590  31.421  1.00  0.00     0.029 A 
ATOM     65  N   UNL A   1      41.077  28.877  33.068  1.00  0.00    -0.354 N 
ATOM     66  N   UNL A   1      40.873  31.412  35.818  1.00  0.00    -0.248 NA
ATOM     67  C   UNL A   1      42.149  32.217  37.560  1.00  0.00     0.031 C 
ATOM     68  C   UNL A   1      42.849  30.118  32.643  1.00  0.00     0.029 A 
ATOM     69  C   UNL A   1      42.049  29.644  33.673  1.00  0.00     0.049 A 
ATOM     70  H   UNL A   1      40.420  28.331  33.556  1.00  0.00     0.167 HD
ATOM     71  C   UNL A   1      41.945  30.562  35.939  1.00  0.00     0.074 A 
ATOM     72  C   UNL A   1      42.694  31.088  37.066  1.00  0.00     0.031 C 
ATOM     73  C   UNL A   1      42.282  29.535  35.100  1.00  0.00     0.037 A 
BRANCH  60  74
ATOM     74  C   UNL A   1      40.117  27.945  29.446  1.00  0.00     0.057 A 
ATOM     75  C   UNL A   1      39.585  26.660  29.164  1.00  0.00     0.134 A 
ATOM     76  C   UNL A   1      40.833  28.472  28.348  1.00  0.00     0.134 A 
ATOM     77  F   UNL A   1      38.786  26.024  30.030  1.00  0.00    -0.206 F 
ATOM     78  C   UNL A   1      39.807  25.950  27.963  1.00  0.00     0.040 A 
ATOM     79  C   UNL A   1      41.014  27.795  27.118  1.00  0.00     0.040 A 
ATOM     80  F   UNL A   1      41.418  29.669  28.381  1.00  0.00    -0.206 F 
ATOM     81  C   UNL A   1      40.524  26.518  26.927  1.00  0.00     0.006 A 
ENDBRANCH  60  74
BRANCH  61  82
ATOM     82  C   UNL A   1      39.150  34.412  37.471  1.00  0.00     0.057 A 
ATOM     83  C   UNL A   1      38.428  33.498  38.292  1.00  0.00     0.134 A 
ATOM     84  C   UNL A   1      39.474  35.638  38.070  1.00  0.00     0.134 A 
ATOM     85  F   UNL A   1      38.063  32.305  37.791  1.00  0.00    -0.206 F 
ATOM     86  C   UNL A   1      38.365  33.642  39.686  1.00  0.00     0.040 A 
ATOM     87  C   UNL A   1      39.363  35.811  39.467  1.00  0.00     0.040 A 
ATOM     88  F   UNL A   1      40.153  36.568  37.384  1.00  0.00    -0.206 F 
ATOM     89  C   UNL A   1      38.890  34.781  40.284  1.00  0.00     0.006 A 
ENDBRANCH  61  82
BRANCH  73  90
ATOM     90  C   UNL A   1      42.946  28.262  35.583  1.00  0.00     0.057 A 
ATOM     91  C   UNL A   1      42.233  27.271  36.271  1.00  0.00     0.134 A 
ATOM     92  C   UNL A   1      44.240  27.877  35.149  1.00  0.00     0.134 A 
ATOM     93  F   UNL A   1      40.958  27.455  36.641  1.00  0.00    -0.206 F 
ATOM     94  C   UNL A   1      42.778  26.015  36.553  1.00  0.00     0.040 A 
ATOM     95  C   UNL A   1      44.769  26.606  35.376  1.00  0.00     0.040 A 
ATOM     96  F   UNL A   1      45.037  28.692  34.445  1.00  0.00    -0.206 F 
ATOM     97  C   UNL A   1      44.043  25.673  36.093  1.00  0.00     0.006 A 
ENDBRANCH  73  90
ENDBRANCH  47  48
ENDBRANCH  40  42
ENDBRANCH  39  40
ENDBRANCH  38  39
ENDBRANCH  37  38
ENDBRANCH  36  37
ENDBRANCH  35  36
ENDBRANCH  34  35
ENDBRANCH   1  34
TORSDOF 23
ENDMDL
MODEL 2
REMARK VINA RESULT:     -11.6      1.902      2.754
REMARK SMILES CC(=O)Nc1cnc(N2CC=C(c3ccccc3C)CC2)c(C(=O)OCCOCCOCCOCCOC(=O)c2ccc(-c3c4nc(c(-c5c(F)cccc5F)c5ccc([nH]5)c(-c5c(F)cccc5F)c5nc(c(-c6c(F)cccc6F)c6ccc3[nH]6)C=C5)C=C4)cc2)c1
REMARK SMILES IDX 31 1 30 2 29 3 28 4 27 5 26 6 25 7 23 8 24 9 22 10 5 11 6 12
REMARK SMILES IDX 94 13 7 14 8 15 4 16 1 17 2 18 3 19 9 21 10 22 21 23 11 24
REMARK SMILES IDX 20 25 12 26 13 27 14 28 18 29 15 30 17 31 19 32 16 33 32 34
REMARK SMILES IDX 33 35 34 36 35 37 36 38 37 39 38 40 39 41 40 42 41 43 93 44
REMARK SMILES IDX 42 45 92 46 43 47 44 48 45 49 86 50 46 51 91 52 85 53 87 54
REMARK SMILES IDX 47 55 90 56 84 57 83 58 48 60 74 61 57 62 73 63 58 64 61 65
REMARK SMILES IDX 72 66 88 67 59 68 60 69 71 71 89 72 62 73 49 74 50 75 55 76
REMARK SMILES IDX 51 77 52 78 54 79 56 80 53 81 75 82 76 83 81 84 77 85 78 86
REMARK SMILES IDX 80 87 82 88 79 89 63 90 64 91 69 92 65 93 66 94 68 95 70 96
REMARK SMILES IDX 67 97
REMARK H PARENT 4 20 87 59 61 70
REMARK Flexibility Score: inf
ROOT
ATOM      1  O   UNL A   1      33.193  29.503  26.488  1.00  0.00    -0.377 OA
ENDROOT
BRANCH   1   2
ATOM      2  C   UNL A   1      32.741  28.335  27.124  1.00  0.00     0.188 C 
BRANCH   2   3
ATOM      3  C   UNL A   1      31.404  27.725  26.720  1.00  0.00     0.188 C 
BRANCH   3   4
ATOM      4  O   UNL A   1      31.066  26.359  26.554  1.00  0.00    -0.376 OA
BRANCH   4   5
ATOM      5  C   UNL A   1      32.061  25.405  26.877  1.00  0.00     0.202 C 
BRANCH   5   6
ATOM      6  C   UNL A   1      31.769  23.911  26.866  1.00  0.00     0.261 C 
BRANCH   6   7
ATOM      7  O   UNL A   1      32.900  23.197  26.412  1.00  0.00    -0.460 OA
BRANCH   7   8
ATOM      8  C   UNL A   1      32.684  22.561  25.240  1.00  0.00     0.342 C 
ATOM      9  O   UNL A   1      31.651  22.171  24.786  1.00  0.00    -0.246 OA
BRANCH   8  10
ATOM     10  C   UNL A   1      33.943  22.744  24.519  1.00  0.00     0.104 A 
ATOM     11  C   UNL A   1      36.287  22.193  24.423  1.00  0.00     0.060 A 
ATOM     12  C   UNL A   1      36.393  23.330  23.626  1.00  0.00     0.139 A 
ATOM     13  C   UNL A   1      35.020  21.913  24.888  1.00  0.00     0.047 A 
ATOM     14  N   UNL A   1      35.366  24.169  23.287  1.00  0.00    -0.236 NA
ATOM     15  C   UNL A   1      34.119  23.894  23.736  1.00  0.00     0.143 A 
BRANCH  11  16
ATOM     16  N   UNL A   1      37.444  21.473  24.777  1.00  0.00    -0.325 N 
ATOM     17  C   UNL A   1      38.465  22.949  26.525  1.00  0.00     0.114 C 
ATOM     18  C   UNL A   1      38.500  21.764  25.597  1.00  0.00     0.221 C 
ATOM     19  O   UNL A   1      39.461  20.992  25.610  1.00  0.00    -0.275 OA
ATOM     20  H   UNL A   1      37.506  20.588  24.351  1.00  0.00     0.169 HD
ENDBRANCH  11  16
BRANCH  15  21
ATOM     21  N   UNL A   1      33.174  24.930  23.634  1.00  0.00    -0.352 N 
ATOM     22  C   UNL A   1      33.589  26.304  23.893  1.00  0.00     0.146 C 
ATOM     23  C   UNL A   1      32.225  24.696  22.554  1.00  0.00     0.123 C 
ATOM     24  C   UNL A   1      32.557  27.306  23.438  1.00  0.00    -0.002 C 
ATOM     25  C   UNL A   1      31.035  25.614  22.462  1.00  0.00     0.057 C 
ATOM     26  C   UNL A   1      31.391  27.009  22.836  1.00  0.00    -0.041 C 
BRANCH  26  27
ATOM     27  C   UNL A   1      30.350  28.032  22.659  1.00  0.00    -0.020 A 
ATOM     28  C   UNL A   1      30.648  29.219  21.973  1.00  0.00     0.008 A 
ATOM     29  C   UNL A   1      29.069  27.855  23.229  1.00  0.00    -0.044 A 
ATOM     30  C   UNL A   1      29.701  30.240  21.886  1.00  0.00     0.001 A 
ATOM     31  C   UNL A   1      28.128  28.886  23.123  1.00  0.00     0.004 A 
ATOM     32  C   UNL A   1      28.652  26.582  23.918  1.00  0.00     0.045 C 
ATOM     33  C   UNL A   1      28.448  30.077  22.473  1.00  0.00     0.000 A 
ENDBRANCH  26  27
ENDBRANCH  15  21
ENDBRANCH   8  10
ENDBRANCH   7   8
ENDBRANCH   6   7
ENDBRANCH   5   6
ENDBRANCH   4   5
ENDBRANCH   3   4
ENDBRANCH   2   3
ENDBRANCH   1   2
BRANCH   1  34
ATOM     34  C   UNL A   1      32.547  30.706  26.874  1.00  0.00     0.188 C 
BRANCH  34  35
ATOM     35  C   UNL A   1      33.338  31.758  27.634  1.00  0.00     0.188 C 
BRANCH  35  36
ATOM     36  O   UNL A   1      32.606  32.981  27.626  1.00  0.00    -0.376 OA
BRANCH  36  37
ATOM     37  C   UNL A   1      33.365  34.159  27.874  1.00  0.00     0.202 C 
BRANCH  37  38
ATOM     38  C   UNL A   1      32.895  34.931  29.114  1.00  0.00     0.261 C 
BRANCH  38  39
ATOM     39  O   UNL A   1      34.046  35.462  29.809  1.00  0.00    -0.460 OA
BRANCH  39  40
ATOM     40  C   UNL A   1      34.370  34.863  30.990  1.00  0.00     0.338 C 
ATOM     41  O   UNL A   1      34.372  35.407  32.083  1.00  0.00    -0.246 OA
BRANCH  40  42
ATOM     42  C   UNL A   1      35.058  33.557  30.729  1.00  0.00     0.060 A 
ATOM     43  C   UNL A   1      34.765  32.418  31.504  1.00  0.00     0.016 A 
ATOM     44  C   UNL A   1      36.229  33.579  29.998  1.00  0.00     0.016 A 
ATOM     45  C   UNL A   1      35.741  31.415  31.714  1.00  0.00     0.010 A 
ATOM     46  C   UNL A   1      37.200  32.640  30.287  1.00  0.00     0.010 A 
ATOM     47  C   UNL A   1      37.022  31.579  31.199  1.00  0.00    -0.014 A 
BRANCH  47  48
ATOM     48  C   UNL A   1      38.270  30.854  31.626  1.00  0.00     0.031 A 
ATOM     49  C   UNL A   1      38.644  29.606  30.848  1.00  0.00     0.074 A 
ATOM     50  C   UNL A   1      39.191  31.542  32.371  1.00  0.00     0.049 A 
ATOM     51  N   UNL A   1      39.754  28.953  30.925  1.00  0.00    -0.248 NA
ATOM     52  C   UNL A   1      37.755  28.997  29.850  1.00  0.00     0.031 C 
ATOM     53  C   UNL A   1      40.666  31.554  32.282  1.00  0.00     0.029 A 
ATOM     54  N   UNL A   1      38.991  32.529  33.323  1.00  0.00    -0.354 N 
ATOM     55  C   UNL A   1      39.869  28.104  29.816  1.00  0.00     0.074 A 
ATOM     56  C   UNL A   1      38.561  28.133  29.222  1.00  0.00     0.031 C 
ATOM     57  C   UNL A   1      41.218  32.404  33.159  1.00  0.00     0.029 A 
ATOM     58  C   UNL A   1      40.171  32.776  34.050  1.00  0.00     0.049 A 
ATOM     59  H   UNL A   1      38.138  32.996  33.473  1.00  0.00     0.167 HD
ATOM     60  C   UNL A   1      41.102  27.591  29.474  1.00  0.00     0.037 A 
ATOM     61  C   UNL A   1      40.223  32.467  35.377  1.00  0.00     0.037 A 
ATOM     62  C   UNL A   1      42.083  27.896  30.540  1.00  0.00     0.049 A 
ATOM     63  C   UNL A   1      40.955  31.128  35.560  1.00  0.00     0.074 A 
ATOM     64  C   UNL A   1      43.338  28.473  30.580  1.00  0.00     0.029 A 
ATOM     65  N   UNL A   1      41.717  27.750  31.880  1.00  0.00    -0.354 N 
ATOM     66  N   UNL A   1      41.006  30.182  34.639  1.00  0.00    -0.248 NA
ATOM     67  C   UNL A   1      41.901  30.865  36.650  1.00  0.00     0.031 C 
ATOM     68  C   UNL A   1      43.578  28.932  31.905  1.00  0.00     0.029 A 
ATOM     69  C   UNL A   1      42.560  28.452  32.715  1.00  0.00     0.049 A 
ATOM     70  H   UNL A   1      40.953  27.213  32.190  1.00  0.00     0.167 HD
ATOM     71  C   UNL A   1      41.998  29.284  34.947  1.00  0.00     0.074 A 
ATOM     72  C   UNL A   1      42.503  29.734  36.232  1.00  0.00     0.031 C 
ATOM     73  C   UNL A   1      42.476  28.277  34.153  1.00  0.00     0.037 A 
BRANCH  60  74
ATOM     74  C   UNL A   1      41.533  27.000  28.098  1.00  0.00     0.057 A 
ATOM     75  C   UNL A   1      41.679  27.830  26.956  1.00  0.00     0.134 A 
ATOM     76  C   UNL A   1      41.736  25.637  27.787  1.00  0.00     0.134 A 
ATOM     77  F   UNL A   1      41.630  29.165  27.047  1.00  0.00    -0.206 F 
ATOM     78  C   UNL A   1      41.919  27.354  25.648  1.00  0.00     0.040 A 
ATOM     79  C   UNL A   1      42.034  25.152  26.491  1.00  0.00     0.040 A 
ATOM     80  F   UNL A   1      41.654  24.672  28.704  1.00  0.00    -0.206 F 
ATOM     81  C   UNL A   1      42.102  26.006  25.408  1.00  0.00     0.006 A 
ENDBRANCH  60  74
BRANCH  61  82
ATOM     82  C   UNL A   1      39.064  33.184  36.023  1.00  0.00     0.057 A 
ATOM     83  C   UNL A   1      38.148  32.268  36.617  1.00  0.00     0.134 A 
ATOM     84  C   UNL A   1      39.292  34.366  36.744  1.00  0.00     0.134 A 
ATOM     85  F   UNL A   1      37.859  31.117  35.986  1.00  0.00    -0.206 F 
ATOM     86  C   UNL A   1      37.784  32.354  37.970  1.00  0.00     0.040 A 
ATOM     87  C   UNL A   1      38.883  34.481  38.090  1.00  0.00     0.040 A 
ATOM     88  F   UNL A   1      40.138  35.293  36.273  1.00  0.00    -0.206 F 
ATOM     89  C   UNL A   1      38.205  33.439  38.728  1.00  0.00     0.006 A 
ENDBRANCH  61  82
BRANCH  73  90
ATOM     90  C   UNL A   1      42.979  26.960  34.707  1.00  0.00     0.057 A 
ATOM     91  C   UNL A   1      42.103  25.927  35.067  1.00  0.00     0.134 A 
ATOM     92  C   UNL A   1      44.347  26.592  34.648  1.00  0.00     0.134 A 
ATOM     93  F   UNL A   1      40.774  26.098  35.053  1.00  0.00    -0.206 F 
ATOM     94  C   UNL A   1      42.552  24.645  35.395  1.00  0.00     0.040 A 
ATOM     95  C   UNL A   1      44.798  25.300  34.918  1.00  0.00     0.040 A 
ATOM     96  F   UNL A   1      45.309  27.451  34.283  1.00  0.00    -0.206 F 
ATOM     97  C   UNL A   1      43.900  24.323  35.308  1.00  0.00     0.006 A 
ENDBRANCH  73  90
ENDBRANCH  47  48
ENDBRANCH  40  42
ENDBRANCH  39  40
ENDBRANCH  38  39
ENDBRANCH  37  38
ENDBRANCH  36  37
ENDBRANCH  35  36
ENDBRANCH  34  35
ENDBRANCH   1  34
TORSDOF 23
ENDMDL
MODEL 3
REMARK VINA RESULT:     -10.6      1.545      2.262
REMARK SMILES CC(=O)Nc1cnc(N2CC=C(c3ccccc3C)CC2)c(C(=O)OCCOCCOCCOCCOC(=O)c2ccc(-c3c4nc(c(-c5c(F)cccc5F)c5ccc([nH]5)c(-c5c(F)cccc5F)c5nc(c(-c6c(F)cccc6F)c6ccc3[nH]6)C=C5)C=C4)cc2)c1
REMARK SMILES IDX 31 1 30 2 29 3 28 4 27 5 26 6 25 7 23 8 24 9 22 10 5 11 6 12
REMARK SMILES IDX 94 13 7 14 8 15 4 16 1 17 2 18 3 19 9 21 10 22 21 23 11 24
REMARK SMILES IDX 20 25 12 26 13 27 14 28 18 29 15 30 17 31 19 32 16 33 32 34
REMARK SMILES IDX 33 35 34 36 35 37 36 38 37 39 38 40 39 41 40 42 41 43 93 44
REMARK SMILES IDX 42 45 92 46 43 47 44 48 45 49 86 50 46 51 91 52 85 53 87 54
REMARK SMILES IDX 47 55 90 56 84 57 83 58 48 60 74 61 57 62 73 63 58 64 61 65
REMARK SMILES IDX 72 66 88 67 59 68 60 69 71 71 89 72 62 73 49 74 50 75 55 76
REMARK SMILES IDX 51 77 52 78 54 79 56 80 53 81 75 82 76 83 81 84 77 85 78 86
REMARK SMILES IDX 80 87 82 88 79 89 63 90 64 91 69 92 65 93 66 94 68 95 70 96
REMARK SMILES IDX 67 97
REMARK H PARENT 4 20 87 59 61 70
REMARK Flexibility Score: inf
ROOT
ATOM      1  O   UNL A   1      33.962  30.078  27.094  1.00  0.00    -0.377 OA
ENDROOT
BRANCH   1   2
ATOM      2  C   UNL A   1      33.420  30.038  25.799  1.00  0.00     0.188 C 
BRANCH   2   3
ATOM      3  C   UNL A   1      32.055  29.400  25.572  1.00  0.00     0.188 C 
BRANCH   3   4
ATOM      4  O   UNL A   1      31.681  28.039  25.684  1.00  0.00    -0.376 OA
BRANCH   4   5
ATOM      5  C   UNL A   1      32.365  27.261  26.651  1.00  0.00     0.202 C 
BRANCH   5   6
ATOM      6  C   UNL A   1      33.660  26.532  26.319  1.00  0.00     0.261 C 
BRANCH   6   7
ATOM      7  O   UNL A   1      33.403  25.162  26.094  1.00  0.00    -0.460 OA
BRANCH   7   8
ATOM      8  C   UNL A   1      34.013  24.688  24.986  1.00  0.00     0.342 C 
ATOM      9  O   UNL A   1      35.097  24.956  24.563  1.00  0.00    -0.246 OA
BRANCH   8  10
ATOM     10  C   UNL A   1      33.184  23.545  24.605  1.00  0.00     0.104 A 
ATOM     11  C   UNL A   1      33.157  21.214  23.994  1.00  0.00     0.060 A 
ATOM     12  C   UNL A   1      31.906  21.500  23.451  1.00  0.00     0.139 A 
ATOM     13  C   UNL A   1      33.809  22.282  24.570  1.00  0.00     0.047 A 
ATOM     14  N   UNL A   1      31.299  22.728  23.443  1.00  0.00    -0.236 NA
ATOM     15  C   UNL A   1      31.933  23.777  24.014  1.00  0.00     0.143 A 
BRANCH  11  16
ATOM     16  N   UNL A   1      33.708  19.927  23.846  1.00  0.00    -0.325 N 
ATOM     17  C   UNL A   1      32.797  18.734  25.851  1.00  0.00     0.114 C 
ATOM     18  C   UNL A   1      33.696  18.819  24.648  1.00  0.00     0.221 C 
ATOM     19  O   UNL A   1      34.393  17.854  24.323  1.00  0.00    -0.275 OA
ATOM     20  H   UNL A   1      34.197  19.799  23.001  1.00  0.00     0.169 HD
ENDBRANCH  11  16
BRANCH  15  21
ATOM     21  N   UNL A   1      31.432  25.055  23.708  1.00  0.00    -0.352 N 
ATOM     22  C   UNL A   1      31.771  25.667  22.428  1.00  0.00     0.146 C 
ATOM     23  C   UNL A   1      30.081  25.245  24.219  1.00  0.00     0.123 C 
ATOM     24  C   UNL A   1      30.910  26.870  22.128  1.00  0.00    -0.002 C 
ATOM     25  C   UNL A   1      29.499  26.631  24.148  1.00  0.00     0.057 C 
ATOM     26  C   UNL A   1      29.921  27.338  22.909  1.00  0.00    -0.041 C 
BRANCH  26  27
ATOM     27  C   UNL A   1      29.313  28.652  22.652  1.00  0.00    -0.020 A 
ATOM     28  C   UNL A   1      30.094  29.690  22.121  1.00  0.00     0.008 A 
ATOM     29  C   UNL A   1      27.964  28.896  22.995  1.00  0.00    -0.044 A 
ATOM     30  C   UNL A   1      29.556  30.968  21.967  1.00  0.00     0.001 A 
ATOM     31  C   UNL A   1      27.439  30.182  22.824  1.00  0.00     0.004 A 
ATOM     32  C   UNL A   1      27.044  27.816  23.503  1.00  0.00     0.045 C 
ATOM     33  C   UNL A   1      28.235  31.215  22.332  1.00  0.00     0.000 A 
ENDBRANCH  26  27
ENDBRANCH  15  21
ENDBRANCH   8  10
ENDBRANCH   7   8
ENDBRANCH   6   7
ENDBRANCH   5   6
ENDBRANCH   4   5
ENDBRANCH   3   4
ENDBRANCH   2   3
ENDBRANCH   1   2
BRANCH   1  34
ATOM     34  C   UNL A   1      34.040  31.362  27.691  1.00  0.00     0.188 C 
BRANCH  34  35
ATOM     35  C   UNL A   1      32.821  32.269  27.656  1.00  0.00     0.188 C 
BRANCH  35  36
ATOM     36  O   UNL A   1      33.256  33.626  27.602  1.00  0.00    -0.376 OA
BRANCH  36  37
ATOM     37  C   UNL A   1      32.680  34.499  28.567  1.00  0.00     0.202 C 
BRANCH  37  38
ATOM     38  C   UNL A   1      33.473  35.800  28.755  1.00  0.00     0.261 C 
BRANCH  38  39
ATOM     39  O   UNL A   1      34.541  35.574  29.703  1.00  0.00    -0.460 OA
BRANCH  39  40
ATOM     40  C   UNL A   1      34.263  34.732  30.739  1.00  0.00     0.338 C 
ATOM     41  O   UNL A   1      33.766  35.062  31.805  1.00  0.00    -0.246 OA
BRANCH  40  42
ATOM     42  C   UNL A   1      34.964  33.424  30.536  1.00  0.00     0.060 A 
ATOM     43  C   UNL A   1      34.738  32.340  31.407  1.00  0.00     0.016 A 
ATOM     44  C   UNL A   1      36.095  33.412  29.744  1.00  0.00     0.016 A 
ATOM     45  C   UNL A   1      35.745  31.373  31.636  1.00  0.00     0.010 A 
ATOM     46  C   UNL A   1      37.100  32.514  30.048  1.00  0.00     0.010 A 
ATOM     47  C   UNL A   1      36.993  31.521  31.042  1.00  0.00    -0.014 A 
BRANCH  47  48
ATOM     48  C   UNL A   1      38.277  30.851  31.453  1.00  0.00     0.031 A 
ATOM     49  C   UNL A   1      38.730  29.662  30.627  1.00  0.00     0.074 A 
ATOM     50  C   UNL A   1      39.149  31.559  32.237  1.00  0.00     0.049 A 
ATOM     51  N   UNL A   1      39.876  29.072  30.689  1.00  0.00    -0.248 NA
ATOM     52  C   UNL A   1      37.889  29.047  29.593  1.00  0.00     0.031 C 
ATOM     53  C   UNL A   1      40.622  31.661  32.167  1.00  0.00     0.029 A 
ATOM     54  N   UNL A   1      38.883  32.491  33.229  1.00  0.00    -0.354 N 
ATOM     55  C   UNL A   1      40.052  28.280  29.547  1.00  0.00     0.074 A 
ATOM     56  C   UNL A   1      38.749  28.259  28.939  1.00  0.00     0.031 C 
ATOM     57  C   UNL A   1      41.115  32.502  33.085  1.00  0.00     0.029 A 
ATOM     58  C   UNL A   1      40.040  32.774  33.979  1.00  0.00     0.049 A 
ATOM     59  H   UNL A   1      38.002  32.901  33.388  1.00  0.00     0.167 HD
ATOM     60  C   UNL A   1      41.316  27.855  29.198  1.00  0.00     0.037 A 
ATOM     61  C   UNL A   1      40.097  32.411  35.292  1.00  0.00     0.037 A 
ATOM     62  C   UNL A   1      42.267  28.170  30.287  1.00  0.00     0.049 A 
ATOM     63  C   UNL A   1      40.904  31.110  35.427  1.00  0.00     0.074 A 
ATOM     64  C   UNL A   1      43.486  28.816  30.368  1.00  0.00     0.029 A 
ATOM     65  N   UNL A   1      41.898  27.945  31.616  1.00  0.00    -0.354 N 
ATOM     66  N   UNL A   1      41.019  30.210  34.467  1.00  0.00    -0.248 NA
ATOM     67  C   UNL A   1      41.854  30.856  36.516  1.00  0.00     0.031 C 
ATOM     68  C   UNL A   1      43.686  29.231  31.713  1.00  0.00     0.029 A 
ATOM     69  C   UNL A   1      42.690  28.658  32.490  1.00  0.00     0.049 A 
ATOM     70  H   UNL A   1      41.163  27.351  31.893  1.00  0.00     0.167 HD
ATOM     71  C   UNL A   1      42.059  29.359  34.749  1.00  0.00     0.074 A 
ATOM     72  C   UNL A   1      42.525  29.781  36.058  1.00  0.00     0.031 C 
ATOM     73  C   UNL A   1      42.603  28.416  33.918  1.00  0.00     0.037 A 
BRANCH  60  74
ATOM     74  C   UNL A   1      41.794  27.350  27.803  1.00  0.00     0.057 A 
ATOM     75  C   UNL A   1      42.323  26.043  27.638  1.00  0.00     0.134 A 
ATOM     76  C   UNL A   1      41.851  28.097  26.605  1.00  0.00     0.134 A 
ATOM     77  F   UNL A   1      42.270  25.134  28.620  1.00  0.00    -0.206 F 
ATOM     78  C   UNL A   1      42.912  25.565  26.447  1.00  0.00     0.040 A 
ATOM     79  C   UNL A   1      42.387  27.609  25.389  1.00  0.00     0.040 A 
ATOM     80  F   UNL A   1      41.407  29.350  26.519  1.00  0.00    -0.206 F 
ATOM     81  C   UNL A   1      42.945  26.348  25.310  1.00  0.00     0.006 A 
ENDBRANCH  60  74
BRANCH  61  82
ATOM     82  C   UNL A   1      38.892  33.031  35.955  1.00  0.00     0.057 A 
ATOM     83  C   UNL A   1      38.047  32.042  36.536  1.00  0.00     0.134 A 
ATOM     84  C   UNL A   1      39.037  34.215  36.694  1.00  0.00     0.134 A 
ATOM     85  F   UNL A   1      37.841  30.883  35.887  1.00  0.00    -0.206 F 
ATOM     86  C   UNL A   1      37.685  32.078  37.892  1.00  0.00     0.040 A 
ATOM     87  C   UNL A   1      38.627  34.278  38.043  1.00  0.00     0.040 A 
ATOM     88  F   UNL A   1      39.811  35.209  36.236  1.00  0.00    -0.206 F 
ATOM     89  C   UNL A   1      38.029  33.179  38.666  1.00  0.00     0.006 A 
ENDBRANCH  61  82
BRANCH  73  90
ATOM     90  C   UNL A   1      43.176  27.108  34.421  1.00  0.00     0.057 A 
ATOM     91  C   UNL A   1      44.548  26.941  34.648  1.00  0.00     0.134 A 
ATOM     92  C   UNL A   1      42.353  26.075  34.938  1.00  0.00     0.134 A 
ATOM     93  F   UNL A   1      45.434  27.890  34.317  1.00  0.00    -0.206 F 
ATOM     94  C   UNL A   1      45.070  25.814  35.290  1.00  0.00     0.040 A 
ATOM     95  C   UNL A   1      42.860  24.975  35.630  1.00  0.00     0.040 A 
ATOM     96  F   UNL A   1      41.016  26.101  34.840  1.00  0.00    -0.206 F 
ATOM     97  C   UNL A   1      44.226  24.834  35.796  1.00  0.00     0.006 A 
ENDBRANCH  73  90
ENDBRANCH  47  48
ENDBRANCH  40  42
ENDBRANCH  39  40
ENDBRANCH  38  39
ENDBRANCH  37  38
ENDBRANCH  36  37
ENDBRANCH  35  36
ENDBRANCH  34  35
ENDBRANCH   1  34
TORSDOF 23
ENDMDL
