MODEL 1
REMARK VINA RESULT:     -10.0      0.000      0.000
REMARK SMILES O=C(OCCOCCOCCOCCOC(=O)[C@H](NC(=O)[C@H]1CC[C@@H](CNC(=O)[C@@H]2Cc3ccccc3C[NH2+]2)CC1)c1ccccc1)c1ccc(-c2c3nc(c(-c4c(F)cccc4F)c4ccc([nH]4)c(-c4c(F)cccc4F)c4nc(c(-c5c(F)cccc5F)c5ccc2[nH]5)C=C4)C=C3)cc1
REMARK SMILES IDX 10 1 9 2 8 3 7 4 6 5 5 6 4 7 3 8 2 9 1 10 48 11 49 12 101 13
REMARK SMILES IDX 50 14 100 15 51 16 52 17 53 18 94 19 54 20 99 21 93 22 95 23
REMARK SMILES IDX 55 24 98 25 92 26 91 27 56 29 82 30 65 31 81 32 66 33 69 34
REMARK SMILES IDX 80 35 96 36 67 37 68 38 79 40 97 41 70 42 57 43 58 44 63 45
REMARK SMILES IDX 59 46 60 47 62 48 64 49 61 50 83 51 84 52 89 53 85 54 86 55
REMARK SMILES IDX 88 56 90 57 87 58 71 59 72 60 77 61 73 62 74 63 76 64 78 65
REMARK SMILES IDX 75 66 11 67 12 68 13 69 14 70 15 71 16 72 17 73 18 74 42 75
REMARK SMILES IDX 43 76 47 77 44 78 46 79 45 80 19 81 20 82 21 84 22 85 41 86
REMARK SMILES IDX 23 87 40 88 24 89 25 90 26 91 27 92 28 93 29 95 30 96 31 97
REMARK SMILES IDX 39 98 32 99 38 100 33 103 37 104 34 105 36 106 35 107
REMARK H PARENT 95 28 69 39 19 83 27 94 39 101 39 102
REMARK Flexibility Score: inf
ROOT
ATOM      1  C   UNL A   1      31.166  29.703  24.472  1.00  0.00     0.188 C 
ENDROOT
BRANCH   1   2
ATOM      2  O   UNL A   1      31.440  29.262  25.799  1.00  0.00    -0.377 OA
BRANCH   2   3
ATOM      3  C   UNL A   1      32.742  29.561  26.310  1.00  0.00     0.188 C 
BRANCH   3   4
ATOM      4  C   UNL A   1      33.782  28.437  26.246  1.00  0.00     0.188 C 
BRANCH   4   5
ATOM      5  O   UNL A   1      35.034  28.832  26.801  1.00  0.00    -0.376 OA
BRANCH   5   6
ATOM      6  C   UNL A   1      35.005  29.864  27.786  1.00  0.00     0.202 C 
BRANCH   6   7
ATOM      7  C   UNL A   1      36.020  29.696  28.912  1.00  0.00     0.261 C 
BRANCH   7   8
ATOM      8  O   UNL A   1      36.543  30.943  29.395  1.00  0.00    -0.460 OA
BRANCH   8   9
ATOM      9  C   UNL A   1      36.389  31.514  30.614  1.00  0.00     0.338 C 
ATOM     10  O   UNL A   1      35.296  32.010  30.888  1.00  0.00    -0.246 OA
BRANCH   9  11
ATOM     11  C   UNL A   1      37.447  31.557  31.671  1.00  0.00     0.060 A 
ATOM     12  C   UNL A   1      38.729  32.083  31.519  1.00  0.00     0.016 A 
ATOM     13  C   UNL A   1      37.090  31.072  32.942  1.00  0.00     0.016 A 
ATOM     14  C   UNL A   1      39.663  32.044  32.537  1.00  0.00     0.010 A 
ATOM     15  C   UNL A   1      38.018  31.039  33.987  1.00  0.00     0.010 A 
ATOM     16  C   UNL A   1      39.327  31.475  33.758  1.00  0.00    -0.014 A 
BRANCH  16  17
ATOM     17  C   UNL A   1      40.450  31.098  34.628  1.00  0.00     0.031 A 
ATOM     18  C   UNL A   1      40.782  32.035  35.752  1.00  0.00     0.074 A 
ATOM     19  C   UNL A   1      40.982  29.867  34.544  1.00  0.00     0.049 A 
ATOM     20  N   UNL A   1      41.714  31.951  36.660  1.00  0.00    -0.248 NA
ATOM     21  C   UNL A   1      39.923  33.228  35.884  1.00  0.00     0.031 C 
ATOM     22  C   UNL A   1      40.569  28.831  33.593  1.00  0.00     0.029 A 
ATOM     23  N   UNL A   1      41.944  29.261  35.302  1.00  0.00    -0.354 N 
ATOM     24  C   UNL A   1      41.584  33.099  37.432  1.00  0.00     0.074 A 
ATOM     25  C   UNL A   1      40.486  33.864  36.896  1.00  0.00     0.031 C 
ATOM     26  C   UNL A   1      41.256  27.706  33.845  1.00  0.00     0.029 A 
ATOM     27  C   UNL A   1      42.207  27.969  34.919  1.00  0.00     0.049 A 
ATOM     28  H   UNL A   1      42.403  29.706  36.050  1.00  0.00     0.167 HD
ATOM     29  C   UNL A   1      42.332  33.476  38.493  1.00  0.00     0.037 A 
ATOM     30  C   UNL A   1      43.144  27.119  35.376  1.00  0.00     0.037 A 
ATOM     31  C   UNL A   1      43.404  32.671  39.006  1.00  0.00     0.049 A 
ATOM     32  C   UNL A   1      44.040  27.606  36.484  1.00  0.00     0.074 A 
ATOM     33  C   UNL A   1      44.295  32.954  40.022  1.00  0.00     0.029 A 
ATOM     34  N   UNL A   1      43.723  31.406  38.526  1.00  0.00    -0.354 N 
ATOM     35  N   UNL A   1      43.991  28.739  37.148  1.00  0.00    -0.248 NA
ATOM     36  C   UNL A   1      45.125  26.712  36.896  1.00  0.00     0.031 C 
ATOM     37  C   UNL A   1      45.187  31.880  40.121  1.00  0.00     0.029 A 
ATOM     38  C   UNL A   1      44.810  30.900  39.211  1.00  0.00     0.049 A 
ATOM     39  H   UNL A   1      43.243  30.938  37.804  1.00  0.00     0.167 HD
ATOM     40  C   UNL A   1      45.019  28.682  38.079  1.00  0.00     0.074 A 
ATOM     41  C   UNL A   1      45.664  27.395  37.897  1.00  0.00     0.031 C 
ATOM     42  C   UNL A   1      45.401  29.600  39.001  1.00  0.00     0.037 A 
BRANCH  29  43
ATOM     43  C   UNL A   1      42.068  34.839  39.062  1.00  0.00     0.057 A 
ATOM     44  C   UNL A   1      41.152  35.066  40.098  1.00  0.00     0.134 A 
ATOM     45  C   UNL A   1      42.696  35.960  38.505  1.00  0.00     0.134 A 
ATOM     46  F   UNL A   1      40.484  34.042  40.652  1.00  0.00    -0.206 F 
ATOM     47  C   UNL A   1      40.845  36.359  40.533  1.00  0.00     0.040 A 
ATOM     48  C   UNL A   1      42.419  37.254  38.949  1.00  0.00     0.040 A 
ATOM     49  F   UNL A   1      43.575  35.819  37.500  1.00  0.00    -0.206 F 
ATOM     50  C   UNL A   1      41.482  37.457  39.959  1.00  0.00     0.006 A 
ENDBRANCH  29  43
BRANCH  30  51
ATOM     51  C   UNL A   1      43.315  25.775  34.765  1.00  0.00     0.057 A 
ATOM     52  C   UNL A   1      42.654  24.649  35.272  1.00  0.00     0.134 A 
ATOM     53  C   UNL A   1      44.164  25.575  33.668  1.00  0.00     0.134 A 
ATOM     54  F   UNL A   1      41.839  24.764  36.330  1.00  0.00    -0.206 F 
ATOM     55  C   UNL A   1      42.846  23.378  34.726  1.00  0.00     0.040 A 
ATOM     56  C   UNL A   1      44.343  24.315  33.093  1.00  0.00     0.040 A 
ATOM     57  F   UNL A   1      44.830  26.608  33.129  1.00  0.00    -0.206 F 
ATOM     58  C   UNL A   1      43.690  23.209  33.630  1.00  0.00     0.006 A 
ENDBRANCH  30  51
BRANCH  42  59
ATOM     59  C   UNL A   1      46.521  29.209  39.915  1.00  0.00     0.057 A 
ATOM     60  C   UNL A   1      47.855  29.526  39.636  1.00  0.00     0.134 A 
ATOM     61  C   UNL A   1      46.246  28.540  41.114  1.00  0.00     0.134 A 
ATOM     62  F   UNL A   1      48.182  30.156  38.497  1.00  0.00    -0.206 F 
ATOM     63  C   UNL A   1      48.882  29.163  40.505  1.00  0.00     0.040 A 
ATOM     64  C   UNL A   1      47.260  28.202  42.007  1.00  0.00     0.040 A 
ATOM     65  F   UNL A   1      44.984  28.220  41.443  1.00  0.00    -0.206 F 
ATOM     66  C   UNL A   1      48.584  28.506  41.698  1.00  0.00     0.006 A 
ENDBRANCH  42  59
ENDBRANCH  16  17
ENDBRANCH   9  11
ENDBRANCH   8   9
ENDBRANCH   7   8
ENDBRANCH   6   7
ENDBRANCH   5   6
ENDBRANCH   4   5
ENDBRANCH   3   4
ENDBRANCH   2   3
ENDBRANCH   1   2
BRANCH   1  67
ATOM     67  C   UNL A   1      30.029  29.014  23.680  1.00  0.00     0.188 C 
BRANCH  67  68
ATOM     68  O   UNL A   1      30.464  27.928  22.881  1.00  0.00    -0.376 OA
BRANCH  68  69
ATOM     69  C   UNL A   1      30.258  26.610  23.369  1.00  0.00     0.202 C 
BRANCH  69  70
ATOM     70  C   UNL A   1      29.866  26.384  24.840  1.00  0.00     0.261 C 
BRANCH  70  71
ATOM     71  O   UNL A   1      29.890  25.037  25.320  1.00  0.00    -0.461 OA
BRANCH  71  72
ATOM     72  C   UNL A   1      30.931  24.637  26.097  1.00  0.00     0.333 C 
ATOM     73  O   UNL A   1      31.391  25.276  27.039  1.00  0.00    -0.249 OA
BRANCH  72  74
ATOM     74  C   UNL A   1      31.350  23.202  25.689  1.00  0.00     0.223 C 
BRANCH  74  75
ATOM     75  C   UNL A   1      32.054  23.231  24.356  1.00  0.00    -0.014 A 
ATOM     76  C   UNL A   1      32.847  24.292  23.917  1.00  0.00     0.006 A 
ATOM     77  C   UNL A   1      31.889  22.116  23.507  1.00  0.00     0.006 A 
ATOM     78  C   UNL A   1      33.498  24.222  22.686  1.00  0.00     0.000 A 
ATOM     79  C   UNL A   1      32.488  22.075  22.253  1.00  0.00     0.000 A 
ATOM     80  C   UNL A   1      33.305  23.124  21.850  1.00  0.00     0.000 A 
ENDBRANCH  74  75
BRANCH  74  81
ATOM     81  N   UNL A   1      32.040  22.570  26.832  1.00  0.00    -0.339 N 
ATOM     82  C   UNL A   1      33.235  21.904  26.887  1.00  0.00     0.224 C 
ATOM     83  H   UNL A   1      31.566  22.639  27.692  1.00  0.00     0.164 HD
ATOM     84  O   UNL A   1      33.355  20.999  27.712  1.00  0.00    -0.275 OA
BRANCH  82  85
ATOM     85  C   UNL A   1      34.392  22.358  26.013  1.00  0.00     0.078 C 
ATOM     86  C   UNL A   1      35.413  23.235  26.761  1.00  0.00     0.014 C 
ATOM     87  C   UNL A   1      35.140  21.251  25.277  1.00  0.00     0.014 C 
ATOM     88  C   UNL A   1      36.379  23.880  25.755  1.00  0.00     0.006 C 
ATOM     89  C   UNL A   1      36.001  21.909  24.202  1.00  0.00     0.006 C 
ATOM     90  C   UNL A   1      37.049  22.853  24.815  1.00  0.00     0.008 C 
BRANCH  90  91
ATOM     91  C   UNL A   1      38.160  22.108  25.570  1.00  0.00     0.119 C 
BRANCH  91  92
ATOM     92  N   UNL A   1      38.753  22.903  26.630  1.00  0.00    -0.351 N 
ATOM     93  C   UNL A   1      40.068  23.118  26.904  1.00  0.00     0.278 C 
ATOM     94  H   UNL A   1      38.115  23.347  27.234  1.00  0.00     0.163 HD
ATOM     95  O   UNL A   1      40.365  23.927  27.788  1.00  0.00    -0.268 OA
BRANCH  93  96
ATOM     96  C   UNL A   1      41.135  22.341  26.132  1.00  0.00     0.277 C 
ATOM     97  C   UNL A   1      41.592  21.162  27.007  1.00  0.00     0.111 C 
ATOM     98  N   UNL A   1      42.187  23.283  25.680  1.00  0.00    -0.332 N 
ATOM     99  C   UNL A   1      42.683  20.435  26.274  1.00  0.00    -0.033 A 
ATOM    100  C   UNL A   1      43.540  22.727  25.732  1.00  0.00     0.298 C 
ATOM    101  H   UNL A   1      42.157  24.109  26.277  1.00  0.00     0.347 HD
ATOM    102  H   UNL A   1      41.992  23.499  24.703  1.00  0.00     0.347 HD
ATOM    103  C   UNL A   1      42.781  19.043  26.258  1.00  0.00     0.004 A 
ATOM    104  C   UNL A   1      43.611  21.226  25.573  1.00  0.00     0.010 A 
ATOM    105  C   UNL A   1      43.786  18.434  25.509  1.00  0.00     0.000 A 
ATOM    106  C   UNL A   1      44.613  20.606  24.825  1.00  0.00     0.010 A 
ATOM    107  C   UNL A   1      44.692  19.213  24.786  1.00  0.00     0.001 A 
ENDBRANCH  93  96
ENDBRANCH  91  92
ENDBRANCH  90  91
ENDBRANCH  82  85
ENDBRANCH  74  81
ENDBRANCH  72  74
ENDBRANCH  71  72
ENDBRANCH  70  71
ENDBRANCH  69  70
ENDBRANCH  68  69
ENDBRANCH  67  68
ENDBRANCH   1  67
TORSDOF 26
ENDMDL
MODEL 2
REMARK VINA RESULT:      -9.9      6.368      9.904
REMARK SMILES O=C(OCCOCCOCCOCCOC(=O)[C@H](NC(=O)[C@H]1CC[C@@H](CNC(=O)[C@@H]2Cc3ccccc3C[NH2+]2)CC1)c1ccccc1)c1ccc(-c2c3nc(c(-c4c(F)cccc4F)c4ccc([nH]4)c(-c4c(F)cccc4F)c4nc(c(-c5c(F)cccc5F)c5ccc2[nH]5)C=C4)C=C3)cc1
REMARK SMILES IDX 10 1 9 2 8 3 7 4 6 5 5 6 4 7 3 8 2 9 1 10 48 11 49 12 101 13
REMARK SMILES IDX 50 14 100 15 51 16 52 17 53 18 94 19 54 20 99 21 93 22 95 23
REMARK SMILES IDX 55 24 98 25 92 26 91 27 56 29 82 30 65 31 81 32 66 33 69 34
REMARK SMILES IDX 80 35 96 36 67 37 68 38 79 40 97 41 70 42 57 43 58 44 63 45
REMARK SMILES IDX 59 46 60 47 62 48 64 49 61 50 83 51 84 52 89 53 85 54 86 55
REMARK SMILES IDX 88 56 90 57 87 58 71 59 72 60 77 61 73 62 74 63 76 64 78 65
REMARK SMILES IDX 75 66 11 67 12 68 13 69 14 70 15 71 16 72 17 73 18 74 42 75
REMARK SMILES IDX 43 76 47 77 44 78 46 79 45 80 19 81 20 82 21 84 22 85 41 86
REMARK SMILES IDX 23 87 40 88 24 89 25 90 26 91 27 92 28 93 29 95 30 96 31 97
REMARK SMILES IDX 39 98 32 99 38 100 33 103 37 104 34 105 36 106 35 107
REMARK H PARENT 95 28 69 39 19 83 27 94 39 101 39 102
REMARK Flexibility Score: inf
ROOT
ATOM      1  C   UNL A   1      33.684  28.232  25.630  1.00  0.00     0.188 C 
ENDROOT
BRANCH   1   2
ATOM      2  O   UNL A   1      33.724  28.683  26.980  1.00  0.00    -0.377 OA
BRANCH   2   3
ATOM      3  C   UNL A   1      34.558  29.815  27.245  1.00  0.00     0.188 C 
BRANCH   3   4
ATOM      4  C   UNL A   1      33.852  31.100  27.693  1.00  0.00     0.188 C 
BRANCH   4   5
ATOM      5  O   UNL A   1      34.709  32.237  27.617  1.00  0.00    -0.376 OA
BRANCH   5   6
ATOM      6  C   UNL A   1      35.724  32.346  28.614  1.00  0.00     0.202 C 
BRANCH   6   7
ATOM      7  C   UNL A   1      35.244  32.084  30.038  1.00  0.00     0.261 C 
BRANCH   7   8
ATOM      8  O   UNL A   1      35.818  30.904  30.623  1.00  0.00    -0.460 OA
BRANCH   8   9
ATOM      9  C   UNL A   1      36.857  30.804  31.486  1.00  0.00     0.338 C 
ATOM     10  O   UNL A   1      36.614  30.510  32.656  1.00  0.00    -0.246 OA
BRANCH   9  11
ATOM     11  C   UNL A   1      38.293  30.994  31.111  1.00  0.00     0.060 A 
ATOM     12  C   UNL A   1      39.314  31.393  31.972  1.00  0.00     0.016 A 
ATOM     13  C   UNL A   1      38.645  30.691  29.783  1.00  0.00     0.016 A 
ATOM     14  C   UNL A   1      40.611  31.588  31.532  1.00  0.00     0.010 A 
ATOM     15  C   UNL A   1      39.954  30.869  29.326  1.00  0.00     0.010 A 
ATOM     16  C   UNL A   1      40.923  31.376  30.197  1.00  0.00    -0.014 A 
BRANCH  16  17
ATOM     17  C   UNL A   1      42.175  31.982  29.721  1.00  0.00     0.031 A 
ATOM     18  C   UNL A   1      43.247  31.043  29.250  1.00  0.00     0.074 A 
ATOM     19  C   UNL A   1      42.243  33.307  29.510  1.00  0.00     0.049 A 
ATOM     20  N   UNL A   1      44.437  31.303  28.786  1.00  0.00    -0.248 NA
ATOM     21  C   UNL A   1      42.918  29.605  29.286  1.00  0.00     0.031 C 
ATOM     22  C   UNL A   1      41.160  34.260  29.767  1.00  0.00     0.029 A 
ATOM     23  N   UNL A   1      43.244  34.073  28.982  1.00  0.00    -0.354 N 
ATOM     24  C   UNL A   1      45.013  30.064  28.527  1.00  0.00     0.074 A 
ATOM     25  C   UNL A   1      44.047  29.053  28.878  1.00  0.00     0.031 C 
ATOM     26  C   UNL A   1      41.548  35.482  29.368  1.00  0.00     0.029 A 
ATOM     27  C   UNL A   1      42.928  35.407  28.904  1.00  0.00     0.049 A 
ATOM     28  H   UNL A   1      44.108  33.704  28.686  1.00  0.00     0.167 HD
ATOM     29  C   UNL A   1      46.248  29.807  28.043  1.00  0.00     0.037 A 
ATOM     30  C   UNL A   1      43.698  36.444  28.528  1.00  0.00     0.037 A 
ATOM     31  C   UNL A   1      47.170  30.848  27.688  1.00  0.00     0.049 A 
ATOM     32  C   UNL A   1      45.109  36.140  28.101  1.00  0.00     0.074 A 
ATOM     33  C   UNL A   1      48.477  30.743  27.258  1.00  0.00     0.029 A 
ATOM     34  N   UNL A   1      46.861  32.203  27.721  1.00  0.00    -0.354 N 
ATOM     35  N   UNL A   1      45.697  34.973  27.958  1.00  0.00    -0.248 NA
ATOM     36  C   UNL A   1      45.969  37.287  27.800  1.00  0.00     0.031 C 
ATOM     37  C   UNL A   1      48.977  32.039  27.084  1.00  0.00     0.029 A 
ATOM     38  C   UNL A   1      47.958  32.949  27.339  1.00  0.00     0.049 A 
ATOM     39  H   UNL A   1      45.987  32.576  27.979  1.00  0.00     0.167 HD
ATOM     40  C   UNL A   1      46.985  35.244  27.519  1.00  0.00     0.074 A 
ATOM     41  C   UNL A   1      47.085  36.687  27.411  1.00  0.00     0.031 C 
ATOM     42  C   UNL A   1      47.996  34.387  27.230  1.00  0.00     0.037 A 
BRANCH  29  43
ATOM     43  C   UNL A   1      46.672  28.368  27.992  1.00  0.00     0.057 A 
ATOM     44  C   UNL A   1      47.295  27.721  29.069  1.00  0.00     0.134 A 
ATOM     45  C   UNL A   1      46.517  27.638  26.808  1.00  0.00     0.134 A 
ATOM     46  F   UNL A   1      47.512  28.373  30.222  1.00  0.00    -0.206 F 
ATOM     47  C   UNL A   1      47.778  26.414  28.955  1.00  0.00     0.040 A 
ATOM     48  C   UNL A   1      46.970  26.322  26.691  1.00  0.00     0.040 A 
ATOM     49  F   UNL A   1      45.941  28.198  25.733  1.00  0.00    -0.206 F 
ATOM     50  C   UNL A   1      47.614  25.711  27.764  1.00  0.00     0.006 A 
ENDBRANCH  29  43
BRANCH  30  51
ATOM     51  C   UNL A   1      43.181  37.836  28.589  1.00  0.00     0.057 A 
ATOM     52  C   UNL A   1      43.436  38.665  29.688  1.00  0.00     0.134 A 
ATOM     53  C   UNL A   1      42.395  38.367  27.557  1.00  0.00     0.134 A 
ATOM     54  F   UNL A   1      44.166  38.216  30.719  1.00  0.00    -0.206 F 
ATOM     55  C   UNL A   1      42.914  39.959  29.767  1.00  0.00     0.040 A 
ATOM     56  C   UNL A   1      41.893  39.669  27.609  1.00  0.00     0.040 A 
ATOM     57  F   UNL A   1      42.110  37.631  26.473  1.00  0.00    -0.206 F 
ATOM     58  C   UNL A   1      42.143  40.466  28.722  1.00  0.00     0.006 A 
ENDBRANCH  30  51
BRANCH  42  59
ATOM     59  C   UNL A   1      49.263  34.994  26.711  1.00  0.00     0.057 A 
ATOM     60  C   UNL A   1      50.340  35.303  27.549  1.00  0.00     0.134 A 
ATOM     61  C   UNL A   1      49.414  35.233  25.339  1.00  0.00     0.134 A 
ATOM     62  F   UNL A   1      50.249  35.108  28.874  1.00  0.00    -0.206 F 
ATOM     63  C   UNL A   1      51.515  35.857  27.044  1.00  0.00     0.040 A 
ATOM     64  C   UNL A   1      50.596  35.754  24.818  1.00  0.00     0.040 A 
ATOM     65  F   UNL A   1      48.422  34.946  24.483  1.00  0.00    -0.206 F 
ATOM     66  C   UNL A   1      51.647  36.076  25.674  1.00  0.00     0.006 A 
ENDBRANCH  42  59
ENDBRANCH  16  17
ENDBRANCH   9  11
ENDBRANCH   8   9
ENDBRANCH   7   8
ENDBRANCH   6   7
ENDBRANCH   5   6
ENDBRANCH   4   5
ENDBRANCH   3   4
ENDBRANCH   2   3
ENDBRANCH   1   2
BRANCH   1  67
ATOM     67  C   UNL A   1      32.692  27.106  25.252  1.00  0.00     0.188 C 
BRANCH  67  68
ATOM     68  O   UNL A   1      32.920  25.887  25.939  1.00  0.00    -0.376 OA
BRANCH  68  69
ATOM     69  C   UNL A   1      32.623  24.671  25.268  1.00  0.00     0.202 C 
BRANCH  69  70
ATOM     70  C   UNL A   1      32.772  23.328  26.005  1.00  0.00     0.261 C 
BRANCH  70  71
ATOM     71  O   UNL A   1      33.565  22.322  25.368  1.00  0.00    -0.461 OA
BRANCH  71  72
ATOM     72  C   UNL A   1      34.084  21.321  26.127  1.00  0.00     0.333 C 
ATOM     73  O   UNL A   1      33.734  21.052  27.272  1.00  0.00    -0.249 OA
BRANCH  72  74
ATOM     74  C   UNL A   1      35.084  20.501  25.273  1.00  0.00     0.223 C 
BRANCH  74  75
ATOM     75  C   UNL A   1      34.385  19.313  24.661  1.00  0.00    -0.014 A 
ATOM     76  C   UNL A   1      33.090  19.354  24.141  1.00  0.00     0.006 A 
ATOM     77  C   UNL A   1      35.089  18.091  24.620  1.00  0.00     0.006 A 
ATOM     78  C   UNL A   1      32.531  18.221  23.553  1.00  0.00     0.000 A 
ATOM     79  C   UNL A   1      34.507  16.946  24.090  1.00  0.00     0.000 A 
ATOM     80  C   UNL A   1      33.232  17.015  23.543  1.00  0.00     0.000 A 
ENDBRANCH  74  75
BRANCH  74  81
ATOM     81  N   UNL A   1      35.808  21.427  24.377  1.00  0.00    -0.339 N 
ATOM     82  C   UNL A   1      36.885  22.236  24.622  1.00  0.00     0.224 C 
ATOM     83  H   UNL A   1      35.462  21.466  23.457  1.00  0.00     0.164 HD
ATOM     84  O   UNL A   1      36.969  23.292  23.995  1.00  0.00    -0.275 OA
BRANCH  82  85
ATOM     85  C   UNL A   1      37.978  21.771  25.569  1.00  0.00     0.078 C 
ATOM     86  C   UNL A   1      38.810  20.600  25.011  1.00  0.00     0.014 C 
ATOM     87  C   UNL A   1      38.928  22.855  26.068  1.00  0.00     0.014 C 
ATOM     88  C   UNL A   1      39.688  20.010  26.126  1.00  0.00     0.006 C 
ATOM     89  C   UNL A   1      39.702  22.284  27.253  1.00  0.00     0.006 C 
ATOM     90  C   UNL A   1      40.553  21.072  26.841  1.00  0.00     0.008 C 
BRANCH  90  91
ATOM     91  C   UNL A   1      41.748  21.450  25.952  1.00  0.00     0.119 C 
BRANCH  91  92
ATOM     92  N   UNL A   1      42.941  21.767  26.715  1.00  0.00    -0.351 N 
ATOM     93  C   UNL A   1      43.284  22.937  27.318  1.00  0.00     0.278 C 
ATOM     94  H   UNL A   1      43.592  21.034  26.808  1.00  0.00     0.163 HD
ATOM     95  O   UNL A   1      44.297  22.967  28.022  1.00  0.00    -0.268 OA
BRANCH  93  96
ATOM     96  C   UNL A   1      42.424  24.181  27.093  1.00  0.00     0.277 C 
ATOM     97  C   UNL A   1      43.355  25.335  26.684  1.00  0.00     0.111 C 
ATOM     98  N   UNL A   1      41.572  24.403  28.285  1.00  0.00    -0.332 N 
ATOM     99  C   UNL A   1      42.518  26.572  26.521  1.00  0.00    -0.033 A 
ATOM    100  C   UNL A   1      41.389  25.815  28.627  1.00  0.00     0.298 C 
ATOM    101  H   UNL A   1      42.003  23.934  29.080  1.00  0.00     0.347 HD
ATOM    102  H   UNL A   1      40.649  24.030  28.064  1.00  0.00     0.347 HD
ATOM    103  C   UNL A   1      42.724  27.490  25.491  1.00  0.00     0.004 A 
ATOM    104  C   UNL A   1      41.485  26.764  27.456  1.00  0.00     0.010 A 
ATOM    105  C   UNL A   1      41.872  28.586  25.368  1.00  0.00     0.000 A 
ATOM    106  C   UNL A   1      40.637  27.865  27.322  1.00  0.00     0.010 A 
ATOM    107  C   UNL A   1      40.825  28.767  26.274  1.00  0.00     0.001 A 
ENDBRANCH  93  96
ENDBRANCH  91  92
ENDBRANCH  90  91
ENDBRANCH  82  85
ENDBRANCH  74  81
ENDBRANCH  72  74
ENDBRANCH  71  72
ENDBRANCH  70  71
ENDBRANCH  69  70
ENDBRANCH  68  69
ENDBRANCH  67  68
ENDBRANCH   1  67
TORSDOF 26
ENDMDL
MODEL 3
REMARK VINA RESULT:      -9.7      4.930      7.334
REMARK SMILES O=C(OCCOCCOCCOCCOC(=O)[C@H](NC(=O)[C@H]1CC[C@@H](CNC(=O)[C@@H]2Cc3ccccc3C[NH2+]2)CC1)c1ccccc1)c1ccc(-c2c3nc(c(-c4c(F)cccc4F)c4ccc([nH]4)c(-c4c(F)cccc4F)c4nc(c(-c5c(F)cccc5F)c5ccc2[nH]5)C=C4)C=C3)cc1
REMARK SMILES IDX 10 1 9 2 8 3 7 4 6 5 5 6 4 7 3 8 2 9 1 10 48 11 49 12 101 13
REMARK SMILES IDX 50 14 100 15 51 16 52 17 53 18 94 19 54 20 99 21 93 22 95 23
REMARK SMILES IDX 55 24 98 25 92 26 91 27 56 29 82 30 65 31 81 32 66 33 69 34
REMARK SMILES IDX 80 35 96 36 67 37 68 38 79 40 97 41 70 42 57 43 58 44 63 45
REMARK SMILES IDX 59 46 60 47 62 48 64 49 61 50 83 51 84 52 89 53 85 54 86 55
REMARK SMILES IDX 88 56 90 57 87 58 71 59 72 60 77 61 73 62 74 63 76 64 78 65
REMARK SMILES IDX 75 66 11 67 12 68 13 69 14 70 15 71 16 72 17 73 18 74 42 75
REMARK SMILES IDX 43 76 47 77 44 78 46 79 45 80 19 81 20 82 21 84 22 85 41 86
REMARK SMILES IDX 23 87 40 88 24 89 25 90 26 91 27 92 28 93 29 95 30 96 31 97
REMARK SMILES IDX 39 98 32 99 38 100 33 103 37 104 34 105 36 106 35 107
REMARK H PARENT 95 28 69 39 19 83 27 94 39 101 39 102
REMARK Flexibility Score: inf
ROOT
ATOM      1  C   UNL A   1      33.994  28.449  25.895  1.00  0.00     0.188 C 
ENDROOT
BRANCH   1   2
ATOM      2  O   UNL A   1      33.851  28.984  27.208  1.00  0.00    -0.377 OA
BRANCH   2   3
ATOM      3  C   UNL A   1      34.714  30.073  27.546  1.00  0.00     0.188 C 
BRANCH   3   4
ATOM      4  C   UNL A   1      34.040  31.403  27.898  1.00  0.00     0.188 C 
BRANCH   4   5
ATOM      5  O   UNL A   1      34.894  32.519  27.656  1.00  0.00    -0.376 OA
BRANCH   5   6
ATOM      6  C   UNL A   1      35.828  32.849  28.683  1.00  0.00     0.202 C 
BRANCH   6   7
ATOM      7  C   UNL A   1      35.257  32.806  30.097  1.00  0.00     0.261 C 
BRANCH   7   8
ATOM      8  O   UNL A   1      35.549  31.582  30.789  1.00  0.00    -0.460 OA
BRANCH   8   9
ATOM      9  C   UNL A   1      36.576  31.305  31.629  1.00  0.00     0.338 C 
ATOM     10  O   UNL A   1      36.321  31.138  32.821  1.00  0.00    -0.246 OA
BRANCH   9  11
ATOM     11  C   UNL A   1      38.002  31.156  31.204  1.00  0.00     0.060 A 
ATOM     12  C   UNL A   1      38.442  30.590  30.009  1.00  0.00     0.016 A 
ATOM     13  C   UNL A   1      38.977  31.685  32.069  1.00  0.00     0.016 A 
ATOM     14  C   UNL A   1      39.785  30.452  29.712  1.00  0.00     0.010 A 
ATOM     15  C   UNL A   1      40.340  31.565  31.779  1.00  0.00     0.010 A 
ATOM     16  C   UNL A   1      40.739  30.892  30.620  1.00  0.00    -0.014 A 
BRANCH  16  17
ATOM     17  C   UNL A   1      42.096  30.356  30.444  1.00  0.00     0.031 A 
ATOM     18  C   UNL A   1      43.089  31.240  29.748  1.00  0.00     0.074 A 
ATOM     19  C   UNL A   1      42.465  29.235  31.085  1.00  0.00     0.049 A 
ATOM     20  N   UNL A   1      44.342  31.021  29.461  1.00  0.00    -0.248 NA
ATOM     21  C   UNL A   1      42.604  32.572  29.337  1.00  0.00     0.031 C 
ATOM     22  C   UNL A   1      41.593  28.426  31.942  1.00  0.00     0.029 A 
ATOM     23  N   UNL A   1      43.679  28.612  31.161  1.00  0.00    -0.354 N 
ATOM     24  C   UNL A   1      44.775  32.161  28.794  1.00  0.00     0.074 A 
ATOM     25  C   UNL A   1      43.660  33.073  28.720  1.00  0.00     0.031 C 
ATOM     26  C   UNL A   1      42.312  27.428  32.480  1.00  0.00     0.029 A 
ATOM     27  C   UNL A   1      43.667  27.484  31.943  1.00  0.00     0.049 A 
ATOM     28  H   UNL A   1      44.484  28.940  30.699  1.00  0.00     0.167 HD
ATOM     29  C   UNL A   1      46.001  32.411  28.283  1.00  0.00     0.037 A 
ATOM     30  C   UNL A   1      44.646  26.588  32.162  1.00  0.00     0.037 A 
ATOM     31  C   UNL A   1      47.088  31.481  28.398  1.00  0.00     0.049 A 
ATOM     32  C   UNL A   1      45.970  26.831  31.489  1.00  0.00     0.074 A 
ATOM     33  C   UNL A   1      48.360  31.561  27.869  1.00  0.00     0.029 A 
ATOM     34  N   UNL A   1      47.017  30.288  29.109  1.00  0.00    -0.354 N 
ATOM     35  N   UNL A   1      46.352  27.859  30.764  1.00  0.00    -0.248 NA
ATOM     36  C   UNL A   1      46.991  25.792  31.646  1.00  0.00     0.031 C 
ATOM     37  C   UNL A   1      49.043  30.389  28.215  1.00  0.00     0.029 A 
ATOM     38  C   UNL A   1      48.217  29.610  29.017  1.00  0.00     0.049 A 
ATOM     39  H   UNL A   1      46.227  29.973  29.605  1.00  0.00     0.167 HD
ATOM     40  C   UNL A   1      47.669  27.606  30.405  1.00  0.00     0.074 A 
ATOM     41  C   UNL A   1      48.017  26.331  31.004  1.00  0.00     0.031 C 
ATOM     42  C   UNL A   1      48.516  28.349  29.652  1.00  0.00     0.037 A 
BRANCH  29  43
ATOM     43  C   UNL A   1      46.161  33.670  27.482  1.00  0.00     0.057 A 
ATOM     44  C   UNL A   1      45.845  33.748  26.119  1.00  0.00     0.134 A 
ATOM     45  C   UNL A   1      46.714  34.809  28.079  1.00  0.00     0.134 A 
ATOM     46  F   UNL A   1      45.348  32.682  25.473  1.00  0.00    -0.206 F 
ATOM     47  C   UNL A   1      46.108  34.901  25.373  1.00  0.00     0.040 A 
ATOM     48  C   UNL A   1      46.955  35.976  27.351  1.00  0.00     0.040 A 
ATOM     49  F   UNL A   1      47.053  34.802  29.377  1.00  0.00    -0.206 F 
ATOM     50  C   UNL A   1      46.662  36.020  25.990  1.00  0.00     0.006 A 
ENDBRANCH  29  43
BRANCH  30  51
ATOM     51  C   UNL A   1      44.399  25.380  32.993  1.00  0.00     0.057 A 
ATOM     52  C   UNL A   1      44.128  24.135  32.414  1.00  0.00     0.134 A 
ATOM     53  C   UNL A   1      44.406  25.446  34.393  1.00  0.00     0.134 A 
ATOM     54  F   UNL A   1      44.089  24.003  31.081  1.00  0.00    -0.206 F 
ATOM     55  C   UNL A   1      43.853  23.008  33.194  1.00  0.00     0.040 A 
ATOM     56  C   UNL A   1      44.164  24.321  35.185  1.00  0.00     0.040 A 
ATOM     57  F   UNL A   1      44.659  26.606  35.017  1.00  0.00    -0.206 F 
ATOM     58  C   UNL A   1      43.876  23.099  34.584  1.00  0.00     0.006 A 
ENDBRANCH  30  51
BRANCH  42  59
ATOM     59  C   UNL A   1      49.912  27.828  29.498  1.00  0.00     0.057 A 
ATOM     60  C   UNL A   1      50.927  28.135  30.411  1.00  0.00     0.134 A 
ATOM     61  C   UNL A   1      50.226  26.970  28.436  1.00  0.00     0.134 A 
ATOM     62  F   UNL A   1      50.688  28.961  31.442  1.00  0.00    -0.206 F 
ATOM     63  C   UNL A   1      52.216  27.630  30.257  1.00  0.00     0.040 A 
ATOM     64  C   UNL A   1      51.503  26.432  28.291  1.00  0.00     0.040 A 
ATOM     65  F   UNL A   1      49.292  26.629  27.535  1.00  0.00    -0.206 F 
ATOM     66  C   UNL A   1      52.504  26.770  29.198  1.00  0.00     0.006 A 
ENDBRANCH  42  59
ENDBRANCH  16  17
ENDBRANCH   9  11
ENDBRANCH   8   9
ENDBRANCH   7   8
ENDBRANCH   6   7
ENDBRANCH   5   6
ENDBRANCH   4   5
ENDBRANCH   3   4
ENDBRANCH   2   3
ENDBRANCH   1   2
BRANCH   1  67
ATOM     67  C   UNL A   1      33.057  27.299  25.454  1.00  0.00     0.188 C 
BRANCH  67  68
ATOM     68  O   UNL A   1      33.489  26.017  25.876  1.00  0.00    -0.376 OA
BRANCH  68  69
ATOM     69  C   UNL A   1      32.701  24.891  25.518  1.00  0.00     0.202 C 
BRANCH  69  70
ATOM     70  C   UNL A   1      32.887  23.553  26.255  1.00  0.00     0.261 C 
BRANCH  70  71
ATOM     71  O   UNL A   1      33.554  22.506  25.543  1.00  0.00    -0.461 OA
BRANCH  71  72
ATOM     72  C   UNL A   1      34.050  21.452  26.244  1.00  0.00     0.333 C 
ATOM     73  O   UNL A   1      33.671  21.108  27.359  1.00  0.00    -0.249 OA
BRANCH  72  74
ATOM     74  C   UNL A   1      35.066  20.686  25.360  1.00  0.00     0.223 C 
BRANCH  74  75
ATOM     75  C   UNL A   1      34.398  19.494  24.721  1.00  0.00    -0.014 A 
ATOM     76  C   UNL A   1      33.088  19.503  24.238  1.00  0.00     0.006 A 
ATOM     77  C   UNL A   1      35.147  18.304  24.616  1.00  0.00     0.006 A 
ATOM     78  C   UNL A   1      32.558  18.370  23.623  1.00  0.00     0.000 A 
ATOM     79  C   UNL A   1      34.596  17.156  24.058  1.00  0.00     0.000 A 
ATOM     80  C   UNL A   1      33.304  17.195  23.549  1.00  0.00     0.000 A 
ENDBRANCH  74  75
BRANCH  74  81
ATOM     81  N   UNL A   1      35.754  21.656  24.483  1.00  0.00    -0.339 N 
ATOM     82  C   UNL A   1      36.824  22.472  24.733  1.00  0.00     0.224 C 
ATOM     83  H   UNL A   1      35.385  21.726  23.574  1.00  0.00     0.164 HD
ATOM     84  O   UNL A   1      36.877  23.553  24.146  1.00  0.00    -0.275 OA
BRANCH  82  85
ATOM     85  C   UNL A   1      37.948  21.988  25.634  1.00  0.00     0.078 C 
ATOM     86  C   UNL A   1      38.773  20.843  25.018  1.00  0.00     0.014 C 
ATOM     87  C   UNL A   1      38.902  23.066  26.140  1.00  0.00     0.014 C 
ATOM     88  C   UNL A   1      39.687  20.227  26.089  1.00  0.00     0.006 C 
ATOM     89  C   UNL A   1      39.714  22.466  27.284  1.00  0.00     0.006 C 
ATOM     90  C   UNL A   1      40.563  21.274  26.812  1.00  0.00     0.008 C 
BRANCH  90  91
ATOM     91  C   UNL A   1      41.729  21.690  25.902  1.00  0.00     0.119 C 
BRANCH  91  92
ATOM     92  N   UNL A   1      42.971  21.883  26.628  1.00  0.00    -0.351 N 
ATOM     93  C   UNL A   1      43.404  22.981  27.305  1.00  0.00     0.278 C 
ATOM     94  H   UNL A   1      43.585  21.113  26.630  1.00  0.00     0.163 HD
ATOM     95  O   UNL A   1      44.448  22.901  27.958  1.00  0.00    -0.268 OA
BRANCH  93  96
ATOM     96  C   UNL A   1      42.604  24.281  27.221  1.00  0.00     0.277 C 
ATOM     97  C   UNL A   1      43.467  25.325  26.493  1.00  0.00     0.111 C 
ATOM     98  N   UNL A   1      42.124  24.642  28.577  1.00  0.00    -0.332 N 
ATOM     99  C   UNL A   1      42.705  26.619  26.465  1.00  0.00    -0.033 A 
ATOM    100  C   UNL A   1      42.140  26.081  28.846  1.00  0.00     0.298 C 
ATOM    101  H   UNL A   1      42.722  24.181  29.263  1.00  0.00     0.347 HD
ATOM    102  H   UNL A   1      41.152  24.340  28.639  1.00  0.00     0.347 HD
ATOM    103  C   UNL A   1      42.687  27.458  25.349  1.00  0.00     0.004 A 
ATOM    104  C   UNL A   1      41.981  26.952  27.623  1.00  0.00     0.010 A 
ATOM    105  C   UNL A   1      41.913  28.616  25.374  1.00  0.00     0.000 A 
ATOM    106  C   UNL A   1      41.206  28.114  27.636  1.00  0.00     0.010 A 
ATOM    107  C   UNL A   1      41.166  28.937  26.509  1.00  0.00     0.001 A 
ENDBRANCH  93  96
ENDBRANCH  91  92
ENDBRANCH  90  91
ENDBRANCH  82  85
ENDBRANCH  74  81
ENDBRANCH  72  74
ENDBRANCH  71  72
ENDBRANCH  70  71
ENDBRANCH  69  70
ENDBRANCH  68  69
ENDBRANCH  67  68
ENDBRANCH   1  67
TORSDOF 26
ENDMDL
