MODEL 1
REMARK VINA RESULT:     -10.0      0.000      0.000
REMARK SMILES COc1ncccc1Cn1ccc(C(=O)OCCOCCOCCOCCOC(=O)c2ccc(-c3c4nc(c(-c5c(F)cccc5F)c5ccc([nH]5)c(-c5c(F)cccc5F)c5nc(c(-c6c(F)cccc6F)c6ccc3[nH]6)C=C5)C=C4)cc2)n1
REMARK SMILES IDX 21 1 20 2 19 3 18 4 17 5 16 6 14 7 15 8 13 9 10 10 11 11
REMARK SMILES IDX 85 12 12 13 9 14 8 15 3 16 4 17 5 18 7 19 6 20 2 21 1 22
REMARK SMILES IDX 22 23 23 24 24 25 25 26 26 27 27 28 28 29 29 30 30 31 31 32
REMARK SMILES IDX 32 33 84 34 33 35 83 36 34 37 35 38 36 39 77 40 37 41 82 42
REMARK SMILES IDX 76 43 78 44 38 45 81 46 75 47 74 48 39 50 65 51 48 52 64 53
REMARK SMILES IDX 49 54 52 55 63 56 79 57 50 58 51 59 62 61 80 62 53 63 40 64
REMARK SMILES IDX 41 65 46 66 42 67 43 68 45 69 47 70 44 71 66 72 67 73 72 74
REMARK SMILES IDX 68 75 69 76 71 77 73 78 70 79 54 80 55 81 60 82 56 83 57 84
REMARK SMILES IDX 59 85 61 86 58 87
REMARK H PARENT 78 49 52 60
REMARK Flexibility Score: inf
ROOT
ATOM      1  C   UNL A   1      37.918  22.507  25.681  1.00  0.00     0.188 C 
ENDROOT
BRANCH   1   2
ATOM      2  C   UNL A   1      36.435  22.297  25.284  1.00  0.00     0.188 C 
BRANCH   2   3
ATOM      3  O   UNL A   1      35.948  20.988  25.500  1.00  0.00    -0.376 OA
BRANCH   3   4
ATOM      4  C   UNL A   1      34.822  20.534  24.782  1.00  0.00     0.202 C 
BRANCH   4   5
ATOM      5  C   UNL A   1      33.460  21.071  25.245  1.00  0.00     0.261 C 
BRANCH   5   6
ATOM      6  O   UNL A   1      33.258  21.080  26.663  1.00  0.00    -0.458 OA
BRANCH   6   7
ATOM      7  C   UNL A   1      33.269  22.294  27.285  1.00  0.00     0.358 C 
ATOM      8  O   UNL A   1      34.138  22.653  28.074  1.00  0.00    -0.244 OA
BRANCH   7   9
ATOM      9  C   UNL A   1      32.283  23.207  26.691  1.00  0.00     0.170 A 
ATOM     10  N   UNL A   1      31.396  24.959  25.842  1.00  0.00    -0.267 N 
ATOM     11  C   UNL A   1      30.355  24.255  26.381  1.00  0.00     0.110 A 
ATOM     12  N   UNL A   1      32.594  24.385  26.111  1.00  0.00    -0.165 NA
ATOM     13  C   UNL A   1      30.876  23.057  26.799  1.00  0.00     0.057 A 
BRANCH  10  14
ATOM     14  C   UNL A   1      31.342  26.079  24.899  1.00  0.00     0.185 C 
BRANCH  14  15
ATOM     15  C   UNL A   1      31.490  27.445  25.509  1.00  0.00     0.036 A 
ATOM     16  C   UNL A   1      31.636  28.588  24.723  1.00  0.00     0.218 A 
ATOM     17  N   UNL A   1      31.806  29.835  25.214  1.00  0.00    -0.222 NA
ATOM     18  C   UNL A   1      31.869  29.952  26.559  1.00  0.00     0.115 A 
ATOM     19  C   UNL A   1      31.553  27.613  26.897  1.00  0.00     0.013 A 
ATOM     20  C   UNL A   1      31.766  28.882  27.433  1.00  0.00     0.021 A 
BRANCH  16  21
ATOM     21  O   UNL A   1      31.845  28.430  23.375  1.00  0.00    -0.481 OA
ATOM     22  C   UNL A   1      30.757  28.919  22.600  1.00  0.00     0.280 C 
ENDBRANCH  16  21
ENDBRANCH  14  15
ENDBRANCH  10  14
ENDBRANCH   7   9
ENDBRANCH   6   7
ENDBRANCH   5   6
ENDBRANCH   4   5
ENDBRANCH   3   4
ENDBRANCH   2   3
ENDBRANCH   1   2
BRANCH   1  23
ATOM     23  O   UNL A   1      38.785  21.450  26.086  1.00  0.00    -0.377 OA
BRANCH  23  24
ATOM     24  C   UNL A   1      40.174  21.688  26.207  1.00  0.00     0.188 C 
BRANCH  24  25
ATOM     25  C   UNL A   1      40.836  21.262  27.539  1.00  0.00     0.188 C 
BRANCH  25  26
ATOM     26  O   UNL A   1      41.572  20.053  27.536  1.00  0.00    -0.376 OA
BRANCH  26  27
ATOM     27  C   UNL A   1      41.795  19.216  26.417  1.00  0.00     0.202 C 
BRANCH  27  28
ATOM     28  C   UNL A   1      43.087  19.089  25.616  1.00  0.00     0.261 C 
BRANCH  28  29
ATOM     29  O   UNL A   1      43.496  20.240  24.928  1.00  0.00    -0.460 OA
BRANCH  29  30
ATOM     30  C   UNL A   1      44.819  20.354  24.787  1.00  0.00     0.338 C 
ATOM     31  O   UNL A   1      45.655  19.449  24.837  1.00  0.00    -0.246 OA
BRANCH  30  32
ATOM     32  C   UNL A   1      45.144  21.772  24.674  1.00  0.00     0.060 A 
ATOM     33  C   UNL A   1      46.089  22.235  25.585  1.00  0.00     0.016 A 
ATOM     34  C   UNL A   1      44.228  22.618  24.027  1.00  0.00     0.016 A 
ATOM     35  C   UNL A   1      45.880  23.481  26.109  1.00  0.00     0.010 A 
ATOM     36  C   UNL A   1      44.014  23.861  24.560  1.00  0.00     0.010 A 
ATOM     37  C   UNL A   1      44.766  24.212  25.672  1.00  0.00    -0.014 A 
BRANCH  37  38
ATOM     38  C   UNL A   1      44.429  25.385  26.433  1.00  0.00     0.031 A 
ATOM     39  C   UNL A   1      45.469  26.419  26.355  1.00  0.00     0.074 A 
ATOM     40  C   UNL A   1      43.299  25.494  27.149  1.00  0.00     0.049 A 
ATOM     41  N   UNL A   1      46.333  26.719  27.263  1.00  0.00    -0.248 NA
ATOM     42  C   UNL A   1      45.705  27.042  25.046  1.00  0.00     0.031 C 
ATOM     43  C   UNL A   1      42.094  24.665  27.124  1.00  0.00     0.029 A 
ATOM     44  N   UNL A   1      42.987  26.466  28.041  1.00  0.00    -0.354 N 
ATOM     45  C   UNL A   1      47.111  27.721  26.708  1.00  0.00     0.074 A 
ATOM     46  C   UNL A   1      46.805  27.752  25.301  1.00  0.00     0.031 C 
ATOM     47  C   UNL A   1      41.106  25.301  27.797  1.00  0.00     0.029 A 
ATOM     48  C   UNL A   1      41.655  26.499  28.415  1.00  0.00     0.049 A 
ATOM     49  H   UNL A   1      43.655  27.098  28.395  1.00  0.00     0.167 HD
ATOM     50  C   UNL A   1      47.762  28.611  27.500  1.00  0.00     0.037 A 
ATOM     51  C   UNL A   1      41.065  27.496  29.117  1.00  0.00     0.037 A 
ATOM     52  C   UNL A   1      47.879  28.132  28.854  1.00  0.00     0.049 A 
ATOM     53  C   UNL A   1      42.141  28.233  29.834  1.00  0.00     0.074 A 
ATOM     54  C   UNL A   1      48.490  27.045  29.449  1.00  0.00     0.029 A 
ATOM     55  N   UNL A   1      46.986  28.613  29.780  1.00  0.00    -0.354 N 
ATOM     56  N   UNL A   1      42.828  27.729  30.822  1.00  0.00    -0.248 NA
ATOM     57  C   UNL A   1      42.772  29.354  29.151  1.00  0.00     0.031 C 
ATOM     58  C   UNL A   1      47.610  26.652  30.502  1.00  0.00     0.029 A 
ATOM     59  C   UNL A   1      46.538  27.545  30.517  1.00  0.00     0.049 A 
ATOM     60  H   UNL A   1      46.716  29.552  29.895  1.00  0.00     0.167 HD
ATOM     61  C   UNL A   1      44.128  28.169  30.616  1.00  0.00     0.074 A 
ATOM     62  C   UNL A   1      44.016  29.236  29.625  1.00  0.00     0.031 C 
ATOM     63  C   UNL A   1      45.198  27.439  31.050  1.00  0.00     0.037 A 
BRANCH  50  64
ATOM     64  C   UNL A   1      47.931  30.057  27.133  1.00  0.00     0.057 A 
ATOM     65  C   UNL A   1      49.201  30.643  27.237  1.00  0.00     0.134 A 
ATOM     66  C   UNL A   1      46.858  30.959  26.968  1.00  0.00     0.134 A 
ATOM     67  F   UNL A   1      50.295  29.888  27.416  1.00  0.00    -0.206 F 
ATOM     68  C   UNL A   1      49.382  32.030  27.244  1.00  0.00     0.040 A 
ATOM     69  C   UNL A   1      47.033  32.341  26.919  1.00  0.00     0.040 A 
ATOM     70  F   UNL A   1      45.578  30.563  26.954  1.00  0.00    -0.206 F 
ATOM     71  C   UNL A   1      48.295  32.884  27.091  1.00  0.00     0.006 A 
ENDBRANCH  50  64
BRANCH  51  72
ATOM     72  C   UNL A   1      39.711  28.056  28.921  1.00  0.00     0.057 A 
ATOM     73  C   UNL A   1      38.770  28.061  29.960  1.00  0.00     0.134 A 
ATOM     74  C   UNL A   1      39.400  28.849  27.801  1.00  0.00     0.134 A 
ATOM     75  F   UNL A   1      38.999  27.373  31.087  1.00  0.00    -0.206 F 
ATOM     76  C   UNL A   1      37.597  28.826  29.897  1.00  0.00     0.040 A 
ATOM     77  C   UNL A   1      38.231  29.611  27.724  1.00  0.00     0.040 A 
ATOM     78  F   UNL A   1      40.262  28.983  26.784  1.00  0.00    -0.206 F 
ATOM     79  C   UNL A   1      37.330  29.613  28.781  1.00  0.00     0.006 A 
ENDBRANCH  51  72
BRANCH  63  80
ATOM     80  C   UNL A   1      44.922  26.276  31.963  1.00  0.00     0.057 A 
ATOM     81  C   UNL A   1      44.628  24.980  31.510  1.00  0.00     0.134 A 
ATOM     82  C   UNL A   1      45.103  26.439  33.340  1.00  0.00     0.134 A 
ATOM     83  F   UNL A   1      44.537  24.707  30.203  1.00  0.00    -0.206 F 
ATOM     84  C   UNL A   1      44.477  23.906  32.394  1.00  0.00     0.040 A 
ATOM     85  C   UNL A   1      44.987  25.368  34.230  1.00  0.00     0.040 A 
ATOM     86  F   UNL A   1      45.445  27.637  33.841  1.00  0.00    -0.206 F 
ATOM     87  C   UNL A   1      44.661  24.098  33.759  1.00  0.00     0.006 A 
ENDBRANCH  63  80
ENDBRANCH  37  38
ENDBRANCH  30  32
ENDBRANCH  29  30
ENDBRANCH  28  29
ENDBRANCH  27  28
ENDBRANCH  26  27
ENDBRANCH  25  26
ENDBRANCH  24  25
ENDBRANCH  23  24
ENDBRANCH   1  23
TORSDOF 23
ENDMDL
MODEL 2
REMARK VINA RESULT:      -9.9      1.392      2.121
REMARK SMILES COc1ncccc1Cn1ccc(C(=O)OCCOCCOCCOCCOC(=O)c2ccc(-c3c4nc(c(-c5c(F)cccc5F)c5ccc([nH]5)c(-c5c(F)cccc5F)c5nc(c(-c6c(F)cccc6F)c6ccc3[nH]6)C=C5)C=C4)cc2)n1
REMARK SMILES IDX 21 1 20 2 19 3 18 4 17 5 16 6 14 7 15 8 13 9 10 10 11 11
REMARK SMILES IDX 85 12 12 13 9 14 8 15 3 16 4 17 5 18 7 19 6 20 2 21 1 22
REMARK SMILES IDX 22 23 23 24 24 25 25 26 26 27 27 28 28 29 29 30 30 31 31 32
REMARK SMILES IDX 32 33 84 34 33 35 83 36 34 37 35 38 36 39 77 40 37 41 82 42
REMARK SMILES IDX 76 43 78 44 38 45 81 46 75 47 74 48 39 50 65 51 48 52 64 53
REMARK SMILES IDX 49 54 52 55 63 56 79 57 50 58 51 59 62 61 80 62 53 63 40 64
REMARK SMILES IDX 41 65 46 66 42 67 43 68 45 69 47 70 44 71 66 72 67 73 72 74
REMARK SMILES IDX 68 75 69 76 71 77 73 78 70 79 54 80 55 81 60 82 56 83 57 84
REMARK SMILES IDX 59 85 61 86 58 87
REMARK H PARENT 78 49 52 60
REMARK Flexibility Score: inf
ROOT
ATOM      1  C   UNL A   1      35.724  22.004  26.454  1.00  0.00     0.188 C 
ENDROOT
BRANCH   1   2
ATOM      2  C   UNL A   1      34.423  21.225  26.134  1.00  0.00     0.188 C 
BRANCH   2   3
ATOM      3  O   UNL A   1      34.361  20.697  24.824  1.00  0.00    -0.376 OA
BRANCH   3   4
ATOM      4  C   UNL A   1      33.107  20.442  24.232  1.00  0.00     0.202 C 
BRANCH   4   5
ATOM      5  C   UNL A   1      32.340  21.667  23.712  1.00  0.00     0.261 C 
BRANCH   5   6
ATOM      6  O   UNL A   1      32.549  21.974  22.327  1.00  0.00    -0.458 OA
BRANCH   6   7
ATOM      7  C   UNL A   1      33.164  23.157  22.039  1.00  0.00     0.358 C 
ATOM      8  O   UNL A   1      33.577  23.462  20.923  1.00  0.00    -0.244 OA
BRANCH   7   9
ATOM      9  C   UNL A   1      33.021  24.117  23.143  1.00  0.00     0.170 A 
ATOM     10  N   UNL A   1      32.263  25.693  24.373  1.00  0.00    -0.267 N 
ATOM     11  C   UNL A   1      33.596  25.623  24.664  1.00  0.00     0.110 A 
ATOM     12  N   UNL A   1      31.912  24.849  23.371  1.00  0.00    -0.165 NA
ATOM     13  C   UNL A   1      34.076  24.522  24.000  1.00  0.00     0.057 A 
BRANCH  10  14
ATOM     14  C   UNL A   1      31.208  26.388  25.116  1.00  0.00     0.185 C 
BRANCH  14  15
ATOM     15  C   UNL A   1      30.648  27.613  24.449  1.00  0.00     0.036 A 
ATOM     16  C   UNL A   1      31.092  28.894  24.775  1.00  0.00     0.218 A 
ATOM     17  N   UNL A   1      30.604  30.032  24.235  1.00  0.00    -0.222 NA
ATOM     18  C   UNL A   1      29.596  29.895  23.345  1.00  0.00     0.115 A 
ATOM     19  C   UNL A   1      29.609  27.517  23.516  1.00  0.00     0.013 A 
ATOM     20  C   UNL A   1      29.059  28.674  22.969  1.00  0.00     0.021 A 
BRANCH  16  21
ATOM     21  O   UNL A   1      31.912  29.042  25.867  1.00  0.00    -0.481 OA
ATOM     22  C   UNL A   1      32.051  30.403  26.256  1.00  0.00     0.280 C 
ENDBRANCH  16  21
ENDBRANCH  14  15
ENDBRANCH  10  14
ENDBRANCH   7   9
ENDBRANCH   6   7
ENDBRANCH   5   6
ENDBRANCH   4   5
ENDBRANCH   3   4
ENDBRANCH   2   3
ENDBRANCH   1   2
BRANCH   1  23
ATOM     23  O   UNL A   1      36.705  22.339  25.476  1.00  0.00    -0.377 OA
BRANCH  23  24
ATOM     24  C   UNL A   1      37.785  21.458  25.232  1.00  0.00     0.188 C 
BRANCH  24  25
ATOM     25  C   UNL A   1      39.105  21.759  25.981  1.00  0.00     0.188 C 
BRANCH  25  26
ATOM     26  O   UNL A   1      39.985  20.672  26.200  1.00  0.00    -0.376 OA
BRANCH  26  27
ATOM     27  C   UNL A   1      41.352  20.765  26.550  1.00  0.00     0.202 C 
BRANCH  27  28
ATOM     28  C   UNL A   1      42.451  19.763  26.209  1.00  0.00     0.261 C 
BRANCH  28  29
ATOM     29  O   UNL A   1      42.983  19.856  24.915  1.00  0.00    -0.460 OA
BRANCH  29  30
ATOM     30  C   UNL A   1      44.318  19.841  24.868  1.00  0.00     0.338 C 
ATOM     31  O   UNL A   1      45.056  18.859  24.975  1.00  0.00    -0.246 OA
BRANCH  30  32
ATOM     32  C   UNL A   1      44.786  21.219  24.780  1.00  0.00     0.060 A 
ATOM     33  C   UNL A   1      45.718  21.589  25.744  1.00  0.00     0.016 A 
ATOM     34  C   UNL A   1      43.994  22.151  24.086  1.00  0.00     0.016 A 
ATOM     35  C   UNL A   1      45.602  22.849  26.262  1.00  0.00     0.010 A 
ATOM     36  C   UNL A   1      43.874  23.409  24.612  1.00  0.00     0.010 A 
ATOM     37  C   UNL A   1      44.591  23.686  25.766  1.00  0.00    -0.014 A 
BRANCH  37  38
ATOM     38  C   UNL A   1      44.328  24.887  26.512  1.00  0.00     0.031 A 
ATOM     39  C   UNL A   1      45.426  25.857  26.413  1.00  0.00     0.074 A 
ATOM     40  C   UNL A   1      43.211  25.072  27.233  1.00  0.00     0.049 A 
ATOM     41  N   UNL A   1      46.311  26.119  27.313  1.00  0.00    -0.248 NA
ATOM     42  C   UNL A   1      45.690  26.447  25.095  1.00  0.00     0.031 C 
ATOM     43  C   UNL A   1      41.960  24.313  27.226  1.00  0.00     0.029 A 
ATOM     44  N   UNL A   1      42.962  26.072  28.113  1.00  0.00    -0.354 N 
ATOM     45  C   UNL A   1      47.143  27.067  26.739  1.00  0.00     0.074 A 
ATOM     46  C   UNL A   1      46.830  27.096  25.334  1.00  0.00     0.031 C 
ATOM     47  C   UNL A   1      41.015  25.016  27.896  1.00  0.00     0.029 A 
ATOM     48  C   UNL A   1      41.636  26.187  28.494  1.00  0.00     0.049 A 
ATOM     49  H   UNL A   1      43.667  26.669  28.454  1.00  0.00     0.167 HD
ATOM     50  C   UNL A   1      47.850  27.928  27.515  1.00  0.00     0.037 A 
ATOM     51  C   UNL A   1      41.110  27.227  29.185  1.00  0.00     0.037 A 
ATOM     52  C   UNL A   1      47.947  27.462  28.875  1.00  0.00     0.049 A 
ATOM     53  C   UNL A   1      42.231  27.910  29.885  1.00  0.00     0.074 A 
ATOM     54  C   UNL A   1      48.497  26.349  29.482  1.00  0.00     0.029 A 
ATOM     55  N   UNL A   1      47.089  28.007  29.799  1.00  0.00    -0.354 N 
ATOM     56  N   UNL A   1      42.893  27.380  30.876  1.00  0.00    -0.248 NA
ATOM     57  C   UNL A   1      42.922  28.983  29.182  1.00  0.00     0.031 C 
ATOM     58  C   UNL A   1      47.604  26.023  30.545  1.00  0.00     0.029 A 
ATOM     59  C   UNL A   1      46.585  26.977  30.553  1.00  0.00     0.049 A 
ATOM     60  H   UNL A   1      46.875  28.961  29.902  1.00  0.00     0.167 HD
ATOM     61  C   UNL A   1      44.216  27.741  30.657  1.00  0.00     0.074 A 
ATOM     62  C   UNL A   1      44.160  28.799  29.652  1.00  0.00     0.031 C 
ATOM     63  C   UNL A   1      45.244  26.957  31.095  1.00  0.00     0.037 A 
BRANCH  50  64
ATOM     64  C   UNL A   1      48.100  29.356  27.126  1.00  0.00     0.057 A 
ATOM     65  C   UNL A   1      49.405  29.865  27.200  1.00  0.00     0.134 A 
ATOM     66  C   UNL A   1      47.081  30.321  26.969  1.00  0.00     0.134 A 
ATOM     67  F   UNL A   1      50.454  29.046  27.370  1.00  0.00    -0.206 F 
ATOM     68  C   UNL A   1      49.670  31.238  27.187  1.00  0.00     0.040 A 
ATOM     69  C   UNL A   1      47.340  31.689  26.900  1.00  0.00     0.040 A 
ATOM     70  F   UNL A   1      45.780  30.004  26.982  1.00  0.00    -0.206 F 
ATOM     71  C   UNL A   1      48.635  32.155  27.042  1.00  0.00     0.006 A 
ENDBRANCH  50  64
BRANCH  51  72
ATOM     72  C   UNL A   1      39.789  27.862  28.988  1.00  0.00     0.057 A 
ATOM     73  C   UNL A   1      38.858  27.940  30.034  1.00  0.00     0.134 A 
ATOM     74  C   UNL A   1      39.516  28.652  27.857  1.00  0.00     0.134 A 
ATOM     75  F   UNL A   1      39.056  27.260  31.171  1.00  0.00    -0.206 F 
ATOM     76  C   UNL A   1      37.732  28.772  29.966  1.00  0.00     0.040 A 
ATOM     77  C   UNL A   1      38.393  29.481  27.775  1.00  0.00     0.040 A 
ATOM     78  F   UNL A   1      40.376  28.717  26.831  1.00  0.00    -0.206 F 
ATOM     79  C   UNL A   1      37.502  29.553  28.837  1.00  0.00     0.006 A 
ENDBRANCH  51  72
BRANCH  63  80
ATOM     80  C   UNL A   1      44.907  25.824  32.026  1.00  0.00     0.057 A 
ATOM     81  C   UNL A   1      44.736  25.976  33.411  1.00  0.00     0.134 A 
ATOM     82  C   UNL A   1      44.604  24.571  31.485  1.00  0.00     0.134 A 
ATOM     83  F   UNL A   1      44.904  27.164  34.004  1.00  0.00    -0.206 F 
ATOM     84  C   UNL A   1      44.325  24.914  34.224  1.00  0.00     0.040 A 
ATOM     85  C   UNL A   1      44.162  23.511  32.281  1.00  0.00     0.040 A 
ATOM     86  F   UNL A   1      44.687  24.368  30.160  1.00  0.00    -0.206 F 
ATOM     87  C   UNL A   1      44.031  23.678  33.658  1.00  0.00     0.006 A 
ENDBRANCH  63  80
ENDBRANCH  37  38
ENDBRANCH  30  32
ENDBRANCH  29  30
ENDBRANCH  28  29
ENDBRANCH  27  28
ENDBRANCH  26  27
ENDBRANCH  25  26
ENDBRANCH  24  25
ENDBRANCH  23  24
ENDBRANCH   1  23
TORSDOF 23
ENDMDL
MODEL 3
REMARK VINA RESULT:      -9.7      1.530      2.773
REMARK SMILES COc1ncccc1Cn1ccc(C(=O)OCCOCCOCCOCCOC(=O)c2ccc(-c3c4nc(c(-c5c(F)cccc5F)c5ccc([nH]5)c(-c5c(F)cccc5F)c5nc(c(-c6c(F)cccc6F)c6ccc3[nH]6)C=C5)C=C4)cc2)n1
REMARK SMILES IDX 21 1 20 2 19 3 18 4 17 5 16 6 14 7 15 8 13 9 10 10 11 11
REMARK SMILES IDX 85 12 12 13 9 14 8 15 3 16 4 17 5 18 7 19 6 20 2 21 1 22
REMARK SMILES IDX 22 23 23 24 24 25 25 26 26 27 27 28 28 29 29 30 30 31 31 32
REMARK SMILES IDX 32 33 84 34 33 35 83 36 34 37 35 38 36 39 77 40 37 41 82 42
REMARK SMILES IDX 76 43 78 44 38 45 81 46 75 47 74 48 39 50 65 51 48 52 64 53
REMARK SMILES IDX 49 54 52 55 63 56 79 57 50 58 51 59 62 61 80 62 53 63 40 64
REMARK SMILES IDX 41 65 46 66 42 67 43 68 45 69 47 70 44 71 66 72 67 73 72 74
REMARK SMILES IDX 68 75 69 76 71 77 73 78 70 79 54 80 55 81 60 82 56 83 57 84
REMARK SMILES IDX 59 85 61 86 58 87
REMARK H PARENT 78 49 52 60
REMARK Flexibility Score: inf
ROOT
ATOM      1  C   UNL A   1      35.786  22.119  25.015  1.00  0.00     0.188 C 
ENDROOT
BRANCH   1   2
ATOM      2  C   UNL A   1      34.612  21.218  24.556  1.00  0.00     0.188 C 
BRANCH   2   3
ATOM      3  O   UNL A   1      33.665  21.863  23.728  1.00  0.00    -0.376 OA
BRANCH   3   4
ATOM      4  C   UNL A   1      34.063  22.955  22.929  1.00  0.00     0.202 C 
BRANCH   4   5
ATOM      5  C   UNL A   1      33.040  23.450  21.897  1.00  0.00     0.261 C 
BRANCH   5   6
ATOM      6  O   UNL A   1      33.470  24.556  21.094  1.00  0.00    -0.458 OA
BRANCH   6   7
ATOM      7  C   UNL A   1      32.672  25.662  21.080  1.00  0.00     0.358 C 
ATOM      8  O   UNL A   1      31.787  25.860  20.252  1.00  0.00    -0.244 OA
BRANCH   7   9
ATOM      9  C   UNL A   1      32.812  26.437  22.320  1.00  0.00     0.170 A 
ATOM     10  N   UNL A   1      32.570  27.087  24.343  1.00  0.00    -0.267 N 
ATOM     11  C   UNL A   1      32.953  28.203  23.653  1.00  0.00     0.110 A 
ATOM     12  N   UNL A   1      32.379  26.022  23.528  1.00  0.00    -0.165 NA
ATOM     13  C   UNL A   1      33.261  27.782  22.384  1.00  0.00     0.057 A 
BRANCH  10  14
ATOM     14  C   UNL A   1      32.541  26.883  25.794  1.00  0.00     0.185 C 
BRANCH  14  15
ATOM     15  C   UNL A   1      32.301  25.469  26.243  1.00  0.00     0.036 A 
ATOM     16  C   UNL A   1      31.016  24.986  26.491  1.00  0.00     0.218 A 
ATOM     17  N   UNL A   1      30.740  23.738  26.928  1.00  0.00    -0.222 NA
ATOM     18  C   UNL A   1      31.799  22.932  27.164  1.00  0.00     0.115 A 
ATOM     19  C   UNL A   1      33.367  24.598  26.492  1.00  0.00     0.013 A 
ATOM     20  C   UNL A   1      33.118  23.317  26.979  1.00  0.00     0.021 A 
BRANCH  16  21
ATOM     21  O   UNL A   1      29.976  25.883  26.515  1.00  0.00    -0.481 OA
ATOM     22  C   UNL A   1      29.278  25.931  25.277  1.00  0.00     0.280 C 
ENDBRANCH  16  21
ENDBRANCH  14  15
ENDBRANCH  10  14
ENDBRANCH   7   9
ENDBRANCH   6   7
ENDBRANCH   5   6
ENDBRANCH   4   5
ENDBRANCH   3   4
ENDBRANCH   2   3
ENDBRANCH   1   2
BRANCH   1  23
ATOM     23  O   UNL A   1      37.143  21.904  24.633  1.00  0.00    -0.377 OA
BRANCH  23  24
ATOM     24  C   UNL A   1      37.867  20.825  25.192  1.00  0.00     0.188 C 
BRANCH  24  25
ATOM     25  C   UNL A   1      39.262  21.157  25.774  1.00  0.00     0.188 C 
BRANCH  25  26
ATOM     26  O   UNL A   1      40.109  20.065  26.080  1.00  0.00    -0.376 OA
BRANCH  26  27
ATOM     27  C   UNL A   1      41.328  20.132  26.796  1.00  0.00     0.202 C 
BRANCH  27  28
ATOM     28  C   UNL A   1      42.689  19.624  26.330  1.00  0.00     0.261 C 
BRANCH  28  29
ATOM     29  O   UNL A   1      43.015  19.889  24.992  1.00  0.00    -0.460 OA
BRANCH  29  30
ATOM     30  C   UNL A   1      44.322  19.834  24.725  1.00  0.00     0.338 C 
ATOM     31  O   UNL A   1      45.020  18.823  24.620  1.00  0.00    -0.246 OA
BRANCH  30  32
ATOM     32  C   UNL A   1      44.836  21.199  24.686  1.00  0.00     0.060 A 
ATOM     33  C   UNL A   1      45.724  21.524  25.706  1.00  0.00     0.016 A 
ATOM     34  C   UNL A   1      44.112  22.165  23.966  1.00  0.00     0.016 A 
ATOM     35  C   UNL A   1      45.619  22.780  26.237  1.00  0.00     0.010 A 
ATOM     36  C   UNL A   1      44.001  23.418  24.506  1.00  0.00     0.010 A 
ATOM     37  C   UNL A   1      44.662  23.655  25.702  1.00  0.00    -0.014 A 
BRANCH  37  38
ATOM     38  C   UNL A   1      44.395  24.852  26.453  1.00  0.00     0.031 A 
ATOM     39  C   UNL A   1      45.498  25.819  26.373  1.00  0.00     0.074 A 
ATOM     40  C   UNL A   1      43.270  25.036  27.162  1.00  0.00     0.049 A 
ATOM     41  N   UNL A   1      46.374  26.071  27.284  1.00  0.00    -0.248 NA
ATOM     42  C   UNL A   1      45.778  26.417  25.062  1.00  0.00     0.031 C 
ATOM     43  C   UNL A   1      42.016  24.282  27.136  1.00  0.00     0.029 A 
ATOM     44  N   UNL A   1      43.015  26.031  28.047  1.00  0.00    -0.354 N 
ATOM     45  C   UNL A   1      47.215  27.020  26.726  1.00  0.00     0.074 A 
ATOM     46  C   UNL A   1      46.918  27.059  25.317  1.00  0.00     0.031 C 
ATOM     47  C   UNL A   1      41.067  24.984  27.801  1.00  0.00     0.029 A 
ATOM     48  C   UNL A   1      41.686  26.149  28.413  1.00  0.00     0.049 A 
ATOM     49  H   UNL A   1      43.719  26.624  28.400  1.00  0.00     0.167 HD
ATOM     50  C   UNL A   1      47.916  27.873  27.515  1.00  0.00     0.037 A 
ATOM     51  C   UNL A   1      41.156  27.186  29.105  1.00  0.00     0.037 A 
ATOM     52  C   UNL A   1      47.996  27.398  28.873  1.00  0.00     0.049 A 
ATOM     53  C   UNL A   1      42.271  27.860  29.822  1.00  0.00     0.074 A 
ATOM     54  C   UNL A   1      48.536  26.279  29.479  1.00  0.00     0.029 A 
ATOM     55  N   UNL A   1      47.130  27.940  29.792  1.00  0.00    -0.354 N 
ATOM     56  N   UNL A   1      42.921  27.321  30.817  1.00  0.00    -0.248 NA
ATOM     57  C   UNL A   1      42.974  28.935  29.135  1.00  0.00     0.031 C 
ATOM     58  C   UNL A   1      47.629  25.949  30.530  1.00  0.00     0.029 A 
ATOM     59  C   UNL A   1      46.614  26.907  30.533  1.00  0.00     0.049 A 
ATOM     60  H   UNL A   1      46.919  28.894  29.899  1.00  0.00     0.167 HD
ATOM     61  C   UNL A   1      44.247  27.679  30.615  1.00  0.00     0.074 A 
ATOM     62  C   UNL A   1      44.206  28.744  29.617  1.00  0.00     0.031 C 
ATOM     63  C   UNL A   1      45.267  26.888  31.060  1.00  0.00     0.037 A 
BRANCH  50  64
ATOM     64  C   UNL A   1      48.176  29.303  27.139  1.00  0.00     0.057 A 
ATOM     65  C   UNL A   1      49.485  29.801  27.215  1.00  0.00     0.134 A 
ATOM     66  C   UNL A   1      47.164  30.276  26.993  1.00  0.00     0.134 A 
ATOM     67  F   UNL A   1      50.528  28.974  27.375  1.00  0.00    -0.206 F 
ATOM     68  C   UNL A   1      49.760  31.173  27.213  1.00  0.00     0.040 A 
ATOM     69  C   UNL A   1      47.432  31.643  26.936  1.00  0.00     0.040 A 
ATOM     70  F   UNL A   1      45.860  29.969  27.007  1.00  0.00    -0.206 F 
ATOM     71  C   UNL A   1      48.731  32.098  27.079  1.00  0.00     0.006 A 
ENDBRANCH  50  64
BRANCH  51  72
ATOM     72  C   UNL A   1      39.839  27.827  28.898  1.00  0.00     0.057 A 
ATOM     73  C   UNL A   1      38.905  27.921  29.939  1.00  0.00     0.134 A 
ATOM     74  C   UNL A   1      39.575  28.609  27.759  1.00  0.00     0.134 A 
ATOM     75  F   UNL A   1      39.095  27.249  31.084  1.00  0.00    -0.206 F 
ATOM     76  C   UNL A   1      37.784  28.758  29.860  1.00  0.00     0.040 A 
ATOM     77  C   UNL A   1      38.457  29.443  27.665  1.00  0.00     0.040 A 
ATOM     78  F   UNL A   1      40.439  28.659  26.736  1.00  0.00    -0.206 F 
ATOM     79  C   UNL A   1      37.564  29.531  28.724  1.00  0.00     0.006 A 
ENDBRANCH  51  72
BRANCH  63  80
ATOM     80  C   UNL A   1      44.916  25.750  31.979  1.00  0.00     0.057 A 
ATOM     81  C   UNL A   1      44.766  25.886  33.368  1.00  0.00     0.134 A 
ATOM     82  C   UNL A   1      44.575  24.512  31.425  1.00  0.00     0.134 A 
ATOM     83  F   UNL A   1      44.970  27.061  33.975  1.00  0.00    -0.206 F 
ATOM     84  C   UNL A   1      44.341  24.823  34.172  1.00  0.00     0.040 A 
ATOM     85  C   UNL A   1      44.119  23.452  32.212  1.00  0.00     0.040 A 
ATOM     86  F   UNL A   1      44.637  24.326  30.097  1.00  0.00    -0.206 F 
ATOM     87  C   UNL A   1      44.011  23.602  33.593  1.00  0.00     0.006 A 
ENDBRANCH  63  80
ENDBRANCH  37  38
ENDBRANCH  30  32
ENDBRANCH  29  30
ENDBRANCH  28  29
ENDBRANCH  27  28
ENDBRANCH  26  27
ENDBRANCH  25  26
ENDBRANCH  24  25
ENDBRANCH  23  24
ENDBRANCH   1  23
TORSDOF 23
ENDMDL
