MODEL 1
REMARK VINA RESULT:     -10.7      0.000      0.000
REMARK SMILES C[C@@H](C(=O)OCCOCCOCCOCCOC(=O)c1ccc(-c2c3nc(c(-c4c(F)cccc4F)c4ccc([nH]4)c(-c4c(F)cccc4F)c4nc(c(-c5c(F)cccc5F)c5ccc2[nH]5)C=C4)C=C3)cc1)c1ccc(C[C@@H]2CCC[C@@H]2O)cc1F
REMARK SMILES IDX 10 1 9 2 8 3 7 4 6 5 5 6 3 7 4 8 2 9 1 10 74 11 75 12 86 13
REMARK SMILES IDX 76 14 85 15 87 16 77 17 78 18 79 19 80 20 83 21 81 22 82 23
REMARK SMILES IDX 84 24 11 26 12 27 13 28 14 29 15 30 16 31 17 32 18 33 19 34
REMARK SMILES IDX 20 35 21 36 73 37 22 38 72 39 23 40 24 41 25 42 66 43 26 44
REMARK SMILES IDX 71 45 65 46 67 47 27 48 70 49 64 50 63 51 28 53 54 54 37 55
REMARK SMILES IDX 53 56 38 57 41 58 52 59 68 60 39 61 40 62 51 64 69 65 42 66
REMARK SMILES IDX 29 67 30 68 35 69 31 70 32 71 34 72 36 73 33 74 55 75 56 76
REMARK SMILES IDX 61 77 57 78 58 79 60 80 62 81 59 82 43 83 44 84 49 85 45 86
REMARK SMILES IDX 46 87 48 88 50 89 47 90
REMARK H PARENT 84 25 67 52 41 63
REMARK Flexibility Score: inf
ROOT
ATOM      1  C   UNL A   1      37.100  21.659  25.565  1.00  0.00     0.188 C 
ENDROOT
BRANCH   1   2
ATOM      2  C   UNL A   1      36.535  22.925  24.889  1.00  0.00     0.188 C 
BRANCH   2   3
ATOM      3  O   UNL A   1      35.256  23.414  25.268  1.00  0.00    -0.376 OA
BRANCH   3   4
ATOM      4  C   UNL A   1      34.736  23.097  26.548  1.00  0.00     0.202 C 
BRANCH   4   5
ATOM      5  C   UNL A   1      33.248  23.306  26.903  1.00  0.00     0.261 C 
BRANCH   5   6
ATOM      6  O   UNL A   1      32.527  24.351  26.220  1.00  0.00    -0.463 OA
BRANCH   6   7
ATOM      7  C   UNL A   1      31.209  24.122  25.977  1.00  0.00     0.313 C 
ATOM      8  O   UNL A   1      30.381  23.946  26.867  1.00  0.00    -0.252 OA
BRANCH   7   9
ATOM      9  C   UNL A   1      30.830  24.063  24.483  1.00  0.00     0.129 C 
ATOM     10  C   UNL A   1      31.605  23.136  23.537  1.00  0.00     0.025 C 
BRANCH   9  11
ATOM     11  C   UNL A   1      30.659  25.470  23.921  1.00  0.00     0.002 A 
ATOM     12  C   UNL A   1      29.393  26.068  23.941  1.00  0.00     0.008 A 
ATOM     13  C   UNL A   1      31.728  26.245  23.454  1.00  0.00     0.127 A 
ATOM     14  C   UNL A   1      29.215  27.383  23.499  1.00  0.00     0.004 A 
ATOM     15  C   UNL A   1      31.568  27.568  23.061  1.00  0.00     0.043 A 
ATOM     16  F   UNL A   1      32.950  25.725  23.323  1.00  0.00    -0.207 F 
ATOM     17  C   UNL A   1      30.299  28.140  23.036  1.00  0.00    -0.045 A 
BRANCH  17  18
ATOM     18  C   UNL A   1      30.106  29.510  22.445  1.00  0.00     0.041 C 
BRANCH  18  19
ATOM     19  C   UNL A   1      28.724  30.167  22.661  1.00  0.00     0.022 C 
ATOM     20  C   UNL A   1      27.930  30.416  21.374  1.00  0.00     0.007 C 
ATOM     21  C   UNL A   1      28.685  31.543  23.339  1.00  0.00     0.117 C 
ATOM     22  C   UNL A   1      28.141  31.888  21.005  1.00  0.00     0.003 C 
ATOM     23  C   UNL A   1      28.802  32.554  22.207  1.00  0.00     0.032 C 
BRANCH  21  24
ATOM     24  O   UNL A   1      29.679  31.733  24.325  1.00  0.00    -0.393 OA
ATOM     25  H   UNL A   1      29.296  32.202  25.083  1.00  0.00     0.210 HD
ENDBRANCH  21  24
ENDBRANCH  18  19
ENDBRANCH  17  18
ENDBRANCH   9  11
ENDBRANCH   7   9
ENDBRANCH   6   7
ENDBRANCH   5   6
ENDBRANCH   4   5
ENDBRANCH   3   4
ENDBRANCH   2   3
ENDBRANCH   1   2
BRANCH   1  26
ATOM     26  O   UNL A   1      38.473  21.425  25.327  1.00  0.00    -0.377 OA
BRANCH  26  27
ATOM     27  C   UNL A   1      39.369  22.008  26.255  1.00  0.00     0.188 C 
BRANCH  27  28
ATOM     28  C   UNL A   1      40.536  21.150  26.779  1.00  0.00     0.188 C 
BRANCH  28  29
ATOM     29  O   UNL A   1      41.407  20.666  25.763  1.00  0.00    -0.376 OA
BRANCH  29  30
ATOM     30  C   UNL A   1      42.800  20.582  26.021  1.00  0.00     0.202 C 
BRANCH  30  31
ATOM     31  C   UNL A   1      43.718  21.592  25.311  1.00  0.00     0.261 C 
BRANCH  31  32
ATOM     32  O   UNL A   1      43.144  22.871  25.002  1.00  0.00    -0.460 OA
BRANCH  32  33
ATOM     33  C   UNL A   1      43.928  23.963  25.110  1.00  0.00     0.338 C 
ATOM     34  O   UNL A   1      44.922  24.227  24.457  1.00  0.00    -0.246 OA
BRANCH  33  35
ATOM     35  C   UNL A   1      43.250  24.906  26.025  1.00  0.00     0.060 A 
ATOM     36  C   UNL A   1      43.696  26.233  26.083  1.00  0.00     0.016 A 
ATOM     37  C   UNL A   1      42.155  24.496  26.791  1.00  0.00     0.016 A 
ATOM     38  C   UNL A   1      43.068  27.148  26.926  1.00  0.00     0.010 A 
ATOM     39  C   UNL A   1      41.546  25.405  27.660  1.00  0.00     0.010 A 
ATOM     40  C   UNL A   1      42.021  26.725  27.754  1.00  0.00    -0.014 A 
BRANCH  40  41
ATOM     41  C   UNL A   1      41.584  27.591  28.875  1.00  0.00     0.031 A 
ATOM     42  C   UNL A   1      42.347  27.506  30.168  1.00  0.00     0.074 A 
ATOM     43  C   UNL A   1      40.557  28.449  28.748  1.00  0.00     0.049 A 
ATOM     44  N   UNL A   1      42.134  28.118  31.304  1.00  0.00    -0.248 NA
ATOM     45  C   UNL A   1      43.510  26.603  30.179  1.00  0.00     0.031 C 
ATOM     46  C   UNL A   1      39.774  28.661  27.533  1.00  0.00     0.029 A 
ATOM     47  N   UNL A   1      39.994  29.300  29.667  1.00  0.00    -0.354 N 
ATOM     48  C   UNL A   1      43.127  27.666  32.165  1.00  0.00     0.074 A 
ATOM     49  C   UNL A   1      43.924  26.708  31.432  1.00  0.00     0.031 C 
ATOM     50  C   UNL A   1      38.821  29.577  27.786  1.00  0.00     0.029 A 
ATOM     51  C   UNL A   1      38.907  29.987  29.187  1.00  0.00     0.049 A 
ATOM     52  H   UNL A   1      40.337  29.406  30.584  1.00  0.00     0.167 HD
ATOM     53  C   UNL A   1      43.357  28.022  33.450  1.00  0.00     0.037 A 
ATOM     54  C   UNL A   1      38.066  30.831  29.818  1.00  0.00     0.037 A 
ATOM     55  C   UNL A   1      42.559  28.972  34.177  1.00  0.00     0.049 A 
ATOM     56  C   UNL A   1      38.290  31.144  31.275  1.00  0.00     0.074 A 
ATOM     57  C   UNL A   1      42.720  29.416  35.477  1.00  0.00     0.029 A 
ATOM     58  N   UNL A   1      41.442  29.617  33.668  1.00  0.00    -0.354 N 
ATOM     59  N   UNL A   1      39.245  30.735  32.076  1.00  0.00    -0.248 NA
ATOM     60  C   UNL A   1      37.319  32.042  31.918  1.00  0.00     0.031 C 
ATOM     61  C   UNL A   1      41.662  30.280  35.776  1.00  0.00     0.029 A 
ATOM     62  C   UNL A   1      40.882  30.429  34.641  1.00  0.00     0.049 A 
ATOM     63  H   UNL A   1      41.097  29.512  32.752  1.00  0.00     0.167 HD
ATOM     64  C   UNL A   1      39.010  31.350  33.301  1.00  0.00     0.074 A 
ATOM     65  C   UNL A   1      37.829  32.169  33.134  1.00  0.00     0.031 C 
ATOM     66  C   UNL A   1      39.711  31.249  34.458  1.00  0.00     0.037 A 
BRANCH  53  67
ATOM     67  C   UNL A   1      44.494  27.347  34.161  1.00  0.00     0.057 A 
ATOM     68  C   UNL A   1      45.783  27.894  34.194  1.00  0.00     0.134 A 
ATOM     69  C   UNL A   1      44.288  26.140  34.841  1.00  0.00     0.134 A 
ATOM     70  F   UNL A   1      46.054  29.039  33.547  1.00  0.00    -0.206 F 
ATOM     71  C   UNL A   1      46.832  27.253  34.856  1.00  0.00     0.040 A 
ATOM     72  C   UNL A   1      45.319  25.506  35.534  1.00  0.00     0.040 A 
ATOM     73  F   UNL A   1      43.077  25.562  34.852  1.00  0.00    -0.206 F 
ATOM     74  C   UNL A   1      46.599  26.058  35.536  1.00  0.00     0.006 A 
ENDBRANCH  53  67
BRANCH  54  75
ATOM     75  C   UNL A   1      36.919  31.432  29.087  1.00  0.00     0.057 A 
ATOM     76  C   UNL A   1      36.961  32.756  28.634  1.00  0.00     0.134 A 
ATOM     77  C   UNL A   1      35.741  30.711  28.858  1.00  0.00     0.134 A 
ATOM     78  F   UNL A   1      38.050  33.508  28.846  1.00  0.00    -0.206 F 
ATOM     79  C   UNL A   1      35.867  33.347  27.998  1.00  0.00     0.040 A 
ATOM     80  C   UNL A   1      34.649  31.281  28.198  1.00  0.00     0.040 A 
ATOM     81  F   UNL A   1      35.632  29.440  29.270  1.00  0.00    -0.206 F 
ATOM     82  C   UNL A   1      34.708  32.606  27.773  1.00  0.00     0.006 A 
ENDBRANCH  54  75
BRANCH  66  83
ATOM     83  C   UNL A   1      39.252  32.080  35.622  1.00  0.00     0.057 A 
ATOM     84  C   UNL A   1      39.667  33.406  35.802  1.00  0.00     0.134 A 
ATOM     85  C   UNL A   1      38.341  31.558  36.550  1.00  0.00     0.134 A 
ATOM     86  F   UNL A   1      40.545  33.965  34.955  1.00  0.00    -0.206 F 
ATOM     87  C   UNL A   1      39.214  34.172  36.878  1.00  0.00     0.040 A 
ATOM     88  C   UNL A   1      37.856  32.325  37.611  1.00  0.00     0.040 A 
ATOM     89  F   UNL A   1      37.891  30.300  36.430  1.00  0.00    -0.206 F 
ATOM     90  C   UNL A   1      38.299  33.634  37.781  1.00  0.00     0.006 A 
ENDBRANCH  66  83
ENDBRANCH  40  41
ENDBRANCH  33  35
ENDBRANCH  32  33
ENDBRANCH  31  32
ENDBRANCH  30  31
ENDBRANCH  29  30
ENDBRANCH  28  29
ENDBRANCH  27  28
ENDBRANCH  26  27
ENDBRANCH   1  26
TORSDOF 24
ENDMDL
MODEL 2
REMARK VINA RESULT:     -10.7      2.039      4.712
REMARK SMILES C[C@@H](C(=O)OCCOCCOCCOCCOC(=O)c1ccc(-c2c3nc(c(-c4c(F)cccc4F)c4ccc([nH]4)c(-c4c(F)cccc4F)c4nc(c(-c5c(F)cccc5F)c5ccc2[nH]5)C=C4)C=C3)cc1)c1ccc(C[C@@H]2CCC[C@@H]2O)cc1F
REMARK SMILES IDX 10 1 9 2 8 3 7 4 6 5 5 6 3 7 4 8 2 9 1 10 74 11 75 12 86 13
REMARK SMILES IDX 76 14 85 15 87 16 77 17 78 18 79 19 80 20 83 21 81 22 82 23
REMARK SMILES IDX 84 24 11 26 12 27 13 28 14 29 15 30 16 31 17 32 18 33 19 34
REMARK SMILES IDX 20 35 21 36 73 37 22 38 72 39 23 40 24 41 25 42 66 43 26 44
REMARK SMILES IDX 71 45 65 46 67 47 27 48 70 49 64 50 63 51 28 53 54 54 37 55
REMARK SMILES IDX 53 56 38 57 41 58 52 59 68 60 39 61 40 62 51 64 69 65 42 66
REMARK SMILES IDX 29 67 30 68 35 69 31 70 32 71 34 72 36 73 33 74 55 75 56 76
REMARK SMILES IDX 61 77 57 78 58 79 60 80 62 81 59 82 43 83 44 84 49 85 45 86
REMARK SMILES IDX 46 87 48 88 50 89 47 90
REMARK H PARENT 84 25 67 52 41 63
REMARK Flexibility Score: inf
ROOT
ATOM      1  C   UNL A   1      37.722  22.486  25.427  1.00  0.00     0.188 C 
ENDROOT
BRANCH   1   2
ATOM      2  C   UNL A   1      36.506  22.109  24.554  1.00  0.00     0.188 C 
BRANCH   2   3
ATOM      3  O   UNL A   1      35.404  23.000  24.462  1.00  0.00    -0.376 OA
BRANCH   3   4
ATOM      4  C   UNL A   1      35.275  24.055  25.400  1.00  0.00     0.202 C 
BRANCH   4   5
ATOM      5  C   UNL A   1      34.575  25.385  25.046  1.00  0.00     0.261 C 
BRANCH   5   6
ATOM      6  O   UNL A   1      33.761  25.429  23.857  1.00  0.00    -0.463 OA
BRANCH   6   7
ATOM      7  C   UNL A   1      32.449  25.739  24.030  1.00  0.00     0.313 C 
ATOM      8  O   UNL A   1      32.066  26.737  24.635  1.00  0.00    -0.252 OA
BRANCH   7   9
ATOM      9  C   UNL A   1      31.461  24.714  23.436  1.00  0.00     0.129 C 
ATOM     10  C   UNL A   1      29.953  24.990  23.490  1.00  0.00     0.025 C 
BRANCH   9  11
ATOM     11  C   UNL A   1      31.819  23.303  23.892  1.00  0.00     0.002 A 
ATOM     12  C   UNL A   1      32.283  22.374  22.953  1.00  0.00     0.008 A 
ATOM     13  C   UNL A   1      31.790  22.901  25.233  1.00  0.00     0.127 A 
ATOM     14  C   UNL A   1      32.687  21.095  23.350  1.00  0.00     0.004 A 
ATOM     15  C   UNL A   1      32.238  21.651  25.641  1.00  0.00     0.043 A 
ATOM     16  F   UNL A   1      31.284  23.694  26.180  1.00  0.00    -0.207 F 
ATOM     17  C   UNL A   1      32.650  20.714  24.697  1.00  0.00    -0.045 A 
BRANCH  17  18
ATOM     18  C   UNL A   1      32.965  19.307  25.125  1.00  0.00     0.041 C 
BRANCH  18  19
ATOM     19  C   UNL A   1      33.550  18.371  24.043  1.00  0.00     0.022 C 
ATOM     20  C   UNL A   1      32.704  17.125  23.757  1.00  0.00     0.007 C 
ATOM     21  C   UNL A   1      34.940  17.770  24.293  1.00  0.00     0.117 C 
ATOM     22  C   UNL A   1      33.337  15.973  24.544  1.00  0.00     0.003 C 
ATOM     23  C   UNL A   1      34.689  16.470  25.044  1.00  0.00     0.032 C 
BRANCH  21  24
ATOM     24  O   UNL A   1      35.824  18.624  24.990  1.00  0.00    -0.393 OA
ATOM     25  H   UNL A   1      36.372  18.097  25.593  1.00  0.00     0.210 HD
ENDBRANCH  21  24
ENDBRANCH  18  19
ENDBRANCH  17  18
ENDBRANCH   9  11
ENDBRANCH   7   9
ENDBRANCH   6   7
ENDBRANCH   5   6
ENDBRANCH   4   5
ENDBRANCH   3   4
ENDBRANCH   2   3
ENDBRANCH   1   2
BRANCH   1  26
ATOM     26  O   UNL A   1      38.629  21.428  25.662  1.00  0.00    -0.377 OA
BRANCH  26  27
ATOM     27  C   UNL A   1      39.761  21.750  26.449  1.00  0.00     0.188 C 
BRANCH  27  28
ATOM     28  C   UNL A   1      40.775  20.632  26.758  1.00  0.00     0.188 C 
BRANCH  28  29
ATOM     29  O   UNL A   1      41.685  20.359  25.698  1.00  0.00    -0.376 OA
BRANCH  29  30
ATOM     30  C   UNL A   1      43.081  20.417  25.946  1.00  0.00     0.202 C 
BRANCH  30  31
ATOM     31  C   UNL A   1      43.867  21.581  25.319  1.00  0.00     0.261 C 
BRANCH  31  32
ATOM     32  O   UNL A   1      43.152  22.812  25.138  1.00  0.00    -0.460 OA
BRANCH  32  33
ATOM     33  C   UNL A   1      43.859  23.961  25.112  1.00  0.00     0.338 C 
ATOM     34  O   UNL A   1      44.777  24.247  24.364  1.00  0.00    -0.246 OA
BRANCH  33  35
ATOM     35  C   UNL A   1      43.185  24.916  26.017  1.00  0.00     0.060 A 
ATOM     36  C   UNL A   1      43.700  26.214  26.137  1.00  0.00     0.016 A 
ATOM     37  C   UNL A   1      42.030  24.548  26.713  1.00  0.00     0.016 A 
ATOM     38  C   UNL A   1      43.078  27.140  26.974  1.00  0.00     0.010 A 
ATOM     39  C   UNL A   1      41.427  25.466  27.576  1.00  0.00     0.010 A 
ATOM     40  C   UNL A   1      41.967  26.755  27.734  1.00  0.00    -0.014 A 
BRANCH  40  41
ATOM     41  C   UNL A   1      41.518  27.614  28.855  1.00  0.00     0.031 A 
ATOM     42  C   UNL A   1      42.273  27.526  30.153  1.00  0.00     0.074 A 
ATOM     43  C   UNL A   1      40.490  28.468  28.725  1.00  0.00     0.049 A 
ATOM     44  N   UNL A   1      42.050  28.132  31.290  1.00  0.00    -0.248 NA
ATOM     45  C   UNL A   1      43.440  26.627  30.168  1.00  0.00     0.031 C 
ATOM     46  C   UNL A   1      39.714  28.683  27.505  1.00  0.00     0.029 A 
ATOM     47  N   UNL A   1      39.917  29.313  29.644  1.00  0.00    -0.354 N 
ATOM     48  C   UNL A   1      43.038  27.680  32.156  1.00  0.00     0.074 A 
ATOM     49  C   UNL A   1      43.844  26.728  31.424  1.00  0.00     0.031 C 
ATOM     50  C   UNL A   1      38.756  29.594  27.755  1.00  0.00     0.029 A 
ATOM     51  C   UNL A   1      38.830  29.998  29.159  1.00  0.00     0.049 A 
ATOM     52  H   UNL A   1      40.253  29.416  30.563  1.00  0.00     0.167 HD
ATOM     53  C   UNL A   1      43.258  28.030  33.444  1.00  0.00     0.037 A 
ATOM     54  C   UNL A   1      37.982  30.836  29.787  1.00  0.00     0.037 A 
ATOM     55  C   UNL A   1      42.451  28.974  34.170  1.00  0.00     0.049 A 
ATOM     56  C   UNL A   1      38.195  31.144  31.248  1.00  0.00     0.074 A 
ATOM     57  C   UNL A   1      42.602  29.413  35.473  1.00  0.00     0.029 A 
ATOM     58  N   UNL A   1      41.335  29.618  33.656  1.00  0.00    -0.354 N 
ATOM     59  N   UNL A   1      39.145  30.734  32.053  1.00  0.00    -0.248 NA
ATOM     60  C   UNL A   1      37.215  32.035  31.888  1.00  0.00     0.031 C 
ATOM     61  C   UNL A   1      41.538  30.272  35.769  1.00  0.00     0.029 A 
ATOM     62  C   UNL A   1      40.766  30.423  34.628  1.00  0.00     0.049 A 
ATOM     63  H   UNL A   1      40.997  29.516  32.737  1.00  0.00     0.167 HD
ATOM     64  C   UNL A   1      38.900  31.343  33.279  1.00  0.00     0.074 A 
ATOM     65  C   UNL A   1      37.717  32.159  33.108  1.00  0.00     0.031 C 
ATOM     66  C   UNL A   1      39.593  31.239  34.441  1.00  0.00     0.037 A 
BRANCH  53  67
ATOM     67  C   UNL A   1      44.392  27.357  34.160  1.00  0.00     0.057 A 
ATOM     68  C   UNL A   1      44.247  26.109  34.779  1.00  0.00     0.134 A 
ATOM     69  C   UNL A   1      45.655  27.960  34.211  1.00  0.00     0.134 A 
ATOM     70  F   UNL A   1      43.059  25.484  34.785  1.00  0.00    -0.206 F 
ATOM     71  C   UNL A   1      45.311  25.496  35.446  1.00  0.00     0.040 A 
ATOM     72  C   UNL A   1      46.734  27.344  34.846  1.00  0.00     0.040 A 
ATOM     73  F   UNL A   1      45.864  29.154  33.637  1.00  0.00    -0.206 F 
ATOM     74  C   UNL A   1      46.562  26.111  35.473  1.00  0.00     0.006 A 
ENDBRANCH  53  67
BRANCH  54  75
ATOM     75  C   UNL A   1      36.838  31.436  29.051  1.00  0.00     0.057 A 
ATOM     76  C   UNL A   1      36.861  32.775  28.641  1.00  0.00     0.134 A 
ATOM     77  C   UNL A   1      35.680  30.699  28.774  1.00  0.00     0.134 A 
ATOM     78  F   UNL A   1      37.929  33.542  28.900  1.00  0.00    -0.206 F 
ATOM     79  C   UNL A   1      35.768  33.363  28.000  1.00  0.00     0.040 A 
ATOM     80  C   UNL A   1      34.591  31.266  28.109  1.00  0.00     0.040 A 
ATOM     81  F   UNL A   1      35.591  29.413  29.144  1.00  0.00    -0.206 F 
ATOM     82  C   UNL A   1      34.630  32.606  27.728  1.00  0.00     0.006 A 
ENDBRANCH  54  75
BRANCH  66  83
ATOM     83  C   UNL A   1      39.123  32.064  35.605  1.00  0.00     0.057 A 
ATOM     84  C   UNL A   1      38.315  31.532  36.619  1.00  0.00     0.134 A 
ATOM     85  C   UNL A   1      39.526  33.400  35.737  1.00  0.00     0.134 A 
ATOM     86  F   UNL A   1      37.885  30.262  36.550  1.00  0.00    -0.206 F 
ATOM     87  C   UNL A   1      37.905  32.306  37.706  1.00  0.00     0.040 A 
ATOM     88  C   UNL A   1      39.148  34.174  36.836  1.00  0.00     0.040 A 
ATOM     89  F   UNL A   1      40.311  33.970  34.811  1.00  0.00    -0.206 F 
ATOM     90  C   UNL A   1      38.328  33.628  37.820  1.00  0.00     0.006 A 
ENDBRANCH  66  83
ENDBRANCH  40  41
ENDBRANCH  33  35
ENDBRANCH  32  33
ENDBRANCH  31  32
ENDBRANCH  30  31
ENDBRANCH  29  30
ENDBRANCH  28  29
ENDBRANCH  27  28
ENDBRANCH  26  27
ENDBRANCH   1  26
TORSDOF 24
ENDMDL
MODEL 3
REMARK VINA RESULT:     -10.7      4.457     10.331
REMARK SMILES C[C@@H](C(=O)OCCOCCOCCOCCOC(=O)c1ccc(-c2c3nc(c(-c4c(F)cccc4F)c4ccc([nH]4)c(-c4c(F)cccc4F)c4nc(c(-c5c(F)cccc5F)c5ccc2[nH]5)C=C4)C=C3)cc1)c1ccc(C[C@@H]2CCC[C@@H]2O)cc1F
REMARK SMILES IDX 10 1 9 2 8 3 7 4 6 5 5 6 3 7 4 8 2 9 1 10 74 11 75 12 86 13
REMARK SMILES IDX 76 14 85 15 87 16 77 17 78 18 79 19 80 20 83 21 81 22 82 23
REMARK SMILES IDX 84 24 11 26 12 27 13 28 14 29 15 30 16 31 17 32 18 33 19 34
REMARK SMILES IDX 20 35 21 36 73 37 22 38 72 39 23 40 24 41 25 42 66 43 26 44
REMARK SMILES IDX 71 45 65 46 67 47 27 48 70 49 64 50 63 51 28 53 54 54 37 55
REMARK SMILES IDX 53 56 38 57 41 58 52 59 68 60 39 61 40 62 51 64 69 65 42 66
REMARK SMILES IDX 29 67 30 68 35 69 31 70 32 71 34 72 36 73 33 74 55 75 56 76
REMARK SMILES IDX 61 77 57 78 58 79 60 80 62 81 59 82 43 83 44 84 49 85 45 86
REMARK SMILES IDX 46 87 48 88 50 89 47 90
REMARK H PARENT 84 25 67 52 41 63
REMARK Flexibility Score: inf
ROOT
ATOM      1  C   UNL A   1      34.299  34.395  29.286  1.00  0.00     0.188 C 
ENDROOT
BRANCH   1   2
ATOM      2  C   UNL A   1      34.285  33.904  27.823  1.00  0.00     0.188 C 
BRANCH   2   3
ATOM      3  O   UNL A   1      34.589  32.547  27.534  1.00  0.00    -0.376 OA
BRANCH   3   4
ATOM      4  C   UNL A   1      33.645  31.536  27.844  1.00  0.00     0.202 C 
BRANCH   4   5
ATOM      5  C   UNL A   1      33.351  30.366  26.881  1.00  0.00     0.261 C 
BRANCH   5   6
ATOM      6  O   UNL A   1      33.306  29.031  27.425  1.00  0.00    -0.463 OA
BRANCH   6   7
ATOM      7  C   UNL A   1      32.163  28.328  27.214  1.00  0.00     0.313 C 
ATOM      8  O   UNL A   1      31.227  28.306  28.009  1.00  0.00    -0.252 OA
BRANCH   7   9
ATOM      9  C   UNL A   1      32.139  27.517  25.901  1.00  0.00     0.129 C 
ATOM     10  C   UNL A   1      30.942  27.644  24.949  1.00  0.00     0.025 C 
BRANCH   9  11
ATOM     11  C   UNL A   1      32.533  26.067  26.163  1.00  0.00     0.002 A 
ATOM     12  C   UNL A   1      31.544  25.137  26.502  1.00  0.00     0.008 A 
ATOM     13  C   UNL A   1      33.838  25.586  26.001  1.00  0.00     0.127 A 
ATOM     14  C   UNL A   1      31.861  23.786  26.679  1.00  0.00     0.004 A 
ATOM     15  C   UNL A   1      34.152  24.239  26.125  1.00  0.00     0.043 A 
ATOM     16  F   UNL A   1      34.855  26.418  25.761  1.00  0.00    -0.207 F 
ATOM     17  C   UNL A   1      33.173  23.327  26.511  1.00  0.00    -0.045 A 
BRANCH  17  18
ATOM     18  C   UNL A   1      33.553  21.903  26.816  1.00  0.00     0.041 C 
BRANCH  18  19
ATOM     19  C   UNL A   1      34.068  21.058  25.629  1.00  0.00     0.022 C 
ATOM     20  C   UNL A   1      33.941  21.739  24.261  1.00  0.00     0.007 C 
ATOM     21  C   UNL A   1      33.401  19.698  25.377  1.00  0.00     0.117 C 
ATOM     22  C   UNL A   1      32.673  21.182  23.607  1.00  0.00     0.003 C 
ATOM     23  C   UNL A   1      32.231  19.988  24.447  1.00  0.00     0.032 C 
BRANCH  21  24
ATOM     24  O   UNL A   1      32.992  19.027  26.551  1.00  0.00    -0.393 OA
ATOM     25  H   UNL A   1      32.241  19.497  26.946  1.00  0.00     0.210 HD
ENDBRANCH  21  24
ENDBRANCH  18  19
ENDBRANCH  17  18
ENDBRANCH   9  11
ENDBRANCH   7   9
ENDBRANCH   6   7
ENDBRANCH   5   6
ENDBRANCH   4   5
ENDBRANCH   3   4
ENDBRANCH   2   3
ENDBRANCH   1   2
BRANCH   1  26
ATOM     26  O   UNL A   1      33.020  34.602  29.850  1.00  0.00    -0.377 OA
BRANCH  26  27
ATOM     27  C   UNL A   1      32.828  35.841  30.507  1.00  0.00     0.188 C 
BRANCH  27  28
ATOM     28  C   UNL A   1      33.105  35.915  32.021  1.00  0.00     0.188 C 
BRANCH  28  29
ATOM     29  O   UNL A   1      34.465  35.692  32.378  1.00  0.00    -0.376 OA
BRANCH  29  30
ATOM     30  C   UNL A   1      34.788  35.359  33.719  1.00  0.00     0.202 C 
BRANCH  30  31
ATOM     31  C   UNL A   1      35.326  33.944  33.990  1.00  0.00     0.261 C 
BRANCH  31  32
ATOM     32  O   UNL A   1      36.112  33.347  32.948  1.00  0.00    -0.460 OA
BRANCH  32  33
ATOM     33  C   UNL A   1      35.541  32.388  32.190  1.00  0.00     0.338 C 
ATOM     34  O   UNL A   1      34.360  32.266  31.918  1.00  0.00    -0.246 OA
BRANCH  33  35
ATOM     35  C   UNL A   1      36.632  31.615  31.560  1.00  0.00     0.060 A 
ATOM     36  C   UNL A   1      37.566  30.968  32.380  1.00  0.00     0.016 A 
ATOM     37  C   UNL A   1      36.712  31.494  30.170  1.00  0.00     0.016 A 
ATOM     38  C   UNL A   1      38.598  30.221  31.814  1.00  0.00     0.010 A 
ATOM     39  C   UNL A   1      37.765  30.773  29.602  1.00  0.00     0.010 A 
ATOM     40  C   UNL A   1      38.730  30.160  30.422  1.00  0.00    -0.014 A 
BRANCH  40  41
ATOM     41  C   UNL A   1      39.994  29.660  29.831  1.00  0.00     0.031 A 
ATOM     42  C   UNL A   1      41.141  30.625  29.706  1.00  0.00     0.074 A 
ATOM     43  C   UNL A   1      40.136  28.383  29.439  1.00  0.00     0.049 A 
ATOM     44  N   UNL A   1      42.325  30.448  29.182  1.00  0.00    -0.248 NA
ATOM     45  C   UNL A   1      40.916  31.977  30.245  1.00  0.00     0.031 C 
ATOM     46  C   UNL A   1      39.118  27.341  29.556  1.00  0.00     0.029 A 
ATOM     47  N   UNL A   1      41.203  27.749  28.852  1.00  0.00    -0.354 N 
ATOM     48  C   UNL A   1      42.981  31.666  29.318  1.00  0.00     0.074 A 
ATOM     49  C   UNL A   1      42.055  32.581  29.947  1.00  0.00     0.031 C 
ATOM     50  C   UNL A   1      39.608  26.197  29.045  1.00  0.00     0.029 A 
ATOM     51  C   UNL A   1      40.957  26.436  28.534  1.00  0.00     0.049 A 
ATOM     52  H   UNL A   1      42.063  28.194  28.676  1.00  0.00     0.167 HD
ATOM     53  C   UNL A   1      44.244  31.991  28.958  1.00  0.00     0.037 A 
ATOM     54  C   UNL A   1      41.727  25.542  27.883  1.00  0.00     0.037 A 
ATOM     55  C   UNL A   1      45.162  31.079  28.330  1.00  0.00     0.049 A 
ATOM     56  C   UNL A   1      43.099  25.954  27.412  1.00  0.00     0.074 A 
ATOM     57  C   UNL A   1      46.470  31.304  27.942  1.00  0.00     0.029 A 
ATOM     58  N   UNL A   1      44.861  29.768  27.987  1.00  0.00    -0.354 N 
ATOM     59  N   UNL A   1      43.722  27.097  27.567  1.00  0.00    -0.248 NA
ATOM     60  C   UNL A   1      43.877  24.947  26.675  1.00  0.00     0.031 C 
ATOM     61  C   UNL A   1      46.940  30.150  27.306  1.00  0.00     0.029 A 
ATOM     62  C   UNL A   1      45.948  29.184  27.361  1.00  0.00     0.049 A 
ATOM     63  H   UNL A   1      44.002  29.321  28.163  1.00  0.00     0.167 HD
ATOM     64  C   UNL A   1      44.973  26.936  26.981  1.00  0.00     0.074 A 
ATOM     65  C   UNL A   1      45.024  25.580  26.478  1.00  0.00     0.031 C 
ATOM     66  C   UNL A   1      45.990  27.828  26.874  1.00  0.00     0.037 A 
BRANCH  53  67
ATOM     67  C   UNL A   1      44.690  33.404  29.198  1.00  0.00     0.057 A 
ATOM     68  C   UNL A   1      44.536  34.409  28.235  1.00  0.00     0.134 A 
ATOM     69  C   UNL A   1      45.264  33.767  30.423  1.00  0.00     0.134 A 
ATOM     70  F   UNL A   1      44.011  34.125  27.033  1.00  0.00    -0.206 F 
ATOM     71  C   UNL A   1      44.960  35.718  28.471  1.00  0.00     0.040 A 
ATOM     72  C   UNL A   1      45.662  35.078  30.684  1.00  0.00     0.040 A 
ATOM     73  F   UNL A   1      45.439  32.854  31.391  1.00  0.00    -0.206 F 
ATOM     74  C   UNL A   1      45.518  36.058  29.703  1.00  0.00     0.006 A 
ENDBRANCH  53  67
BRANCH  54  75
ATOM     75  C   UNL A   1      41.221  24.169  27.618  1.00  0.00     0.057 A 
ATOM     76  C   UNL A   1      40.273  23.926  26.617  1.00  0.00     0.134 A 
ATOM     77  C   UNL A   1      41.644  23.075  28.382  1.00  0.00     0.134 A 
ATOM     78  F   UNL A   1      39.807  24.936  25.868  1.00  0.00    -0.206 F 
ATOM     79  C   UNL A   1      39.749  22.649  26.399  1.00  0.00     0.040 A 
ATOM     80  C   UNL A   1      41.150  21.788  28.157  1.00  0.00     0.040 A 
ATOM     81  F   UNL A   1      42.547  23.239  29.360  1.00  0.00    -0.206 F 
ATOM     82  C   UNL A   1      40.193  21.575  27.167  1.00  0.00     0.006 A 
ENDBRANCH  54  75
BRANCH  66  83
ATOM     83  C   UNL A   1      47.262  27.355  26.231  1.00  0.00     0.057 A 
ATOM     84  C   UNL A   1      48.269  26.706  26.956  1.00  0.00     0.134 A 
ATOM     85  C   UNL A   1      47.460  27.511  24.851  1.00  0.00     0.134 A 
ATOM     86  F   UNL A   1      48.148  26.532  28.281  1.00  0.00    -0.206 F 
ATOM     87  C   UNL A   1      49.437  26.253  26.339  1.00  0.00     0.040 A 
ATOM     88  C   UNL A   1      48.609  27.033  24.218  1.00  0.00     0.040 A 
ATOM     89  F   UNL A   1      46.531  28.111  24.093  1.00  0.00    -0.206 F 
ATOM     90  C   UNL A   1      49.605  26.409  24.964  1.00  0.00     0.006 A 
ENDBRANCH  66  83
ENDBRANCH  40  41
ENDBRANCH  33  35
ENDBRANCH  32  33
ENDBRANCH  31  32
ENDBRANCH  30  31
ENDBRANCH  29  30
ENDBRANCH  28  29
ENDBRANCH  27  28
ENDBRANCH  26  27
ENDBRANCH   1  26
TORSDOF 24
ENDMDL
