MODEL 1
REMARK VINA RESULT:      -9.8      0.000      0.000
REMARK SMILES O=C(OCCOCCOCCOCCOC(=O)[C@@H]1CCC[N@@H+](Cc2ccc(F)cc2Cl)C1)c1ccc(-c2c3nc(c(-c4c(F)cccc4F)c4ccc([nH]4)c(-c4c(F)cccc4F)c4nc(c(-c5c(F)cccc5F)c5ccc2[nH]5)C=C4)C=C3)cc1
REMARK SMILES IDX 9 1 8 2 7 3 6 4 5 5 4 6 3 7 2 8 1 9 33 10 34 11 86 12 35 13
REMARK SMILES IDX 85 14 36 15 37 16 38 17 79 18 39 19 84 20 78 21 80 22 40 23
REMARK SMILES IDX 83 24 77 25 76 26 41 28 67 29 50 30 66 31 51 32 54 33 65 34
REMARK SMILES IDX 81 35 52 36 53 37 64 39 82 40 55 41 42 42 43 43 48 44 44 45
REMARK SMILES IDX 45 46 47 47 49 48 46 49 68 50 69 51 74 52 70 53 71 54 73 55
REMARK SMILES IDX 75 56 72 57 56 58 57 59 62 60 58 61 59 62 61 63 63 64 60 65
REMARK SMILES IDX 10 66 11 67 12 68 13 69 14 70 15 71 16 72 17 73 18 74 19 75
REMARK SMILES IDX 32 76 20 77 22 78 21 79 23 81 24 82 25 83 30 84 26 85 29 86
REMARK SMILES IDX 31 87 27 88 28 89
REMARK H PARENT 80 27 54 38 22 80
REMARK Flexibility Score: inf
ROOT
ATOM      1  O   UNL A   1      38.528  21.023  25.117  1.00  0.00    -0.377 OA
ENDROOT
BRANCH   1   2
ATOM      2  C   UNL A   1      39.628  21.150  26.006  1.00  0.00     0.188 C 
BRANCH   2   3
ATOM      3  C   UNL A   1      39.590  22.409  26.851  1.00  0.00     0.188 C 
BRANCH   3   4
ATOM      4  O   UNL A   1      40.612  23.297  26.430  1.00  0.00    -0.376 OA
BRANCH   4   5
ATOM      5  C   UNL A   1      41.862  22.743  26.052  1.00  0.00     0.202 C 
BRANCH   5   6
ATOM      6  C   UNL A   1      43.078  23.320  26.756  1.00  0.00     0.261 C 
BRANCH   6   7
ATOM      7  O   UNL A   1      43.468  24.639  26.347  1.00  0.00    -0.460 OA
BRANCH   7   8
ATOM      8  C   UNL A   1      42.771  25.780  26.164  1.00  0.00     0.338 C 
ATOM      9  O   UNL A   1      42.477  26.092  25.010  1.00  0.00    -0.246 OA
BRANCH   8  10
ATOM     10  C   UNL A   1      42.304  26.694  27.244  1.00  0.00     0.060 A 
ATOM     11  C   UNL A   1      42.706  28.014  27.442  1.00  0.00     0.016 A 
ATOM     12  C   UNL A   1      41.268  26.202  28.055  1.00  0.00     0.016 A 
ATOM     13  C   UNL A   1      42.144  28.822  28.411  1.00  0.00     0.010 A 
ATOM     14  C   UNL A   1      40.697  26.996  29.048  1.00  0.00     0.010 A 
ATOM     15  C   UNL A   1      41.164  28.300  29.237  1.00  0.00    -0.014 A 
BRANCH  15  16
ATOM     16  C   UNL A   1      40.860  29.052  30.453  1.00  0.00     0.031 A 
ATOM     17  C   UNL A   1      39.671  29.952  30.392  1.00  0.00     0.074 A 
ATOM     18  C   UNL A   1      41.537  28.814  31.584  1.00  0.00     0.049 A 
ATOM     19  N   UNL A   1      39.285  30.873  31.225  1.00  0.00    -0.248 NA
ATOM     20  C   UNL A   1      38.793  29.786  29.218  1.00  0.00     0.031 C 
ATOM     21  C   UNL A   1      42.569  27.790  31.753  1.00  0.00     0.029 A 
ATOM     22  N   UNL A   1      41.452  29.418  32.805  1.00  0.00    -0.354 N 
ATOM     23  C   UNL A   1      38.164  31.445  30.642  1.00  0.00     0.074 A 
ATOM     24  C   UNL A   1      37.914  30.756  29.398  1.00  0.00     0.031 C 
ATOM     25  C   UNL A   1      43.046  27.858  33.007  1.00  0.00     0.029 A 
ATOM     26  C   UNL A   1      42.416  28.986  33.681  1.00  0.00     0.049 A 
ATOM     27  H   UNL A   1      40.771  30.091  33.033  1.00  0.00     0.167 HD
ATOM     28  C   UNL A   1      37.438  32.484  31.110  1.00  0.00     0.037 A 
ATOM     29  C   UNL A   1      42.786  29.517  34.859  1.00  0.00     0.037 A 
ATOM     30  C   UNL A   1      37.751  33.122  32.357  1.00  0.00     0.049 A 
ATOM     31  C   UNL A   1      42.045  30.742  35.321  1.00  0.00     0.074 A 
ATOM     32  C   UNL A   1      37.165  34.224  32.944  1.00  0.00     0.029 A 
ATOM     33  N   UNL A   1      38.766  32.695  33.210  1.00  0.00    -0.354 N 
ATOM     34  N   UNL A   1      41.051  31.371  34.735  1.00  0.00    -0.248 NA
ATOM     35  C   UNL A   1      42.478  31.344  36.585  1.00  0.00     0.031 C 
ATOM     36  C   UNL A   1      37.863  34.495  34.126  1.00  0.00     0.029 A 
ATOM     37  C   UNL A   1      38.840  33.523  34.311  1.00  0.00     0.049 A 
ATOM     38  H   UNL A   1      39.345  31.915  33.050  1.00  0.00     0.167 HD
ATOM     39  C   UNL A   1      40.719  32.429  35.566  1.00  0.00     0.074 A 
ATOM     40  C   UNL A   1      41.624  32.353  36.701  1.00  0.00     0.031 C 
ATOM     41  C   UNL A   1      39.758  33.375  35.418  1.00  0.00     0.037 A 
BRANCH  28  42
ATOM     42  C   UNL A   1      36.372  33.024  30.204  1.00  0.00     0.057 A 
ATOM     43  C   UNL A   1      35.014  32.715  30.362  1.00  0.00     0.134 A 
ATOM     44  C   UNL A   1      36.730  33.782  29.081  1.00  0.00     0.134 A 
ATOM     45  F   UNL A   1      34.603  31.959  31.392  1.00  0.00    -0.206 F 
ATOM     46  C   UNL A   1      34.061  33.097  29.413  1.00  0.00     0.040 A 
ATOM     47  C   UNL A   1      35.784  34.196  28.143  1.00  0.00     0.040 A 
ATOM     48  F   UNL A   1      38.014  34.104  28.859  1.00  0.00    -0.206 F 
ATOM     49  C   UNL A   1      34.447  33.839  28.298  1.00  0.00     0.006 A 
ENDBRANCH  28  42
BRANCH  29  50
ATOM     50  C   UNL A   1      43.939  28.943  35.594  1.00  0.00     0.057 A 
ATOM     51  C   UNL A   1      43.775  27.912  36.524  1.00  0.00     0.134 A 
ATOM     52  C   UNL A   1      45.251  29.372  35.336  1.00  0.00     0.134 A 
ATOM     53  F   UNL A   1      42.549  27.463  36.823  1.00  0.00    -0.206 F 
ATOM     54  C   UNL A   1      44.870  27.327  37.168  1.00  0.00     0.040 A 
ATOM     55  C   UNL A   1      46.354  28.780  35.954  1.00  0.00     0.040 A 
ATOM     56  F   UNL A   1      45.482  30.352  34.449  1.00  0.00    -0.206 F 
ATOM     57  C   UNL A   1      46.164  27.754  36.875  1.00  0.00     0.006 A 
ENDBRANCH  29  50
BRANCH  41  58
ATOM     58  C   UNL A   1      39.599  34.359  36.534  1.00  0.00     0.057 A 
ATOM     59  C   UNL A   1      38.884  34.048  37.695  1.00  0.00     0.134 A 
ATOM     60  C   UNL A   1      40.274  35.585  36.484  1.00  0.00     0.134 A 
ATOM     61  F   UNL A   1      38.209  32.892  37.792  1.00  0.00    -0.206 F 
ATOM     62  C   UNL A   1      38.846  34.930  38.774  1.00  0.00     0.040 A 
ATOM     63  C   UNL A   1      40.266  36.460  37.566  1.00  0.00     0.040 A 
ATOM     64  F   UNL A   1      40.985  35.926  35.398  1.00  0.00    -0.206 F 
ATOM     65  C   UNL A   1      39.550  36.133  38.716  1.00  0.00     0.006 A 
ENDBRANCH  41  58
ENDBRANCH  15  16
ENDBRANCH   8  10
ENDBRANCH   7   8
ENDBRANCH   6   7
ENDBRANCH   5   6
ENDBRANCH   4   5
ENDBRANCH   3   4
ENDBRANCH   2   3
ENDBRANCH   1   2
BRANCH   1  66
ATOM     66  C   UNL A   1      37.498  22.012  25.114  1.00  0.00     0.188 C 
BRANCH  66  67
ATOM     67  C   UNL A   1      36.122  21.698  25.716  1.00  0.00     0.188 C 
BRANCH  67  68
ATOM     68  O   UNL A   1      35.172  21.293  24.755  1.00  0.00    -0.376 OA
BRANCH  68  69
ATOM     69  C   UNL A   1      34.458  20.093  25.019  1.00  0.00     0.202 C 
BRANCH  69  70
ATOM     70  C   UNL A   1      32.910  20.016  24.964  1.00  0.00     0.261 C 
BRANCH  70  71
ATOM     71  O   UNL A   1      32.228  20.788  23.959  1.00  0.00    -0.463 OA
BRANCH  71  72
ATOM     72  C   UNL A   1      31.720  21.985  24.328  1.00  0.00     0.314 C 
ATOM     73  O   UNL A   1      31.539  22.301  25.508  1.00  0.00    -0.252 OA
BRANCH  72  74
ATOM     74  C   UNL A   1      31.496  22.991  23.194  1.00  0.00     0.154 C 
ATOM     75  C   UNL A   1      32.841  23.378  22.578  1.00  0.00     0.027 C 
ATOM     76  C   UNL A   1      30.729  24.296  23.431  1.00  0.00     0.277 C 
ATOM     77  C   UNL A   1      33.563  24.381  23.479  1.00  0.00     0.062 C 
ATOM     78  N   UNL A   1      31.398  25.234  24.325  1.00  0.00    -0.330 N 
ATOM     79  C   UNL A   1      32.705  25.617  23.795  1.00  0.00     0.262 C 
ATOM     80  H   UNL A   1      31.586  24.756  25.206  1.00  0.00     0.348 HD
BRANCH  78  81
ATOM     81  C   UNL A   1      30.529  26.364  24.719  1.00  0.00     0.300 C 
BRANCH  81  82
ATOM     82  C   UNL A   1      31.205  27.533  25.419  1.00  0.00     0.025 A 
ATOM     83  C   UNL A   1      31.571  27.409  26.777  1.00  0.00     0.014 A 
ATOM     84  C   UNL A   1      31.456  28.761  24.778  1.00  0.00     0.052 A 
ATOM     85  C   UNL A   1      32.081  28.496  27.489  1.00  0.00     0.040 A 
ATOM     86  C   UNL A   1      31.983  29.843  25.488  1.00  0.00     0.060 A 
ATOM     87  Cl  UNL A   1      31.138  29.008  23.098  1.00  0.00    -0.084 Cl
ATOM     88  C   UNL A   1      32.269  29.705  26.838  1.00  0.00     0.124 A 
ATOM     89  F   UNL A   1      32.736  30.757  27.524  1.00  0.00    -0.207 F 
ENDBRANCH  81  82
ENDBRANCH  78  81
ENDBRANCH  72  74
ENDBRANCH  71  72
ENDBRANCH  70  71
ENDBRANCH  69  70
ENDBRANCH  68  69
ENDBRANCH  67  68
ENDBRANCH  66  67
ENDBRANCH   1  66
TORSDOF 22
ENDMDL
MODEL 2
REMARK VINA RESULT:      -9.7      1.349      2.060
REMARK SMILES O=C(OCCOCCOCCOCCOC(=O)[C@@H]1CCC[N@@H+](Cc2ccc(F)cc2Cl)C1)c1ccc(-c2c3nc(c(-c4c(F)cccc4F)c4ccc([nH]4)c(-c4c(F)cccc4F)c4nc(c(-c5c(F)cccc5F)c5ccc2[nH]5)C=C4)C=C3)cc1
REMARK SMILES IDX 9 1 8 2 7 3 6 4 5 5 4 6 3 7 2 8 1 9 33 10 34 11 86 12 35 13
REMARK SMILES IDX 85 14 36 15 37 16 38 17 79 18 39 19 84 20 78 21 80 22 40 23
REMARK SMILES IDX 83 24 77 25 76 26 41 28 67 29 50 30 66 31 51 32 54 33 65 34
REMARK SMILES IDX 81 35 52 36 53 37 64 39 82 40 55 41 42 42 43 43 48 44 44 45
REMARK SMILES IDX 45 46 47 47 49 48 46 49 68 50 69 51 74 52 70 53 71 54 73 55
REMARK SMILES IDX 75 56 72 57 56 58 57 59 62 60 58 61 59 62 61 63 63 64 60 65
REMARK SMILES IDX 10 66 11 67 12 68 13 69 14 70 15 71 16 72 17 73 18 74 19 75
REMARK SMILES IDX 32 76 20 77 22 78 21 79 23 81 24 82 25 83 30 84 26 85 29 86
REMARK SMILES IDX 31 87 27 88 28 89
REMARK H PARENT 80 27 54 38 22 80
REMARK Flexibility Score: inf
ROOT
ATOM      1  O   UNL A   1      39.606  21.492  26.668  1.00  0.00    -0.377 OA
ENDROOT
BRANCH   1   2
ATOM      2  C   UNL A   1      40.762  20.829  26.179  1.00  0.00     0.188 C 
BRANCH   2   3
ATOM      3  C   UNL A   1      42.031  21.652  26.287  1.00  0.00     0.188 C 
BRANCH   3   4
ATOM      4  O   UNL A   1      43.001  21.155  25.380  1.00  0.00    -0.376 OA
BRANCH   4   5
ATOM      5  C   UNL A   1      44.208  21.886  25.230  1.00  0.00     0.202 C 
BRANCH   5   6
ATOM      6  C   UNL A   1      44.147  23.072  24.283  1.00  0.00     0.261 C 
BRANCH   6   7
ATOM      7  O   UNL A   1      43.951  24.353  24.900  1.00  0.00    -0.460 OA
BRANCH   7   8
ATOM      8  C   UNL A   1      44.590  24.987  25.906  1.00  0.00     0.338 C 
ATOM      9  O   UNL A   1      45.818  24.912  25.941  1.00  0.00    -0.246 OA
BRANCH   8  10
ATOM     10  C   UNL A   1      43.937  25.794  26.975  1.00  0.00     0.060 A 
ATOM     11  C   UNL A   1      44.099  27.162  27.194  1.00  0.00     0.016 A 
ATOM     12  C   UNL A   1      42.977  25.122  27.748  1.00  0.00     0.016 A 
ATOM     13  C   UNL A   1      43.376  27.849  28.149  1.00  0.00     0.010 A 
ATOM     14  C   UNL A   1      42.246  25.794  28.726  1.00  0.00     0.010 A 
ATOM     15  C   UNL A   1      42.474  27.156  28.938  1.00  0.00    -0.014 A 
BRANCH  15  16
ATOM     16  C   UNL A   1      42.006  27.830  30.148  1.00  0.00     0.031 A 
ATOM     17  C   UNL A   1      40.737  28.606  30.022  1.00  0.00     0.074 A 
ATOM     18  C   UNL A   1      42.621  27.624  31.320  1.00  0.00     0.049 A 
ATOM     19  N   UNL A   1      40.198  29.452  30.848  1.00  0.00    -0.248 NA
ATOM     20  C   UNL A   1      39.968  28.392  28.781  1.00  0.00     0.031 C 
ATOM     21  C   UNL A   1      43.740  26.705  31.538  1.00  0.00     0.029 A 
ATOM     22  N   UNL A   1      42.385  28.172  32.547  1.00  0.00    -0.354 N 
ATOM     23  C   UNL A   1      39.068  29.927  30.198  1.00  0.00     0.074 A 
ATOM     24  C   UNL A   1      38.982  29.260  28.921  1.00  0.00     0.031 C 
ATOM     25  C   UNL A   1      44.115  26.777  32.826  1.00  0.00     0.029 A 
ATOM     26  C   UNL A   1      43.323  27.811  33.481  1.00  0.00     0.049 A 
ATOM     27  H   UNL A   1      41.623  28.764  32.741  1.00  0.00     0.167 HD
ATOM     28  C   UNL A   1      38.206  30.869  30.638  1.00  0.00     0.037 A 
ATOM     29  C   UNL A   1      43.549  28.336  34.698  1.00  0.00     0.037 A 
ATOM     30  C   UNL A   1      38.359  31.492  31.923  1.00  0.00     0.049 A 
ATOM     31  C   UNL A   1      42.653  29.461  35.136  1.00  0.00     0.074 A 
ATOM     32  C   UNL A   1      37.620  32.507  32.493  1.00  0.00     0.029 A 
ATOM     33  N   UNL A   1      39.349  31.141  32.838  1.00  0.00    -0.354 N 
ATOM     34  N   UNL A   1      41.643  30.005  34.494  1.00  0.00    -0.248 NA
ATOM     35  C   UNL A   1      42.928  30.059  36.445  1.00  0.00     0.031 C 
ATOM     36  C   UNL A   1      38.199  32.806  33.732  1.00  0.00     0.029 A 
ATOM     37  C   UNL A   1      39.256  31.933  33.963  1.00  0.00     0.049 A 
ATOM     38  H   UNL A   1      40.017  30.431  32.701  1.00  0.00     0.167 HD
ATOM     39  C   UNL A   1      41.144  30.994  35.326  1.00  0.00     0.074 A 
ATOM     40  C   UNL A   1      41.968  30.972  36.523  1.00  0.00     0.031 C 
ATOM     41  C   UNL A   1      40.102  31.842  35.132  1.00  0.00     0.037 A 
BRANCH  28  42
ATOM     42  C   UNL A   1      37.157  31.329  29.670  1.00  0.00     0.057 A 
ATOM     43  C   UNL A   1      36.065  30.532  29.299  1.00  0.00     0.134 A 
ATOM     44  C   UNL A   1      37.308  32.557  29.010  1.00  0.00     0.134 A 
ATOM     45  F   UNL A   1      35.880  29.327  29.859  1.00  0.00    -0.206 F 
ATOM     46  C   UNL A   1      35.193  30.916  28.275  1.00  0.00     0.040 A 
ATOM     47  C   UNL A   1      36.427  32.965  28.009  1.00  0.00     0.040 A 
ATOM     48  F   UNL A   1      38.339  33.364  29.304  1.00  0.00    -0.206 F 
ATOM     49  C   UNL A   1      35.374  32.137  27.627  1.00  0.00     0.006 A 
ENDBRANCH  28  42
BRANCH  29  50
ATOM     50  C   UNL A   1      44.700  27.857  35.502  1.00  0.00     0.057 A 
ATOM     51  C   UNL A   1      45.915  28.548  35.525  1.00  0.00     0.134 A 
ATOM     52  C   UNL A   1      44.591  26.725  36.324  1.00  0.00     0.134 A 
ATOM     53  F   UNL A   1      46.089  29.632  34.757  1.00  0.00    -0.206 F 
ATOM     54  C   UNL A   1      46.977  28.133  36.334  1.00  0.00     0.040 A 
ATOM     55  C   UNL A   1      45.634  26.314  37.155  1.00  0.00     0.040 A 
ATOM     56  F   UNL A   1      43.450  26.019  36.357  1.00  0.00    -0.206 F 
ATOM     57  C   UNL A   1      46.834  27.019  37.160  1.00  0.00     0.006 A 
ENDBRANCH  29  50
BRANCH  41  58
ATOM     58  C   UNL A   1      39.761  32.764  36.259  1.00  0.00     0.057 A 
ATOM     59  C   UNL A   1      40.383  34.008  36.409  1.00  0.00     0.134 A 
ATOM     60  C   UNL A   1      38.711  32.443  37.129  1.00  0.00     0.134 A 
ATOM     61  F   UNL A   1      41.401  34.362  35.610  1.00  0.00    -0.206 F 
ATOM     62  C   UNL A   1      39.970  34.905  37.393  1.00  0.00     0.040 A 
ATOM     63  C   UNL A   1      38.272  33.342  38.096  1.00  0.00     0.040 A 
ATOM     64  F   UNL A   1      38.073  31.268  37.020  1.00  0.00    -0.206 F 
ATOM     65  C   UNL A   1      38.903  34.578  38.230  1.00  0.00     0.006 A 
ENDBRANCH  41  58
ENDBRANCH  15  16
ENDBRANCH   8  10
ENDBRANCH   7   8
ENDBRANCH   6   7
ENDBRANCH   5   6
ENDBRANCH   4   5
ENDBRANCH   3   4
ENDBRANCH   2   3
ENDBRANCH   1   2
BRANCH   1  66
ATOM     66  C   UNL A   1      38.689  22.093  25.753  1.00  0.00     0.188 C 
BRANCH  66  67
ATOM     67  C   UNL A   1      37.685  21.225  24.981  1.00  0.00     0.188 C 
BRANCH  67  68
ATOM     68  O   UNL A   1      36.439  21.102  25.630  1.00  0.00    -0.376 OA
BRANCH  68  69
ATOM     69  C   UNL A   1      35.471  20.265  25.014  1.00  0.00     0.202 C 
BRANCH  69  70
ATOM     70  C   UNL A   1      33.950  20.416  25.277  1.00  0.00     0.261 C 
BRANCH  70  71
ATOM     71  O   UNL A   1      33.131  20.956  24.224  1.00  0.00    -0.463 OA
BRANCH  71  72
ATOM     72  C   UNL A   1      32.417  22.071  24.498  1.00  0.00     0.314 C 
ATOM     73  O   UNL A   1      32.309  22.535  25.638  1.00  0.00    -0.252 OA
BRANCH  72  74
ATOM     74  C   UNL A   1      31.849  22.812  23.283  1.00  0.00     0.154 C 
ATOM     75  C   UNL A   1      32.995  23.302  22.398  1.00  0.00     0.027 C 
ATOM     76  C   UNL A   1      30.888  23.993  23.453  1.00  0.00     0.277 C 
ATOM     77  C   UNL A   1      33.632  24.553  23.006  1.00  0.00     0.062 C 
ATOM     78  N   UNL A   1      31.484  25.171  24.072  1.00  0.00    -0.330 N 
ATOM     79  C   UNL A   1      32.607  25.666  23.278  1.00  0.00     0.262 C 
ATOM     80  H   UNL A   1      31.883  24.893  24.970  1.00  0.00     0.348 HD
BRANCH  78  81
ATOM     81  C   UNL A   1      30.480  26.193  24.438  1.00  0.00     0.300 C 
BRANCH  81  82
ATOM     82  C   UNL A   1      31.000  27.441  25.137  1.00  0.00     0.025 A 
ATOM     83  C   UNL A   1      31.423  27.355  26.481  1.00  0.00     0.014 A 
ATOM     84  C   UNL A   1      31.047  28.700  24.510  1.00  0.00     0.052 A 
ATOM     85  C   UNL A   1      31.790  28.497  27.196  1.00  0.00     0.040 A 
ATOM     86  C   UNL A   1      31.431  29.839  25.222  1.00  0.00     0.060 A 
ATOM     87  Cl  UNL A   1      30.642  28.918  22.844  1.00  0.00    -0.084 Cl
ATOM     88  C   UNL A   1      31.777  29.729  26.560  1.00  0.00     0.124 A 
ATOM     89  F   UNL A   1      32.106  30.829  27.250  1.00  0.00    -0.207 F 
ENDBRANCH  81  82
ENDBRANCH  78  81
ENDBRANCH  72  74
ENDBRANCH  71  72
ENDBRANCH  70  71
ENDBRANCH  69  70
ENDBRANCH  68  69
ENDBRANCH  67  68
ENDBRANCH  66  67
ENDBRANCH   1  66
TORSDOF 22
ENDMDL
MODEL 3
REMARK VINA RESULT:      -9.5      1.483      6.332
REMARK SMILES O=C(OCCOCCOCCOCCOC(=O)[C@@H]1CCC[N@@H+](Cc2ccc(F)cc2Cl)C1)c1ccc(-c2c3nc(c(-c4c(F)cccc4F)c4ccc([nH]4)c(-c4c(F)cccc4F)c4nc(c(-c5c(F)cccc5F)c5ccc2[nH]5)C=C4)C=C3)cc1
REMARK SMILES IDX 9 1 8 2 7 3 6 4 5 5 4 6 3 7 2 8 1 9 33 10 34 11 86 12 35 13
REMARK SMILES IDX 85 14 36 15 37 16 38 17 79 18 39 19 84 20 78 21 80 22 40 23
REMARK SMILES IDX 83 24 77 25 76 26 41 28 67 29 50 30 66 31 51 32 54 33 65 34
REMARK SMILES IDX 81 35 52 36 53 37 64 39 82 40 55 41 42 42 43 43 48 44 44 45
REMARK SMILES IDX 45 46 47 47 49 48 46 49 68 50 69 51 74 52 70 53 71 54 73 55
REMARK SMILES IDX 75 56 72 57 56 58 57 59 62 60 58 61 59 62 61 63 63 64 60 65
REMARK SMILES IDX 10 66 11 67 12 68 13 69 14 70 15 71 16 72 17 73 18 74 19 75
REMARK SMILES IDX 32 76 20 77 22 78 21 79 23 81 24 82 25 83 30 84 26 85 29 86
REMARK SMILES IDX 31 87 27 88 28 89
REMARK H PARENT 80 27 54 38 22 80
REMARK Flexibility Score: inf
ROOT
ATOM      1  O   UNL A   1      38.537  20.654  25.176  1.00  0.00    -0.377 OA
ENDROOT
BRANCH   1   2
ATOM      2  C   UNL A   1      39.603  20.487  26.098  1.00  0.00     0.188 C 
BRANCH   2   3
ATOM      3  C   UNL A   1      40.026  21.771  26.785  1.00  0.00     0.188 C 
BRANCH   3   4
ATOM      4  O   UNL A   1      41.136  22.333  26.104  1.00  0.00    -0.376 OA
BRANCH   4   5
ATOM      5  C   UNL A   1      42.183  21.462  25.705  1.00  0.00     0.202 C 
BRANCH   5   6
ATOM      6  C   UNL A   1      43.454  21.537  26.533  1.00  0.00     0.261 C 
BRANCH   6   7
ATOM      7  O   UNL A   1      44.192  22.764  26.434  1.00  0.00    -0.460 OA
BRANCH   7   8
ATOM      8  C   UNL A   1      43.856  23.997  26.002  1.00  0.00     0.338 C 
ATOM      9  O   UNL A   1      44.012  24.247  24.808  1.00  0.00    -0.246 OA
BRANCH   8  10
ATOM     10  C   UNL A   1      43.289  25.087  26.846  1.00  0.00     0.060 A 
ATOM     11  C   UNL A   1      43.567  26.448  26.735  1.00  0.00     0.016 A 
ATOM     12  C   UNL A   1      42.287  24.700  27.751  1.00  0.00     0.016 A 
ATOM     13  C   UNL A   1      42.918  27.401  27.495  1.00  0.00     0.010 A 
ATOM     14  C   UNL A   1      41.630  25.645  28.537  1.00  0.00     0.010 A 
ATOM     15  C   UNL A   1      41.974  26.994  28.421  1.00  0.00    -0.014 A 
BRANCH  15  16
ATOM     16  C   UNL A   1      41.581  27.973  29.433  1.00  0.00     0.031 A 
ATOM     17  C   UNL A   1      42.437  28.039  30.654  1.00  0.00     0.074 A 
ATOM     18  C   UNL A   1      40.596  28.846  29.186  1.00  0.00     0.049 A 
ATOM     19  N   UNL A   1      42.226  28.649  31.783  1.00  0.00    -0.248 NA
ATOM     20  C   UNL A   1      43.716  27.307  30.588  1.00  0.00     0.031 C 
ATOM     21  C   UNL A   1      39.867  28.964  27.922  1.00  0.00     0.029 A 
ATOM     22  N   UNL A   1      40.044  29.802  29.988  1.00  0.00    -0.354 N 
ATOM     23  C   UNL A   1      43.308  28.316  32.585  1.00  0.00     0.074 A 
ATOM     24  C   UNL A   1      44.186  27.471  31.812  1.00  0.00     0.031 C 
ATOM     25  C   UNL A   1      38.936  29.924  28.046  1.00  0.00     0.029 A 
ATOM     26  C   UNL A   1      38.952  30.409  29.420  1.00  0.00     0.049 A 
ATOM     27  H   UNL A   1      40.392  30.031  30.880  1.00  0.00     0.167 HD
ATOM     28  C   UNL A   1      43.511  28.672  33.872  1.00  0.00     0.037 A 
ATOM     29  C   UNL A   1      38.032  31.202  29.996  1.00  0.00     0.037 A 
ATOM     30  C   UNL A   1      42.588  29.515  34.578  1.00  0.00     0.049 A 
ATOM     31  C   UNL A   1      38.206  31.504  31.459  1.00  0.00     0.074 A 
ATOM     32  C   UNL A   1      42.606  29.915  35.897  1.00  0.00     0.029 A 
ATOM     33  N   UNL A   1      41.459  30.084  33.993  1.00  0.00    -0.354 N 
ATOM     34  N   UNL A   1      39.162  31.111  32.271  1.00  0.00    -0.248 NA
ATOM     35  C   UNL A   1      37.179  32.334  32.093  1.00  0.00     0.031 C 
ATOM     36  C   UNL A   1      41.457  30.681  36.123  1.00  0.00     0.029 A 
ATOM     37  C   UNL A   1      40.758  30.816  34.928  1.00  0.00     0.049 A 
ATOM     38  H   UNL A   1      41.200  29.978  33.049  1.00  0.00     0.167 HD
ATOM     39  C   UNL A   1      38.869  31.663  33.507  1.00  0.00     0.074 A 
ATOM     40  C   UNL A   1      37.641  32.420  33.334  1.00  0.00     0.031 C 
ATOM     41  C   UNL A   1      39.547  31.564  34.679  1.00  0.00     0.037 A 
BRANCH  28  42
ATOM     42  C   UNL A   1      44.679  28.039  34.570  1.00  0.00     0.057 A 
ATOM     43  C   UNL A   1      45.958  28.613  34.581  1.00  0.00     0.134 A 
ATOM     44  C   UNL A   1      44.540  26.771  35.149  1.00  0.00     0.134 A 
ATOM     45  F   UNL A   1      46.173  29.808  34.010  1.00  0.00    -0.206 F 
ATOM     46  C   UNL A   1      47.062  27.928  35.097  1.00  0.00     0.040 A 
ATOM     47  C   UNL A   1      45.628  26.090  35.694  1.00  0.00     0.040 A 
ATOM     48  F   UNL A   1      43.347  26.155  35.161  1.00  0.00    -0.206 F 
ATOM     49  C   UNL A   1      46.898  26.661  35.655  1.00  0.00     0.006 A 
ENDBRANCH  28  42
BRANCH  29  50
ATOM     50  C   UNL A   1      36.863  31.663  29.208  1.00  0.00     0.057 A 
ATOM     51  C   UNL A   1      35.740  30.851  29.020  1.00  0.00     0.134 A 
ATOM     52  C   UNL A   1      36.813  32.960  28.673  1.00  0.00     0.134 A 
ATOM     53  F   UNL A   1      35.726  29.599  29.496  1.00  0.00    -0.206 F 
ATOM     54  C   UNL A   1      34.612  31.310  28.333  1.00  0.00     0.040 A 
ATOM     55  C   UNL A   1      35.684  33.439  28.007  1.00  0.00     0.040 A 
ATOM     56  F   UNL A   1      37.852  33.795  28.823  1.00  0.00    -0.206 F 
ATOM     57  C   UNL A   1      34.578  32.611  27.834  1.00  0.00     0.006 A 
ENDBRANCH  29  50
BRANCH  41  58
ATOM     58  C   UNL A   1      39.008  32.340  35.840  1.00  0.00     0.057 A 
ATOM     59  C   UNL A   1      38.217  31.740  36.825  1.00  0.00     0.134 A 
ATOM     60  C   UNL A   1      39.392  33.674  36.025  1.00  0.00     0.134 A 
ATOM     61  F   UNL A   1      37.811  30.468  36.693  1.00  0.00    -0.206 F 
ATOM     62  C   UNL A   1      37.822  32.447  37.960  1.00  0.00     0.040 A 
ATOM     63  C   UNL A   1      39.028  34.380  37.167  1.00  0.00     0.040 A 
ATOM     64  F   UNL A   1      40.161  34.293  35.116  1.00  0.00    -0.206 F 
ATOM     65  C   UNL A   1      38.241  33.766  38.140  1.00  0.00     0.006 A 
ENDBRANCH  41  58
ENDBRANCH  15  16
ENDBRANCH   8  10
ENDBRANCH   7   8
ENDBRANCH   6   7
ENDBRANCH   5   6
ENDBRANCH   4   5
ENDBRANCH   3   4
ENDBRANCH   2   3
ENDBRANCH   1   2
BRANCH   1  66
ATOM     66  C   UNL A   1      37.606  21.722  25.352  1.00  0.00     0.188 C 
BRANCH  66  67
ATOM     67  C   UNL A   1      36.131  21.422  25.654  1.00  0.00     0.188 C 
BRANCH  67  68
ATOM     68  O   UNL A   1      35.450  20.828  24.572  1.00  0.00    -0.376 OA
BRANCH  68  69
ATOM     69  C   UNL A   1      34.347  19.990  24.887  1.00  0.00     0.202 C 
BRANCH  69  70
ATOM     70  C   UNL A   1      33.237  20.412  25.885  1.00  0.00     0.261 C 
BRANCH  70  71
ATOM     71  O   UNL A   1      32.090  21.110  25.367  1.00  0.00    -0.463 OA
BRANCH  71  72
ATOM     72  C   UNL A   1      32.311  22.255  24.684  1.00  0.00     0.314 C 
ATOM     73  O   UNL A   1      32.092  22.367  23.474  1.00  0.00    -0.252 OA
BRANCH  72  74
ATOM     74  C   UNL A   1      32.730  23.463  25.529  1.00  0.00     0.154 C 
ATOM     75  C   UNL A   1      31.714  23.684  26.649  1.00  0.00     0.027 C 
ATOM     76  C   UNL A   1      32.982  24.831  24.887  1.00  0.00     0.277 C 
ATOM     77  C   UNL A   1      30.460  24.363  26.096  1.00  0.00     0.062 C 
ATOM     78  N   UNL A   1      31.794  25.458  24.320  1.00  0.00    -0.330 N 
ATOM     79  C   UNL A   1      30.775  25.669  25.347  1.00  0.00     0.262 C 
ATOM     80  H   UNL A   1      31.379  24.811  23.649  1.00  0.00     0.348 HD
BRANCH  78  81
ATOM     81  C   UNL A   1      32.112  26.651  23.504  1.00  0.00     0.300 C 
BRANCH  81  82
ATOM     82  C   UNL A   1      32.012  28.000  24.200  1.00  0.00     0.025 A 
ATOM     83  C   UNL A   1      33.042  28.405  25.076  1.00  0.00     0.014 A 
ATOM     84  C   UNL A   1      30.910  28.860  24.035  1.00  0.00     0.052 A 
ATOM     85  C   UNL A   1      32.931  29.576  25.827  1.00  0.00     0.040 A 
ATOM     86  C   UNL A   1      30.809  30.042  24.775  1.00  0.00     0.060 A 
ATOM     87  Cl  UNL A   1      29.631  28.521  22.924  1.00  0.00    -0.084 Cl
ATOM     88  C   UNL A   1      31.808  30.376  25.676  1.00  0.00     0.124 A 
ATOM     89  F   UNL A   1      31.688  31.489  26.412  1.00  0.00    -0.207 F 
ENDBRANCH  81  82
ENDBRANCH  78  81
ENDBRANCH  72  74
ENDBRANCH  71  72
ENDBRANCH  70  71
ENDBRANCH  69  70
ENDBRANCH  68  69
ENDBRANCH  67  68
ENDBRANCH  66  67
ENDBRANCH   1  66
TORSDOF 22
ENDMDL
