MODEL 1
REMARK VINA RESULT:      -8.7      0.000      0.000
REMARK SMILES C[NH2+]C[C@H](C)C(=O)N1CCC[C@@H]1C(=O)OCCOCCOCCOCCOC(=O)c1ccc(-c2c3nc(c(-c4c(F)cccc4F)c4ccc([nH]4)c(-c4c(F)cccc4F)c4nc(c(-c5c(F)cccc5F)c5ccc2[nH]5)C=C4)C=C3)cc1
REMARK SMILES IDX 20 1 19 2 18 3 17 4 16 5 15 6 13 7 14 8 12 9 8 10 9 11 10 12
REMARK SMILES IDX 11 13 6 14 7 15 4 16 5 17 3 18 2 19 1 20 21 23 22 24 23 25
REMARK SMILES IDX 24 26 25 27 26 28 27 29 28 30 29 31 30 32 31 33 83 34 32 35
REMARK SMILES IDX 82 36 33 37 34 38 35 39 76 40 36 41 81 42 75 43 77 44 37 45
REMARK SMILES IDX 80 46 74 47 73 48 38 50 64 51 47 52 63 53 48 54 51 55 62 56
REMARK SMILES IDX 78 57 49 58 50 59 61 61 79 62 52 63 39 64 40 65 45 66 41 67
REMARK SMILES IDX 42 68 44 69 46 70 43 71 65 72 66 73 71 74 67 75 68 76 70 77
REMARK SMILES IDX 72 78 69 79 53 80 54 81 59 82 55 83 56 84 58 85 60 86 57 87
REMARK H PARENT 2 21 2 22 77 49 51 60
REMARK Flexibility Score: inf
ROOT
ATOM      1  C   UNL A   1      33.959  27.888  26.368  1.00  0.00     0.188 C 
ENDROOT
BRANCH   1   2
ATOM      2  C   UNL A   1      34.006  27.702  24.847  1.00  0.00     0.188 C 
BRANCH   2   3
ATOM      3  O   UNL A   1      32.739  27.843  24.234  1.00  0.00    -0.376 OA
BRANCH   3   4
ATOM      4  C   UNL A   1      32.638  27.624  22.840  1.00  0.00     0.202 C 
BRANCH   4   5
ATOM      5  C   UNL A   1      32.319  26.225  22.282  1.00  0.00     0.261 C 
BRANCH   5   6
ATOM      6  O   UNL A   1      32.063  25.127  23.179  1.00  0.00    -0.462 OA
BRANCH   6   7
ATOM      7  C   UNL A   1      33.098  24.506  23.788  1.00  0.00     0.328 C 
ATOM      8  O   UNL A   1      34.197  24.379  23.262  1.00  0.00    -0.250 OA
BRANCH   7   9
ATOM      9  C   UNL A   1      32.683  23.837  25.122  1.00  0.00     0.195 C 
ATOM     10  N   UNL A   1      31.830  22.681  24.855  1.00  0.00    -0.328 N 
ATOM     11  C   UNL A   1      30.873  22.514  25.928  1.00  0.00     0.120 C 
ATOM     12  C   UNL A   1      30.566  23.924  26.363  1.00  0.00     0.024 C 
ATOM     13  C   UNL A   1      31.877  24.670  26.137  1.00  0.00     0.039 C 
BRANCH  10  14
ATOM     14  C   UNL A   1      32.317  21.625  24.124  1.00  0.00     0.231 C 
ATOM     15  O   UNL A   1      32.196  21.571  22.901  1.00  0.00    -0.274 OA
BRANCH  14  16
ATOM     16  C   UNL A   1      32.914  20.460  24.911  1.00  0.00     0.130 C 
ATOM     17  C   UNL A   1      32.554  19.111  24.300  1.00  0.00     0.024 C 
BRANCH  16  18
ATOM     18  C   UNL A   1      34.439  20.574  25.144  1.00  0.00     0.273 C 
BRANCH  18  19
ATOM     19  N   UNL A   1      35.196  21.580  24.395  1.00  0.00    -0.348 N 
ATOM     20  C   UNL A   1      36.300  22.185  25.128  1.00  0.00     0.330 C 
ATOM     21  H   UNL A   1      35.576  21.134  23.561  1.00  0.00     0.346 HD
ATOM     22  H   UNL A   1      34.543  22.335  24.186  1.00  0.00     0.346 HD
ENDBRANCH  18  19
ENDBRANCH  16  18
ENDBRANCH  14  16
ENDBRANCH  10  14
ENDBRANCH   7   9
ENDBRANCH   6   7
ENDBRANCH   5   6
ENDBRANCH   4   5
ENDBRANCH   3   4
ENDBRANCH   2   3
ENDBRANCH   1   2
BRANCH   1  23
ATOM     23  O   UNL A   1      34.522  29.090  26.870  1.00  0.00    -0.377 OA
BRANCH  23  24
ATOM     24  C   UNL A   1      33.681  30.188  27.216  1.00  0.00     0.188 C 
BRANCH  24  25
ATOM     25  C   UNL A   1      32.150  30.127  27.040  1.00  0.00     0.188 C 
BRANCH  25  26
ATOM     26  O   UNL A   1      31.631  31.038  26.089  1.00  0.00    -0.376 OA
BRANCH  26  27
ATOM     27  C   UNL A   1      31.094  32.266  26.545  1.00  0.00     0.202 C 
BRANCH  27  28
ATOM     28  C   UNL A   1      32.062  33.400  26.923  1.00  0.00     0.261 C 
BRANCH  28  29
ATOM     29  O   UNL A   1      32.444  33.510  28.304  1.00  0.00    -0.460 OA
BRANCH  29  30
ATOM     30  C   UNL A   1      33.081  34.632  28.705  1.00  0.00     0.338 C 
ATOM     31  O   UNL A   1      32.686  35.774  28.621  1.00  0.00    -0.246 OA
BRANCH  30  32
ATOM     32  C   UNL A   1      34.288  34.214  29.459  1.00  0.00     0.060 A 
ATOM     33  C   UNL A   1      35.549  34.346  28.859  1.00  0.00     0.016 A 
ATOM     34  C   UNL A   1      34.168  33.682  30.744  1.00  0.00     0.016 A 
ATOM     35  C   UNL A   1      36.688  33.884  29.517  1.00  0.00     0.010 A 
ATOM     36  C   UNL A   1      35.308  33.196  31.393  1.00  0.00     0.010 A 
ATOM     37  C   UNL A   1      36.562  33.249  30.758  1.00  0.00    -0.014 A 
BRANCH  37  38
ATOM     38  C   UNL A   1      37.676  32.411  31.265  1.00  0.00     0.031 A 
ATOM     39  C   UNL A   1      38.207  32.709  32.643  1.00  0.00     0.074 A 
ATOM     40  C   UNL A   1      38.187  31.395  30.551  1.00  0.00     0.049 A 
ATOM     41  N   UNL A   1      39.205  32.165  33.291  1.00  0.00    -0.248 NA
ATOM     42  C   UNL A   1      37.515  33.775  33.388  1.00  0.00     0.031 C 
ATOM     43  C   UNL A   1      37.724  30.965  29.235  1.00  0.00     0.029 A 
ATOM     44  N   UNL A   1      39.222  30.541  30.843  1.00  0.00    -0.354 N 
ATOM     45  C   UNL A   1      39.263  32.826  34.512  1.00  0.00     0.074 A 
ATOM     46  C   UNL A   1      38.231  33.839  34.498  1.00  0.00     0.031 C 
ATOM     47  C   UNL A   1      38.478  29.928  28.827  1.00  0.00     0.029 A 
ATOM     48  C   UNL A   1      39.498  29.648  29.837  1.00  0.00     0.049 A 
ATOM     49  H   UNL A   1      39.719  30.566  31.692  1.00  0.00     0.167 HD
ATOM     50  C   UNL A   1      40.093  32.603  35.559  1.00  0.00     0.037 A 
ATOM     51  C   UNL A   1      40.475  28.725  29.740  1.00  0.00     0.037 A 
ATOM     52  C   UNL A   1      41.128  31.603  35.566  1.00  0.00     0.049 A 
ATOM     53  C   UNL A   1      41.454  28.562  30.875  1.00  0.00     0.074 A 
ATOM     54  C   UNL A   1      42.028  31.300  36.571  1.00  0.00     0.029 A 
ATOM     55  N   UNL A   1      41.405  30.750  34.509  1.00  0.00    -0.354 N 
ATOM     56  N   UNL A   1      41.501  29.185  32.029  1.00  0.00    -0.248 NA
ATOM     57  C   UNL A   1      42.516  27.561  30.694  1.00  0.00     0.031 C 
ATOM     58  C   UNL A   1      42.887  30.302  36.101  1.00  0.00     0.029 A 
ATOM     59  C   UNL A   1      42.479  29.935  34.829  1.00  0.00     0.049 A 
ATOM     60  H   UNL A   1      40.912  30.726  33.657  1.00  0.00     0.167 HD
ATOM     61  C   UNL A   1      42.565  28.622  32.726  1.00  0.00     0.074 A 
ATOM     62  C   UNL A   1      43.134  27.605  31.866  1.00  0.00     0.031 C 
ATOM     63  C   UNL A   1      43.026  28.916  33.968  1.00  0.00     0.037 A 
BRANCH  50  64
ATOM     64  C   UNL A   1      39.931  33.488  36.762  1.00  0.00     0.057 A 
ATOM     65  C   UNL A   1      39.019  33.195  37.785  1.00  0.00     0.134 A 
ATOM     66  C   UNL A   1      40.696  34.654  36.897  1.00  0.00     0.134 A 
ATOM     67  F   UNL A   1      38.242  32.103  37.711  1.00  0.00    -0.206 F 
ATOM     68  C   UNL A   1      38.847  34.046  38.879  1.00  0.00     0.040 A 
ATOM     69  C   UNL A   1      40.557  35.495  38.002  1.00  0.00     0.040 A 
ATOM     70  F   UNL A   1      41.591  34.995  35.958  1.00  0.00    -0.206 F 
ATOM     71  C   UNL A   1      39.622  35.199  38.991  1.00  0.00     0.006 A 
ENDBRANCH  50  64
BRANCH  51  72
ATOM     72  C   UNL A   1      40.584  27.876  28.525  1.00  0.00     0.057 A 
ATOM     73  C   UNL A   1      41.313  28.301  27.409  1.00  0.00     0.134 A 
ATOM     74  C   UNL A   1      39.941  26.635  28.440  1.00  0.00     0.134 A 
ATOM     75  F   UNL A   1      41.929  29.492  27.419  1.00  0.00    -0.206 F 
ATOM     76  C   UNL A   1      41.384  27.533  26.245  1.00  0.00     0.040 A 
ATOM     77  C   UNL A   1      40.026  25.844  27.293  1.00  0.00     0.040 A 
ATOM     78  F   UNL A   1      39.224  26.171  29.474  1.00  0.00    -0.206 F 
ATOM     79  C   UNL A   1      40.744  26.297  26.187  1.00  0.00     0.006 A 
ENDBRANCH  51  72
BRANCH  63  80
ATOM     80  C   UNL A   1      44.160  28.085  34.502  1.00  0.00     0.057 A 
ATOM     81  C   UNL A   1      43.950  26.873  35.172  1.00  0.00     0.134 A 
ATOM     82  C   UNL A   1      45.487  28.490  34.306  1.00  0.00     0.134 A 
ATOM     83  F   UNL A   1      42.706  26.428  35.401  1.00  0.00    -0.206 F 
ATOM     84  C   UNL A   1      45.017  26.111  35.653  1.00  0.00     0.040 A 
ATOM     85  C   UNL A   1      46.562  27.721  34.753  1.00  0.00     0.040 A 
ATOM     86  F   UNL A   1      45.763  29.634  33.660  1.00  0.00    -0.206 F 
ATOM     87  C   UNL A   1      46.328  26.531  35.437  1.00  0.00     0.006 A 
ENDBRANCH  63  80
ENDBRANCH  37  38
ENDBRANCH  30  32
ENDBRANCH  29  30
ENDBRANCH  28  29
ENDBRANCH  27  28
ENDBRANCH  26  27
ENDBRANCH  25  26
ENDBRANCH  24  25
ENDBRANCH  23  24
ENDBRANCH   1  23
TORSDOF 24
ENDMDL
MODEL 2
REMARK VINA RESULT:      -8.6      1.253      6.268
REMARK SMILES C[NH2+]C[C@H](C)C(=O)N1CCC[C@@H]1C(=O)OCCOCCOCCOCCOC(=O)c1ccc(-c2c3nc(c(-c4c(F)cccc4F)c4ccc([nH]4)c(-c4c(F)cccc4F)c4nc(c(-c5c(F)cccc5F)c5ccc2[nH]5)C=C4)C=C3)cc1
REMARK SMILES IDX 20 1 19 2 18 3 17 4 16 5 15 6 13 7 14 8 12 9 8 10 9 11 10 12
REMARK SMILES IDX 11 13 6 14 7 15 4 16 5 17 3 18 2 19 1 20 21 23 22 24 23 25
REMARK SMILES IDX 24 26 25 27 26 28 27 29 28 30 29 31 30 32 31 33 83 34 32 35
REMARK SMILES IDX 82 36 33 37 34 38 35 39 76 40 36 41 81 42 75 43 77 44 37 45
REMARK SMILES IDX 80 46 74 47 73 48 38 50 64 51 47 52 63 53 48 54 51 55 62 56
REMARK SMILES IDX 78 57 49 58 50 59 61 61 79 62 52 63 39 64 40 65 45 66 41 67
REMARK SMILES IDX 42 68 44 69 46 70 43 71 65 72 66 73 71 74 67 75 68 76 70 77
REMARK SMILES IDX 72 78 69 79 53 80 54 81 59 82 55 83 56 84 58 85 60 86 57 87
REMARK H PARENT 2 21 2 22 77 49 51 60
REMARK Flexibility Score: inf
ROOT
ATOM      1  C   UNL A   1      33.484  27.582  26.538  1.00  0.00     0.188 C 
ENDROOT
BRANCH   1   2
ATOM      2  C   UNL A   1      33.749  26.263  25.802  1.00  0.00     0.188 C 
BRANCH   2   3
ATOM      3  O   UNL A   1      32.811  26.007  24.774  1.00  0.00    -0.376 OA
BRANCH   3   4
ATOM      4  C   UNL A   1      33.178  26.301  23.440  1.00  0.00     0.202 C 
BRANCH   4   5
ATOM      5  C   UNL A   1      33.209  25.198  22.367  1.00  0.00     0.261 C 
BRANCH   5   6
ATOM      6  O   UNL A   1      32.994  23.822  22.736  1.00  0.00    -0.462 OA
BRANCH   6   7
ATOM      7  C   UNL A   1      34.039  23.068  23.147  1.00  0.00     0.328 C 
ATOM      8  O   UNL A   1      35.088  22.992  22.519  1.00  0.00    -0.250 OA
BRANCH   7   9
ATOM      9  C   UNL A   1      33.691  22.197  24.380  1.00  0.00     0.195 C 
ATOM     10  N   UNL A   1      32.417  21.516  24.164  1.00  0.00    -0.328 N 
ATOM     11  C   UNL A   1      31.725  21.349  25.425  1.00  0.00     0.120 C 
ATOM     12  C   UNL A   1      32.099  22.581  26.209  1.00  0.00     0.024 C 
ATOM     13  C   UNL A   1      33.515  22.896  25.742  1.00  0.00     0.039 C 
BRANCH  10  14
ATOM     14  C   UNL A   1      32.280  20.633  23.121  1.00  0.00     0.231 C 
ATOM     15  O   UNL A   1      31.986  21.008  21.986  1.00  0.00    -0.274 OA
BRANCH  14  16
ATOM     16  C   UNL A   1      32.396  19.147  23.455  1.00  0.00     0.130 C 
ATOM     17  C   UNL A   1      32.342  18.273  22.208  1.00  0.00     0.024 C 
BRANCH  16  18
ATOM     18  C   UNL A   1      33.622  18.792  24.329  1.00  0.00     0.273 C 
BRANCH  18  19
ATOM     19  N   UNL A   1      33.402  18.189  25.645  1.00  0.00    -0.348 N 
ATOM     20  C   UNL A   1      33.361  16.732  25.650  1.00  0.00     0.330 C 
ATOM     21  H   UNL A   1      34.159  18.486  26.260  1.00  0.00     0.346 HD
ATOM     22  H   UNL A   1      32.483  18.503  25.956  1.00  0.00     0.346 HD
ENDBRANCH  18  19
ENDBRANCH  16  18
ENDBRANCH  14  16
ENDBRANCH  10  14
ENDBRANCH   7   9
ENDBRANCH   6   7
ENDBRANCH   5   6
ENDBRANCH   4   5
ENDBRANCH   3   4
ENDBRANCH   2   3
ENDBRANCH   1   2
BRANCH   1  23
ATOM     23  O   UNL A   1      34.064  28.745  25.967  1.00  0.00    -0.377 OA
BRANCH  23  24
ATOM     24  C   UNL A   1      33.501  30.030  26.226  1.00  0.00     0.188 C 
BRANCH  24  25
ATOM     25  C   UNL A   1      32.017  30.206  26.605  1.00  0.00     0.188 C 
BRANCH  25  26
ATOM     26  O   UNL A   1      31.277  31.023  25.717  1.00  0.00    -0.376 OA
BRANCH  26  27
ATOM     27  C   UNL A   1      30.836  32.292  26.165  1.00  0.00     0.202 C 
BRANCH  27  28
ATOM     28  C   UNL A   1      31.889  33.348  26.541  1.00  0.00     0.261 C 
BRANCH  28  29
ATOM     29  O   UNL A   1      32.220  33.484  27.932  1.00  0.00    -0.460 OA
BRANCH  29  30
ATOM     30  C   UNL A   1      33.200  34.350  28.275  1.00  0.00     0.338 C 
ATOM     31  O   UNL A   1      33.103  35.547  28.433  1.00  0.00    -0.246 OA
BRANCH  30  32
ATOM     32  C   UNL A   1      34.399  33.551  28.625  1.00  0.00     0.060 A 
ATOM     33  C   UNL A   1      34.230  32.260  29.149  1.00  0.00     0.016 A 
ATOM     34  C   UNL A   1      35.677  34.082  28.451  1.00  0.00     0.016 A 
ATOM     35  C   UNL A   1      35.340  31.522  29.560  1.00  0.00     0.010 A 
ATOM     36  C   UNL A   1      36.787  33.352  28.887  1.00  0.00     0.010 A 
ATOM     37  C   UNL A   1      36.616  32.092  29.491  1.00  0.00    -0.014 A 
BRANCH  37  38
ATOM     38  C   UNL A   1      37.724  31.502  30.281  1.00  0.00     0.031 A 
ATOM     39  C   UNL A   1      38.613  30.494  29.599  1.00  0.00     0.074 A 
ATOM     40  C   UNL A   1      37.964  31.862  31.552  1.00  0.00     0.049 A 
ATOM     41  N   UNL A   1      39.607  29.795  30.081  1.00  0.00    -0.248 NA
ATOM     42  C   UNL A   1      38.331  30.240  28.176  1.00  0.00     0.031 C 
ATOM     43  C   UNL A   1      37.220  32.867  32.306  1.00  0.00     0.029 A 
ATOM     44  N   UNL A   1      38.913  31.409  32.436  1.00  0.00    -0.354 N 
ATOM     45  C   UNL A   1      40.063  29.016  29.024  1.00  0.00     0.074 A 
ATOM     46  C   UNL A   1      39.211  29.295  27.890  1.00  0.00     0.031 C 
ATOM     47  C   UNL A   1      37.736  32.951  33.545  1.00  0.00     0.029 A 
ATOM     48  C   UNL A   1      38.821  31.981  33.681  1.00  0.00     0.049 A 
ATOM     49  H   UNL A   1      39.593  30.739  32.199  1.00  0.00     0.167 HD
ATOM     50  C   UNL A   1      41.106  28.153  28.995  1.00  0.00     0.037 A 
ATOM     51  C   UNL A   1      39.524  31.731  34.803  1.00  0.00     0.037 A 
ATOM     52  C   UNL A   1      41.945  27.867  30.129  1.00  0.00     0.049 A 
ATOM     53  C   UNL A   1      40.616  30.691  34.777  1.00  0.00     0.074 A 
ATOM     54  C   UNL A   1      43.024  27.004  30.208  1.00  0.00     0.029 A 
ATOM     55  N   UNL A   1      41.791  28.432  31.385  1.00  0.00    -0.354 N 
ATOM     56  N   UNL A   1      41.047  29.963  33.775  1.00  0.00    -0.248 NA
ATOM     57  C   UNL A   1      41.323  30.443  36.043  1.00  0.00     0.031 C 
ATOM     58  C   UNL A   1      43.486  27.005  31.528  1.00  0.00     0.029 A 
ATOM     59  C   UNL A   1      42.740  27.919  32.255  1.00  0.00     0.049 A 
ATOM     60  H   UNL A   1      41.107  29.100  31.625  1.00  0.00     0.167 HD
ATOM     61  C   UNL A   1      42.100  29.206  34.277  1.00  0.00     0.074 A 
ATOM     62  C   UNL A   1      42.245  29.567  35.671  1.00  0.00     0.031 C 
ATOM     63  C   UNL A   1      42.881  28.298  33.638  1.00  0.00     0.037 A 
BRANCH  50  64
ATOM     64  C   UNL A   1      41.365  27.434  27.702  1.00  0.00     0.057 A 
ATOM     65  C   UNL A   1      40.882  26.141  27.459  1.00  0.00     0.134 A 
ATOM     66  C   UNL A   1      42.111  28.042  26.685  1.00  0.00     0.134 A 
ATOM     67  F   UNL A   1      40.174  25.492  28.397  1.00  0.00    -0.206 F 
ATOM     68  C   UNL A   1      41.163  25.465  26.270  1.00  0.00     0.040 A 
ATOM     69  C   UNL A   1      42.371  27.391  25.478  1.00  0.00     0.040 A 
ATOM     70  F   UNL A   1      42.602  29.280  26.847  1.00  0.00    -0.206 F 
ATOM     71  C   UNL A   1      41.906  26.094  25.272  1.00  0.00     0.006 A 
ENDBRANCH  50  64
BRANCH  51  72
ATOM     72  C   UNL A   1      39.224  32.476  36.054  1.00  0.00     0.057 A 
ATOM     73  C   UNL A   1      39.793  33.730  36.303  1.00  0.00     0.134 A 
ATOM     74  C   UNL A   1      38.386  31.943  37.040  1.00  0.00     0.134 A 
ATOM     75  F   UNL A   1      40.626  34.283  35.408  1.00  0.00    -0.206 F 
ATOM     76  C   UNL A   1      39.556  34.418  37.494  1.00  0.00     0.040 A 
ATOM     77  C   UNL A   1      38.118  32.632  38.224  1.00  0.00     0.040 A 
ATOM     78  F   UNL A   1      37.810  30.744  36.865  1.00  0.00    -0.206 F 
ATOM     79  C   UNL A   1      38.711  33.872  38.457  1.00  0.00     0.006 A 
ENDBRANCH  51  72
BRANCH  63  80
ATOM     80  C   UNL A   1      44.007  27.679  34.421  1.00  0.00     0.057 A 
ATOM     81  C   UNL A   1      45.259  28.294  34.546  1.00  0.00     0.134 A 
ATOM     82  C   UNL A   1      43.817  26.464  35.092  1.00  0.00     0.134 A 
ATOM     83  F   UNL A   1      45.513  29.455  33.925  1.00  0.00    -0.206 F 
ATOM     84  C   UNL A   1      46.289  27.708  35.285  1.00  0.00     0.040 A 
ATOM     85  C   UNL A   1      44.828  25.884  35.859  1.00  0.00     0.040 A 
ATOM     86  F   UNL A   1      42.639  25.825  35.026  1.00  0.00    -0.206 F 
ATOM     87  C   UNL A   1      46.073  26.502  35.950  1.00  0.00     0.006 A 
ENDBRANCH  63  80
ENDBRANCH  37  38
ENDBRANCH  30  32
ENDBRANCH  29  30
ENDBRANCH  28  29
ENDBRANCH  27  28
ENDBRANCH  26  27
ENDBRANCH  25  26
ENDBRANCH  24  25
ENDBRANCH  23  24
ENDBRANCH   1  23
TORSDOF 24
ENDMDL
MODEL 3
REMARK VINA RESULT:      -8.3      4.474      6.798
REMARK SMILES C[NH2+]C[C@H](C)C(=O)N1CCC[C@@H]1C(=O)OCCOCCOCCOCCOC(=O)c1ccc(-c2c3nc(c(-c4c(F)cccc4F)c4ccc([nH]4)c(-c4c(F)cccc4F)c4nc(c(-c5c(F)cccc5F)c5ccc2[nH]5)C=C4)C=C3)cc1
REMARK SMILES IDX 20 1 19 2 18 3 17 4 16 5 15 6 13 7 14 8 12 9 8 10 9 11 10 12
REMARK SMILES IDX 11 13 6 14 7 15 4 16 5 17 3 18 2 19 1 20 21 23 22 24 23 25
REMARK SMILES IDX 24 26 25 27 26 28 27 29 28 30 29 31 30 32 31 33 83 34 32 35
REMARK SMILES IDX 82 36 33 37 34 38 35 39 76 40 36 41 81 42 75 43 77 44 37 45
REMARK SMILES IDX 80 46 74 47 73 48 38 50 64 51 47 52 63 53 48 54 51 55 62 56
REMARK SMILES IDX 78 57 49 58 50 59 61 61 79 62 52 63 39 64 40 65 45 66 41 67
REMARK SMILES IDX 42 68 44 69 46 70 43 71 65 72 66 73 71 74 67 75 68 76 70 77
REMARK SMILES IDX 72 78 69 79 53 80 54 81 59 82 55 83 56 84 58 85 60 86 57 87
REMARK H PARENT 2 21 2 22 77 49 51 60
REMARK Flexibility Score: inf
ROOT
ATOM      1  C   UNL A   1      35.190  31.800  28.086  1.00  0.00     0.188 C 
ENDROOT
BRANCH   1   2
ATOM      2  C   UNL A   1      34.948  30.457  27.387  1.00  0.00     0.188 C 
BRANCH   2   3
ATOM      3  O   UNL A   1      33.621  30.309  26.919  1.00  0.00    -0.376 OA
BRANCH   3   4
ATOM      4  C   UNL A   1      33.392  29.480  25.796  1.00  0.00     0.202 C 
BRANCH   4   5
ATOM      5  C   UNL A   1      31.981  28.957  25.474  1.00  0.00     0.261 C 
BRANCH   5   6
ATOM      6  O   UNL A   1      31.781  27.571  25.136  1.00  0.00    -0.462 OA
BRANCH   6   7
ATOM      7  C   UNL A   1      31.299  26.717  26.068  1.00  0.00     0.328 C 
ATOM      8  O   UNL A   1      31.603  26.790  27.253  1.00  0.00    -0.250 OA
BRANCH   7   9
ATOM      9  C   UNL A   1      30.479  25.561  25.442  1.00  0.00     0.195 C 
ATOM     10  N   UNL A   1      31.368  24.656  24.718  1.00  0.00    -0.328 N 
ATOM     11  C   UNL A   1      30.674  24.083  23.585  1.00  0.00     0.120 C 
ATOM     12  C   UNL A   1      29.754  25.186  23.127  1.00  0.00     0.024 C 
ATOM     13  C   UNL A   1      29.386  25.914  24.415  1.00  0.00     0.039 C 
BRANCH  10  14
ATOM     14  C   UNL A   1      32.365  23.992  25.390  1.00  0.00     0.231 C 
ATOM     15  O   UNL A   1      32.177  23.485  26.495  1.00  0.00    -0.274 OA
BRANCH  14  16
ATOM     16  C   UNL A   1      33.754  24.009  24.755  1.00  0.00     0.130 C 
ATOM     17  C   UNL A   1      34.816  24.534  25.714  1.00  0.00     0.024 C 
BRANCH  16  18
ATOM     18  C   UNL A   1      34.182  22.656  24.140  1.00  0.00     0.273 C 
BRANCH  18  19
ATOM     19  N   UNL A   1      33.307  21.493  24.310  1.00  0.00    -0.348 N 
ATOM     20  C   UNL A   1      33.897  20.388  25.055  1.00  0.00     0.330 C 
ATOM     21  H   UNL A   1      32.469  21.797  24.805  1.00  0.00     0.346 HD
ATOM     22  H   UNL A   1      33.116  21.138  23.373  1.00  0.00     0.346 HD
ENDBRANCH  18  19
ENDBRANCH  16  18
ENDBRANCH  14  16
ENDBRANCH  10  14
ENDBRANCH   7   9
ENDBRANCH   6   7
ENDBRANCH   5   6
ENDBRANCH   4   5
ENDBRANCH   3   4
ENDBRANCH   2   3
ENDBRANCH   1   2
BRANCH   1  23
ATOM     23  O   UNL A   1      34.072  32.374  28.745  1.00  0.00    -0.377 OA
BRANCH  23  24
ATOM     24  C   UNL A   1      33.883  33.787  28.744  1.00  0.00     0.188 C 
BRANCH  24  25
ATOM     25  C   UNL A   1      34.207  34.652  29.979  1.00  0.00     0.188 C 
BRANCH  25  26
ATOM     26  O   UNL A   1      33.752  34.116  31.208  1.00  0.00    -0.376 OA
BRANCH  26  27
ATOM     27  C   UNL A   1      34.274  34.640  32.415  1.00  0.00     0.202 C 
BRANCH  27  28
ATOM     28  C   UNL A   1      34.883  33.668  33.439  1.00  0.00     0.261 C 
BRANCH  28  29
ATOM     29  O   UNL A   1      36.134  33.049  33.099  1.00  0.00    -0.460 OA
BRANCH  29  30
ATOM     30  C   UNL A   1      36.107  31.890  32.403  1.00  0.00     0.338 C 
ATOM     31  O   UNL A   1      35.142  31.200  32.158  1.00  0.00    -0.246 OA
BRANCH  30  32
ATOM     32  C   UNL A   1      37.451  31.697  31.807  1.00  0.00     0.060 A 
ATOM     33  C   UNL A   1      37.659  32.044  30.463  1.00  0.00     0.016 A 
ATOM     34  C   UNL A   1      38.491  31.162  32.568  1.00  0.00     0.016 A 
ATOM     35  C   UNL A   1      38.892  31.795  29.860  1.00  0.00     0.010 A 
ATOM     36  C   UNL A   1      39.718  30.890  31.956  1.00  0.00     0.010 A 
ATOM     37  C   UNL A   1      39.904  31.158  30.588  1.00  0.00    -0.014 A 
BRANCH  37  38
ATOM     38  C   UNL A   1      41.039  30.533  29.865  1.00  0.00     0.031 A 
ATOM     39  C   UNL A   1      42.242  31.391  29.573  1.00  0.00     0.074 A 
ATOM     40  C   UNL A   1      41.029  29.239  29.504  1.00  0.00     0.049 A 
ATOM     41  N   UNL A   1      43.333  31.104  28.911  1.00  0.00    -0.248 NA
ATOM     42  C   UNL A   1      42.199  32.767  30.097  1.00  0.00     0.031 C 
ATOM     43  C   UNL A   1      39.957  28.288  29.781  1.00  0.00     0.029 A 
ATOM     44  N   UNL A   1      41.965  28.506  28.816  1.00  0.00    -0.354 N 
ATOM     45  C   UNL A   1      44.101  32.263  28.935  1.00  0.00     0.074 A 
ATOM     46  C   UNL A   1      43.334  33.268  29.637  1.00  0.00     0.031 C 
ATOM     47  C   UNL A   1      40.291  27.094  29.260  1.00  0.00     0.029 A 
ATOM     48  C   UNL A   1      41.582  27.208  28.583  1.00  0.00     0.049 A 
ATOM     49  H   UNL A   1      42.826  28.876  28.518  1.00  0.00     0.167 HD
ATOM     50  C   UNL A   1      45.340  32.470  28.430  1.00  0.00     0.037 A 
ATOM     51  C   UNL A   1      42.200  26.234  27.886  1.00  0.00     0.037 A 
ATOM     52  C   UNL A   1      46.096  31.472  27.721  1.00  0.00     0.049 A 
ATOM     53  C   UNL A   1      43.534  26.516  27.243  1.00  0.00     0.074 A 
ATOM     54  C   UNL A   1      47.357  31.581  27.162  1.00  0.00     0.029 A 
ATOM     55  N   UNL A   1      45.654  30.183  27.466  1.00  0.00    -0.354 N 
ATOM     56  N   UNL A   1      44.258  27.610  27.274  1.00  0.00    -0.248 NA
ATOM     57  C   UNL A   1      44.140  25.422  26.470  1.00  0.00     0.031 C 
ATOM     58  C   UNL A   1      47.654  30.375  26.519  1.00  0.00     0.029 A 
ATOM     59  C   UNL A   1      46.608  29.492  26.736  1.00  0.00     0.049 A 
ATOM     60  H   UNL A   1      44.790  29.813  27.760  1.00  0.00     0.167 HD
ATOM     61  C   UNL A   1      45.419  27.322  26.565  1.00  0.00     0.074 A 
ATOM     62  C   UNL A   1      45.305  25.949  26.120  1.00  0.00     0.031 C 
ATOM     63  C   UNL A   1      46.487  28.120  26.311  1.00  0.00     0.037 A 
BRANCH  50  64
ATOM     64  C   UNL A   1      45.928  33.842  28.598  1.00  0.00     0.057 A 
ATOM     65  C   UNL A   1      46.722  34.182  29.702  1.00  0.00     0.134 A 
ATOM     66  C   UNL A   1      45.693  34.840  27.644  1.00  0.00     0.134 A 
ATOM     67  F   UNL A   1      46.973  33.279  30.663  1.00  0.00    -0.206 F 
ATOM     68  C   UNL A   1      47.229  35.472  29.870  1.00  0.00     0.040 A 
ATOM     69  C   UNL A   1      46.222  36.124  27.783  1.00  0.00     0.040 A 
ATOM     70  F   UNL A   1      44.944  34.585  26.560  1.00  0.00    -0.206 F 
ATOM     71  C   UNL A   1      46.983  36.447  28.904  1.00  0.00     0.006 A 
ENDBRANCH  50  64
BRANCH  51  72
ATOM     72  C   UNL A   1      41.570  24.894  27.756  1.00  0.00     0.057 A 
ATOM     73  C   UNL A   1      42.010  23.810  28.523  1.00  0.00     0.134 A 
ATOM     74  C   UNL A   1      40.534  24.658  26.844  1.00  0.00     0.134 A 
ATOM     75  F   UNL A   1      43.018  23.966  29.396  1.00  0.00    -0.206 F 
ATOM     76  C   UNL A   1      41.458  22.537  28.376  1.00  0.00     0.040 A 
ATOM     77  C   UNL A   1      39.953  23.396  26.706  1.00  0.00     0.040 A 
ATOM     78  F   UNL A   1      40.067  25.654  26.076  1.00  0.00    -0.206 F 
ATOM     79  C   UNL A   1      40.422  22.328  27.469  1.00  0.00     0.006 A 
ENDBRANCH  51  72
BRANCH  63  80
ATOM     80  C   UNL A   1      47.648  27.511  25.573  1.00  0.00     0.057 A 
ATOM     81  C   UNL A   1      48.752  26.961  26.237  1.00  0.00     0.134 A 
ATOM     82  C   UNL A   1      47.639  27.443  24.174  1.00  0.00     0.134 A 
ATOM     83  F   UNL A   1      48.830  26.999  27.575  1.00  0.00    -0.206 F 
ATOM     84  C   UNL A   1      49.817  26.392  25.534  1.00  0.00     0.040 A 
ATOM     85  C   UNL A   1      48.681  26.848  23.462  1.00  0.00     0.040 A 
ATOM     86  F   UNL A   1      46.607  27.938  23.473  1.00  0.00    -0.206 F 
ATOM     87  C   UNL A   1      49.780  26.329  24.143  1.00  0.00     0.006 A 
ENDBRANCH  63  80
ENDBRANCH  37  38
ENDBRANCH  30  32
ENDBRANCH  29  30
ENDBRANCH  28  29
ENDBRANCH  27  28
ENDBRANCH  26  27
ENDBRANCH  25  26
ENDBRANCH  24  25
ENDBRANCH  23  24
ENDBRANCH   1  23
TORSDOF 24
ENDMDL
