MODEL 1
REMARK VINA RESULT:      -9.9      0.000      0.000
REMARK SMILES Cc1nc2ncnn2c(O)c1CCC(=O)OCCOCCOCCOCCOC(=O)c1ccc(-c2c3nc(c(-c4c(F)cccc4F)c4ccc([nH]4)c(-c4c(F)cccc4F)c4nc(c(-c5c(F)cccc5F)c5ccc2[nH]5)C=C4)C=C3)cc1
REMARK SMILES IDX 21 1 20 2 19 3 18 4 17 5 16 6 14 7 15 8 13 9 12 10 11 11
REMARK SMILES IDX 1 12 2 13 3 14 4 15 9 16 5 17 8 18 6 19 7 20 10 21 22 23
REMARK SMILES IDX 23 24 24 25 25 26 26 27 27 28 28 29 29 30 30 31 31 32 32 33
REMARK SMILES IDX 84 34 33 35 83 36 34 37 35 38 36 39 77 40 37 41 82 42 76 43
REMARK SMILES IDX 78 44 38 45 81 46 75 47 74 48 39 50 65 51 48 52 64 53 49 54
REMARK SMILES IDX 52 55 63 56 79 57 50 58 51 59 62 61 80 62 53 63 40 64 41 65
REMARK SMILES IDX 46 66 42 67 43 68 45 69 47 70 44 71 66 72 67 73 72 74 68 75
REMARK SMILES IDX 69 76 71 77 73 78 70 79 54 80 55 81 60 82 56 83 57 84 59 85
REMARK SMILES IDX 61 86 58 87
REMARK H PARENT 10 22 78 49 52 60
REMARK Flexibility Score: inf
ROOT
ATOM      1  C   UNL A   1      37.396  23.639  25.707  1.00  0.00     0.188 C 
ENDROOT
BRANCH   1   2
ATOM      2  C   UNL A   1      35.940  24.061  25.489  1.00  0.00     0.188 C 
BRANCH   2   3
ATOM      3  O   UNL A   1      34.929  23.083  25.656  1.00  0.00    -0.376 OA
BRANCH   3   4
ATOM      4  C   UNL A   1      34.344  22.810  26.923  1.00  0.00     0.202 C 
BRANCH   4   5
ATOM      5  C   UNL A   1      32.831  22.627  27.011  1.00  0.00     0.261 C 
BRANCH   5   6
ATOM      6  O   UNL A   1      32.129  23.861  26.718  1.00  0.00    -0.463 OA
BRANCH   6   7
ATOM      7  C   UNL A   1      30.783  23.833  26.840  1.00  0.00     0.306 C 
ATOM      8  O   UNL A   1      30.181  23.042  27.556  1.00  0.00    -0.252 OA
BRANCH   7   9
ATOM      9  C   UNL A   1      30.059  24.821  25.940  1.00  0.00     0.128 C 
BRANCH   9  10
ATOM     10  C   UNL A   1      30.583  25.246  24.554  1.00  0.00     0.055 C 
BRANCH  10  11
ATOM     11  C   UNL A   1      30.175  26.573  23.922  1.00  0.00     0.036 A 
ATOM     12  C   UNL A   1      32.712  27.051  23.410  1.00  0.00     0.067 C 
ATOM     13  C   UNL A   1      31.268  27.516  23.397  1.00  0.00     0.050 A 
ATOM     14  N   UNL A   1      31.081  28.691  22.872  1.00  0.00    -0.216 NA
ATOM     15  C   UNL A   1      29.800  29.104  22.712  1.00  0.00     0.255 A 
ATOM     16  C   UNL A   1      28.927  27.023  23.639  1.00  0.00     0.220 A 
ATOM     17  N   UNL A   1      29.342  30.230  22.208  1.00  0.00    -0.197 NA
ATOM     18  N   UNL A   1      28.732  28.282  23.047  1.00  0.00    -0.163 N 
ATOM     19  C   UNL A   1      27.993  30.059  22.230  1.00  0.00     0.249 A 
ATOM     20  N   UNL A   1      27.564  28.899  22.720  1.00  0.00    -0.150 NA
BRANCH  16  21
ATOM     21  O   UNL A   1      27.771  26.317  23.883  1.00  0.00    -0.493 OA
ATOM     22  H   UNL A   1      27.223  26.550  24.607  1.00  0.00     0.295 HD
ENDBRANCH  16  21
ENDBRANCH  10  11
ENDBRANCH   9  10
ENDBRANCH   7   9
ENDBRANCH   6   7
ENDBRANCH   5   6
ENDBRANCH   4   5
ENDBRANCH   3   4
ENDBRANCH   2   3
ENDBRANCH   1   2
BRANCH   1  23
ATOM     23  O   UNL A   1      37.960  22.606  24.931  1.00  0.00    -0.377 OA
BRANCH  23  24
ATOM     24  C   UNL A   1      38.255  21.388  25.586  1.00  0.00     0.188 C 
BRANCH  24  25
ATOM     25  C   UNL A   1      39.601  21.376  26.333  1.00  0.00     0.188 C 
BRANCH  25  26
ATOM     26  O   UNL A   1      40.641  22.322  26.076  1.00  0.00    -0.376 OA
BRANCH  26  27
ATOM     27  C   UNL A   1      41.719  22.521  26.978  1.00  0.00     0.202 C 
BRANCH  27  28
ATOM     28  C   UNL A   1      42.692  23.650  26.620  1.00  0.00     0.261 C 
BRANCH  28  29
ATOM     29  O   UNL A   1      42.220  24.932  27.006  1.00  0.00    -0.460 OA
BRANCH  29  30
ATOM     30  C   UNL A   1      41.856  25.707  25.979  1.00  0.00     0.338 C 
ATOM     31  O   UNL A   1      42.402  25.787  24.863  1.00  0.00    -0.246 OA
BRANCH  30  32
ATOM     32  C   UNL A   1      40.762  26.583  26.382  1.00  0.00     0.060 A 
ATOM     33  C   UNL A   1      40.918  27.932  26.059  1.00  0.00     0.016 A 
ATOM     34  C   UNL A   1      39.899  26.141  27.397  1.00  0.00     0.016 A 
ATOM     35  C   UNL A   1      40.512  28.853  26.989  1.00  0.00     0.010 A 
ATOM     36  C   UNL A   1      39.507  27.059  28.334  1.00  0.00     0.010 A 
ATOM     37  C   UNL A   1      39.950  28.371  28.173  1.00  0.00    -0.014 A 
BRANCH  37  38
ATOM     38  C   UNL A   1      40.044  29.231  29.328  1.00  0.00     0.031 A 
ATOM     39  C   UNL A   1      38.904  30.134  29.536  1.00  0.00     0.074 A 
ATOM     40  C   UNL A   1      41.074  29.101  30.185  1.00  0.00     0.049 A 
ATOM     41  N   UNL A   1      38.904  31.423  29.567  1.00  0.00    -0.248 NA
ATOM     42  C   UNL A   1      37.574  29.515  29.621  1.00  0.00     0.031 C 
ATOM     43  C   UNL A   1      42.074  28.027  30.247  1.00  0.00     0.029 A 
ATOM     44  N   UNL A   1      41.360  29.849  31.280  1.00  0.00    -0.354 N 
ATOM     45  C   UNL A   1      37.593  31.779  29.848  1.00  0.00     0.074 A 
ATOM     46  C   UNL A   1      36.794  30.588  29.719  1.00  0.00     0.031 C 
ATOM     47  C   UNL A   1      42.684  28.068  31.453  1.00  0.00     0.029 A 
ATOM     48  C   UNL A   1      42.193  29.221  32.189  1.00  0.00     0.049 A 
ATOM     49  H   UNL A   1      41.007  30.758  31.415  1.00  0.00     0.167 HD
ATOM     50  C   UNL A   1      37.272  32.982  30.391  1.00  0.00     0.037 A 
ATOM     51  C   UNL A   1      42.338  29.569  33.490  1.00  0.00     0.037 A 
ATOM     52  C   UNL A   1      38.319  33.953  30.243  1.00  0.00     0.049 A 
ATOM     53  C   UNL A   1      41.831  30.963  33.641  1.00  0.00     0.074 A 
ATOM     54  C   UNL A   1      38.978  34.493  29.154  1.00  0.00     0.029 A 
ATOM     55  N   UNL A   1      39.098  34.251  31.335  1.00  0.00    -0.354 N 
ATOM     56  N   UNL A   1      42.409  32.019  33.133  1.00  0.00    -0.248 NA
ATOM     57  C   UNL A   1      40.425  31.134  33.985  1.00  0.00     0.031 C 
ATOM     58  C   UNL A   1      40.328  34.653  29.580  1.00  0.00     0.029 A 
ATOM     59  C   UNL A   1      40.401  34.224  30.905  1.00  0.00     0.049 A 
ATOM     60  H   UNL A   1      38.782  34.447  32.246  1.00  0.00     0.167 HD
ATOM     61  C   UNL A   1      41.366  32.843  32.728  1.00  0.00     0.074 A 
ATOM     62  C   UNL A   1      40.174  32.286  33.358  1.00  0.00     0.031 C 
ATOM     63  C   UNL A   1      41.506  33.725  31.693  1.00  0.00     0.037 A 
BRANCH  50  64
ATOM     64  C   UNL A   1      36.111  33.150  31.317  1.00  0.00     0.057 A 
ATOM     65  C   UNL A   1      35.061  34.014  30.983  1.00  0.00     0.134 A 
ATOM     66  C   UNL A   1      36.102  32.655  32.639  1.00  0.00     0.134 A 
ATOM     67  F   UNL A   1      35.005  34.590  29.774  1.00  0.00    -0.206 F 
ATOM     68  C   UNL A   1      34.066  34.358  31.904  1.00  0.00     0.040 A 
ATOM     69  C   UNL A   1      35.084  32.942  33.545  1.00  0.00     0.040 A 
ATOM     70  F   UNL A   1      37.124  31.943  33.135  1.00  0.00    -0.206 F 
ATOM     71  C   UNL A   1      34.069  33.814  33.185  1.00  0.00     0.006 A 
ENDBRANCH  50  64
BRANCH  51  72
ATOM     72  C   UNL A   1      42.540  28.650  34.638  1.00  0.00     0.057 A 
ATOM     73  C   UNL A   1      41.747  27.506  34.797  1.00  0.00     0.134 A 
ATOM     74  C   UNL A   1      43.661  28.740  35.487  1.00  0.00     0.134 A 
ATOM     75  F   UNL A   1      40.691  27.295  34.000  1.00  0.00    -0.206 F 
ATOM     76  C   UNL A   1      42.049  26.515  35.743  1.00  0.00     0.040 A 
ATOM     77  C   UNL A   1      43.962  27.769  36.447  1.00  0.00     0.040 A 
ATOM     78  F   UNL A   1      44.557  29.729  35.364  1.00  0.00    -0.206 F 
ATOM     79  C   UNL A   1      43.160  26.644  36.571  1.00  0.00     0.006 A 
ENDBRANCH  51  72
BRANCH  63  80
ATOM     80  C   UNL A   1      42.882  33.959  31.131  1.00  0.00     0.057 A 
ATOM     81  C   UNL A   1      43.782  34.895  31.663  1.00  0.00     0.134 A 
ATOM     82  C   UNL A   1      43.385  33.078  30.167  1.00  0.00     0.134 A 
ATOM     83  F   UNL A   1      43.425  35.703  32.669  1.00  0.00    -0.206 F 
ATOM     84  C   UNL A   1      45.108  34.974  31.230  1.00  0.00     0.040 A 
ATOM     85  C   UNL A   1      44.718  33.126  29.748  1.00  0.00     0.040 A 
ATOM     86  F   UNL A   1      42.604  32.112  29.659  1.00  0.00    -0.206 F 
ATOM     87  C   UNL A   1      45.584  34.081  30.276  1.00  0.00     0.006 A 
ENDBRANCH  63  80
ENDBRANCH  37  38
ENDBRANCH  30  32
ENDBRANCH  29  30
ENDBRANCH  28  29
ENDBRANCH  27  28
ENDBRANCH  26  27
ENDBRANCH  25  26
ENDBRANCH  24  25
ENDBRANCH  23  24
ENDBRANCH   1  23
TORSDOF 23
ENDMDL
MODEL 2
REMARK VINA RESULT:      -9.9      4.273      8.509
REMARK SMILES Cc1nc2ncnn2c(O)c1CCC(=O)OCCOCCOCCOCCOC(=O)c1ccc(-c2c3nc(c(-c4c(F)cccc4F)c4ccc([nH]4)c(-c4c(F)cccc4F)c4nc(c(-c5c(F)cccc5F)c5ccc2[nH]5)C=C4)C=C3)cc1
REMARK SMILES IDX 21 1 20 2 19 3 18 4 17 5 16 6 14 7 15 8 13 9 12 10 11 11
REMARK SMILES IDX 1 12 2 13 3 14 4 15 9 16 5 17 8 18 6 19 7 20 10 21 22 23
REMARK SMILES IDX 23 24 24 25 25 26 26 27 27 28 28 29 29 30 30 31 31 32 32 33
REMARK SMILES IDX 84 34 33 35 83 36 34 37 35 38 36 39 77 40 37 41 82 42 76 43
REMARK SMILES IDX 78 44 38 45 81 46 75 47 74 48 39 50 65 51 48 52 64 53 49 54
REMARK SMILES IDX 52 55 63 56 79 57 50 58 51 59 62 61 80 62 53 63 40 64 41 65
REMARK SMILES IDX 46 66 42 67 43 68 45 69 47 70 44 71 66 72 67 73 72 74 68 75
REMARK SMILES IDX 69 76 71 77 73 78 70 79 54 80 55 81 60 82 56 83 57 84 59 85
REMARK SMILES IDX 61 86 58 87
REMARK H PARENT 10 22 78 49 52 60
REMARK Flexibility Score: inf
ROOT
ATOM      1  C   UNL A   1      34.402  28.679  26.751  1.00  0.00     0.188 C 
ENDROOT
BRANCH   1   2
ATOM      2  C   UNL A   1      33.733  27.455  26.118  1.00  0.00     0.188 C 
BRANCH   2   3
ATOM      3  O   UNL A   1      32.417  27.598  25.614  1.00  0.00    -0.376 OA
BRANCH   3   4
ATOM      4  C   UNL A   1      32.156  28.151  24.330  1.00  0.00     0.202 C 
BRANCH   4   5
ATOM      5  C   UNL A   1      31.737  27.216  23.197  1.00  0.00     0.261 C 
BRANCH   5   6
ATOM      6  O   UNL A   1      32.256  25.877  23.395  1.00  0.00    -0.463 OA
BRANCH   6   7
ATOM      7  C   UNL A   1      33.398  25.570  22.740  1.00  0.00     0.306 C 
ATOM      8  O   UNL A   1      33.652  25.945  21.602  1.00  0.00    -0.252 OA
BRANCH   7   9
ATOM      9  C   UNL A   1      34.318  24.635  23.508  1.00  0.00     0.128 C 
BRANCH   9  10
ATOM     10  C   UNL A   1      33.929  23.966  24.840  1.00  0.00     0.055 C 
BRANCH  10  11
ATOM     11  C   UNL A   1      33.565  22.486  24.910  1.00  0.00     0.036 A 
ATOM     12  C   UNL A   1      31.036  23.173  25.159  1.00  0.00     0.067 C 
ATOM     13  C   UNL A   1      32.097  22.090  25.135  1.00  0.00     0.050 A 
ATOM     14  N   UNL A   1      31.640  20.879  25.256  1.00  0.00    -0.216 NA
ATOM     15  C   UNL A   1      32.525  19.861  25.110  1.00  0.00     0.255 A 
ATOM     16  C   UNL A   1      34.361  21.411  24.685  1.00  0.00     0.220 A 
ATOM     17  N   UNL A   1      32.323  18.563  25.177  1.00  0.00    -0.197 NA
ATOM     18  N   UNL A   1      33.854  20.104  24.791  1.00  0.00    -0.163 N 
ATOM     19  C   UNL A   1      33.541  18.040  24.876  1.00  0.00     0.249 A 
ATOM     20  N   UNL A   1      34.505  18.922  24.626  1.00  0.00    -0.150 NA
BRANCH  16  21
ATOM     21  O   UNL A   1      35.689  21.486  24.332  1.00  0.00    -0.493 OA
ATOM     22  H   UNL A   1      36.354  21.323  24.973  1.00  0.00     0.295 HD
ENDBRANCH  16  21
ENDBRANCH  10  11
ENDBRANCH   9  10
ENDBRANCH   7   9
ENDBRANCH   6   7
ENDBRANCH   5   6
ENDBRANCH   4   5
ENDBRANCH   3   4
ENDBRANCH   2   3
ENDBRANCH   1   2
BRANCH   1  23
ATOM     23  O   UNL A   1      33.678  29.507  27.633  1.00  0.00    -0.377 OA
BRANCH  23  24
ATOM     24  C   UNL A   1      33.400  30.826  27.208  1.00  0.00     0.188 C 
BRANCH  24  25
ATOM     25  C   UNL A   1      34.327  31.898  27.809  1.00  0.00     0.188 C 
BRANCH  25  26
ATOM     26  O   UNL A   1      33.839  33.113  28.382  1.00  0.00    -0.376 OA
BRANCH  26  27
ATOM     27  C   UNL A   1      34.442  33.703  29.524  1.00  0.00     0.202 C 
BRANCH  27  28
ATOM     28  C   UNL A   1      34.763  32.750  30.680  1.00  0.00     0.261 C 
BRANCH  28  29
ATOM     29  O   UNL A   1      36.143  32.433  30.772  1.00  0.00    -0.460 OA
BRANCH  29  30
ATOM     30  C   UNL A   1      36.392  31.124  30.874  1.00  0.00     0.338 C 
ATOM     31  O   UNL A   1      36.013  30.351  31.774  1.00  0.00    -0.246 OA
BRANCH  30  32
ATOM     32  C   UNL A   1      37.309  30.709  29.818  1.00  0.00     0.060 A 
ATOM     33  C   UNL A   1      37.075  29.443  29.277  1.00  0.00     0.016 A 
ATOM     34  C   UNL A   1      38.553  31.353  29.730  1.00  0.00     0.016 A 
ATOM     35  C   UNL A   1      38.168  28.670  28.991  1.00  0.00     0.010 A 
ATOM     36  C   UNL A   1      39.646  30.575  29.458  1.00  0.00     0.010 A 
ATOM     37  C   UNL A   1      39.429  29.216  29.236  1.00  0.00    -0.014 A 
BRANCH  37  38
ATOM     38  C   UNL A   1      40.501  28.282  29.477  1.00  0.00     0.031 A 
ATOM     39  C   UNL A   1      40.950  28.185  30.873  1.00  0.00     0.074 A 
ATOM     40  C   UNL A   1      40.951  27.496  28.481  1.00  0.00     0.049 A 
ATOM     41  N   UNL A   1      42.124  28.429  31.351  1.00  0.00    -0.248 NA
ATOM     42  C   UNL A   1      39.927  27.871  31.879  1.00  0.00     0.031 C 
ATOM     43  C   UNL A   1      40.357  27.282  27.155  1.00  0.00     0.029 A 
ATOM     44  N   UNL A   1      41.978  26.610  28.503  1.00  0.00    -0.354 N 
ATOM     45  C   UNL A   1      42.033  28.133  32.703  1.00  0.00     0.074 A 
ATOM     46  C   UNL A   1      40.636  27.946  33.003  1.00  0.00     0.031 C 
ATOM     47  C   UNL A   1      40.887  26.161  26.615  1.00  0.00     0.029 A 
ATOM     48  C   UNL A   1      41.917  25.653  27.505  1.00  0.00     0.049 A 
ATOM     49  H   UNL A   1      42.702  26.645  29.169  1.00  0.00     0.167 HD
ATOM     50  C   UNL A   1      43.126  27.836  33.452  1.00  0.00     0.037 A 
ATOM     51  C   UNL A   1      42.577  24.470  27.512  1.00  0.00     0.037 A 
ATOM     52  C   UNL A   1      44.350  28.265  32.837  1.00  0.00     0.049 A 
ATOM     53  C   UNL A   1      43.687  24.581  28.500  1.00  0.00     0.074 A 
ATOM     54  C   UNL A   1      44.832  29.490  32.415  1.00  0.00     0.029 A 
ATOM     55  N   UNL A   1      45.148  27.323  32.235  1.00  0.00    -0.354 N 
ATOM     56  N   UNL A   1      44.737  25.344  28.350  1.00  0.00    -0.248 NA
ATOM     57  C   UNL A   1      43.409  24.177  29.873  1.00  0.00     0.031 C 
ATOM     58  C   UNL A   1      45.563  29.210  31.225  1.00  0.00     0.029 A 
ATOM     59  C   UNL A   1      45.501  27.833  31.011  1.00  0.00     0.049 A 
ATOM     60  H   UNL A   1      45.416  26.453  32.610  1.00  0.00     0.167 HD
ATOM     61  C   UNL A   1      45.013  25.836  29.620  1.00  0.00     0.074 A 
ATOM     62  C   UNL A   1      44.218  25.014  30.527  1.00  0.00     0.031 C 
ATOM     63  C   UNL A   1      45.628  27.042  29.807  1.00  0.00     0.037 A 
BRANCH  50  64
ATOM     64  C   UNL A   1      43.065  26.882  34.602  1.00  0.00     0.057 A 
ATOM     65  C   UNL A   1      43.189  25.505  34.384  1.00  0.00     0.134 A 
ATOM     66  C   UNL A   1      42.663  27.265  35.899  1.00  0.00     0.134 A 
ATOM     67  F   UNL A   1      43.507  25.028  33.172  1.00  0.00    -0.206 F 
ATOM     68  C   UNL A   1      42.932  24.572  35.393  1.00  0.00     0.040 A 
ATOM     69  C   UNL A   1      42.464  26.348  36.929  1.00  0.00     0.040 A 
ATOM     70  F   UNL A   1      42.360  28.536  36.200  1.00  0.00    -0.206 F 
ATOM     71  C   UNL A   1      42.580  24.992  36.672  1.00  0.00     0.006 A 
ENDBRANCH  50  64
BRANCH  51  72
ATOM     72  C   UNL A   1      42.078  23.172  26.994  1.00  0.00     0.057 A 
ATOM     73  C   UNL A   1      42.936  22.272  26.347  1.00  0.00     0.134 A 
ATOM     74  C   UNL A   1      40.801  22.672  27.316  1.00  0.00     0.134 A 
ATOM     75  F   UNL A   1      44.193  22.628  26.048  1.00  0.00    -0.206 F 
ATOM     76  C   UNL A   1      42.547  20.960  26.039  1.00  0.00     0.040 A 
ATOM     77  C   UNL A   1      40.393  21.374  26.998  1.00  0.00     0.040 A 
ATOM     78  F   UNL A   1      39.925  23.395  28.030  1.00  0.00    -0.206 F 
ATOM     79  C   UNL A   1      41.273  20.507  26.365  1.00  0.00     0.006 A 
ENDBRANCH  51  72
BRANCH  63  80
ATOM     80  C   UNL A   1      46.212  27.743  28.610  1.00  0.00     0.057 A 
ATOM     81  C   UNL A   1      47.510  27.501  28.136  1.00  0.00     0.134 A 
ATOM     82  C   UNL A   1      45.378  28.520  27.799  1.00  0.00     0.134 A 
ATOM     83  F   UNL A   1      48.342  26.679  28.786  1.00  0.00    -0.206 F 
ATOM     84  C   UNL A   1      47.968  28.038  26.929  1.00  0.00     0.040 A 
ATOM     85  C   UNL A   1      45.813  29.036  26.574  1.00  0.00     0.040 A 
ATOM     86  F   UNL A   1      44.102  28.739  28.153  1.00  0.00    -0.206 F 
ATOM     87  C   UNL A   1      47.115  28.800  26.138  1.00  0.00     0.006 A 
ENDBRANCH  63  80
ENDBRANCH  37  38
ENDBRANCH  30  32
ENDBRANCH  29  30
ENDBRANCH  28  29
ENDBRANCH  27  28
ENDBRANCH  26  27
ENDBRANCH  25  26
ENDBRANCH  24  25
ENDBRANCH  23  24
ENDBRANCH   1  23
TORSDOF 23
ENDMDL
MODEL 3
REMARK VINA RESULT:      -9.8      4.162      8.154
REMARK SMILES Cc1nc2ncnn2c(O)c1CCC(=O)OCCOCCOCCOCCOC(=O)c1ccc(-c2c3nc(c(-c4c(F)cccc4F)c4ccc([nH]4)c(-c4c(F)cccc4F)c4nc(c(-c5c(F)cccc5F)c5ccc2[nH]5)C=C4)C=C3)cc1
REMARK SMILES IDX 21 1 20 2 19 3 18 4 17 5 16 6 14 7 15 8 13 9 12 10 11 11
REMARK SMILES IDX 1 12 2 13 3 14 4 15 9 16 5 17 8 18 6 19 7 20 10 21 22 23
REMARK SMILES IDX 23 24 24 25 25 26 26 27 27 28 28 29 29 30 30 31 31 32 32 33
REMARK SMILES IDX 84 34 33 35 83 36 34 37 35 38 36 39 77 40 37 41 82 42 76 43
REMARK SMILES IDX 78 44 38 45 81 46 75 47 74 48 39 50 65 51 48 52 64 53 49 54
REMARK SMILES IDX 52 55 63 56 79 57 50 58 51 59 62 61 80 62 53 63 40 64 41 65
REMARK SMILES IDX 46 66 42 67 43 68 45 69 47 70 44 71 66 72 67 73 72 74 68 75
REMARK SMILES IDX 69 76 71 77 73 78 70 79 54 80 55 81 60 82 56 83 57 84 59 85
REMARK SMILES IDX 61 86 58 87
REMARK H PARENT 10 22 78 49 52 60
REMARK Flexibility Score: inf
ROOT
ATOM      1  C   UNL A   1      38.956  22.050  25.721  1.00  0.00     0.188 C 
ENDROOT
BRANCH   1   2
ATOM      2  C   UNL A   1      37.428  22.155  25.743  1.00  0.00     0.188 C 
BRANCH   2   3
ATOM      3  O   UNL A   1      36.762  22.455  24.530  1.00  0.00    -0.376 OA
BRANCH   3   4
ATOM      4  C   UNL A   1      35.408  22.085  24.300  1.00  0.00     0.202 C 
BRANCH   4   5
ATOM      5  C   UNL A   1      34.346  23.181  24.230  1.00  0.00     0.261 C 
BRANCH   5   6
ATOM      6  O   UNL A   1      34.313  23.804  22.922  1.00  0.00    -0.463 OA
BRANCH   6   7
ATOM      7  C   UNL A   1      33.294  23.445  22.108  1.00  0.00     0.306 C 
ATOM      8  O   UNL A   1      33.279  23.657  20.902  1.00  0.00    -0.252 OA
BRANCH   7   9
ATOM      9  C   UNL A   1      32.111  22.826  22.835  1.00  0.00     0.128 C 
BRANCH   9  10
ATOM     10  C   UNL A   1      30.898  23.639  23.328  1.00  0.00     0.055 C 
BRANCH  10  11
ATOM     11  C   UNL A   1      31.056  24.766  24.345  1.00  0.00     0.036 A 
ATOM     12  C   UNL A   1      30.689  23.009  26.271  1.00  0.00     0.067 C 
ATOM     13  C   UNL A   1      30.887  24.450  25.839  1.00  0.00     0.050 A 
ATOM     14  N   UNL A   1      30.953  25.305  26.816  1.00  0.00    -0.216 NA
ATOM     15  C   UNL A   1      31.258  26.588  26.501  1.00  0.00     0.255 A 
ATOM     16  C   UNL A   1      31.449  26.046  24.130  1.00  0.00     0.220 A 
ATOM     17  N   UNL A   1      31.392  27.633  27.290  1.00  0.00    -0.197 NA
ATOM     18  N   UNL A   1      31.544  26.959  25.194  1.00  0.00    -0.163 N 
ATOM     19  C   UNL A   1      31.778  28.621  26.439  1.00  0.00     0.249 A 
ATOM     20  N   UNL A   1      31.893  28.274  25.160  1.00  0.00    -0.150 NA
BRANCH  16  21
ATOM     21  O   UNL A   1      31.794  26.558  22.900  1.00  0.00    -0.493 OA
ATOM     22  H   UNL A   1      31.879  25.987  22.162  1.00  0.00     0.295 HD
ENDBRANCH  16  21
ENDBRANCH  10  11
ENDBRANCH   9  10
ENDBRANCH   7   9
ENDBRANCH   6   7
ENDBRANCH   5   6
ENDBRANCH   4   5
ENDBRANCH   3   4
ENDBRANCH   2   3
ENDBRANCH   1   2
BRANCH   1  23
ATOM     23  O   UNL A   1      39.666  21.771  26.907  1.00  0.00    -0.377 OA
BRANCH  23  24
ATOM     24  C   UNL A   1      41.005  21.338  26.777  1.00  0.00     0.188 C 
BRANCH  24  25
ATOM     25  C   UNL A   1      41.435  20.276  27.805  1.00  0.00     0.188 C 
BRANCH  25  26
ATOM     26  O   UNL A   1      42.125  19.078  27.441  1.00  0.00    -0.376 OA
BRANCH  26  27
ATOM     27  C   UNL A   1      42.364  18.729  26.086  1.00  0.00     0.202 C 
BRANCH  27  28
ATOM     28  C   UNL A   1      43.820  18.831  25.616  1.00  0.00     0.261 C 
BRANCH  28  29
ATOM     29  O   UNL A   1      44.289  20.168  25.552  1.00  0.00    -0.460 OA
BRANCH  29  30
ATOM     30  C   UNL A   1      45.117  20.404  24.529  1.00  0.00     0.338 C 
ATOM     31  O   UNL A   1      45.840  19.580  23.939  1.00  0.00    -0.246 OA
BRANCH  30  32
ATOM     32  C   UNL A   1      45.167  21.834  24.250  1.00  0.00     0.060 A 
ATOM     33  C   UNL A   1      46.345  22.483  24.628  1.00  0.00     0.016 A 
ATOM     34  C   UNL A   1      43.955  22.515  24.059  1.00  0.00     0.016 A 
ATOM     35  C   UNL A   1      46.226  23.730  25.181  1.00  0.00     0.010 A 
ATOM     36  C   UNL A   1      43.833  23.755  24.625  1.00  0.00     0.010 A 
ATOM     37  C   UNL A   1      44.942  24.267  25.297  1.00  0.00    -0.014 A 
BRANCH  37  38
ATOM     38  C   UNL A   1      44.747  25.254  26.330  1.00  0.00     0.031 A 
ATOM     39  C   UNL A   1      45.834  26.233  26.479  1.00  0.00     0.074 A 
ATOM     40  C   UNL A   1      43.587  25.302  27.011  1.00  0.00     0.049 A 
ATOM     41  N   UNL A   1      46.570  26.454  27.514  1.00  0.00    -0.248 NA
ATOM     42  C   UNL A   1      46.209  26.995  25.280  1.00  0.00     0.031 C 
ATOM     43  C   UNL A   1      42.334  24.594  26.719  1.00  0.00     0.029 A 
ATOM     44  N   UNL A   1      43.247  26.111  28.045  1.00  0.00    -0.354 N 
ATOM     45  C   UNL A   1      47.397  27.508  27.152  1.00  0.00     0.074 A 
ATOM     46  C   UNL A   1      47.244  27.699  25.733  1.00  0.00     0.031 C 
ATOM     47  C   UNL A   1      41.327  25.192  27.396  1.00  0.00     0.029 A 
ATOM     48  C   UNL A   1      41.882  26.240  28.234  1.00  0.00     0.049 A 
ATOM     49  H   UNL A   1      43.912  26.566  28.611  1.00  0.00     0.167 HD
ATOM     50  C   UNL A   1      47.988  28.310  28.074  1.00  0.00     0.037 A 
ATOM     51  C   UNL A   1      41.278  27.236  28.926  1.00  0.00     0.037 A 
ATOM     52  C   UNL A   1      48.020  27.720  29.383  1.00  0.00     0.049 A 
ATOM     53  C   UNL A   1      42.308  27.868  29.796  1.00  0.00     0.074 A 
ATOM     54  C   UNL A   1      48.552  26.551  29.893  1.00  0.00     0.029 A 
ATOM     55  N   UNL A   1      47.128  28.167  30.327  1.00  0.00    -0.354 N 
ATOM     56  N   UNL A   1      42.867  27.285  30.824  1.00  0.00    -0.248 NA
ATOM     57  C   UNL A   1      43.047  29.000  29.252  1.00  0.00     0.031 C 
ATOM     58  C   UNL A   1      47.613  26.111  30.869  1.00  0.00     0.029 A 
ATOM     59  C   UNL A   1      46.582  27.050  30.909  1.00  0.00     0.049 A 
ATOM     60  H   UNL A   1      46.923  29.105  30.544  1.00  0.00     0.167 HD
ATOM     61  C   UNL A   1      44.190  27.709  30.805  1.00  0.00     0.074 A 
ATOM     62  C   UNL A   1      44.219  28.829  29.871  1.00  0.00     0.031 C 
ATOM     63  C   UNL A   1      45.199  26.942  31.318  1.00  0.00     0.037 A 
BRANCH  50  64
ATOM     64  C   UNL A   1      48.258  29.758  27.811  1.00  0.00     0.057 A 
ATOM     65  C   UNL A   1      47.203  30.631  27.521  1.00  0.00     0.134 A 
ATOM     66  C   UNL A   1      49.556  30.276  27.614  1.00  0.00     0.134 A 
ATOM     67  F   UNL A   1      45.929  30.223  27.615  1.00  0.00    -0.206 F 
ATOM     68  C   UNL A   1      47.427  31.935  27.067  1.00  0.00     0.040 A 
ATOM     69  C   UNL A   1      49.792  31.591  27.222  1.00  0.00     0.040 A 
ATOM     70  F   UNL A   1      50.648  29.503  27.708  1.00  0.00    -0.206 F 
ATOM     71  C   UNL A   1      48.723  32.422  26.927  1.00  0.00     0.006 A 
ENDBRANCH  50  64
BRANCH  51  72
ATOM     72  C   UNL A   1      39.983  27.883  28.599  1.00  0.00     0.057 A 
ATOM     73  C   UNL A   1      38.926  27.895  29.520  1.00  0.00     0.134 A 
ATOM     74  C   UNL A   1      39.814  28.706  27.468  1.00  0.00     0.134 A 
ATOM     75  F   UNL A   1      39.010  27.192  30.658  1.00  0.00    -0.206 F 
ATOM     76  C   UNL A   1      37.776  28.673  29.327  1.00  0.00     0.040 A 
ATOM     77  C   UNL A   1      38.665  29.473  27.253  1.00  0.00     0.040 A 
ATOM     78  F   UNL A   1      40.794  28.867  26.567  1.00  0.00    -0.206 F 
ATOM     79  C   UNL A   1      37.643  29.467  28.191  1.00  0.00     0.006 A 
ENDBRANCH  51  72
BRANCH  63  80
ATOM     80  C   UNL A   1      44.836  25.717  32.113  1.00  0.00     0.057 A 
ATOM     81  C   UNL A   1      44.523  24.483  31.523  1.00  0.00     0.134 A 
ATOM     82  C   UNL A   1      45.009  25.727  33.501  1.00  0.00     0.134 A 
ATOM     83  F   UNL A   1      44.450  24.351  30.193  1.00  0.00    -0.206 F 
ATOM     84  C   UNL A   1      44.354  23.322  32.283  1.00  0.00     0.040 A 
ATOM     85  C   UNL A   1      44.875  24.567  34.270  1.00  0.00     0.040 A 
ATOM     86  F   UNL A   1      45.374  26.855  34.131  1.00  0.00    -0.206 F 
ATOM     87  C   UNL A   1      44.540  23.359  33.661  1.00  0.00     0.006 A 
ENDBRANCH  63  80
ENDBRANCH  37  38
ENDBRANCH  30  32
ENDBRANCH  29  30
ENDBRANCH  28  29
ENDBRANCH  27  28
ENDBRANCH  26  27
ENDBRANCH  25  26
ENDBRANCH  24  25
ENDBRANCH  23  24
ENDBRANCH   1  23
TORSDOF 23
ENDMDL
