MODEL 1
REMARK VINA RESULT:     -10.4      0.000      0.000
REMARK SMILES COc1ccc(C(=O)N[C@H](C(=O)OCCOCCOCCOCCOC(=O)c2ccc(-c3c4nc(c(-c5c(F)cccc5F)c5ccc([nH]5)c(-c5c(F)cccc5F)c5nc(c(-c6c(F)cccc6F)c6ccc3[nH]6)C=C5)C=C4)cc2)C2=C(C)N=N[C@H]2C)c(F)c1F
REMARK SMILES IDX 18 1 17 2 16 3 15 4 14 5 13 6 11 7 12 8 10 9 9 10 7 11 8 12
REMARK SMILES IDX 6 14 3 15 4 16 91 17 5 18 89 19 92 20 90 21 2 22 1 23 82 24
REMARK SMILES IDX 83 25 87 26 84 27 85 28 86 29 88 30 19 31 20 32 21 33 22 34
REMARK SMILES IDX 23 35 24 36 25 37 26 38 27 39 28 40 29 41 81 42 30 43 80 44
REMARK SMILES IDX 31 45 32 46 33 47 74 48 34 49 79 50 73 51 75 52 35 53 78 54
REMARK SMILES IDX 72 55 71 56 36 58 62 59 45 60 61 61 46 62 49 63 60 64 76 65
REMARK SMILES IDX 47 66 48 67 59 69 77 70 50 71 37 72 38 73 43 74 39 75 40 76
REMARK SMILES IDX 42 77 44 78 41 79 63 80 64 81 69 82 65 83 66 84 68 85 70 86
REMARK SMILES IDX 67 87 51 88 52 89 57 90 53 91 54 92 56 93 58 94 55 95
REMARK H PARENT 9 13 75 57 49 68
REMARK Flexibility Score: inf
ROOT
ATOM      1  C   UNL A   1      41.263  21.926  25.989  1.00  0.00     0.188 C 
ENDROOT
BRANCH   1   2
ATOM      2  C   UNL A   1      39.948  21.468  26.642  1.00  0.00     0.188 C 
BRANCH   2   3
ATOM      3  O   UNL A   1      39.343  20.377  25.986  1.00  0.00    -0.376 OA
BRANCH   3   4
ATOM      4  C   UNL A   1      38.274  20.582  25.087  1.00  0.00     0.202 C 
BRANCH   4   5
ATOM      5  C   UNL A   1      37.460  21.887  25.043  1.00  0.00     0.261 C 
BRANCH   5   6
ATOM      6  O   UNL A   1      36.108  21.809  24.580  1.00  0.00    -0.461 OA
BRANCH   6   7
ATOM      7  C   UNL A   1      35.747  22.719  23.648  1.00  0.00     0.333 C 
ATOM      8  O   UNL A   1      36.469  23.051  22.710  1.00  0.00    -0.249 OA
BRANCH   7   9
ATOM      9  C   UNL A   1      34.327  23.312  23.852  1.00  0.00     0.223 C 
BRANCH   9  10
ATOM     10  N   UNL A   1      33.957  23.943  22.583  1.00  0.00    -0.335 N 
ATOM     11  C   UNL A   1      33.168  25.003  22.246  1.00  0.00     0.255 C 
ATOM     12  O   UNL A   1      32.978  25.196  21.043  1.00  0.00    -0.269 OA
ATOM     13  H   UNL A   1      34.367  23.508  21.801  1.00  0.00     0.165 HD
BRANCH  11  14
ATOM     14  C   UNL A   1      32.617  25.974  23.216  1.00  0.00     0.078 A 
ATOM     15  C   UNL A   1      31.906  27.835  25.181  1.00  0.00     0.157 A 
ATOM     16  C   UNL A   1      33.000  28.092  24.364  1.00  0.00     0.050 A 
ATOM     17  C   UNL A   1      31.152  26.684  24.997  1.00  0.00     0.201 A 
ATOM     18  C   UNL A   1      33.356  27.160  23.387  1.00  0.00     0.021 A 
ATOM     19  C   UNL A   1      31.466  25.801  23.977  1.00  0.00     0.175 A 
ATOM     20  F   UNL A   1      30.096  26.429  25.785  1.00  0.00    -0.200 F 
ATOM     21  F   UNL A   1      30.585  24.828  23.733  1.00  0.00    -0.203 F 
BRANCH  15  22
ATOM     22  O   UNL A   1      31.594  28.720  26.171  1.00  0.00    -0.494 OA
ATOM     23  C   UNL A   1      31.956  30.041  25.767  1.00  0.00     0.278 C 
ENDBRANCH  15  22
ENDBRANCH  11  14
ENDBRANCH   9  10
BRANCH   9  24
ATOM     24  C   UNL A   1      33.151  22.501  24.352  1.00  0.00     0.012 C 
ATOM     25  C   UNL A   1      32.441  22.518  25.499  1.00  0.00     0.064 C 
ATOM     26  C   UNL A   1      32.769  21.196  23.708  1.00  0.00     0.156 C 
ATOM     27  C   UNL A   1      32.404  23.472  26.653  1.00  0.00     0.069 C 
ATOM     28  N   UNL A   1      31.686  21.381  25.667  1.00  0.00    -0.160 NA
ATOM     29  N   UNL A   1      31.895  20.569  24.734  1.00  0.00    -0.181 NA
ATOM     30  C   UNL A   1      31.942  21.261  22.432  1.00  0.00     0.040 C 
ENDBRANCH   9  24
ENDBRANCH   7   9
ENDBRANCH   6   7
ENDBRANCH   5   6
ENDBRANCH   4   5
ENDBRANCH   3   4
ENDBRANCH   2   3
ENDBRANCH   1   2
BRANCH   1  31
ATOM     31  O   UNL A   1      42.142  20.967  25.422  1.00  0.00    -0.377 OA
BRANCH  31  32
ATOM     32  C   UNL A   1      43.430  20.760  25.994  1.00  0.00     0.188 C 
BRANCH  32  33
ATOM     33  C   UNL A   1      44.656  20.511  25.087  1.00  0.00     0.188 C 
BRANCH  33  34
ATOM     34  O   UNL A   1      45.863  21.089  25.549  1.00  0.00    -0.376 OA
BRANCH  34  35
ATOM     35  C   UNL A   1      46.512  22.016  24.691  1.00  0.00     0.202 C 
BRANCH  35  36
ATOM     36  C   UNL A   1      46.397  23.511  25.030  1.00  0.00     0.261 C 
BRANCH  36  37
ATOM     37  O   UNL A   1      45.315  23.891  25.897  1.00  0.00    -0.460 OA
BRANCH  37  38
ATOM     38  C   UNL A   1      44.142  24.243  25.325  1.00  0.00     0.338 C 
ATOM     39  O   UNL A   1      43.647  23.793  24.315  1.00  0.00    -0.246 OA
BRANCH  38  40
ATOM     40  C   UNL A   1      43.458  25.166  26.256  1.00  0.00     0.060 A 
ATOM     41  C   UNL A   1      43.786  26.529  26.235  1.00  0.00     0.016 A 
ATOM     42  C   UNL A   1      42.496  24.682  27.144  1.00  0.00     0.016 A 
ATOM     43  C   UNL A   1      43.167  27.409  27.122  1.00  0.00     0.010 A 
ATOM     44  C   UNL A   1      41.896  25.561  28.051  1.00  0.00     0.010 A 
ATOM     45  C   UNL A   1      42.249  26.922  28.063  1.00  0.00    -0.014 A 
BRANCH  45  46
ATOM     46  C   UNL A   1      41.792  27.796  29.168  1.00  0.00     0.031 A 
ATOM     47  C   UNL A   1      42.530  27.743  30.477  1.00  0.00     0.074 A 
ATOM     48  C   UNL A   1      40.751  28.633  29.014  1.00  0.00     0.049 A 
ATOM     49  N   UNL A   1      42.280  28.366  31.600  1.00  0.00    -0.248 NA
ATOM     50  C   UNL A   1      43.711  26.866  30.523  1.00  0.00     0.031 C 
ATOM     51  C   UNL A   1      39.984  28.810  27.784  1.00  0.00     0.029 A 
ATOM     52  N   UNL A   1      40.153  29.482  29.912  1.00  0.00    -0.354 N 
ATOM     53  C   UNL A   1      43.265  27.951  32.487  1.00  0.00     0.074 A 
ATOM     54  C   UNL A   1      44.098  27.001  31.782  1.00  0.00     0.031 C 
ATOM     55  C   UNL A   1      39.005  29.703  28.008  1.00  0.00     0.029 A 
ATOM     56  C   UNL A   1      39.054  30.131  29.406  1.00  0.00     0.049 A 
ATOM     57  H   UNL A   1      40.483  29.615  30.830  1.00  0.00     0.167 HD
ATOM     58  C   UNL A   1      43.461  28.330  33.772  1.00  0.00     0.037 A 
ATOM     59  C   UNL A   1      38.173  30.950  30.012  1.00  0.00     0.037 A 
ATOM     60  C   UNL A   1      42.621  29.266  34.475  1.00  0.00     0.049 A 
ATOM     61  C   UNL A   1      38.355  31.285  31.471  1.00  0.00     0.074 A 
ATOM     62  C   UNL A   1      42.748  29.732  35.771  1.00  0.00     0.029 A 
ATOM     63  N   UNL A   1      41.491  29.867  33.942  1.00  0.00    -0.354 N 
ATOM     64  N   UNL A   1      39.306  30.914  32.294  1.00  0.00    -0.248 NA
ATOM     65  C   UNL A   1      37.337  32.151  32.084  1.00  0.00     0.031 C 
ATOM     66  C   UNL A   1      41.657  30.563  36.045  1.00  0.00     0.029 A 
ATOM     67  C   UNL A   1      40.887  30.669  34.898  1.00  0.00     0.049 A 
ATOM     68  H   UNL A   1      41.165  29.742  33.021  1.00  0.00     0.167 HD
ATOM     69  C   UNL A   1      39.016  31.519  33.512  1.00  0.00     0.074 A 
ATOM     70  C   UNL A   1      37.811  32.298  33.313  1.00  0.00     0.031 C 
ATOM     71  C   UNL A   1      39.685  31.437  34.689  1.00  0.00     0.037 A 
BRANCH  58  72
ATOM     72  C   UNL A   1      44.606  27.701  34.512  1.00  0.00     0.057 A 
ATOM     73  C   UNL A   1      45.886  28.271  34.529  1.00  0.00     0.134 A 
ATOM     74  C   UNL A   1      44.419  26.517  35.237  1.00  0.00     0.134 A 
ATOM     75  F   UNL A   1      46.138  29.397  33.843  1.00  0.00    -0.206 F 
ATOM     76  C   UNL A   1      46.944  27.673  35.216  1.00  0.00     0.040 A 
ATOM     77  C   UNL A   1      45.461  25.925  35.952  1.00  0.00     0.040 A 
ATOM     78  F   UNL A   1      43.218  25.919  35.268  1.00  0.00    -0.206 F 
ATOM     79  C   UNL A   1      46.731  26.499  35.935  1.00  0.00     0.006 A 
ENDBRANCH  58  72
BRANCH  59  80
ATOM     80  C   UNL A   1      37.019  31.497  29.251  1.00  0.00     0.057 A 
ATOM     81  C   UNL A   1      37.038  32.799  28.738  1.00  0.00     0.134 A 
ATOM     82  C   UNL A   1      35.860  30.740  29.041  1.00  0.00     0.134 A 
ATOM     83  F   UNL A   1      38.109  33.584  28.928  1.00  0.00    -0.206 F 
ATOM     84  C   UNL A   1      35.943  33.334  28.057  1.00  0.00     0.040 A 
ATOM     85  C   UNL A   1      34.768  31.252  28.338  1.00  0.00     0.040 A 
ATOM     86  F   UNL A   1      35.774  29.486  29.509  1.00  0.00    -0.206 F 
ATOM     87  C   UNL A   1      34.805  32.556  27.851  1.00  0.00     0.006 A 
ENDBRANCH  59  80
BRANCH  71  88
ATOM     88  C   UNL A   1      39.147  32.229  35.847  1.00  0.00     0.057 A 
ATOM     89  C   UNL A   1      39.508  33.564  36.065  1.00  0.00     0.134 A 
ATOM     90  C   UNL A   1      38.221  31.659  36.733  1.00  0.00     0.134 A 
ATOM     91  F   UNL A   1      40.397  34.168  35.263  1.00  0.00    -0.206 F 
ATOM     92  C   UNL A   1      38.990  34.296  37.136  1.00  0.00     0.040 A 
ATOM     93  C   UNL A   1      37.673  32.390  37.788  1.00  0.00     0.040 A 
ATOM     94  F   UNL A   1      37.822  30.387  36.578  1.00  0.00    -0.206 F 
ATOM     95  C   UNL A   1      38.062  33.711  37.997  1.00  0.00     0.006 A 
ENDBRANCH  71  88
ENDBRANCH  45  46
ENDBRANCH  38  40
ENDBRANCH  37  38
ENDBRANCH  36  37
ENDBRANCH  35  36
ENDBRANCH  34  35
ENDBRANCH  33  34
ENDBRANCH  32  33
ENDBRANCH  31  32
ENDBRANCH   1  31
TORSDOF 24
ENDMDL
MODEL 2
REMARK VINA RESULT:      -9.9      3.168      8.112
REMARK SMILES COc1ccc(C(=O)N[C@H](C(=O)OCCOCCOCCOCCOC(=O)c2ccc(-c3c4nc(c(-c5c(F)cccc5F)c5ccc([nH]5)c(-c5c(F)cccc5F)c5nc(c(-c6c(F)cccc6F)c6ccc3[nH]6)C=C5)C=C4)cc2)C2=C(C)N=N[C@H]2C)c(F)c1F
REMARK SMILES IDX 18 1 17 2 16 3 15 4 14 5 13 6 11 7 12 8 10 9 9 10 7 11 8 12
REMARK SMILES IDX 6 14 3 15 4 16 91 17 5 18 89 19 92 20 90 21 2 22 1 23 82 24
REMARK SMILES IDX 83 25 87 26 84 27 85 28 86 29 88 30 19 31 20 32 21 33 22 34
REMARK SMILES IDX 23 35 24 36 25 37 26 38 27 39 28 40 29 41 81 42 30 43 80 44
REMARK SMILES IDX 31 45 32 46 33 47 74 48 34 49 79 50 73 51 75 52 35 53 78 54
REMARK SMILES IDX 72 55 71 56 36 58 62 59 45 60 61 61 46 62 49 63 60 64 76 65
REMARK SMILES IDX 47 66 48 67 59 69 77 70 50 71 37 72 38 73 43 74 39 75 40 76
REMARK SMILES IDX 42 77 44 78 41 79 63 80 64 81 69 82 65 83 66 84 68 85 70 86
REMARK SMILES IDX 67 87 51 88 52 89 57 90 53 91 54 92 56 93 58 94 55 95
REMARK H PARENT 9 13 75 57 49 68
REMARK Flexibility Score: inf
ROOT
ATOM      1  C   UNL A   1      31.753  26.924  26.831  1.00  0.00     0.188 C 
ENDROOT
BRANCH   1   2
ATOM      2  C   UNL A   1      30.666  26.106  26.112  1.00  0.00     0.188 C 
BRANCH   2   3
ATOM      3  O   UNL A   1      31.131  24.879  25.599  1.00  0.00    -0.376 OA
BRANCH   3   4
ATOM      4  C   UNL A   1      30.662  23.656  26.126  1.00  0.00     0.202 C 
BRANCH   4   5
ATOM      5  C   UNL A   1      31.399  22.321  25.920  1.00  0.00     0.261 C 
BRANCH   5   6
ATOM      6  O   UNL A   1      32.521  22.047  26.765  1.00  0.00    -0.461 OA
BRANCH   6   7
ATOM      7  C   UNL A   1      33.650  21.647  26.140  1.00  0.00     0.333 C 
ATOM      8  O   UNL A   1      34.708  21.424  26.728  1.00  0.00    -0.249 OA
BRANCH   7   9
ATOM      9  C   UNL A   1      33.504  21.478  24.605  1.00  0.00     0.223 C 
BRANCH   9  10
ATOM     10  N   UNL A   1      34.748  21.977  24.013  1.00  0.00    -0.335 N 
ATOM     11  C   UNL A   1      35.092  23.120  23.353  1.00  0.00     0.255 C 
ATOM     12  O   UNL A   1      36.228  23.166  22.875  1.00  0.00    -0.269 OA
ATOM     13  H   UNL A   1      35.501  21.351  24.113  1.00  0.00     0.165 HD
BRANCH  11  14
ATOM     14  C   UNL A   1      34.234  24.321  23.262  1.00  0.00     0.078 A 
ATOM     15  C   UNL A   1      32.676  26.586  22.740  1.00  0.00     0.157 A 
ATOM     16  C   UNL A   1      32.483  25.437  21.983  1.00  0.00     0.050 A 
ATOM     17  C   UNL A   1      33.607  26.595  23.770  1.00  0.00     0.201 A 
ATOM     18  C   UNL A   1      33.265  24.310  22.242  1.00  0.00     0.021 A 
ATOM     19  C   UNL A   1      34.326  25.449  24.070  1.00  0.00     0.175 A 
ATOM     20  F   UNL A   1      33.800  27.703  24.503  1.00  0.00    -0.200 F 
ATOM     21  F   UNL A   1      35.050  25.472  25.191  1.00  0.00    -0.203 F 
BRANCH  15  22
ATOM     22  O   UNL A   1      31.950  27.703  22.449  1.00  0.00    -0.494 OA
ATOM     23  C   UNL A   1      30.557  27.419  22.578  1.00  0.00     0.278 C 
ENDBRANCH  15  22
ENDBRANCH  11  14
ENDBRANCH   9  10
BRANCH   9  24
ATOM     24  C   UNL A   1      33.145  20.165  23.943  1.00  0.00     0.012 C 
ATOM     25  C   UNL A   1      32.373  19.848  22.882  1.00  0.00     0.064 C 
ATOM     26  C   UNL A   1      33.354  18.851  24.645  1.00  0.00     0.156 C 
ATOM     27  C   UNL A   1      31.722  20.677  21.819  1.00  0.00     0.069 C 
ATOM     28  N   UNL A   1      32.051  18.511  22.847  1.00  0.00    -0.160 NA
ATOM     29  N   UNL A   1      32.506  17.919  23.856  1.00  0.00    -0.181 NA
ATOM     30  C   UNL A   1      34.758  18.263  24.624  1.00  0.00     0.040 C 
ENDBRANCH   9  24
ENDBRANCH   7   9
ENDBRANCH   6   7
ENDBRANCH   5   6
ENDBRANCH   4   5
ENDBRANCH   3   4
ENDBRANCH   2   3
ENDBRANCH   1   2
BRANCH   1  31
ATOM     31  O   UNL A   1      31.555  28.309  27.068  1.00  0.00    -0.377 OA
BRANCH  31  32
ATOM     32  C   UNL A   1      31.493  29.214  25.970  1.00  0.00     0.188 C 
BRANCH  32  33
ATOM     33  C   UNL A   1      32.280  30.543  26.008  1.00  0.00     0.188 C 
BRANCH  33  34
ATOM     34  O   UNL A   1      33.429  30.530  26.835  1.00  0.00    -0.376 OA
BRANCH  34  35
ATOM     35  C   UNL A   1      33.623  31.637  27.702  1.00  0.00     0.202 C 
BRANCH  35  36
ATOM     36  C   UNL A   1      32.886  32.946  27.372  1.00  0.00     0.261 C 
BRANCH  36  37
ATOM     37  O   UNL A   1      32.418  33.718  28.490  1.00  0.00    -0.460 OA
BRANCH  37  38
ATOM     38  C   UNL A   1      33.156  34.783  28.874  1.00  0.00     0.338 C 
ATOM     39  O   UNL A   1      32.830  35.950  28.868  1.00  0.00    -0.246 OA
BRANCH  38  40
ATOM     40  C   UNL A   1      34.396  34.260  29.488  1.00  0.00     0.060 A 
ATOM     41  C   UNL A   1      35.615  34.424  28.818  1.00  0.00     0.016 A 
ATOM     42  C   UNL A   1      34.347  33.613  30.724  1.00  0.00     0.016 A 
ATOM     43  C   UNL A   1      36.790  33.917  29.373  1.00  0.00     0.010 A 
ATOM     44  C   UNL A   1      35.521  33.082  31.266  1.00  0.00     0.010 A 
ATOM     45  C   UNL A   1      36.742  33.207  30.580  1.00  0.00    -0.014 A 
BRANCH  45  46
ATOM     46  C   UNL A   1      37.930  32.447  31.036  1.00  0.00     0.031 A 
ATOM     47  C   UNL A   1      38.717  32.976  32.202  1.00  0.00     0.074 A 
ATOM     48  C   UNL A   1      38.298  31.300  30.438  1.00  0.00     0.049 A 
ATOM     49  N   UNL A   1      39.819  32.520  32.739  1.00  0.00    -0.248 NA
ATOM     50  C   UNL A   1      38.185  34.187  32.850  1.00  0.00     0.031 C 
ATOM     51  C   UNL A   1      37.594  30.661  29.330  1.00  0.00     0.029 A 
ATOM     52  N   UNL A   1      39.372  30.479  30.677  1.00  0.00    -0.354 N 
ATOM     53  C   UNL A   1      40.118  33.391  33.780  1.00  0.00     0.074 A 
ATOM     54  C   UNL A   1      39.099  34.418  33.781  1.00  0.00     0.031 C 
ATOM     55  C   UNL A   1      38.263  29.550  28.974  1.00  0.00     0.029 A 
ATOM     56  C   UNL A   1      39.461  29.424  29.803  1.00  0.00     0.049 A 
ATOM     57  H   UNL A   1      40.015  30.631  31.407  1.00  0.00     0.167 HD
ATOM     58  C   UNL A   1      41.146  33.336  34.660  1.00  0.00     0.037 A 
ATOM     59  C   UNL A   1      40.418  28.484  29.670  1.00  0.00     0.037 A 
ATOM     60  C   UNL A   1      42.166  32.320  34.648  1.00  0.00     0.049 A 
ATOM     61  C   UNL A   1      41.605  28.498  30.600  1.00  0.00     0.074 A 
ATOM     62  C   UNL A   1      43.238  32.165  35.509  1.00  0.00     0.029 A 
ATOM     63  N   UNL A   1      42.248  31.294  33.718  1.00  0.00    -0.354 N 
ATOM     64  N   UNL A   1      41.864  29.305  31.601  1.00  0.00    -0.248 NA
ATOM     65  C   UNL A   1      42.633  27.471  30.377  1.00  0.00     0.031 C 
ATOM     66  C   UNL A   1      44.005  31.085  35.060  1.00  0.00     0.029 A 
ATOM     67  C   UNL A   1      43.375  30.525  33.961  1.00  0.00     0.049 A 
ATOM     68  H   UNL A   1      41.600  31.135  32.993  1.00  0.00     0.167 HD
ATOM     69  C   UNL A   1      43.069  28.869  32.141  1.00  0.00     0.074 A 
ATOM     70  C   UNL A   1      43.478  27.715  31.369  1.00  0.00     0.031 C 
ATOM     71  C   UNL A   1      43.774  29.379  33.182  1.00  0.00     0.037 A 
BRANCH  58  72
ATOM     72  C   UNL A   1      41.239  34.431  35.682  1.00  0.00     0.057 A 
ATOM     73  C   UNL A   1      41.954  35.613  35.447  1.00  0.00     0.134 A 
ATOM     74  C   UNL A   1      40.583  34.311  36.915  1.00  0.00     0.134 A 
ATOM     75  F   UNL A   1      42.618  35.787  34.294  1.00  0.00    -0.206 F 
ATOM     76  C   UNL A   1      42.038  36.621  36.409  1.00  0.00     0.040 A 
ATOM     77  C   UNL A   1      40.634  35.324  37.873  1.00  0.00     0.040 A 
ATOM     78  F   UNL A   1      39.876  33.208  37.206  1.00  0.00    -0.206 F 
ATOM     79  C   UNL A   1      41.371  36.481  37.624  1.00  0.00     0.006 A 
ENDBRANCH  58  72
BRANCH  59  80
ATOM     80  C   UNL A   1      40.311  27.459  28.600  1.00  0.00     0.057 A 
ATOM     81  C   UNL A   1      40.958  27.623  27.370  1.00  0.00     0.134 A 
ATOM     82  C   UNL A   1      39.538  26.303  28.771  1.00  0.00     0.134 A 
ATOM     83  F   UNL A   1      41.691  28.720  27.133  1.00  0.00    -0.206 F 
ATOM     84  C   UNL A   1      40.829  26.684  26.344  1.00  0.00     0.040 A 
ATOM     85  C   UNL A   1      39.423  25.343  27.765  1.00  0.00     0.040 A 
ATOM     86  F   UNL A   1      38.889  26.086  29.924  1.00  0.00    -0.206 F 
ATOM     87  C   UNL A   1      40.064  25.536  26.543  1.00  0.00     0.006 A 
ENDBRANCH  59  80
BRANCH  71  88
ATOM     88  C   UNL A   1      45.047  28.678  33.565  1.00  0.00     0.057 A 
ATOM     89  C   UNL A   1      46.286  29.043  33.023  1.00  0.00     0.134 A 
ATOM     90  C   UNL A   1      45.038  27.652  34.521  1.00  0.00     0.134 A 
ATOM     91  F   UNL A   1      46.366  30.008  32.096  1.00  0.00    -0.206 F 
ATOM     92  C   UNL A   1      47.466  28.394  33.397  1.00  0.00     0.040 A 
ATOM     93  C   UNL A   1      46.215  27.020  34.925  1.00  0.00     0.040 A 
ATOM     94  F   UNL A   1      43.888  27.260  35.089  1.00  0.00    -0.206 F 
ATOM     95  C   UNL A   1      47.433  27.385  34.357  1.00  0.00     0.006 A 
ENDBRANCH  71  88
ENDBRANCH  45  46
ENDBRANCH  38  40
ENDBRANCH  37  38
ENDBRANCH  36  37
ENDBRANCH  35  36
ENDBRANCH  34  35
ENDBRANCH  33  34
ENDBRANCH  32  33
ENDBRANCH  31  32
ENDBRANCH   1  31
TORSDOF 24
ENDMDL
MODEL 3
REMARK VINA RESULT:      -9.6      1.190      2.152
REMARK SMILES COc1ccc(C(=O)N[C@H](C(=O)OCCOCCOCCOCCOC(=O)c2ccc(-c3c4nc(c(-c5c(F)cccc5F)c5ccc([nH]5)c(-c5c(F)cccc5F)c5nc(c(-c6c(F)cccc6F)c6ccc3[nH]6)C=C5)C=C4)cc2)C2=C(C)N=N[C@H]2C)c(F)c1F
REMARK SMILES IDX 18 1 17 2 16 3 15 4 14 5 13 6 11 7 12 8 10 9 9 10 7 11 8 12
REMARK SMILES IDX 6 14 3 15 4 16 91 17 5 18 89 19 92 20 90 21 2 22 1 23 82 24
REMARK SMILES IDX 83 25 87 26 84 27 85 28 86 29 88 30 19 31 20 32 21 33 22 34
REMARK SMILES IDX 23 35 24 36 25 37 26 38 27 39 28 40 29 41 81 42 30 43 80 44
REMARK SMILES IDX 31 45 32 46 33 47 74 48 34 49 79 50 73 51 75 52 35 53 78 54
REMARK SMILES IDX 72 55 71 56 36 58 62 59 45 60 61 61 46 62 49 63 60 64 76 65
REMARK SMILES IDX 47 66 48 67 59 69 77 70 50 71 37 72 38 73 43 74 39 75 40 76
REMARK SMILES IDX 42 77 44 78 41 79 63 80 64 81 69 82 65 83 66 84 68 85 70 86
REMARK SMILES IDX 67 87 51 88 52 89 57 90 53 91 54 92 56 93 58 94 55 95
REMARK H PARENT 9 13 75 57 49 68
REMARK Flexibility Score: inf
ROOT
ATOM      1  C   UNL A   1      38.903  22.815  26.138  1.00  0.00     0.188 C 
ENDROOT
BRANCH   1   2
ATOM      2  C   UNL A   1      37.660  23.668  25.829  1.00  0.00     0.188 C 
BRANCH   2   3
ATOM      3  O   UNL A   1      36.444  22.975  26.002  1.00  0.00    -0.376 OA
BRANCH   3   4
ATOM      4  C   UNL A   1      35.510  22.890  24.947  1.00  0.00     0.202 C 
BRANCH   4   5
ATOM      5  C   UNL A   1      35.182  24.077  24.025  1.00  0.00     0.261 C 
BRANCH   5   6
ATOM      6  O   UNL A   1      34.652  23.782  22.728  1.00  0.00    -0.461 OA
BRANCH   6   7
ATOM      7  C   UNL A   1      33.407  24.244  22.478  1.00  0.00     0.333 C 
ATOM      8  O   UNL A   1      33.102  24.849  21.452  1.00  0.00    -0.249 OA
BRANCH   7   9
ATOM      9  C   UNL A   1      32.376  23.938  23.597  1.00  0.00     0.223 C 
BRANCH   9  10
ATOM     10  N   UNL A   1      31.133  24.611  23.210  1.00  0.00    -0.335 N 
ATOM     11  C   UNL A   1      30.511  25.757  23.610  1.00  0.00     0.255 C 
ATOM     12  O   UNL A   1      29.389  25.971  23.146  1.00  0.00    -0.269 OA
ATOM     13  H   UNL A   1      30.638  24.131  22.507  1.00  0.00     0.165 HD
BRANCH  11  14
ATOM     14  C   UNL A   1      31.131  26.784  24.474  1.00  0.00     0.078 A 
ATOM     15  C   UNL A   1      32.612  28.640  25.954  1.00  0.00     0.157 A 
ATOM     16  C   UNL A   1      32.756  28.601  24.572  1.00  0.00     0.050 A 
ATOM     17  C   UNL A   1      31.713  27.793  26.587  1.00  0.00     0.201 A 
ATOM     18  C   UNL A   1      32.020  27.671  23.836  1.00  0.00     0.021 A 
ATOM     19  C   UNL A   1      30.931  26.925  25.843  1.00  0.00     0.175 A 
ATOM     20  F   UNL A   1      31.573  27.825  27.921  1.00  0.00    -0.200 F 
ATOM     21  F   UNL A   1      29.954  26.290  26.494  1.00  0.00    -0.203 F 
BRANCH  15  22
ATOM     22  O   UNL A   1      33.374  29.512  26.675  1.00  0.00    -0.494 OA
ATOM     23  C   UNL A   1      34.667  28.951  26.898  1.00  0.00     0.278 C 
ENDBRANCH  15  22
ENDBRANCH  11  14
ENDBRANCH   9  10
BRANCH   9  24
ATOM     24  C   UNL A   1      32.044  22.537  24.062  1.00  0.00     0.012 C 
ATOM     25  C   UNL A   1      31.549  22.041  25.216  1.00  0.00     0.064 C 
ATOM     26  C   UNL A   1      32.584  21.327  23.350  1.00  0.00     0.156 C 
ATOM     27  C   UNL A   1      30.946  22.693  26.422  1.00  0.00     0.069 C 
ATOM     28  N   UNL A   1      31.734  20.683  25.327  1.00  0.00    -0.160 NA
ATOM     29  N   UNL A   1      32.383  20.243  24.347  1.00  0.00    -0.181 NA
ATOM     30  C   UNL A   1      31.862  20.878  22.088  1.00  0.00     0.040 C 
ENDBRANCH   9  24
ENDBRANCH   7   9
ENDBRANCH   6   7
ENDBRANCH   5   6
ENDBRANCH   4   5
ENDBRANCH   3   4
ENDBRANCH   2   3
ENDBRANCH   1   2
BRANCH   1  31
ATOM     31  O   UNL A   1      39.376  22.713  27.472  1.00  0.00    -0.377 OA
BRANCH  31  32
ATOM     32  C   UNL A   1      40.741  22.388  27.718  1.00  0.00     0.188 C 
BRANCH  32  33
ATOM     33  C   UNL A   1      41.319  21.035  27.249  1.00  0.00     0.188 C 
BRANCH  33  34
ATOM     34  O   UNL A   1      42.719  21.027  27.038  1.00  0.00    -0.376 OA
BRANCH  34  35
ATOM     35  C   UNL A   1      43.176  20.944  25.697  1.00  0.00     0.202 C 
BRANCH  35  36
ATOM     36  C   UNL A   1      43.599  22.247  24.999  1.00  0.00     0.261 C 
BRANCH  36  37
ATOM     37  O   UNL A   1      42.995  23.459  25.482  1.00  0.00    -0.460 OA
BRANCH  37  38
ATOM     38  C   UNL A   1      43.723  24.596  25.415  1.00  0.00     0.338 C 
ATOM     39  O   UNL A   1      44.606  24.863  24.629  1.00  0.00    -0.246 OA
BRANCH  38  40
ATOM     40  C   UNL A   1      43.127  25.556  26.369  1.00  0.00     0.060 A 
ATOM     41  C   UNL A   1      43.763  26.784  26.592  1.00  0.00     0.016 A 
ATOM     42  C   UNL A   1      41.943  25.239  27.035  1.00  0.00     0.016 A 
ATOM     43  C   UNL A   1      43.226  27.691  27.506  1.00  0.00     0.010 A 
ATOM     44  C   UNL A   1      41.420  26.138  27.969  1.00  0.00     0.010 A 
ATOM     45  C   UNL A   1      42.074  27.355  28.229  1.00  0.00    -0.014 A 
BRANCH  45  46
ATOM     46  C   UNL A   1      41.654  28.192  29.378  1.00  0.00     0.031 A 
ATOM     47  C   UNL A   1      42.395  28.050  30.679  1.00  0.00     0.074 A 
ATOM     48  C   UNL A   1      40.644  29.072  29.269  1.00  0.00     0.049 A 
ATOM     49  N   UNL A   1      42.172  28.627  31.831  1.00  0.00    -0.248 NA
ATOM     50  C   UNL A   1      43.544  27.130  30.676  1.00  0.00     0.031 C 
ATOM     51  C   UNL A   1      39.879  29.335  28.053  1.00  0.00     0.029 A 
ATOM     52  N   UNL A   1      40.081  29.899  30.210  1.00  0.00    -0.354 N 
ATOM     53  C   UNL A   1      43.145  28.135  32.692  1.00  0.00     0.074 A 
ATOM     54  C   UNL A   1      43.941  27.190  31.938  1.00  0.00     0.031 C 
ATOM     55  C   UNL A   1      38.934  30.252  28.325  1.00  0.00     0.029 A 
ATOM     56  C   UNL A   1      39.005  30.611  29.741  1.00  0.00     0.049 A 
ATOM     57  H   UNL A   1      40.419  29.977  31.131  1.00  0.00     0.167 HD
ATOM     58  C   UNL A   1      43.360  28.446  33.992  1.00  0.00     0.037 A 
ATOM     59  C   UNL A   1      38.157  31.432  30.391  1.00  0.00     0.037 A 
ATOM     60  C   UNL A   1      42.559  29.377  34.743  1.00  0.00     0.049 A 
ATOM     61  C   UNL A   1      38.357  31.690  31.863  1.00  0.00     0.074 A 
ATOM     62  C   UNL A   1      42.708  29.776  36.059  1.00  0.00     0.029 A 
ATOM     63  N   UNL A   1      41.449  30.043  34.246  1.00  0.00    -0.354 N 
ATOM     64  N   UNL A   1      39.297  31.246  32.662  1.00  0.00    -0.248 NA
ATOM     65  C   UNL A   1      37.374  32.563  32.522  1.00  0.00     0.031 C 
ATOM     66  C   UNL A   1      41.649  30.632  36.378  1.00  0.00     0.029 A 
ATOM     67  C   UNL A   1      40.879  30.820  35.242  1.00  0.00     0.049 A 
ATOM     68  H   UNL A   1      41.115  29.974  33.322  1.00  0.00     0.167 HD
ATOM     69  C   UNL A   1      39.034  31.803  33.909  1.00  0.00     0.074 A 
ATOM     70  C   UNL A   1      37.858  32.633  33.754  1.00  0.00     0.031 C 
ATOM     71  C   UNL A   1      39.705  31.641  35.076  1.00  0.00     0.037 A 
BRANCH  58  72
ATOM     72  C   UNL A   1      44.484  27.740  34.694  1.00  0.00     0.057 A 
ATOM     73  C   UNL A   1      44.299  26.520  35.358  1.00  0.00     0.134 A 
ATOM     74  C   UNL A   1      45.778  28.279  34.688  1.00  0.00     0.134 A 
ATOM     75  F   UNL A   1      43.083  25.955  35.416  1.00  0.00    -0.206 F 
ATOM     76  C   UNL A   1      45.351  25.877  36.013  1.00  0.00     0.040 A 
ATOM     77  C   UNL A   1      46.844  27.632  35.312  1.00  0.00     0.040 A 
ATOM     78  F   UNL A   1      46.028  29.442  34.067  1.00  0.00    -0.206 F 
ATOM     79  C   UNL A   1      46.630  26.430  35.985  1.00  0.00     0.006 A 
ENDBRANCH  58  72
BRANCH  59  80
ATOM     80  C   UNL A   1      37.021  32.056  29.663  1.00  0.00     0.057 A 
ATOM     81  C   UNL A   1      35.821  31.366  29.459  1.00  0.00     0.134 A 
ATOM     82  C   UNL A   1      37.117  33.349  29.132  1.00  0.00     0.134 A 
ATOM     83  F   UNL A   1      35.675  30.115  29.920  1.00  0.00    -0.206 F 
ATOM     84  C   UNL A   1      34.764  31.930  28.742  1.00  0.00     0.040 A 
ATOM     85  C   UNL A   1      36.059  33.936  28.437  1.00  0.00     0.040 A 
ATOM     86  F   UNL A   1      38.241  34.064  29.288  1.00  0.00    -0.206 F 
ATOM     87  C   UNL A   1      34.880  33.222  28.234  1.00  0.00     0.006 A 
ENDBRANCH  59  80
BRANCH  71  88
ATOM     88  C   UNL A   1      39.201  32.395  36.275  1.00  0.00     0.057 A 
ATOM     89  C   UNL A   1      39.639  33.692  36.573  1.00  0.00     0.134 A 
ATOM     90  C   UNL A   1      38.231  31.833  37.117  1.00  0.00     0.134 A 
ATOM     91  F   UNL A   1      40.573  34.285  35.816  1.00  0.00    -0.206 F 
ATOM     92  C   UNL A   1      39.153  34.390  37.681  1.00  0.00     0.040 A 
ATOM     93  C   UNL A   1      37.714  32.534  38.207  1.00  0.00     0.040 A 
ATOM     94  F   UNL A   1      37.757  30.600  36.884  1.00  0.00    -0.206 F 
ATOM     95  C   UNL A   1      38.180  33.814  38.497  1.00  0.00     0.006 A 
ENDBRANCH  71  88
ENDBRANCH  45  46
ENDBRANCH  38  40
ENDBRANCH  37  38
ENDBRANCH  36  37
ENDBRANCH  35  36
ENDBRANCH  34  35
ENDBRANCH  33  34
ENDBRANCH  32  33
ENDBRANCH  31  32
ENDBRANCH   1  31
TORSDOF 24
ENDMDL
