MODEL 1
REMARK VINA RESULT:      -9.4      0.000      0.000
REMARK SMILES CC[C@H]1CCCC[C@@H]1Sc1csc(C(=O)OCCOCCOCCOCCOC(=O)c2ccc(-c3c4nc(c(-c5c(F)cccc5F)c5ccc([nH]5)c(-c5c(F)cccc5F)c5nc(c(-c6c(F)cccc6F)c6ccc3[nH]6)C=C5)C=C4)cc2)c1
REMARK SMILES IDX 21 1 20 2 19 3 18 4 17 5 16 6 14 7 15 8 13 9 10 10 11 11
REMARK SMILES IDX 85 12 12 13 9 14 8 15 3 16 4 17 5 18 7 19 6 20 2 21 1 22
REMARK SMILES IDX 22 23 23 24 24 25 25 26 26 27 27 28 28 29 29 30 30 31 31 32
REMARK SMILES IDX 32 33 84 34 33 35 83 36 34 37 35 38 36 39 77 40 37 41 82 42
REMARK SMILES IDX 76 43 78 44 38 45 81 46 75 47 74 48 39 50 65 51 48 52 64 53
REMARK SMILES IDX 49 54 52 55 63 56 79 57 50 58 51 59 62 61 80 62 53 63 40 64
REMARK SMILES IDX 41 65 46 66 42 67 43 68 45 69 47 70 44 71 66 72 67 73 72 74
REMARK SMILES IDX 68 75 69 76 71 77 73 78 70 79 54 80 55 81 60 82 56 83 57 84
REMARK SMILES IDX 59 85 61 86 58 87
REMARK H PARENT 78 49 52 60
REMARK Flexibility Score: inf
ROOT
ATOM      1  C   UNL A   1      34.950  33.713  28.158  1.00  0.00     0.188 C 
ENDROOT
BRANCH   1   2
ATOM      2  C   UNL A   1      34.265  32.390  28.536  1.00  0.00     0.188 C 
BRANCH   2   3
ATOM      3  O   UNL A   1      34.957  31.237  28.055  1.00  0.00    -0.376 OA
BRANCH   3   4
ATOM      4  C   UNL A   1      34.200  30.349  27.241  1.00  0.00     0.202 C 
BRANCH   4   5
ATOM      5  C   UNL A   1      32.687  30.604  27.246  1.00  0.00     0.261 C 
BRANCH   5   6
ATOM      6  O   UNL A   1      31.881  29.447  26.977  1.00  0.00    -0.459 OA
BRANCH   6   7
ATOM      7  C   UNL A   1      31.404  29.295  25.712  1.00  0.00     0.348 C 
ATOM      8  O   UNL A   1      31.060  30.220  24.988  1.00  0.00    -0.245 OA
BRANCH   7   9
ATOM      9  C   UNL A   1      31.480  27.895  25.353  1.00  0.00     0.113 A 
ATOM     10  C   UNL A   1      31.780  25.577  25.427  1.00  0.00     0.019 A 
ATOM     11  C   UNL A   1      31.609  25.787  24.080  1.00  0.00     0.080 A 
ATOM     12  C   UNL A   1      31.732  26.800  26.158  1.00  0.00     0.042 A 
ATOM     13  S   UNL A   1      31.313  27.435  23.713  1.00  0.00    -0.136 S 
BRANCH  10  14
ATOM     14  S   UNL A   1      32.028  24.057  26.274  1.00  0.00    -0.122 SA
BRANCH  14  15
ATOM     15  C   UNL A   1      33.788  23.613  25.966  1.00  0.00     0.055 C 
ATOM     16  C   UNL A   1      33.935  23.159  24.488  1.00  0.00     0.002 C 
ATOM     17  C   UNL A   1      33.411  21.730  24.250  1.00  0.00     0.005 C 
ATOM     18  C   UNL A   1      33.925  20.707  25.253  1.00  0.00     0.000 C 
ATOM     19  C   UNL A   1      34.222  22.537  26.979  1.00  0.00     0.015 C 
ATOM     20  C   UNL A   1      33.666  21.144  26.687  1.00  0.00     0.001 C 
BRANCH  16  21
ATOM     21  C   UNL A   1      35.344  23.384  23.878  1.00  0.00     0.001 C 
ATOM     22  C   UNL A   1      36.530  23.521  24.817  1.00  0.00     0.004 C 
ENDBRANCH  16  21
ENDBRANCH  14  15
ENDBRANCH  10  14
ENDBRANCH   7   9
ENDBRANCH   6   7
ENDBRANCH   5   6
ENDBRANCH   4   5
ENDBRANCH   3   4
ENDBRANCH   2   3
ENDBRANCH   1   2
BRANCH   1  23
ATOM     23  O   UNL A   1      34.135  34.861  28.325  1.00  0.00    -0.377 OA
BRANCH  23  24
ATOM     24  C   UNL A   1      33.280  34.939  29.463  1.00  0.00     0.188 C 
BRANCH  24  25
ATOM     25  C   UNL A   1      33.244  36.169  30.397  1.00  0.00     0.188 C 
BRANCH  25  26
ATOM     26  O   UNL A   1      33.562  35.885  31.757  1.00  0.00    -0.376 OA
BRANCH  26  27
ATOM     27  C   UNL A   1      33.940  34.545  32.046  1.00  0.00     0.202 C 
BRANCH  27  28
ATOM     28  C   UNL A   1      35.429  34.416  32.385  1.00  0.00     0.261 C 
BRANCH  28  29
ATOM     29  O   UNL A   1      36.092  33.334  31.710  1.00  0.00    -0.460 OA
BRANCH  29  30
ATOM     30  C   UNL A   1      36.520  32.316  32.488  1.00  0.00     0.338 C 
ATOM     31  O   UNL A   1      36.074  31.971  33.567  1.00  0.00    -0.246 OA
BRANCH  30  32
ATOM     32  C   UNL A   1      37.537  31.560  31.736  1.00  0.00     0.060 A 
ATOM     33  C   UNL A   1      38.547  30.907  32.451  1.00  0.00     0.016 A 
ATOM     34  C   UNL A   1      37.511  31.524  30.339  1.00  0.00     0.016 A 
ATOM     35  C   UNL A   1      39.572  30.259  31.763  1.00  0.00     0.010 A 
ATOM     36  C   UNL A   1      38.543  30.885  29.652  1.00  0.00     0.010 A 
ATOM     37  C   UNL A   1      39.599  30.289  30.362  1.00  0.00    -0.014 A 
BRANCH  37  38
ATOM     38  C   UNL A   1      40.835  29.890  29.652  1.00  0.00     0.031 A 
ATOM     39  C   UNL A   1      40.936  28.480  29.139  1.00  0.00     0.074 A 
ATOM     40  C   UNL A   1      41.835  30.762  29.444  1.00  0.00     0.049 A 
ATOM     41  N   UNL A   1      41.906  27.903  28.478  1.00  0.00    -0.248 NA
ATOM     42  C   UNL A   1      39.784  27.602  29.409  1.00  0.00     0.031 C 
ATOM     43  C   UNL A   1      41.849  32.156  29.878  1.00  0.00     0.029 A 
ATOM     44  N   UNL A   1      43.040  30.591  28.811  1.00  0.00    -0.354 N 
ATOM     45  C   UNL A   1      41.477  26.603  28.243  1.00  0.00     0.074 A 
ATOM     46  C   UNL A   1      40.180  26.461  28.867  1.00  0.00     0.031 C 
ATOM     47  C   UNL A   1      43.015  32.715  29.508  1.00  0.00     0.029 A 
ATOM     48  C   UNL A   1      43.832  31.713  28.824  1.00  0.00     0.049 A 
ATOM     49  H   UNL A   1      43.312  29.744  28.389  1.00  0.00     0.167 HD
ATOM     50  C   UNL A   1      42.100  25.618  27.555  1.00  0.00     0.037 A 
ATOM     51  C   UNL A   1      45.077  31.899  28.346  1.00  0.00     0.037 A 
ATOM     52  C   UNL A   1      43.398  25.749  26.950  1.00  0.00     0.049 A 
ATOM     53  C   UNL A   1      45.777  30.768  27.638  1.00  0.00     0.074 A 
ATOM     54  C   UNL A   1      44.115  24.808  26.232  1.00  0.00     0.029 A 
ATOM     55  N   UNL A   1      44.176  26.894  27.002  1.00  0.00    -0.354 N 
ATOM     56  N   UNL A   1      45.348  29.555  27.387  1.00  0.00    -0.248 NA
ATOM     57  C   UNL A   1      47.134  31.037  27.140  1.00  0.00     0.031 C 
ATOM     58  C   UNL A   1      45.345  25.374  25.880  1.00  0.00     0.029 A 
ATOM     59  C   UNL A   1      45.375  26.680  26.344  1.00  0.00     0.049 A 
ATOM     60  H   UNL A   1      43.915  27.736  27.441  1.00  0.00     0.167 HD
ATOM     61  C   UNL A   1      46.367  28.926  26.683  1.00  0.00     0.074 A 
ATOM     62  C   UNL A   1      47.432  29.897  26.533  1.00  0.00     0.031 C 
ATOM     63  C   UNL A   1      46.420  27.660  26.202  1.00  0.00     0.037 A 
BRANCH  50  64
ATOM     64  C   UNL A   1      41.381  24.308  27.438  1.00  0.00     0.057 A 
ATOM     65  C   UNL A   1      40.271  24.155  26.596  1.00  0.00     0.134 A 
ATOM     66  C   UNL A   1      41.803  23.191  28.166  1.00  0.00     0.134 A 
ATOM     67  F   UNL A   1      39.805  25.195  25.888  1.00  0.00    -0.206 F 
ATOM     68  C   UNL A   1      39.594  22.938  26.499  1.00  0.00     0.040 A 
ATOM     69  C   UNL A   1      41.148  21.963  28.059  1.00  0.00     0.040 A 
ATOM     70  F   UNL A   1      42.858  23.274  28.991  1.00  0.00    -0.206 F 
ATOM     71  C   UNL A   1      40.037  21.837  27.229  1.00  0.00     0.006 A 
ENDBRANCH  50  64
BRANCH  51  72
ATOM     72  C   UNL A   1      45.752  33.209  28.518  1.00  0.00     0.057 A 
ATOM     73  C   UNL A   1      46.501  33.494  29.664  1.00  0.00     0.134 A 
ATOM     74  C   UNL A   1      45.633  34.218  27.556  1.00  0.00     0.134 A 
ATOM     75  F   UNL A   1      46.629  32.576  30.633  1.00  0.00    -0.206 F 
ATOM     76  C   UNL A   1      47.094  34.743  29.858  1.00  0.00     0.040 A 
ATOM     77  C   UNL A   1      46.238  35.464  27.725  1.00  0.00     0.040 A 
ATOM     78  F   UNL A   1      44.925  34.007  26.437  1.00  0.00    -0.206 F 
ATOM     79  C   UNL A   1      46.966  35.732  28.883  1.00  0.00     0.006 A 
ENDBRANCH  51  72
BRANCH  63  80
ATOM     80  C   UNL A   1      47.653  27.263  25.445  1.00  0.00     0.057 A 
ATOM     81  C   UNL A   1      47.773  27.476  24.066  1.00  0.00     0.134 A 
ATOM     82  C   UNL A   1      48.747  26.696  26.110  1.00  0.00     0.134 A 
ATOM     83  F   UNL A   1      46.756  28.006  23.369  1.00  0.00    -0.206 F 
ATOM     84  C   UNL A   1      48.930  27.119  23.372  1.00  0.00     0.040 A 
ATOM     85  C   UNL A   1      49.918  26.356  25.432  1.00  0.00     0.040 A 
ATOM     86  F   UNL A   1      48.700  26.474  27.433  1.00  0.00    -0.206 F 
ATOM     87  C   UNL A   1      50.009  26.563  24.056  1.00  0.00     0.006 A 
ENDBRANCH  63  80
ENDBRANCH  37  38
ENDBRANCH  30  32
ENDBRANCH  29  30
ENDBRANCH  28  29
ENDBRANCH  27  28
ENDBRANCH  26  27
ENDBRANCH  25  26
ENDBRANCH  24  25
ENDBRANCH  23  24
ENDBRANCH   1  23
TORSDOF 23
ENDMDL
MODEL 2
REMARK VINA RESULT:      -8.8      0.952      6.110
REMARK SMILES CC[C@H]1CCCC[C@@H]1Sc1csc(C(=O)OCCOCCOCCOCCOC(=O)c2ccc(-c3c4nc(c(-c5c(F)cccc5F)c5ccc([nH]5)c(-c5c(F)cccc5F)c5nc(c(-c6c(F)cccc6F)c6ccc3[nH]6)C=C5)C=C4)cc2)c1
REMARK SMILES IDX 21 1 20 2 19 3 18 4 17 5 16 6 14 7 15 8 13 9 10 10 11 11
REMARK SMILES IDX 85 12 12 13 9 14 8 15 3 16 4 17 5 18 7 19 6 20 2 21 1 22
REMARK SMILES IDX 22 23 23 24 24 25 25 26 26 27 27 28 28 29 29 30 30 31 31 32
REMARK SMILES IDX 32 33 84 34 33 35 83 36 34 37 35 38 36 39 77 40 37 41 82 42
REMARK SMILES IDX 76 43 78 44 38 45 81 46 75 47 74 48 39 50 65 51 48 52 64 53
REMARK SMILES IDX 49 54 52 55 63 56 79 57 50 58 51 59 62 61 80 62 53 63 40 64
REMARK SMILES IDX 41 65 46 66 42 67 43 68 45 69 47 70 44 71 66 72 67 73 72 74
REMARK SMILES IDX 68 75 69 76 71 77 73 78 70 79 54 80 55 81 60 82 56 83 57 84
REMARK SMILES IDX 59 85 61 86 58 87
REMARK H PARENT 78 49 52 60
REMARK Flexibility Score: inf
ROOT
ATOM      1  C   UNL A   1      35.119  33.879  28.486  1.00  0.00     0.188 C 
ENDROOT
BRANCH   1   2
ATOM      2  C   UNL A   1      34.473  32.554  28.921  1.00  0.00     0.188 C 
BRANCH   2   3
ATOM      3  O   UNL A   1      35.344  31.429  28.793  1.00  0.00    -0.376 OA
BRANCH   3   4
ATOM      4  C   UNL A   1      34.865  30.355  27.993  1.00  0.00     0.202 C 
BRANCH   4   5
ATOM      5  C   UNL A   1      33.576  30.656  27.218  1.00  0.00     0.261 C 
BRANCH   5   6
ATOM      6  O   UNL A   1      32.817  29.498  26.840  1.00  0.00    -0.459 OA
BRANCH   6   7
ATOM      7  C   UNL A   1      31.780  29.681  25.979  1.00  0.00     0.348 C 
ATOM      8  O   UNL A   1      31.385  30.774  25.595  1.00  0.00    -0.245 OA
BRANCH   7   9
ATOM      9  C   UNL A   1      31.318  28.385  25.527  1.00  0.00     0.113 A 
ATOM     10  C   UNL A   1      30.852  26.098  25.386  1.00  0.00     0.019 A 
ATOM     11  C   UNL A   1      30.486  26.528  24.134  1.00  0.00     0.080 A 
ATOM     12  C   UNL A   1      31.358  27.168  26.180  1.00  0.00     0.042 A 
ATOM     13  S   UNL A   1      30.676  28.222  23.949  1.00  0.00    -0.136 S 
BRANCH  10  14
ATOM     14  S   UNL A   1      30.759  24.476  26.055  1.00  0.00    -0.122 SA
BRANCH  14  15
ATOM     15  C   UNL A   1      31.911  23.464  25.035  1.00  0.00     0.055 C 
ATOM     16  C   UNL A   1      32.133  22.100  25.743  1.00  0.00     0.002 C 
ATOM     17  C   UNL A   1      33.097  22.200  26.940  1.00  0.00     0.005 C 
ATOM     18  C   UNL A   1      34.390  22.942  26.633  1.00  0.00     0.000 C 
ATOM     19  C   UNL A   1      33.214  24.253  24.812  1.00  0.00     0.015 C 
ATOM     20  C   UNL A   1      34.123  24.318  26.039  1.00  0.00     0.001 C 
BRANCH  16  21
ATOM     21  C   UNL A   1      32.490  20.926  24.791  1.00  0.00     0.001 C 
ATOM     22  C   UNL A   1      33.844  20.254  24.942  1.00  0.00     0.004 C 
ENDBRANCH  16  21
ENDBRANCH  14  15
ENDBRANCH  10  14
ENDBRANCH   7   9
ENDBRANCH   6   7
ENDBRANCH   5   6
ENDBRANCH   4   5
ENDBRANCH   3   4
ENDBRANCH   2   3
ENDBRANCH   1   2
BRANCH   1  23
ATOM     23  O   UNL A   1      34.274  35.009  28.611  1.00  0.00    -0.377 OA
BRANCH  23  24
ATOM     24  C   UNL A   1      33.274  35.012  29.627  1.00  0.00     0.188 C 
BRANCH  24  25
ATOM     25  C   UNL A   1      33.092  36.184  30.616  1.00  0.00     0.188 C 
BRANCH  25  26
ATOM     26  O   UNL A   1      33.141  35.807  31.990  1.00  0.00    -0.376 OA
BRANCH  26  27
ATOM     27  C   UNL A   1      33.700  34.530  32.270  1.00  0.00     0.202 C 
BRANCH  27  28
ATOM     28  C   UNL A   1      35.162  34.615  32.721  1.00  0.00     0.261 C 
BRANCH  28  29
ATOM     29  O   UNL A   1      36.074  33.873  31.894  1.00  0.00    -0.460 OA
BRANCH  29  30
ATOM     30  C   UNL A   1      36.472  32.673  32.370  1.00  0.00     0.338 C 
ATOM     31  O   UNL A   1      35.830  31.898  33.056  1.00  0.00    -0.246 OA
BRANCH  30  32
ATOM     32  C   UNL A   1      37.785  32.358  31.779  1.00  0.00     0.060 A 
ATOM     33  C   UNL A   1      37.992  32.642  30.425  1.00  0.00     0.016 A 
ATOM     34  C   UNL A   1      38.788  31.761  32.547  1.00  0.00     0.016 A 
ATOM     35  C   UNL A   1      39.191  32.274  29.818  1.00  0.00     0.010 A 
ATOM     36  C   UNL A   1      39.983  31.382  31.936  1.00  0.00     0.010 A 
ATOM     37  C   UNL A   1      40.171  31.599  30.560  1.00  0.00    -0.014 A 
BRANCH  37  38
ATOM     38  C   UNL A   1      41.286  30.931  29.852  1.00  0.00     0.031 A 
ATOM     39  C   UNL A   1      42.529  31.729  29.571  1.00  0.00     0.074 A 
ATOM     40  C   UNL A   1      41.211  29.641  29.487  1.00  0.00     0.049 A 
ATOM     41  N   UNL A   1      43.638  31.363  28.982  1.00  0.00    -0.248 NA
ATOM     42  C   UNL A   1      42.519  33.133  30.018  1.00  0.00     0.031 C 
ATOM     43  C   UNL A   1      40.069  28.759  29.716  1.00  0.00     0.029 A 
ATOM     44  N   UNL A   1      42.126  28.850  28.838  1.00  0.00    -0.354 N 
ATOM     45  C   UNL A   1      44.458  32.483  28.998  1.00  0.00     0.074 A 
ATOM     46  C   UNL A   1      43.707  33.554  29.616  1.00  0.00     0.031 C 
ATOM     47  C   UNL A   1      40.347  27.547  29.204  1.00  0.00     0.029 A 
ATOM     48  C   UNL A   1      41.679  27.574  28.601  1.00  0.00     0.049 A 
ATOM     49  H   UNL A   1      43.017  29.168  28.568  1.00  0.00     0.167 HD
ATOM     50  C   UNL A   1      45.730  32.607  28.552  1.00  0.00     0.037 A 
ATOM     51  C   UNL A   1      42.278  26.552  27.960  1.00  0.00     0.037 A 
ATOM     52  C   UNL A   1      46.473  31.551  27.920  1.00  0.00     0.049 A 
ATOM     53  C   UNL A   1      43.671  26.732  27.416  1.00  0.00     0.074 A 
ATOM     54  C   UNL A   1      47.768  31.578  27.433  1.00  0.00     0.029 A 
ATOM     55  N   UNL A   1      45.979  30.280  27.680  1.00  0.00    -0.354 N 
ATOM     56  N   UNL A   1      44.453  27.784  27.471  1.00  0.00    -0.248 NA
ATOM     57  C   UNL A   1      44.267  25.578  26.727  1.00  0.00     0.031 C 
ATOM     58  C   UNL A   1      48.044  30.331  26.864  1.00  0.00     0.029 A 
ATOM     59  C   UNL A   1      46.936  29.516  27.035  1.00  0.00     0.049 A 
ATOM     60  H   UNL A   1      45.079  29.965  27.930  1.00  0.00     0.167 HD
ATOM     61  C   UNL A   1      45.638  27.411  26.849  1.00  0.00     0.074 A 
ATOM     62  C   UNL A   1      45.479  26.032  26.436  1.00  0.00     0.031 C 
ATOM     63  C   UNL A   1      46.760  28.143  26.637  1.00  0.00     0.037 A 
BRANCH  50  64
ATOM     64  C   UNL A   1      46.386  33.944  28.727  1.00  0.00     0.057 A 
ATOM     65  C   UNL A   1      46.285  34.943  27.749  1.00  0.00     0.134 A 
ATOM     66  C   UNL A   1      47.118  34.238  29.882  1.00  0.00     0.134 A 
ATOM     67  F   UNL A   1      45.614  34.714  26.610  1.00  0.00    -0.206 F 
ATOM     68  C   UNL A   1      46.907  36.182  27.907  1.00  0.00     0.040 A 
ATOM     69  C   UNL A   1      47.726  35.482  30.061  1.00  0.00     0.040 A 
ATOM     70  F   UNL A   1      47.254  33.323  30.854  1.00  0.00    -0.206 F 
ATOM     71  C   UNL A   1      47.626  36.455  29.069  1.00  0.00     0.006 A 
ENDBRANCH  50  64
BRANCH  51  72
ATOM     72  C   UNL A   1      41.567  25.261  27.791  1.00  0.00     0.057 A 
ATOM     73  C   UNL A   1      41.918  24.135  28.543  1.00  0.00     0.134 A 
ATOM     74  C   UNL A   1      40.544  25.115  26.847  1.00  0.00     0.134 A 
ATOM     75  F   UNL A   1      42.907  24.206  29.444  1.00  0.00    -0.206 F 
ATOM     76  C   UNL A   1      41.289  22.903  28.351  1.00  0.00     0.040 A 
ATOM     77  C   UNL A   1      39.892  23.896  26.659  1.00  0.00     0.040 A 
ATOM     78  F   UNL A   1      40.164  26.157  26.093  1.00  0.00    -0.206 F 
ATOM     79  C   UNL A   1      40.269  22.782  27.408  1.00  0.00     0.006 A 
ENDBRANCH  51  72
BRANCH  63  80
ATOM     80  C   UNL A   1      47.909  27.459  25.956  1.00  0.00     0.057 A 
ATOM     81  C   UNL A   1      48.015  27.408  24.561  1.00  0.00     0.134 A 
ATOM     82  C   UNL A   1      48.940  26.881  26.706  1.00  0.00     0.134 A 
ATOM     83  F   UNL A   1      47.055  27.934  23.786  1.00  0.00    -0.206 F 
ATOM     84  C   UNL A   1      49.096  26.784  23.935  1.00  0.00     0.040 A 
ATOM     85  C   UNL A   1      50.038  26.275  26.093  1.00  0.00     0.040 A 
ATOM     86  F   UNL A   1      48.903  26.905  28.047  1.00  0.00    -0.206 F 
ATOM     87  C   UNL A   1      50.115  26.222  24.703  1.00  0.00     0.006 A 
ENDBRANCH  63  80
ENDBRANCH  37  38
ENDBRANCH  30  32
ENDBRANCH  29  30
ENDBRANCH  28  29
ENDBRANCH  27  28
ENDBRANCH  26  27
ENDBRANCH  25  26
ENDBRANCH  24  25
ENDBRANCH  23  24
ENDBRANCH   1  23
TORSDOF 23
ENDMDL
MODEL 3
REMARK VINA RESULT:      -8.6      1.666      2.440
REMARK SMILES CC[C@H]1CCCC[C@@H]1Sc1csc(C(=O)OCCOCCOCCOCCOC(=O)c2ccc(-c3c4nc(c(-c5c(F)cccc5F)c5ccc([nH]5)c(-c5c(F)cccc5F)c5nc(c(-c6c(F)cccc6F)c6ccc3[nH]6)C=C5)C=C4)cc2)c1
REMARK SMILES IDX 21 1 20 2 19 3 18 4 17 5 16 6 14 7 15 8 13 9 10 10 11 11
REMARK SMILES IDX 85 12 12 13 9 14 8 15 3 16 4 17 5 18 7 19 6 20 2 21 1 22
REMARK SMILES IDX 22 23 23 24 24 25 25 26 26 27 27 28 28 29 29 30 30 31 31 32
REMARK SMILES IDX 32 33 84 34 33 35 83 36 34 37 35 38 36 39 77 40 37 41 82 42
REMARK SMILES IDX 76 43 78 44 38 45 81 46 75 47 74 48 39 50 65 51 48 52 64 53
REMARK SMILES IDX 49 54 52 55 63 56 79 57 50 58 51 59 62 61 80 62 53 63 40 64
REMARK SMILES IDX 41 65 46 66 42 67 43 68 45 69 47 70 44 71 66 72 67 73 72 74
REMARK SMILES IDX 68 75 69 76 71 77 73 78 70 79 54 80 55 81 60 82 56 83 57 84
REMARK SMILES IDX 59 85 61 86 58 87
REMARK H PARENT 78 49 52 60
REMARK Flexibility Score: inf
ROOT
ATOM      1  C   UNL A   1      35.714  32.957  28.035  1.00  0.00     0.188 C 
ENDROOT
BRANCH   1   2
ATOM      2  C   UNL A   1      35.049  31.634  28.448  1.00  0.00     0.188 C 
BRANCH   2   3
ATOM      3  O   UNL A   1      35.765  30.479  28.010  1.00  0.00    -0.376 OA
BRANCH   3   4
ATOM      4  C   UNL A   1      35.006  29.502  27.308  1.00  0.00     0.202 C 
BRANCH   4   5
ATOM      5  C   UNL A   1      33.572  29.927  26.965  1.00  0.00     0.261 C 
BRANCH   5   6
ATOM      6  O   UNL A   1      32.661  28.841  26.739  1.00  0.00    -0.459 OA
BRANCH   6   7
ATOM      7  C   UNL A   1      31.765  28.975  25.724  1.00  0.00     0.348 C 
ATOM      8  O   UNL A   1      31.521  30.030  25.152  1.00  0.00    -0.245 OA
BRANCH   7   9
ATOM      9  C   UNL A   1      31.252  27.665  25.381  1.00  0.00     0.113 A 
ATOM     10  C   UNL A   1      30.821  25.367  25.351  1.00  0.00     0.019 A 
ATOM     11  C   UNL A   1      30.203  25.776  24.193  1.00  0.00     0.080 A 
ATOM     12  C   UNL A   1      31.450  26.456  26.022  1.00  0.00     0.042 A 
ATOM     13  S   UNL A   1      30.313  27.471  23.964  1.00  0.00    -0.136 S 
BRANCH  10  14
ATOM     14  S   UNL A   1      30.901  23.751  26.036  1.00  0.00    -0.122 SA
BRANCH  14  15
ATOM     15  C   UNL A   1      31.770  22.731  24.772  1.00  0.00     0.055 C 
ATOM     16  C   UNL A   1      32.232  21.406  25.436  1.00  0.00     0.002 C 
ATOM     17  C   UNL A   1      33.482  21.588  26.318  1.00  0.00     0.005 C 
ATOM     18  C   UNL A   1      34.610  22.354  25.642  1.00  0.00     0.000 C 
ATOM     19  C   UNL A   1      32.928  23.549  24.172  1.00  0.00     0.015 C 
ATOM     20  C   UNL A   1      34.135  23.694  25.098  1.00  0.00     0.001 C 
BRANCH  16  21
ATOM     21  C   UNL A   1      32.363  20.204  24.462  1.00  0.00     0.001 C 
ATOM     22  C   UNL A   1      33.176  18.998  24.901  1.00  0.00     0.004 C 
ENDBRANCH  16  21
ENDBRANCH  14  15
ENDBRANCH  10  14
ENDBRANCH   7   9
ENDBRANCH   6   7
ENDBRANCH   5   6
ENDBRANCH   4   5
ENDBRANCH   3   4
ENDBRANCH   2   3
ENDBRANCH   1   2
BRANCH   1  23
ATOM     23  O   UNL A   1      35.043  34.117  28.495  1.00  0.00    -0.377 OA
BRANCH  23  24
ATOM     24  C   UNL A   1      34.315  34.051  29.720  1.00  0.00     0.188 C 
BRANCH  24  25
ATOM     25  C   UNL A   1      34.834  34.677  31.033  1.00  0.00     0.188 C 
BRANCH  25  26
ATOM     26  O   UNL A   1      34.615  33.878  32.193  1.00  0.00    -0.376 OA
BRANCH  26  27
ATOM     27  C   UNL A   1      34.704  32.470  32.010  1.00  0.00     0.202 C 
BRANCH  27  28
ATOM     28  C   UNL A   1      36.064  31.907  32.438  1.00  0.00     0.261 C 
BRANCH  28  29
ATOM     29  O   UNL A   1      36.857  31.403  31.351  1.00  0.00    -0.460 OA
BRANCH  29  30
ATOM     30  C   UNL A   1      37.273  30.123  31.458  1.00  0.00     0.338 C 
ATOM     31  O   UNL A   1      36.598  29.144  31.719  1.00  0.00    -0.246 OA
BRANCH  30  32
ATOM     32  C   UNL A   1      38.685  30.062  31.037  1.00  0.00     0.060 A 
ATOM     33  C   UNL A   1      38.995  30.349  29.704  1.00  0.00     0.016 A 
ATOM     34  C   UNL A   1      39.684  29.698  31.943  1.00  0.00     0.016 A 
ATOM     35  C   UNL A   1      40.309  30.213  29.256  1.00  0.00     0.010 A 
ATOM     36  C   UNL A   1      40.995  29.551  31.492  1.00  0.00     0.010 A 
ATOM     37  C   UNL A   1      41.304  29.767  30.138  1.00  0.00    -0.014 A 
BRANCH  37  38
ATOM     38  C   UNL A   1      42.606  29.319  29.595  1.00  0.00     0.031 A 
ATOM     39  C   UNL A   1      42.705  27.921  29.049  1.00  0.00     0.074 A 
ATOM     40  C   UNL A   1      43.670  30.137  29.563  1.00  0.00     0.049 A 
ATOM     41  N   UNL A   1      43.727  27.309  28.511  1.00  0.00    -0.248 NA
ATOM     42  C   UNL A   1      41.482  27.103  29.121  1.00  0.00     0.031 C 
ATOM     43  C   UNL A   1      43.695  31.515  30.046  1.00  0.00     0.029 A 
ATOM     44  N   UNL A   1      44.943  29.916  29.100  1.00  0.00    -0.354 N 
ATOM     45  C   UNL A   1      43.269  26.043  28.170  1.00  0.00     0.074 A 
ATOM     46  C   UNL A   1      41.891  25.958  28.599  1.00  0.00     0.031 C 
ATOM     47  C   UNL A   1      44.930  32.017  29.865  1.00  0.00     0.029 A 
ATOM     48  C   UNL A   1      45.782  30.990  29.266  1.00  0.00     0.049 A 
ATOM     49  H   UNL A   1      45.227  29.068  28.690  1.00  0.00     0.167 HD
ATOM     50  C   UNL A   1      43.931  25.044  27.540  1.00  0.00     0.037 A 
ATOM     51  C   UNL A   1      47.090  31.119  28.975  1.00  0.00     0.037 A 
ATOM     52  C   UNL A   1      45.307  25.118  27.129  1.00  0.00     0.049 A 
ATOM     53  C   UNL A   1      47.824  29.970  28.332  1.00  0.00     0.074 A 
ATOM     54  C   UNL A   1      46.069  24.159  26.485  1.00  0.00     0.029 A 
ATOM     55  N   UNL A   1      46.129  26.215  27.333  1.00  0.00    -0.354 N 
ATOM     56  N   UNL A   1      47.372  28.792  27.978  1.00  0.00    -0.248 NA
ATOM     57  C   UNL A   1      49.251  30.176  28.041  1.00  0.00     0.031 C 
ATOM     58  C   UNL A   1      47.364  24.664  26.332  1.00  0.00     0.029 A 
ATOM     59  C   UNL A   1      47.396  25.952  26.844  1.00  0.00     0.049 A 
ATOM     60  H   UNL A   1      45.853  27.057  27.763  1.00  0.00     0.167 HD
ATOM     61  C   UNL A   1      48.447  28.127  27.402  1.00  0.00     0.074 A 
ATOM     62  C   UNL A   1      49.572  29.038  27.440  1.00  0.00     0.031 C 
ATOM     63  C   UNL A   1      48.502  26.874  26.887  1.00  0.00     0.037 A 
BRANCH  50  64
ATOM     64  C   UNL A   1      43.168  23.782  27.274  1.00  0.00     0.057 A 
ATOM     65  C   UNL A   1      42.603  23.518  26.019  1.00  0.00     0.134 A 
ATOM     66  C   UNL A   1      43.001  22.821  28.277  1.00  0.00     0.134 A 
ATOM     67  F   UNL A   1      42.711  24.410  25.023  1.00  0.00    -0.206 F 
ATOM     68  C   UNL A   1      41.882  22.348  25.778  1.00  0.00     0.040 A 
ATOM     69  C   UNL A   1      42.301  21.637  28.040  1.00  0.00     0.040 A 
ATOM     70  F   UNL A   1      43.515  23.016  29.501  1.00  0.00    -0.206 F 
ATOM     71  C   UNL A   1      41.733  21.402  26.790  1.00  0.00     0.006 A 
ENDBRANCH  50  64
BRANCH  51  72
ATOM     72  C   UNL A   1      47.802  32.382  29.290  1.00  0.00     0.057 A 
ATOM     73  C   UNL A   1      47.892  33.417  28.353  1.00  0.00     0.134 A 
ATOM     74  C   UNL A   1      48.438  32.568  30.522  1.00  0.00     0.134 A 
ATOM     75  F   UNL A   1      47.325  33.286  27.145  1.00  0.00    -0.206 F 
ATOM     76  C   UNL A   1      48.605  34.587  28.622  1.00  0.00     0.040 A 
ATOM     77  C   UNL A   1      49.136  33.741  30.814  1.00  0.00     0.040 A 
ATOM     78  F   UNL A   1      48.390  31.612  31.460  1.00  0.00    -0.206 F 
ATOM     79  C   UNL A   1      49.227  34.752  29.859  1.00  0.00     0.006 A 
ENDBRANCH  51  72
BRANCH  63  80
ATOM     80  C   UNL A   1      49.807  26.429  26.297  1.00  0.00     0.057 A 
ATOM     81  C   UNL A   1      50.202  26.809  25.009  1.00  0.00     0.134 A 
ATOM     82  C   UNL A   1      50.696  25.643  27.041  1.00  0.00     0.134 A 
ATOM     83  F   UNL A   1      49.392  27.552  24.240  1.00  0.00    -0.206 F 
ATOM     84  C   UNL A   1      51.426  26.405  24.473  1.00  0.00     0.040 A 
ATOM     85  C   UNL A   1      51.932  25.252  26.527  1.00  0.00     0.040 A 
ATOM     86  F   UNL A   1      50.381  25.254  28.286  1.00  0.00    -0.206 F 
ATOM     87  C   UNL A   1      52.298  25.629  25.236  1.00  0.00     0.006 A 
ENDBRANCH  63  80
ENDBRANCH  37  38
ENDBRANCH  30  32
ENDBRANCH  29  30
ENDBRANCH  28  29
ENDBRANCH  27  28
ENDBRANCH  26  27
ENDBRANCH  25  26
ENDBRANCH  24  25
ENDBRANCH  23  24
ENDBRANCH   1  23
TORSDOF 23
ENDMDL
