MODEL 1
REMARK VINA RESULT:     -12.5      0.000      0.000
REMARK SMILES COc1ccc(-c2[nH]nc3nc(-c4ccc(C(F)(F)F)cc4)cc(C(=O)OCCOCCOCCOCCOC(=O)c4ccc(-c5c6nc(c(-c7c(F)cccc7F)c7ccc([nH]7)c(-c7c(F)cccc7F)c7nc(c(-c8c(F)cccc8F)c8ccc5[nH]8)C=C7)C=C6)cc4)c23)cc1
REMARK SMILES IDX 33 1 32 2 31 3 30 4 29 5 28 6 27 7 25 8 26 9 24 10 7 11 8 12
REMARK SMILES IDX 96 13 9 14 10 16 11 17 23 18 12 19 6 20 3 21 4 22 98 23 5 24
REMARK SMILES IDX 97 25 2 26 1 27 13 28 14 29 22 30 15 31 21 32 16 33 17 34
REMARK SMILES IDX 18 35 19 36 20 37 34 38 35 39 36 40 37 41 38 42 39 43 40 44
REMARK SMILES IDX 41 45 42 46 43 47 95 48 44 49 94 50 45 51 46 52 47 53 88 54
REMARK SMILES IDX 48 55 93 56 87 57 89 58 49 59 92 60 86 61 85 62 50 64 76 65
REMARK SMILES IDX 59 66 75 67 60 68 63 69 74 70 90 71 61 72 62 73 73 75 91 76
REMARK SMILES IDX 64 77 51 78 52 79 57 80 53 81 54 82 56 83 58 84 55 85 77 86
REMARK SMILES IDX 78 87 83 88 79 89 80 90 82 91 84 92 81 93 65 94 66 95 71 96
REMARK SMILES IDX 67 97 68 98 70 99 72 100 69 101
REMARK H PARENT 8 15 89 63 63 74
REMARK Flexibility Score: inf
ROOT
ATOM      1  O   UNL A   1      38.697  22.388  25.765  1.00  0.00    -0.377 OA
ENDROOT
BRANCH   1   2
ATOM      2  C   UNL A   1      37.699  21.480  25.302  1.00  0.00     0.188 C 
BRANCH   2   3
ATOM      3  C   UNL A   1      36.270  21.790  25.734  1.00  0.00     0.188 C 
BRANCH   3   4
ATOM      4  O   UNL A   1      35.995  23.154  25.979  1.00  0.00    -0.376 OA
BRANCH   4   5
ATOM      5  C   UNL A   1      35.864  24.074  24.905  1.00  0.00     0.202 C 
BRANCH   5   6
ATOM      6  C   UNL A   1      34.587  24.921  24.813  1.00  0.00     0.261 C 
BRANCH   6   7
ATOM      7  O   UNL A   1      34.143  25.204  23.471  1.00  0.00    -0.460 OA
BRANCH   7   8
ATOM      8  C   UNL A   1      32.824  25.089  23.198  1.00  0.00     0.339 C 
ATOM      9  O   UNL A   1      32.248  25.643  22.275  1.00  0.00    -0.246 OA
BRANCH   8  10
ATOM     10  C   UNL A   1      32.252  24.091  24.133  1.00  0.00     0.075 A 
ATOM     11  C   UNL A   1      30.480  25.419  25.359  1.00  0.00     0.075 A 
ATOM     12  N   UNL A   1      29.723  25.066  26.453  1.00  0.00    -0.275 N 
ATOM     13  C   UNL A   1      31.273  24.308  25.114  1.00  0.00     0.061 A 
ATOM     14  N   UNL A   1      29.818  23.775  26.807  1.00  0.00    -0.154 NA
ATOM     15  H   UNL A   1      29.159  25.710  26.939  1.00  0.00     0.190 HD
ATOM     16  C   UNL A   1      30.729  23.287  25.967  1.00  0.00     0.182 A 
ATOM     17  N   UNL A   1      31.079  21.981  25.869  1.00  0.00    -0.226 NA
ATOM     18  C   UNL A   1      32.561  22.714  24.042  1.00  0.00     0.045 A 
ATOM     19  C   UNL A   1      31.986  21.724  24.888  1.00  0.00     0.074 A 
BRANCH  11  20
ATOM     20  C   UNL A   1      30.202  26.666  24.657  1.00  0.00     0.001 A 
ATOM     21  C   UNL A   1      29.696  29.120  23.368  1.00  0.00     0.118 A 
ATOM     22  C   UNL A   1      28.873  28.012  23.149  1.00  0.00     0.047 A 
ATOM     23  C   UNL A   1      30.795  28.991  24.214  1.00  0.00     0.047 A 
ATOM     24  C   UNL A   1      29.127  26.787  23.777  1.00  0.00     0.014 A 
ATOM     25  C   UNL A   1      31.048  27.769  24.849  1.00  0.00     0.014 A 
BRANCH  21  26
ATOM     26  O   UNL A   1      29.309  30.259  22.718  1.00  0.00    -0.497 OA
ATOM     27  C   UNL A   1      27.963  30.683  22.900  1.00  0.00     0.278 C 
ENDBRANCH  21  26
ENDBRANCH  11  20
BRANCH  19  28
ATOM     28  C   UNL A   1      32.383  20.298  24.764  1.00  0.00     0.000 A 
ATOM     29  C   UNL A   1      32.828  19.545  25.868  1.00  0.00     0.011 A 
ATOM     30  C   UNL A   1      32.363  19.651  23.515  1.00  0.00     0.011 A 
ATOM     31  C   UNL A   1      33.238  18.209  25.725  1.00  0.00     0.014 A 
ATOM     32  C   UNL A   1      32.771  18.321  23.369  1.00  0.00     0.014 A 
ATOM     33  C   UNL A   1      33.218  17.585  24.471  1.00  0.00     0.056 A 
BRANCH  33  34
ATOM     34  C   UNL A   1      33.687  16.159  24.306  1.00  0.00     0.416 C 
ATOM     35  F   UNL A   1      32.683  15.253  24.466  1.00  0.00    -0.166 F 
ATOM     36  F   UNL A   1      34.217  15.920  23.074  1.00  0.00    -0.166 F 
ATOM     37  F   UNL A   1      34.654  15.801  25.199  1.00  0.00    -0.166 F 
ENDBRANCH  33  34
ENDBRANCH  19  28
ENDBRANCH   8  10
ENDBRANCH   7   8
ENDBRANCH   6   7
ENDBRANCH   5   6
ENDBRANCH   4   5
ENDBRANCH   3   4
ENDBRANCH   2   3
ENDBRANCH   1   2
BRANCH   1  38
ATOM     38  C   UNL A   1      39.748  21.824  26.550  1.00  0.00     0.188 C 
BRANCH  38  39
ATOM     39  C   UNL A   1      40.234  20.384  26.219  1.00  0.00     0.188 C 
BRANCH  39  40
ATOM     40  O   UNL A   1      41.633  20.241  26.014  1.00  0.00    -0.376 OA
BRANCH  40  41
ATOM     41  C   UNL A   1      42.344  19.041  26.263  1.00  0.00     0.202 C 
BRANCH  41  42
ATOM     42  C   UNL A   1      43.631  18.658  25.528  1.00  0.00     0.261 C 
BRANCH  42  43
ATOM     43  O   UNL A   1      44.587  19.683  25.415  1.00  0.00    -0.460 OA
BRANCH  43  44
ATOM     44  C   UNL A   1      44.696  20.211  24.188  1.00  0.00     0.338 C 
ATOM     45  O   UNL A   1      44.614  19.626  23.121  1.00  0.00    -0.246 OA
BRANCH  44  46
ATOM     46  C   UNL A   1      45.044  21.624  24.332  1.00  0.00     0.060 A 
ATOM     47  C   UNL A   1      46.032  21.911  25.270  1.00  0.00     0.016 A 
ATOM     48  C   UNL A   1      44.132  22.584  23.870  1.00  0.00     0.016 A 
ATOM     49  C   UNL A   1      45.901  23.071  25.985  1.00  0.00     0.010 A 
ATOM     50  C   UNL A   1      43.984  23.729  24.603  1.00  0.00     0.010 A 
ATOM     51  C   UNL A   1      44.802  23.895  25.714  1.00  0.00    -0.014 A 
BRANCH  51  52
ATOM     52  C   UNL A   1      44.590  25.031  26.576  1.00  0.00     0.031 A 
ATOM     53  C   UNL A   1      45.699  25.993  26.456  1.00  0.00     0.074 A 
ATOM     54  C   UNL A   1      43.471  25.173  27.310  1.00  0.00     0.049 A 
ATOM     55  N   UNL A   1      46.628  26.224  27.320  1.00  0.00    -0.248 NA
ATOM     56  C   UNL A   1      45.950  26.583  25.129  1.00  0.00     0.031 C 
ATOM     57  C   UNL A   1      42.248  24.366  27.253  1.00  0.00     0.029 A 
ATOM     58  N   UNL A   1      43.154  26.143  28.208  1.00  0.00    -0.354 N 
ATOM     59  C   UNL A   1      47.427  27.195  26.732  1.00  0.00     0.074 A 
ATOM     60  C   UNL A   1      47.122  27.182  25.329  1.00  0.00     0.031 C 
ATOM     61  C   UNL A   1      41.254  25.015  27.904  1.00  0.00     0.029 A 
ATOM     62  C   UNL A   1      41.801  26.206  28.529  1.00  0.00     0.049 A 
ATOM     63  H   UNL A   1      43.824  26.750  28.598  1.00  0.00     0.167 HD
ATOM     64  C   UNL A   1      47.986  28.163  27.503  1.00  0.00     0.037 A 
ATOM     65  C   UNL A   1      41.194  27.217  29.200  1.00  0.00     0.037 A 
ATOM     66  C   UNL A   1      48.022  27.754  28.886  1.00  0.00     0.049 A 
ATOM     67  C   UNL A   1      42.256  27.971  29.908  1.00  0.00     0.074 A 
ATOM     68  C   UNL A   1      48.625  26.740  29.601  1.00  0.00     0.029 A 
ATOM     69  N   UNL A   1      47.004  28.235  29.669  1.00  0.00    -0.354 N 
ATOM     70  N   UNL A   1      42.930  27.499  30.919  1.00  0.00    -0.248 NA
ATOM     71  C   UNL A   1      42.864  29.105  29.230  1.00  0.00     0.031 C 
ATOM     72  C   UNL A   1      47.711  26.415  30.648  1.00  0.00     0.029 A 
ATOM     73  C   UNL A   1      46.619  27.280  30.568  1.00  0.00     0.049 A 
ATOM     74  H   UNL A   1      46.609  29.133  29.595  1.00  0.00     0.167 HD
ATOM     75  C   UNL A   1      44.221  27.964  30.726  1.00  0.00     0.074 A 
ATOM     76  C   UNL A   1      44.087  29.053  29.762  1.00  0.00     0.031 C 
ATOM     77  C   UNL A   1      45.289  27.217  31.135  1.00  0.00     0.037 A 
BRANCH  64  78
ATOM     78  C   UNL A   1      48.005  29.623  27.098  1.00  0.00     0.057 A 
ATOM     79  C   UNL A   1      49.191  30.353  27.282  1.00  0.00     0.134 A 
ATOM     80  C   UNL A   1      46.859  30.410  26.839  1.00  0.00     0.134 A 
ATOM     81  F   UNL A   1      50.347  29.727  27.555  1.00  0.00    -0.206 F 
ATOM     82  C   UNL A   1      49.220  31.753  27.286  1.00  0.00     0.040 A 
ATOM     83  C   UNL A   1      46.887  31.805  26.789  1.00  0.00     0.040 A 
ATOM     84  F   UNL A   1      45.630  29.898  26.723  1.00  0.00    -0.206 F 
ATOM     85  C   UNL A   1      48.064  32.484  27.046  1.00  0.00     0.006 A 
ENDBRANCH  64  78
BRANCH  65  86
ATOM     86  C   UNL A   1      39.832  27.778  29.034  1.00  0.00     0.057 A 
ATOM     87  C   UNL A   1      38.974  27.925  30.135  1.00  0.00     0.134 A 
ATOM     88  C   UNL A   1      39.455  28.461  27.865  1.00  0.00     0.134 A 
ATOM     89  F   UNL A   1      39.265  27.343  31.307  1.00  0.00    -0.206 F 
ATOM     90  C   UNL A   1      37.832  28.735  30.091  1.00  0.00     0.040 A 
ATOM     91  C   UNL A   1      38.314  29.268  27.805  1.00  0.00     0.040 A 
ATOM     92  F   UNL A   1      40.232  28.446  26.773  1.00  0.00    -0.206 F 
ATOM     93  C   UNL A   1      37.506  29.422  28.925  1.00  0.00     0.006 A 
ENDBRANCH  65  86
BRANCH  77  94
ATOM     94  C   UNL A   1      45.018  26.116  32.123  1.00  0.00     0.057 A 
ATOM     95  C   UNL A   1      44.935  26.287  33.514  1.00  0.00     0.134 A 
ATOM     96  C   UNL A   1      44.726  24.842  31.624  1.00  0.00     0.134 A 
ATOM     97  F   UNL A   1      45.110  27.490  34.078  1.00  0.00    -0.206 F 
ATOM     98  C   UNL A   1      44.621  25.224  34.367  1.00  0.00     0.040 A 
ATOM     99  C   UNL A   1      44.375  23.783  32.461  1.00  0.00     0.040 A 
ATOM    100  F   UNL A   1      44.739  24.616  30.300  1.00  0.00    -0.206 F 
ATOM    101  C   UNL A   1      44.334  23.967  33.840  1.00  0.00     0.006 A 
ENDBRANCH  77  94
ENDBRANCH  51  52
ENDBRANCH  44  46
ENDBRANCH  43  44
ENDBRANCH  42  43
ENDBRANCH  41  42
ENDBRANCH  40  41
ENDBRANCH  39  40
ENDBRANCH  38  39
ENDBRANCH   1  38
TORSDOF 24
ENDMDL
MODEL 2
REMARK VINA RESULT:     -12.1      2.936      5.556
REMARK SMILES COc1ccc(-c2[nH]nc3nc(-c4ccc(C(F)(F)F)cc4)cc(C(=O)OCCOCCOCCOCCOC(=O)c4ccc(-c5c6nc(c(-c7c(F)cccc7F)c7ccc([nH]7)c(-c7c(F)cccc7F)c7nc(c(-c8c(F)cccc8F)c8ccc5[nH]8)C=C7)C=C6)cc4)c23)cc1
REMARK SMILES IDX 33 1 32 2 31 3 30 4 29 5 28 6 27 7 25 8 26 9 24 10 7 11 8 12
REMARK SMILES IDX 96 13 9 14 10 16 11 17 23 18 12 19 6 20 3 21 4 22 98 23 5 24
REMARK SMILES IDX 97 25 2 26 1 27 13 28 14 29 22 30 15 31 21 32 16 33 17 34
REMARK SMILES IDX 18 35 19 36 20 37 34 38 35 39 36 40 37 41 38 42 39 43 40 44
REMARK SMILES IDX 41 45 42 46 43 47 95 48 44 49 94 50 45 51 46 52 47 53 88 54
REMARK SMILES IDX 48 55 93 56 87 57 89 58 49 59 92 60 86 61 85 62 50 64 76 65
REMARK SMILES IDX 59 66 75 67 60 68 63 69 74 70 90 71 61 72 62 73 73 75 91 76
REMARK SMILES IDX 64 77 51 78 52 79 57 80 53 81 54 82 56 83 58 84 55 85 77 86
REMARK SMILES IDX 78 87 83 88 79 89 80 90 82 91 84 92 81 93 65 94 66 95 71 96
REMARK SMILES IDX 67 97 68 98 70 99 72 100 69 101
REMARK H PARENT 8 15 89 63 63 74
REMARK Flexibility Score: inf
ROOT
ATOM      1  O   UNL A   1      39.007  21.793  25.626  1.00  0.00    -0.377 OA
ENDROOT
BRANCH   1   2
ATOM      2  C   UNL A   1      38.115  20.681  25.564  1.00  0.00     0.188 C 
BRANCH   2   3
ATOM      3  C   UNL A   1      37.043  20.750  24.482  1.00  0.00     0.188 C 
BRANCH   3   4
ATOM      4  O   UNL A   1      36.112  21.803  24.620  1.00  0.00    -0.376 OA
BRANCH   4   5
ATOM      5  C   UNL A   1      35.805  22.339  25.898  1.00  0.00     0.202 C 
BRANCH   5   6
ATOM      6  C   UNL A   1      35.089  23.696  25.975  1.00  0.00     0.261 C 
BRANCH   6   7
ATOM      7  O   UNL A   1      35.318  24.566  24.848  1.00  0.00    -0.460 OA
BRANCH   7   8
ATOM      8  C   UNL A   1      34.279  24.828  24.023  1.00  0.00     0.339 C 
ATOM      9  O   UNL A   1      34.159  24.397  22.887  1.00  0.00    -0.246 OA
BRANCH   8  10
ATOM     10  C   UNL A   1      33.281  25.614  24.787  1.00  0.00     0.075 A 
ATOM     11  C   UNL A   1      31.360  23.986  25.046  1.00  0.00     0.075 A 
ATOM     12  N   UNL A   1      30.092  24.202  25.534  1.00  0.00    -0.275 N 
ATOM     13  C   UNL A   1      31.984  25.221  25.147  1.00  0.00     0.061 A 
ATOM     14  N   UNL A   1      29.909  25.398  26.113  1.00  0.00    -0.154 NA
ATOM     15  H   UNL A   1      29.374  23.532  25.463  1.00  0.00     0.190 HD
ATOM     16  C   UNL A   1      31.074  26.017  25.924  1.00  0.00     0.182 A 
ATOM     17  N   UNL A   1      31.406  27.227  26.439  1.00  0.00    -0.226 NA
ATOM     18  C   UNL A   1      33.597  26.863  25.373  1.00  0.00     0.045 A 
ATOM     19  C   UNL A   1      32.679  27.615  26.157  1.00  0.00     0.074 A 
BRANCH  11  20
ATOM     20  C   UNL A   1      31.795  22.632  24.728  1.00  0.00     0.001 A 
ATOM     21  C   UNL A   1      32.576  20.011  24.048  1.00  0.00     0.118 A 
ATOM     22  C   UNL A   1      32.635  20.457  25.372  1.00  0.00     0.047 A 
ATOM     23  C   UNL A   1      32.152  20.891  23.055  1.00  0.00     0.047 A 
ATOM     24  C   UNL A   1      32.259  21.762  25.712  1.00  0.00     0.014 A 
ATOM     25  C   UNL A   1      31.769  22.196  23.394  1.00  0.00     0.014 A 
BRANCH  21  26
ATOM     26  O   UNL A   1      32.938  18.705  23.866  1.00  0.00    -0.497 OA
ATOM     27  C   UNL A   1      32.538  18.086  22.649  1.00  0.00     0.278 C 
ENDBRANCH  21  26
ENDBRANCH  11  20
BRANCH  19  28
ATOM     28  C   UNL A   1      33.065  28.939  26.713  1.00  0.00     0.000 A 
ATOM     29  C   UNL A   1      32.200  30.049  26.670  1.00  0.00     0.011 A 
ATOM     30  C   UNL A   1      34.338  29.140  27.275  1.00  0.00     0.011 A 
ATOM     31  C   UNL A   1      32.596  31.304  27.164  1.00  0.00     0.014 A 
ATOM     32  C   UNL A   1      34.736  30.387  27.767  1.00  0.00     0.014 A 
ATOM     33  C   UNL A   1      33.872  31.486  27.713  1.00  0.00     0.056 A 
BRANCH  33  34
ATOM     34  C   UNL A   1      34.313  32.840  28.217  1.00  0.00     0.416 C 
ATOM     35  F   UNL A   1      35.459  33.274  27.623  1.00  0.00    -0.166 F 
ATOM     36  F   UNL A   1      33.383  33.811  27.995  1.00  0.00    -0.166 F 
ATOM     37  F   UNL A   1      34.559  32.864  29.558  1.00  0.00    -0.166 F 
ENDBRANCH  33  34
ENDBRANCH  19  28
ENDBRANCH   8  10
ENDBRANCH   7   8
ENDBRANCH   6   7
ENDBRANCH   5   6
ENDBRANCH   4   5
ENDBRANCH   3   4
ENDBRANCH   2   3
ENDBRANCH   1   2
BRANCH   1  38
ATOM     38  C   UNL A   1      40.283  21.546  26.217  1.00  0.00     0.188 C 
BRANCH  38  39
ATOM     39  C   UNL A   1      40.412  20.395  27.255  1.00  0.00     0.188 C 
BRANCH  39  40
ATOM     40  O   UNL A   1      41.740  20.033  27.607  1.00  0.00    -0.376 OA
BRANCH  40  41
ATOM     41  C   UNL A   1      42.848  20.164  26.732  1.00  0.00     0.202 C 
BRANCH  41  42
ATOM     42  C   UNL A   1      43.211  19.123  25.671  1.00  0.00     0.261 C 
BRANCH  42  43
ATOM     43  O   UNL A   1      43.509  19.640  24.398  1.00  0.00    -0.460 OA
BRANCH  43  44
ATOM     44  C   UNL A   1      44.818  19.737  24.127  1.00  0.00     0.338 C 
ATOM     45  O   UNL A   1      45.595  18.826  23.894  1.00  0.00    -0.246 OA
BRANCH  44  46
ATOM     46  C   UNL A   1      45.205  21.141  24.261  1.00  0.00     0.060 A 
ATOM     47  C   UNL A   1      46.187  21.409  25.212  1.00  0.00     0.016 A 
ATOM     48  C   UNL A   1      44.330  22.122  23.773  1.00  0.00     0.016 A 
ATOM     49  C   UNL A   1      46.079  22.581  25.912  1.00  0.00     0.010 A 
ATOM     50  C   UNL A   1      44.205  23.280  24.491  1.00  0.00     0.010 A 
ATOM     51  C   UNL A   1      45.010  23.434  25.614  1.00  0.00    -0.014 A 
BRANCH  51  52
ATOM     52  C   UNL A   1      44.818  24.585  26.459  1.00  0.00     0.031 A 
ATOM     53  C   UNL A   1      45.995  25.470  26.413  1.00  0.00     0.074 A 
ATOM     54  C   UNL A   1      43.665  24.806  27.117  1.00  0.00     0.049 A 
ATOM     55  N   UNL A   1      46.878  25.643  27.337  1.00  0.00    -0.248 NA
ATOM     56  C   UNL A   1      46.372  26.036  25.105  1.00  0.00     0.031 C 
ATOM     57  C   UNL A   1      42.397  24.083  26.979  1.00  0.00     0.029 A 
ATOM     58  N   UNL A   1      43.355  25.800  27.992  1.00  0.00    -0.354 N 
ATOM     59  C   UNL A   1      47.777  26.555  26.802  1.00  0.00     0.074 A 
ATOM     60  C   UNL A   1      47.566  26.556  25.382  1.00  0.00     0.031 C 
ATOM     61  C   UNL A   1      41.408  24.800  27.562  1.00  0.00     0.029 A 
ATOM     62  C   UNL A   1      41.991  25.955  28.222  1.00  0.00     0.049 A 
ATOM     63  H   UNL A   1      44.036  26.362  28.425  1.00  0.00     0.167 HD
ATOM     64  C   UNL A   1      48.349  27.487  27.608  1.00  0.00     0.037 A 
ATOM     65  C   UNL A   1      41.410  27.007  28.850  1.00  0.00     0.037 A 
ATOM     66  C   UNL A   1      48.264  27.083  28.992  1.00  0.00     0.049 A 
ATOM     67  C   UNL A   1      42.471  27.692  29.628  1.00  0.00     0.074 A 
ATOM     68  C   UNL A   1      48.749  26.035  29.745  1.00  0.00     0.029 A 
ATOM     69  N   UNL A   1      47.231  27.635  29.705  1.00  0.00    -0.354 N 
ATOM     70  N   UNL A   1      43.043  27.180  30.681  1.00  0.00    -0.248 NA
ATOM     71  C   UNL A   1      43.197  28.779  28.991  1.00  0.00     0.031 C 
ATOM     72  C   UNL A   1      47.748  25.776  30.729  1.00  0.00     0.029 A 
ATOM     73  C   UNL A   1      46.724  26.713  30.577  1.00  0.00     0.049 A 
ATOM     74  H   UNL A   1      46.904  28.558  29.604  1.00  0.00     0.167 HD
ATOM     75  C   UNL A   1      44.372  27.557  30.574  1.00  0.00     0.074 A 
ATOM     76  C   UNL A   1      44.377  28.647  29.603  1.00  0.00     0.031 C 
ATOM     77  C   UNL A   1      45.358  26.742  31.054  1.00  0.00     0.037 A 
BRANCH  64  78
ATOM     78  C   UNL A   1      48.492  28.941  27.205  1.00  0.00     0.057 A 
ATOM     79  C   UNL A   1      49.744  29.558  27.366  1.00  0.00     0.134 A 
ATOM     80  C   UNL A   1      47.418  29.830  26.971  1.00  0.00     0.134 A 
ATOM     81  F   UNL A   1      50.843  28.829  27.614  1.00  0.00    -0.206 F 
ATOM     82  C   UNL A   1      49.901  30.950  27.371  1.00  0.00     0.040 A 
ATOM     83  C   UNL A   1      47.573  31.217  26.923  1.00  0.00     0.040 A 
ATOM     84  F   UNL A   1      46.145  29.432  26.880  1.00  0.00    -0.206 F 
ATOM     85  C   UNL A   1      48.811  31.785  27.156  1.00  0.00     0.006 A 
ENDBRANCH  64  78
BRANCH  65  86
ATOM     86  C   UNL A   1      40.103  27.658  28.594  1.00  0.00     0.057 A 
ATOM     87  C   UNL A   1      39.142  27.770  29.611  1.00  0.00     0.134 A 
ATOM     88  C   UNL A   1      39.886  28.449  27.453  1.00  0.00     0.134 A 
ATOM     89  F   UNL A   1      39.278  27.083  30.754  1.00  0.00    -0.206 F 
ATOM     90  C   UNL A   1      38.053  28.646  29.518  1.00  0.00     0.040 A 
ATOM     91  C   UNL A   1      38.800  29.324  27.345  1.00  0.00     0.040 A 
ATOM     92  F   UNL A   1      40.773  28.473  26.448  1.00  0.00    -0.206 F 
ATOM     93  C   UNL A   1      37.887  29.438  28.386  1.00  0.00     0.006 A 
ENDBRANCH  65  86
BRANCH  77  94
ATOM     94  C   UNL A   1      44.948  25.666  32.022  1.00  0.00     0.057 A 
ATOM     95  C   UNL A   1      44.494  24.389  31.658  1.00  0.00     0.134 A 
ATOM     96  C   UNL A   1      45.123  25.909  33.388  1.00  0.00     0.134 A 
ATOM     97  F   UNL A   1      44.380  24.033  30.371  1.00  0.00    -0.206 F 
ATOM     98  C   UNL A   1      44.185  23.418  32.616  1.00  0.00     0.040 A 
ATOM     99  C   UNL A   1      44.855  24.937  34.352  1.00  0.00     0.040 A 
ATOM    100  F   UNL A   1      45.600  27.093  33.808  1.00  0.00    -0.206 F 
ATOM    101  C   UNL A   1      44.371  23.689  33.969  1.00  0.00     0.006 A 
ENDBRANCH  77  94
ENDBRANCH  51  52
ENDBRANCH  44  46
ENDBRANCH  43  44
ENDBRANCH  42  43
ENDBRANCH  41  42
ENDBRANCH  40  41
ENDBRANCH  39  40
ENDBRANCH  38  39
ENDBRANCH   1  38
TORSDOF 24
ENDMDL
MODEL 3
REMARK VINA RESULT:     -11.6      3.713      8.856
REMARK SMILES COc1ccc(-c2[nH]nc3nc(-c4ccc(C(F)(F)F)cc4)cc(C(=O)OCCOCCOCCOCCOC(=O)c4ccc(-c5c6nc(c(-c7c(F)cccc7F)c7ccc([nH]7)c(-c7c(F)cccc7F)c7nc(c(-c8c(F)cccc8F)c8ccc5[nH]8)C=C7)C=C6)cc4)c23)cc1
REMARK SMILES IDX 33 1 32 2 31 3 30 4 29 5 28 6 27 7 25 8 26 9 24 10 7 11 8 12
REMARK SMILES IDX 96 13 9 14 10 16 11 17 23 18 12 19 6 20 3 21 4 22 98 23 5 24
REMARK SMILES IDX 97 25 2 26 1 27 13 28 14 29 22 30 15 31 21 32 16 33 17 34
REMARK SMILES IDX 18 35 19 36 20 37 34 38 35 39 36 40 37 41 38 42 39 43 40 44
REMARK SMILES IDX 41 45 42 46 43 47 95 48 44 49 94 50 45 51 46 52 47 53 88 54
REMARK SMILES IDX 48 55 93 56 87 57 89 58 49 59 92 60 86 61 85 62 50 64 76 65
REMARK SMILES IDX 59 66 75 67 60 68 63 69 74 70 90 71 61 72 62 73 73 75 91 76
REMARK SMILES IDX 64 77 51 78 52 79 57 80 53 81 54 82 56 83 58 84 55 85 77 86
REMARK SMILES IDX 78 87 83 88 79 89 80 90 82 91 84 92 81 93 65 94 66 95 71 96
REMARK SMILES IDX 67 97 68 98 70 99 72 100 69 101
REMARK H PARENT 8 15 89 63 63 74
REMARK Flexibility Score: inf
ROOT
ATOM      1  O   UNL A   1      33.208  30.536  27.626  1.00  0.00    -0.377 OA
ENDROOT
BRANCH   1   2
ATOM      2  C   UNL A   1      33.204  29.522  26.623  1.00  0.00     0.188 C 
BRANCH   2   3
ATOM      3  C   UNL A   1      33.882  28.211  27.003  1.00  0.00     0.188 C 
BRANCH   3   4
ATOM      4  O   UNL A   1      33.243  27.042  26.531  1.00  0.00    -0.376 OA
BRANCH   4   5
ATOM      5  C   UNL A   1      33.987  26.013  25.896  1.00  0.00     0.202 C 
BRANCH   5   6
ATOM      6  C   UNL A   1      33.675  24.552  26.253  1.00  0.00     0.261 C 
BRANCH   6   7
ATOM      7  O   UNL A   1      32.291  24.285  26.553  1.00  0.00    -0.460 OA
BRANCH   7   8
ATOM      8  C   UNL A   1      31.526  23.724  25.590  1.00  0.00     0.339 C 
ATOM      9  O   UNL A   1      30.853  22.714  25.728  1.00  0.00    -0.246 OA
BRANCH   8  10
ATOM     10  C   UNL A   1      31.561  24.615  24.406  1.00  0.00     0.075 A 
ATOM     11  C   UNL A   1      32.753  23.205  22.675  1.00  0.00     0.075 A 
ATOM     12  N   UNL A   1      33.213  23.557  21.427  1.00  0.00    -0.275 N 
ATOM     13  C   UNL A   1      32.179  24.365  23.172  1.00  0.00     0.061 A 
ATOM     14  N   UNL A   1      32.818  24.767  21.004  1.00  0.00    -0.154 NA
ATOM     15  H   UNL A   1      33.788  22.968  20.887  1.00  0.00     0.190 HD
ATOM     16  C   UNL A   1      32.145  25.257  22.045  1.00  0.00     0.182 A 
ATOM     17  N   UNL A   1      31.456  26.424  22.048  1.00  0.00    -0.226 NA
ATOM     18  C   UNL A   1      30.827  25.823  24.353  1.00  0.00     0.045 A 
ATOM     19  C   UNL A   1      30.796  26.672  23.212  1.00  0.00     0.074 A 
BRANCH  11  20
ATOM     20  C   UNL A   1      32.798  21.811  23.098  1.00  0.00     0.001 A 
ATOM     21  C   UNL A   1      32.803  19.107  23.891  1.00  0.00     0.118 A 
ATOM     22  C   UNL A   1      33.584  20.053  24.562  1.00  0.00     0.047 A 
ATOM     23  C   UNL A   1      32.039  19.511  22.800  1.00  0.00     0.047 A 
ATOM     24  C   UNL A   1      33.594  21.394  24.164  1.00  0.00     0.014 A 
ATOM     25  C   UNL A   1      32.042  20.855  22.403  1.00  0.00     0.014 A 
BRANCH  21  26
ATOM     26  O   UNL A   1      32.863  17.843  24.410  1.00  0.00    -0.497 OA
ATOM     27  C   UNL A   1      33.715  16.913  23.752  1.00  0.00     0.278 C 
ENDBRANCH  21  26
ENDBRANCH  11  20
BRANCH  19  28
ATOM     28  C   UNL A   1      30.034  27.948  23.237  1.00  0.00     0.000 A 
ATOM     29  C   UNL A   1      28.643  27.993  23.024  1.00  0.00     0.011 A 
ATOM     30  C   UNL A   1      30.690  29.175  23.440  1.00  0.00     0.011 A 
ATOM     31  C   UNL A   1      27.944  29.212  23.011  1.00  0.00     0.014 A 
ATOM     32  C   UNL A   1      29.999  30.390  23.428  1.00  0.00     0.014 A 
ATOM     33  C   UNL A   1      28.618  30.425  23.208  1.00  0.00     0.056 A 
BRANCH  33  34
ATOM     34  C   UNL A   1      27.877  31.740  23.164  1.00  0.00     0.416 C 
ATOM     35  F   UNL A   1      26.765  31.745  23.949  1.00  0.00    -0.166 F 
ATOM     36  F   UNL A   1      28.641  32.787  23.587  1.00  0.00    -0.166 F 
ATOM     37  F   UNL A   1      27.449  32.078  21.914  1.00  0.00    -0.166 F 
ENDBRANCH  33  34
ENDBRANCH  19  28
ENDBRANCH   8  10
ENDBRANCH   7   8
ENDBRANCH   6   7
ENDBRANCH   5   6
ENDBRANCH   4   5
ENDBRANCH   3   4
ENDBRANCH   2   3
ENDBRANCH   1   2
BRANCH   1  38
ATOM     38  C   UNL A   1      34.304  31.451  27.594  1.00  0.00     0.188 C 
BRANCH  38  39
ATOM     39  C   UNL A   1      34.085  32.894  28.132  1.00  0.00     0.188 C 
BRANCH  39  40
ATOM     40  O   UNL A   1      34.049  33.023  29.546  1.00  0.00    -0.376 OA
BRANCH  40  41
ATOM     41  C   UNL A   1      35.202  32.976  30.368  1.00  0.00     0.202 C 
BRANCH  41  42
ATOM     42  C   UNL A   1      35.603  31.746  31.186  1.00  0.00     0.261 C 
BRANCH  42  43
ATOM     43  O   UNL A   1      36.209  30.708  30.455  1.00  0.00    -0.460 OA
BRANCH  43  44
ATOM     44  C   UNL A   1      36.702  29.711  31.205  1.00  0.00     0.338 C 
ATOM     45  O   UNL A   1      36.581  29.564  32.409  1.00  0.00    -0.246 OA
BRANCH  44  46
ATOM     46  C   UNL A   1      37.518  28.857  30.343  1.00  0.00     0.060 A 
ATOM     47  C   UNL A   1      38.195  27.823  30.985  1.00  0.00     0.016 A 
ATOM     48  C   UNL A   1      37.893  29.347  29.083  1.00  0.00     0.016 A 
ATOM     49  C   UNL A   1      39.440  27.501  30.513  1.00  0.00     0.010 A 
ATOM     50  C   UNL A   1      39.148  29.046  28.630  1.00  0.00     0.010 A 
ATOM     51  C   UNL A   1      39.937  28.213  29.415  1.00  0.00    -0.014 A 
BRANCH  51  52
ATOM     52  C   UNL A   1      41.304  27.974  29.027  1.00  0.00     0.031 A 
ATOM     53  C   UNL A   1      41.445  26.649  28.397  1.00  0.00     0.074 A 
ATOM     54  C   UNL A   1      42.263  28.906  29.175  1.00  0.00     0.049 A 
ATOM     55  N   UNL A   1      41.997  25.600  28.904  1.00  0.00    -0.248 NA
ATOM     56  C   UNL A   1      40.666  26.390  27.173  1.00  0.00     0.031 C 
ATOM     57  C   UNL A   1      42.102  30.312  29.557  1.00  0.00     0.029 A 
ATOM     58  N   UNL A   1      43.595  28.811  28.919  1.00  0.00    -0.354 N 
ATOM     59  C   UNL A   1      41.860  24.621  27.928  1.00  0.00     0.074 A 
ATOM     60  C   UNL A   1      40.838  25.077  27.030  1.00  0.00     0.031 C 
ATOM     61  C   UNL A   1      43.245  30.983  29.284  1.00  0.00     0.029 A 
ATOM     62  C   UNL A   1      44.251  30.036  28.836  1.00  0.00     0.049 A 
ATOM     63  H   UNL A   1      44.057  27.950  28.801  1.00  0.00     0.167 HD
ATOM     64  C   UNL A   1      42.853  23.712  27.745  1.00  0.00     0.037 A 
ATOM     65  C   UNL A   1      45.507  30.231  28.361  1.00  0.00     0.037 A 
ATOM     66  C   UNL A   1      43.699  23.640  28.912  1.00  0.00     0.049 A 
ATOM     67  C   UNL A   1      46.193  28.917  28.391  1.00  0.00     0.074 A 
ATOM     68  C   UNL A   1      43.528  23.289  30.235  1.00  0.00     0.029 A 
ATOM     69  N   UNL A   1      44.858  24.369  28.845  1.00  0.00    -0.354 N 
ATOM     70  N   UNL A   1      46.537  28.302  29.487  1.00  0.00    -0.248 NA
ATOM     71  C   UNL A   1      46.129  28.081  27.202  1.00  0.00     0.031 C 
ATOM     72  C   UNL A   1      44.416  24.130  30.971  1.00  0.00     0.029 A 
ATOM     73  C   UNL A   1      45.134  24.915  30.068  1.00  0.00     0.049 A 
ATOM     74  H   UNL A   1      45.409  24.482  28.038  1.00  0.00     0.167 HD
ATOM     75  C   UNL A   1      46.294  26.963  29.228  1.00  0.00     0.074 A 
ATOM     76  C   UNL A   1      46.183  26.876  27.774  1.00  0.00     0.031 C 
ATOM     77  C   UNL A   1      45.906  26.127  30.237  1.00  0.00     0.037 A 
BRANCH  64  78
ATOM     78  C   UNL A   1      43.346  23.305  26.371  1.00  0.00     0.057 A 
ATOM     79  C   UNL A   1      43.462  21.935  26.082  1.00  0.00     0.134 A 
ATOM     80  C   UNL A   1      43.995  24.161  25.452  1.00  0.00     0.134 A 
ATOM     81  F   UNL A   1      42.910  21.013  26.887  1.00  0.00    -0.206 F 
ATOM     82  C   UNL A   1      44.227  21.454  25.012  1.00  0.00     0.040 A 
ATOM     83  C   UNL A   1      44.716  23.694  24.352  1.00  0.00     0.040 A 
ATOM     84  F   UNL A   1      44.065  25.487  25.612  1.00  0.00    -0.206 F 
ATOM     85  C   UNL A   1      44.863  22.335  24.146  1.00  0.00     0.006 A 
ENDBRANCH  64  78
BRANCH  65  86
ATOM     86  C   UNL A   1      46.061  31.371  27.595  1.00  0.00     0.057 A 
ATOM     87  C   UNL A   1      45.296  32.017  26.610  1.00  0.00     0.134 A 
ATOM     88  C   UNL A   1      47.220  32.046  28.013  1.00  0.00     0.134 A 
ATOM     89  F   UNL A   1      44.153  31.472  26.170  1.00  0.00    -0.206 F 
ATOM     90  C   UNL A   1      45.640  33.277  26.102  1.00  0.00     0.040 A 
ATOM     91  C   UNL A   1      47.579  33.301  27.510  1.00  0.00     0.040 A 
ATOM     92  F   UNL A   1      47.991  31.556  28.994  1.00  0.00    -0.206 F 
ATOM     93  C   UNL A   1      46.779  33.930  26.563  1.00  0.00     0.006 A 
ENDBRANCH  65  86
BRANCH  77  94
ATOM     94  C   UNL A   1      46.139  26.599  31.646  1.00  0.00     0.057 A 
ATOM     95  C   UNL A   1      45.223  27.344  32.405  1.00  0.00     0.134 A 
ATOM     96  C   UNL A   1      47.309  26.187  32.293  1.00  0.00     0.134 A 
ATOM     97  F   UNL A   1      44.036  27.708  31.900  1.00  0.00    -0.206 F 
ATOM     98  C   UNL A   1      45.486  27.698  33.732  1.00  0.00     0.040 A 
ATOM     99  C   UNL A   1      47.566  26.502  33.627  1.00  0.00     0.040 A 
ATOM    100  F   UNL A   1      48.209  25.431  31.643  1.00  0.00    -0.206 F 
ATOM    101  C   UNL A   1      46.658  27.271  34.350  1.00  0.00     0.006 A 
ENDBRANCH  77  94
ENDBRANCH  51  52
ENDBRANCH  44  46
ENDBRANCH  43  44
ENDBRANCH  42  43
ENDBRANCH  41  42
ENDBRANCH  40  41
ENDBRANCH  39  40
ENDBRANCH  38  39
ENDBRANCH   1  38
TORSDOF 24
ENDMDL
