MODEL 1
REMARK VINA RESULT:     -10.5      0.000      0.000
REMARK SMILES Cc1cc(C)c2c(c1)C=C(C(=O)OCCOCCOCCOCCOC(=O)c1ccc(-c3c4nc(c(-c5c(F)cccc5F)c5ccc([nH]5)c(-c5c(F)cccc5F)c5nc(c(-c6c(F)cccc6F)c6ccc3[nH]6)C=C5)C=C4)cc1)[C@@H](C(F)(F)F)O2
REMARK SMILES IDX 20 1 19 2 18 3 17 4 16 5 15 6 14 7 13 8 11 9 12 10 10 11
REMARK SMILES IDX 1 12 2 13 3 14 8 15 4 16 7 17 5 18 6 19 9 20 87 21 82 22
REMARK SMILES IDX 83 23 84 24 85 25 86 26 21 27 22 28 23 29 24 30 25 31 26 32
REMARK SMILES IDX 27 33 28 34 29 35 81 36 30 37 80 38 31 39 32 40 33 41 74 42
REMARK SMILES IDX 34 43 79 44 73 45 75 46 35 47 78 48 72 49 71 50 36 52 62 53
REMARK SMILES IDX 45 54 61 55 46 56 49 57 60 58 76 59 47 60 48 61 59 63 77 64
REMARK SMILES IDX 50 65 37 66 38 67 43 68 39 69 40 70 42 71 44 72 41 73 63 74
REMARK SMILES IDX 64 75 69 76 65 77 66 78 68 79 70 80 67 81 51 82 52 83 57 84
REMARK SMILES IDX 53 85 54 86 56 87 58 88 55 89
REMARK H PARENT 75 51 49 62
REMARK Flexibility Score: inf
ROOT
ATOM      1  C   UNL A   1      32.900  28.449  26.865  1.00  0.00     0.188 C 
ENDROOT
BRANCH   1   2
ATOM      2  O   UNL A   1      31.855  28.148  25.937  1.00  0.00    -0.377 OA
BRANCH   2   3
ATOM      3  C   UNL A   1      31.418  29.182  25.066  1.00  0.00     0.188 C 
BRANCH   3   4
ATOM      4  C   UNL A   1      31.505  28.801  23.576  1.00  0.00     0.188 C 
BRANCH   4   5
ATOM      5  O   UNL A   1      30.297  28.264  23.067  1.00  0.00    -0.376 OA
BRANCH   5   6
ATOM      6  C   UNL A   1      29.627  27.207  23.732  1.00  0.00     0.202 C 
BRANCH   6   7
ATOM      7  C   UNL A   1      30.278  25.847  24.048  1.00  0.00     0.261 C 
BRANCH   7   8
ATOM      8  O   UNL A   1      30.608  25.005  22.944  1.00  0.00    -0.460 OA
BRANCH   8   9
ATOM      9  C   UNL A   1      31.849  25.100  22.435  1.00  0.00     0.338 C 
ATOM     10  O   UNL A   1      32.288  26.000  21.743  1.00  0.00    -0.246 OA
BRANCH   9  11
ATOM     11  C   UNL A   1      32.651  23.997  23.009  1.00  0.00     0.087 C 
ATOM     12  C   UNL A   1      32.378  17.975  24.217  1.00  0.00     0.044 C 
ATOM     13  C   UNL A   1      33.012  19.334  24.154  1.00  0.00    -0.050 A 
ATOM     14  C   UNL A   1      34.197  19.606  24.847  1.00  0.00     0.010 A 
ATOM     15  C   UNL A   1      32.364  20.374  23.480  1.00  0.00     0.015 A 
ATOM     16  C   UNL A   1      34.757  20.894  24.842  1.00  0.00    -0.008 A 
ATOM     17  C   UNL A   1      32.892  21.669  23.497  1.00  0.00     0.018 A 
ATOM     18  C   UNL A   1      36.016  21.169  25.614  1.00  0.00     0.048 C 
ATOM     19  C   UNL A   1      34.105  21.920  24.141  1.00  0.00     0.130 A 
ATOM     20  C   UNL A   1      32.132  22.767  22.924  1.00  0.00     0.027 C 
ATOM     21  O   UNL A   1      34.704  23.149  24.154  1.00  0.00    -0.475 OA
ATOM     22  C   UNL A   1      34.017  24.290  23.575  1.00  0.00     0.316 C 
BRANCH  22  23
ATOM     23  C   UNL A   1      33.980  25.401  24.633  1.00  0.00     0.430 C 
ATOM     24  F   UNL A   1      35.065  25.348  25.442  1.00  0.00    -0.167 F 
ATOM     25  F   UNL A   1      33.974  26.635  24.077  1.00  0.00    -0.167 F 
ATOM     26  F   UNL A   1      32.883  25.310  25.420  1.00  0.00    -0.167 F 
ENDBRANCH  22  23
ENDBRANCH   9  11
ENDBRANCH   8   9
ENDBRANCH   7   8
ENDBRANCH   6   7
ENDBRANCH   5   6
ENDBRANCH   4   5
ENDBRANCH   3   4
ENDBRANCH   2   3
ENDBRANCH   1   2
BRANCH   1  27
ATOM     27  C   UNL A   1      33.973  29.531  26.584  1.00  0.00     0.188 C 
BRANCH  27  28
ATOM     28  O   UNL A   1      34.001  30.591  27.529  1.00  0.00    -0.376 OA
BRANCH  28  29
ATOM     29  C   UNL A   1      32.911  31.497  27.558  1.00  0.00     0.202 C 
BRANCH  29  30
ATOM     30  C   UNL A   1      33.266  32.979  27.390  1.00  0.00     0.261 C 
BRANCH  30  31
ATOM     31  O   UNL A   1      32.405  33.905  28.069  1.00  0.00    -0.460 OA
BRANCH  31  32
ATOM     32  C   UNL A   1      32.983  34.976  28.654  1.00  0.00     0.338 C 
ATOM     33  O   UNL A   1      32.537  36.109  28.726  1.00  0.00    -0.246 OA
BRANCH  32  34
ATOM     34  C   UNL A   1      34.182  34.496  29.370  1.00  0.00     0.060 A 
ATOM     35  C   UNL A   1      35.434  34.608  28.753  1.00  0.00     0.016 A 
ATOM     36  C   UNL A   1      34.066  33.950  30.651  1.00  0.00     0.016 A 
ATOM     37  C   UNL A   1      36.575  34.141  29.405  1.00  0.00     0.010 A 
ATOM     38  C   UNL A   1      35.205  33.458  31.291  1.00  0.00     0.010 A 
ATOM     39  C   UNL A   1      36.458  33.520  30.655  1.00  0.00    -0.014 A 
BRANCH  39  40
ATOM     40  C   UNL A   1      37.594  32.731  31.188  1.00  0.00     0.031 A 
ATOM     41  C   UNL A   1      38.215  33.179  32.482  1.00  0.00     0.074 A 
ATOM     42  C   UNL A   1      38.043  31.630  30.565  1.00  0.00     0.049 A 
ATOM     43  N   UNL A   1      39.241  32.687  33.126  1.00  0.00    -0.248 NA
ATOM     44  C   UNL A   1      37.591  34.340  33.140  1.00  0.00     0.031 C 
ATOM     45  C   UNL A   1      37.487  31.063  29.339  1.00  0.00     0.029 A 
ATOM     46  N   UNL A   1      39.082  30.790  30.885  1.00  0.00    -0.354 N 
ATOM     47  C   UNL A   1      39.382  33.474  34.262  1.00  0.00     0.074 A 
ATOM     48  C   UNL A   1      38.363  34.498  34.204  1.00  0.00     0.031 C 
ATOM     49  C   UNL A   1      38.194  29.967  29.008  1.00  0.00     0.029 A 
ATOM     50  C   UNL A   1      39.273  29.778  29.977  1.00  0.00     0.049 A 
ATOM     51  H   UNL A   1      39.636  30.903  31.691  1.00  0.00     0.167 HD
ATOM     52  C   UNL A   1      40.273  33.346  35.272  1.00  0.00     0.037 A 
ATOM     53  C   UNL A   1      40.223  28.823  29.927  1.00  0.00     0.037 A 
ATOM     54  C   UNL A   1      41.289  32.330  35.326  1.00  0.00     0.049 A 
ATOM     55  C   UNL A   1      41.271  28.764  31.011  1.00  0.00     0.074 A 
ATOM     56  C   UNL A   1      42.242  32.120  36.305  1.00  0.00     0.029 A 
ATOM     57  N   UNL A   1      41.488  31.361  34.356  1.00  0.00    -0.354 N 
ATOM     58  N   UNL A   1      41.394  29.508  32.084  1.00  0.00    -0.248 NA
ATOM     59  C   UNL A   1      42.312  27.735  30.874  1.00  0.00     0.031 C 
ATOM     60  C   UNL A   1      43.053  31.056  35.902  1.00  0.00     0.029 A 
ATOM     61  C   UNL A   1      42.567  30.564  34.701  1.00  0.00     0.049 A 
ATOM     62  H   UNL A   1      40.942  31.252  33.543  1.00  0.00     0.167 HD
ATOM     63  C   UNL A   1      42.506  29.020  32.762  1.00  0.00     0.074 A 
ATOM     64  C   UNL A   1      43.013  27.908  31.986  1.00  0.00     0.031 C 
ATOM     65  C   UNL A   1      43.058  29.456  33.922  1.00  0.00     0.037 A 
BRANCH  52  66
ATOM     66  C   UNL A   1      40.199  34.338  36.395  1.00  0.00     0.057 A 
ATOM     67  C   UNL A   1      40.856  35.574  36.332  1.00  0.00     0.134 A 
ATOM     68  C   UNL A   1      39.420  34.076  37.529  1.00  0.00     0.134 A 
ATOM     69  F   UNL A   1      41.634  35.878  35.282  1.00  0.00    -0.206 F 
ATOM     70  C   UNL A   1      40.747  36.510  37.361  1.00  0.00     0.040 A 
ATOM     71  C   UNL A   1      39.282  35.015  38.551  1.00  0.00     0.040 A 
ATOM     72  F   UNL A   1      38.765  32.912  37.652  1.00  0.00    -0.206 F 
ATOM     73  C   UNL A   1      39.948  36.236  38.470  1.00  0.00     0.006 A 
ENDBRANCH  52  66
BRANCH  53  74
ATOM     74  C   UNL A   1      40.233  27.842  28.811  1.00  0.00     0.057 A 
ATOM     75  C   UNL A   1      40.923  28.104  27.623  1.00  0.00     0.134 A 
ATOM     76  C   UNL A   1      39.548  26.623  28.902  1.00  0.00     0.134 A 
ATOM     77  F   UNL A   1      41.575  29.265  27.463  1.00  0.00    -0.206 F 
ATOM     78  C   UNL A   1      40.929  27.196  26.562  1.00  0.00     0.040 A 
ATOM     79  C   UNL A   1      39.567  25.694  27.860  1.00  0.00     0.040 A 
ATOM     80  F   UNL A   1      38.862  26.312  30.011  1.00  0.00    -0.206 F 
ATOM     81  C   UNL A   1      40.256  25.981  26.683  1.00  0.00     0.006 A 
ENDBRANCH  53  74
BRANCH  65  82
ATOM     82  C   UNL A   1      44.259  28.722  34.446  1.00  0.00     0.057 A 
ATOM     83  C   UNL A   1      44.134  27.595  35.268  1.00  0.00     0.134 A 
ATOM     84  C   UNL A   1      45.552  29.095  34.054  1.00  0.00     0.134 A 
ATOM     85  F   UNL A   1      42.927  27.188  35.686  1.00  0.00    -0.206 F 
ATOM     86  C   UNL A   1      45.253  26.875  35.693  1.00  0.00     0.040 A 
ATOM     87  C   UNL A   1      46.675  28.367  34.447  1.00  0.00     0.040 A 
ATOM     88  F   UNL A   1      45.742  30.156  33.254  1.00  0.00    -0.206 F 
ATOM     89  C   UNL A   1      46.527  27.254  35.273  1.00  0.00     0.006 A 
ENDBRANCH  65  82
ENDBRANCH  39  40
ENDBRANCH  32  34
ENDBRANCH  31  32
ENDBRANCH  30  31
ENDBRANCH  29  30
ENDBRANCH  28  29
ENDBRANCH  27  28
ENDBRANCH   1  27
TORSDOF 21
ENDMDL
MODEL 2
REMARK VINA RESULT:     -10.4      3.911      5.599
REMARK SMILES Cc1cc(C)c2c(c1)C=C(C(=O)OCCOCCOCCOCCOC(=O)c1ccc(-c3c4nc(c(-c5c(F)cccc5F)c5ccc([nH]5)c(-c5c(F)cccc5F)c5nc(c(-c6c(F)cccc6F)c6ccc3[nH]6)C=C5)C=C4)cc1)[C@@H](C(F)(F)F)O2
REMARK SMILES IDX 20 1 19 2 18 3 17 4 16 5 15 6 14 7 13 8 11 9 12 10 10 11
REMARK SMILES IDX 1 12 2 13 3 14 8 15 4 16 7 17 5 18 6 19 9 20 87 21 82 22
REMARK SMILES IDX 83 23 84 24 85 25 86 26 21 27 22 28 23 29 24 30 25 31 26 32
REMARK SMILES IDX 27 33 28 34 29 35 81 36 30 37 80 38 31 39 32 40 33 41 74 42
REMARK SMILES IDX 34 43 79 44 73 45 75 46 35 47 78 48 72 49 71 50 36 52 62 53
REMARK SMILES IDX 45 54 61 55 46 56 49 57 60 58 76 59 47 60 48 61 59 63 77 64
REMARK SMILES IDX 50 65 37 66 38 67 43 68 39 69 40 70 42 71 44 72 41 73 63 74
REMARK SMILES IDX 64 75 69 76 65 77 66 78 68 79 70 80 67 81 51 82 52 83 57 84
REMARK SMILES IDX 53 85 54 86 56 87 58 88 55 89
REMARK H PARENT 75 51 49 62
REMARK Flexibility Score: inf
ROOT
ATOM      1  C   UNL A   1      33.590  29.200  27.224  1.00  0.00     0.188 C 
ENDROOT
BRANCH   1   2
ATOM      2  O   UNL A   1      33.989  28.235  26.247  1.00  0.00    -0.377 OA
BRANCH   2   3
ATOM      3  C   UNL A   1      33.586  28.443  24.901  1.00  0.00     0.188 C 
BRANCH   3   4
ATOM      4  C   UNL A   1      33.618  27.159  24.050  1.00  0.00     0.188 C 
BRANCH   4   5
ATOM      5  O   UNL A   1      32.327  26.654  23.756  1.00  0.00    -0.376 OA
BRANCH   5   6
ATOM      6  C   UNL A   1      31.364  26.464  24.779  1.00  0.00     0.202 C 
BRANCH   6   7
ATOM      7  C   UNL A   1      30.461  25.221  24.882  1.00  0.00     0.261 C 
BRANCH   7   8
ATOM      8  O   UNL A   1      31.042  23.958  24.557  1.00  0.00    -0.460 OA
BRANCH   8   9
ATOM      9  C   UNL A   1      31.080  23.021  25.521  1.00  0.00     0.338 C 
ATOM     10  O   UNL A   1      30.235  22.813  26.371  1.00  0.00    -0.246 OA
BRANCH   9  11
ATOM     11  C   UNL A   1      32.257  22.163  25.261  1.00  0.00     0.087 C 
ATOM     12  C   UNL A   1      33.798  16.312  24.171  1.00  0.00     0.044 C 
ATOM     13  C   UNL A   1      34.037  17.782  24.354  1.00  0.00    -0.050 A 
ATOM     14  C   UNL A   1      35.332  18.281  24.538  1.00  0.00     0.010 A 
ATOM     15  C   UNL A   1      32.952  18.659  24.444  1.00  0.00     0.015 A 
ATOM     16  C   UNL A   1      35.552  19.648  24.773  1.00  0.00    -0.008 A 
ATOM     17  C   UNL A   1      33.155  20.016  24.713  1.00  0.00     0.018 A 
ATOM     18  C   UNL A   1      36.949  20.157  24.993  1.00  0.00     0.048 C 
ATOM     19  C   UNL A   1      34.452  20.517  24.837  1.00  0.00     0.130 A 
ATOM     20  C   UNL A   1      32.015  20.884  24.955  1.00  0.00     0.027 C 
ATOM     21  O   UNL A   1      34.726  21.839  25.050  1.00  0.00    -0.475 OA
ATOM     22  C   UNL A   1      33.636  22.773  25.273  1.00  0.00     0.316 C 
BRANCH  22  23
ATOM     23  C   UNL A   1      33.924  23.529  26.576  1.00  0.00     0.430 C 
ATOM     24  F   UNL A   1      33.233  23.001  27.616  1.00  0.00    -0.167 F 
ATOM     25  F   UNL A   1      35.233  23.477  26.917  1.00  0.00    -0.167 F 
ATOM     26  F   UNL A   1      33.583  24.835  26.485  1.00  0.00    -0.167 F 
ENDBRANCH  22  23
ENDBRANCH   9  11
ENDBRANCH   8   9
ENDBRANCH   7   8
ENDBRANCH   6   7
ENDBRANCH   5   6
ENDBRANCH   4   5
ENDBRANCH   3   4
ENDBRANCH   2   3
ENDBRANCH   1   2
BRANCH   1  27
ATOM     27  C   UNL A   1      33.634  30.724  26.950  1.00  0.00     0.188 C 
BRANCH  27  28
ATOM     28  O   UNL A   1      33.769  31.527  28.113  1.00  0.00    -0.376 OA
BRANCH  28  29
ATOM     29  C   UNL A   1      33.694  32.935  27.972  1.00  0.00     0.202 C 
BRANCH  29  30
ATOM     30  C   UNL A   1      34.116  33.756  29.196  1.00  0.00     0.261 C 
BRANCH  30  31
ATOM     31  O   UNL A   1      35.423  33.470  29.716  1.00  0.00    -0.460 OA
BRANCH  31  32
ATOM     32  C   UNL A   1      35.512  32.550  30.700  1.00  0.00     0.338 C 
ATOM     33  O   UNL A   1      34.731  32.373  31.620  1.00  0.00    -0.246 OA
BRANCH  32  34
ATOM     34  C   UNL A   1      36.634  31.651  30.365  1.00  0.00     0.060 A 
ATOM     35  C   UNL A   1      37.309  30.988  31.398  1.00  0.00     0.016 A 
ATOM     36  C   UNL A   1      37.007  31.456  29.033  1.00  0.00     0.016 A 
ATOM     37  C   UNL A   1      38.384  30.152  31.103  1.00  0.00     0.010 A 
ATOM     38  C   UNL A   1      38.101  30.639  28.740  1.00  0.00     0.010 A 
ATOM     39  C   UNL A   1      38.816  30.013  29.777  1.00  0.00    -0.014 A 
BRANCH  39  40
ATOM     40  C   UNL A   1      40.141  29.411  29.500  1.00  0.00     0.031 A 
ATOM     41  C   UNL A   1      41.357  30.283  29.652  1.00  0.00     0.074 A 
ATOM     42  C   UNL A   1      40.272  28.119  29.156  1.00  0.00     0.049 A 
ATOM     43  N   UNL A   1      42.614  30.005  29.425  1.00  0.00    -0.248 NA
ATOM     44  C   UNL A   1      41.120  31.658  30.127  1.00  0.00     0.031 C 
ATOM     45  C   UNL A   1      39.177  27.160  29.034  1.00  0.00     0.029 A 
ATOM     46  N   UNL A   1      41.395  27.393  28.843  1.00  0.00    -0.354 N 
ATOM     47  C   UNL A   1      43.315  31.164  29.733  1.00  0.00     0.074 A 
ATOM     48  C   UNL A   1      42.344  32.161  30.125  1.00  0.00     0.031 C 
ATOM     49  C   UNL A   1      39.683  25.968  28.668  1.00  0.00     0.029 A 
ATOM     50  C   UNL A   1      41.130  26.091  28.495  1.00  0.00     0.049 A 
ATOM     51  H   UNL A   1      42.304  27.771  28.866  1.00  0.00     0.167 HD
ATOM     52  C   UNL A   1      44.650  31.375  29.704  1.00  0.00     0.037 A 
ATOM     53  C   UNL A   1      41.962  25.120  28.068  1.00  0.00     0.037 A 
ATOM     54  C   UNL A   1      45.614  30.384  29.307  1.00  0.00     0.049 A 
ATOM     55  C   UNL A   1      43.437  25.410  27.943  1.00  0.00     0.074 A 
ATOM     56  C   UNL A   1      46.990  30.503  29.240  1.00  0.00     0.029 A 
ATOM     57  N   UNL A   1      45.301  29.096  28.904  1.00  0.00    -0.354 N 
ATOM     58  N   UNL A   1      44.093  26.506  28.241  1.00  0.00    -0.248 NA
ATOM     59  C   UNL A   1      44.286  24.329  27.421  1.00  0.00     0.031 C 
ATOM     60  C   UNL A   1      47.506  29.303  28.745  1.00  0.00     0.029 A 
ATOM     61  C   UNL A   1      46.457  28.416  28.561  1.00  0.00     0.049 A 
ATOM     62  H   UNL A   1      44.392  28.718  28.868  1.00  0.00     0.167 HD
ATOM     63  C   UNL A   1      45.430  26.238  27.968  1.00  0.00     0.074 A 
ATOM     64  C   UNL A   1      45.493  24.872  27.495  1.00  0.00     0.031 C 
ATOM     65  C   UNL A   1      46.508  27.052  28.097  1.00  0.00     0.037 A 
BRANCH  52  66
ATOM     66  C   UNL A   1      45.150  32.734  30.096  1.00  0.00     0.057 A 
ATOM     67  C   UNL A   1      45.510  33.034  31.417  1.00  0.00     0.134 A 
ATOM     68  C   UNL A   1      45.323  33.736  29.134  1.00  0.00     0.134 A 
ATOM     69  F   UNL A   1      45.350  32.124  32.389  1.00  0.00    -0.206 F 
ATOM     70  C   UNL A   1      46.016  34.287  31.767  1.00  0.00     0.040 A 
ATOM     71  C   UNL A   1      45.853  34.983  29.468  1.00  0.00     0.040 A 
ATOM     72  F   UNL A   1      44.997  33.514  27.852  1.00  0.00    -0.206 F 
ATOM     73  C   UNL A   1      46.199  35.262  30.788  1.00  0.00     0.006 A 
ENDBRANCH  52  66
BRANCH  53  74
ATOM     74  C   UNL A   1      41.423  23.779  27.723  1.00  0.00     0.057 A 
ATOM     75  C   UNL A   1      41.705  22.659  28.512  1.00  0.00     0.134 A 
ATOM     76  C   UNL A   1      40.618  23.583  26.592  1.00  0.00     0.134 A 
ATOM     77  F   UNL A   1      42.492  22.776  29.592  1.00  0.00    -0.206 F 
ATOM     78  C   UNL A   1      41.215  21.392  28.190  1.00  0.00     0.040 A 
ATOM     79  C   UNL A   1      40.099  22.327  26.272  1.00  0.00     0.040 A 
ATOM     80  F   UNL A   1      40.314  24.613  25.790  1.00  0.00    -0.206 F 
ATOM     81  C   UNL A   1      40.401  21.225  27.071  1.00  0.00     0.006 A 
ENDBRANCH  53  74
BRANCH  65  82
ATOM     82  C   UNL A   1      47.856  26.491  27.749  1.00  0.00     0.057 A 
ATOM     83  C   UNL A   1      48.627  25.790  28.684  1.00  0.00     0.134 A 
ATOM     84  C   UNL A   1      48.349  26.577  26.439  1.00  0.00     0.134 A 
ATOM     85  F   UNL A   1      48.217  25.675  29.955  1.00  0.00    -0.206 F 
ATOM     86  C   UNL A   1      49.848  25.208  28.332  1.00  0.00     0.040 A 
ATOM     87  C   UNL A   1      49.552  25.975  26.069  1.00  0.00     0.040 A 
ATOM     88  F   UNL A   1      47.653  27.222  25.490  1.00  0.00    -0.206 F 
ATOM     89  C   UNL A   1      50.308  25.290  27.019  1.00  0.00     0.006 A 
ENDBRANCH  65  82
ENDBRANCH  39  40
ENDBRANCH  32  34
ENDBRANCH  31  32
ENDBRANCH  30  31
ENDBRANCH  29  30
ENDBRANCH  28  29
ENDBRANCH  27  28
ENDBRANCH   1  27
TORSDOF 21
ENDMDL
MODEL 3
REMARK VINA RESULT:     -10.3      4.895      9.036
REMARK SMILES Cc1cc(C)c2c(c1)C=C(C(=O)OCCOCCOCCOCCOC(=O)c1ccc(-c3c4nc(c(-c5c(F)cccc5F)c5ccc([nH]5)c(-c5c(F)cccc5F)c5nc(c(-c6c(F)cccc6F)c6ccc3[nH]6)C=C5)C=C4)cc1)[C@@H](C(F)(F)F)O2
REMARK SMILES IDX 20 1 19 2 18 3 17 4 16 5 15 6 14 7 13 8 11 9 12 10 10 11
REMARK SMILES IDX 1 12 2 13 3 14 8 15 4 16 7 17 5 18 6 19 9 20 87 21 82 22
REMARK SMILES IDX 83 23 84 24 85 25 86 26 21 27 22 28 23 29 24 30 25 31 26 32
REMARK SMILES IDX 27 33 28 34 29 35 81 36 30 37 80 38 31 39 32 40 33 41 74 42
REMARK SMILES IDX 34 43 79 44 73 45 75 46 35 47 78 48 72 49 71 50 36 52 62 53
REMARK SMILES IDX 45 54 61 55 46 56 49 57 60 58 76 59 47 60 48 61 59 63 77 64
REMARK SMILES IDX 50 65 37 66 38 67 43 68 39 69 40 70 42 71 44 72 41 73 63 74
REMARK SMILES IDX 64 75 69 76 65 77 66 78 68 79 70 80 67 81 51 82 52 83 57 84
REMARK SMILES IDX 53 85 54 86 56 87 58 88 55 89
REMARK H PARENT 75 51 49 62
REMARK Flexibility Score: inf
ROOT
ATOM      1  C   UNL A   1      33.052  35.714  30.459  1.00  0.00     0.188 C 
ENDROOT
BRANCH   1   2
ATOM      2  O   UNL A   1      32.553  34.996  29.329  1.00  0.00    -0.377 OA
BRANCH   2   3
ATOM      3  C   UNL A   1      33.484  34.566  28.347  1.00  0.00     0.188 C 
BRANCH   3   4
ATOM      4  C   UNL A   1      33.362  33.068  28.005  1.00  0.00     0.188 C 
BRANCH   4   5
ATOM      5  O   UNL A   1      34.587  32.368  28.125  1.00  0.00    -0.376 OA
BRANCH   5   6
ATOM      6  C   UNL A   1      34.681  30.993  27.795  1.00  0.00     0.202 C 
BRANCH   6   7
ATOM      7  C   UNL A   1      33.590  30.221  27.028  1.00  0.00     0.261 C 
BRANCH   7   8
ATOM      8  O   UNL A   1      33.765  28.812  26.879  1.00  0.00    -0.460 OA
BRANCH   8   9
ATOM      9  C   UNL A   1      33.643  28.294  25.643  1.00  0.00     0.338 C 
ATOM     10  O   UNL A   1      33.930  28.838  24.593  1.00  0.00    -0.246 OA
BRANCH   9  11
ATOM     11  C   UNL A   1      33.261  26.873  25.792  1.00  0.00     0.087 C 
ATOM     12  C   UNL A   1      35.646  21.209  25.638  1.00  0.00     0.044 C 
ATOM     13  C   UNL A   1      34.570  22.239  25.814  1.00  0.00    -0.050 A 
ATOM     14  C   UNL A   1      33.221  21.869  25.849  1.00  0.00     0.010 A 
ATOM     15  C   UNL A   1      34.903  23.597  25.842  1.00  0.00     0.015 A 
ATOM     16  C   UNL A   1      32.208  22.837  25.949  1.00  0.00    -0.008 A 
ATOM     17  C   UNL A   1      33.903  24.573  25.905  1.00  0.00     0.018 A 
ATOM     18  C   UNL A   1      30.766  22.417  25.960  1.00  0.00     0.048 C 
ATOM     19  C   UNL A   1      32.563  24.194  25.999  1.00  0.00     0.130 A 
ATOM     20  C   UNL A   1      34.254  25.977  25.779  1.00  0.00     0.027 C 
ATOM     21  O   UNL A   1      31.538  25.092  26.115  1.00  0.00    -0.475 OA
ATOM     22  C   UNL A   1      31.816  26.515  26.026  1.00  0.00     0.316 C 
BRANCH  22  23
ATOM     23  C   UNL A   1      30.890  27.108  24.956  1.00  0.00     0.430 C 
ATOM     24  F   UNL A   1      30.733  28.443  25.125  1.00  0.00    -0.167 F 
ATOM     25  F   UNL A   1      31.378  26.933  23.706  1.00  0.00    -0.167 F 
ATOM     26  F   UNL A   1      29.659  26.548  24.990  1.00  0.00    -0.167 F 
ENDBRANCH  22  23
ENDBRANCH   9  11
ENDBRANCH   8   9
ENDBRANCH   7   8
ENDBRANCH   6   7
ENDBRANCH   5   6
ENDBRANCH   4   5
ENDBRANCH   3   4
ENDBRANCH   2   3
ENDBRANCH   1   2
BRANCH   1  27
ATOM     27  C   UNL A   1      34.149  35.136  31.389  1.00  0.00     0.188 C 
BRANCH  27  28
ATOM     28  O   UNL A   1      33.811  33.898  31.997  1.00  0.00    -0.376 OA
BRANCH  28  29
ATOM     29  C   UNL A   1      34.527  32.739  31.604  1.00  0.00     0.202 C 
BRANCH  29  30
ATOM     30  C   UNL A   1      36.044  32.905  31.456  1.00  0.00     0.261 C 
BRANCH  30  31
ATOM     31  O   UNL A   1      36.712  31.877  30.709  1.00  0.00    -0.460 OA
BRANCH  31  32
ATOM     32  C   UNL A   1      36.885  30.683  31.313  1.00  0.00     0.338 C 
ATOM     33  O   UNL A   1      36.127  30.133  32.095  1.00  0.00    -0.246 OA
BRANCH  32  34
ATOM     34  C   UNL A   1      38.078  30.052  30.714  1.00  0.00     0.060 A 
ATOM     35  C   UNL A   1      39.004  29.415  31.550  1.00  0.00     0.016 A 
ATOM     36  C   UNL A   1      38.271  30.081  29.331  1.00  0.00     0.016 A 
ATOM     37  C   UNL A   1      40.147  28.833  31.005  1.00  0.00     0.010 A 
ATOM     38  C   UNL A   1      39.430  29.522  28.789  1.00  0.00     0.010 A 
ATOM     39  C   UNL A   1      40.389  28.927  29.628  1.00  0.00    -0.014 A 
BRANCH  39  40
ATOM     40  C   UNL A   1      41.739  28.617  29.100  1.00  0.00     0.031 A 
ATOM     41  C   UNL A   1      42.003  27.217  28.622  1.00  0.00     0.074 A 
ATOM     42  C   UNL A   1      42.695  29.557  29.013  1.00  0.00     0.049 A 
ATOM     43  N   UNL A   1      43.108  26.690  28.162  1.00  0.00    -0.248 NA
ATOM     44  C   UNL A   1      40.863  26.284  28.668  1.00  0.00     0.031 C 
ATOM     45  C   UNL A   1      42.542  30.960  29.388  1.00  0.00     0.029 A 
ATOM     46  N   UNL A   1      43.995  29.462  28.578  1.00  0.00    -0.354 N 
ATOM     47  C   UNL A   1      42.795  25.369  27.862  1.00  0.00     0.074 A 
ATOM     48  C   UNL A   1      41.411  25.163  28.225  1.00  0.00     0.031 C 
ATOM     49  C   UNL A   1      43.707  31.597  29.170  1.00  0.00     0.029 A 
ATOM     50  C   UNL A   1      44.696  30.638  28.675  1.00  0.00     0.049 A 
ATOM     51  H   UNL A   1      44.386  28.629  28.230  1.00  0.00     0.167 HD
ATOM     52  C   UNL A   1      43.588  24.417  27.319  1.00  0.00     0.037 A 
ATOM     53  C   UNL A   1      45.991  30.902  28.412  1.00  0.00     0.037 A 
ATOM     54  C   UNL A   1      44.966  24.623  26.964  1.00  0.00     0.049 A 
ATOM     55  C   UNL A   1      46.884  29.797  27.906  1.00  0.00     0.074 A 
ATOM     56  C   UNL A   1      45.854  23.719  26.411  1.00  0.00     0.029 A 
ATOM     57  N   UNL A   1      45.655  25.813  27.134  1.00  0.00    -0.354 N 
ATOM     58  N   UNL A   1      46.580  28.554  27.619  1.00  0.00    -0.248 NA
ATOM     59  C   UNL A   1      48.299  30.132  27.688  1.00  0.00     0.031 C 
ATOM     60  C   UNL A   1      47.097  24.346  26.297  1.00  0.00     0.029 A 
ATOM     61  C   UNL A   1      46.968  25.659  26.721  1.00  0.00     0.049 A 
ATOM     62  H   UNL A   1      45.270  26.645  27.493  1.00  0.00     0.167 HD
ATOM     63  C   UNL A   1      47.756  27.968  27.163  1.00  0.00     0.074 A 
ATOM     64  C   UNL A   1      48.775  28.996  27.198  1.00  0.00     0.031 C 
ATOM     65  C   UNL A   1      47.972  26.692  26.755  1.00  0.00     0.037 A 
BRANCH  52  66
ATOM     66  C   UNL A   1      42.990  23.061  27.089  1.00  0.00     0.057 A 
ATOM     67  C   UNL A   1      42.775  22.162  28.142  1.00  0.00     0.134 A 
ATOM     68  C   UNL A   1      42.575  22.671  25.810  1.00  0.00     0.134 A 
ATOM     69  F   UNL A   1      43.166  22.467  29.388  1.00  0.00    -0.206 F 
ATOM     70  C   UNL A   1      42.176  20.919  27.928  1.00  0.00     0.040 A 
ATOM     71  C   UNL A   1      41.952  21.443  25.588  1.00  0.00     0.040 A 
ATOM     72  F   UNL A   1      42.752  23.485  24.758  1.00  0.00    -0.206 F 
ATOM     73  C   UNL A   1      41.752  20.562  26.649  1.00  0.00     0.006 A 
ENDBRANCH  52  66
BRANCH  53  74
ATOM     74  C   UNL A   1      46.528  32.272  28.625  1.00  0.00     0.057 A 
ATOM     75  C   UNL A   1      47.137  32.632  29.832  1.00  0.00     0.134 A 
ATOM     76  C   UNL A   1      46.441  33.255  27.630  1.00  0.00     0.134 A 
ATOM     77  F   UNL A   1      47.226  31.745  30.833  1.00  0.00    -0.206 F 
ATOM     78  C   UNL A   1      47.633  33.919  30.047  1.00  0.00     0.040 A 
ATOM     79  C   UNL A   1      46.957  34.538  27.821  1.00  0.00     0.040 A 
ATOM     80  F   UNL A   1      45.865  32.977  26.451  1.00  0.00    -0.206 F 
ATOM     81  C   UNL A   1      47.552  34.874  29.036  1.00  0.00     0.006 A 
ENDBRANCH  53  74
BRANCH  65  82
ATOM     82  C   UNL A   1      49.352  26.331  26.286  1.00  0.00     0.057 A 
ATOM     83  C   UNL A   1      49.804  26.656  25.002  1.00  0.00     0.134 A 
ATOM     84  C   UNL A   1      50.268  25.727  27.160  1.00  0.00     0.134 A 
ATOM     85  F   UNL A   1      48.978  27.229  24.115  1.00  0.00    -0.206 F 
ATOM     86  C   UNL A   1      51.113  26.380  24.598  1.00  0.00     0.040 A 
ATOM     87  C   UNL A   1      51.585  25.474  26.778  1.00  0.00     0.040 A 
ATOM     88  F   UNL A   1      49.904  25.402  28.410  1.00  0.00    -0.206 F 
ATOM     89  C   UNL A   1      52.011  25.798  25.491  1.00  0.00     0.006 A 
ENDBRANCH  65  82
ENDBRANCH  39  40
ENDBRANCH  32  34
ENDBRANCH  31  32
ENDBRANCH  30  31
ENDBRANCH  29  30
ENDBRANCH  28  29
ENDBRANCH  27  28
ENDBRANCH   1  27
TORSDOF 21
ENDMDL
