MODEL 1
REMARK VINA RESULT:      -8.5      0.000      0.000
REMARK SMILES O=C(OCCOCCOCCOCCOC(=O)c1cccc([C@@H]2CCC[N@@H+](Cc3cccc(OCCO)c3)C2)c1)c1ccc(-c2c3nc(c(-c4c(F)cccc4F)c4ccc([nH]4)c(-c4c(F)cccc4F)c4nc(c(-c5c(F)cccc5F)c5ccc2[nH]5)C=C4)C=C3)cc1
REMARK SMILES IDX 11 1 10 2 9 3 8 4 7 5 6 6 5 7 4 8 3 9 2 10 1 11 41 12 42 13
REMARK SMILES IDX 94 14 43 15 93 16 44 17 45 18 46 19 87 20 47 21 92 22 86 23
REMARK SMILES IDX 88 24 48 25 91 26 85 27 84 28 49 30 75 31 58 32 74 33 59 34
REMARK SMILES IDX 62 35 73 36 89 37 60 38 61 39 72 41 90 42 63 43 50 44 51 45
REMARK SMILES IDX 56 46 52 47 53 48 55 49 57 50 54 51 76 52 77 53 82 54 78 55
REMARK SMILES IDX 79 56 81 57 83 58 80 59 64 60 65 61 70 62 66 63 67 64 69 65
REMARK SMILES IDX 71 66 68 67 12 68 13 69 14 70 15 71 16 72 17 73 18 74 19 75
REMARK SMILES IDX 40 76 20 77 22 78 21 79 23 80 24 81 39 82 25 83 27 84 26 85
REMARK SMILES IDX 28 87 29 88 30 89 38 90 31 91 33 92 32 93 34 94 35 95 36 96
REMARK SMILES IDX 37 97
REMARK H PARENT 88 29 62 40 27 86 37 98
REMARK Flexibility Score: inf
ROOT
ATOM      1  C   UNL A   1      34.251  34.468  28.583  1.00  0.00     0.188 C 
ENDROOT
BRANCH   1   2
ATOM      2  C   UNL A   1      33.490  35.557  29.373  1.00  0.00     0.188 C 
BRANCH   2   3
ATOM      3  O   UNL A   1      33.005  35.252  30.679  1.00  0.00    -0.377 OA
BRANCH   3   4
ATOM      4  C   UNL A   1      33.065  36.281  31.664  1.00  0.00     0.188 C 
BRANCH   4   5
ATOM      5  C   UNL A   1      33.722  35.867  32.979  1.00  0.00     0.188 C 
BRANCH   5   6
ATOM      6  O   UNL A   1      35.142  35.984  32.876  1.00  0.00    -0.376 OA
BRANCH   6   7
ATOM      7  C   UNL A   1      35.865  34.769  33.041  1.00  0.00     0.202 C 
BRANCH   7   8
ATOM      8  C   UNL A   1      35.803  34.229  34.469  1.00  0.00     0.261 C 
BRANCH   8   9
ATOM      9  O   UNL A   1      36.215  32.856  34.533  1.00  0.00    -0.460 OA
BRANCH   9  10
ATOM     10  C   UNL A   1      37.401  32.351  34.956  1.00  0.00     0.338 C 
ATOM     11  O   UNL A   1      37.546  32.164  36.165  1.00  0.00    -0.246 OA
BRANCH  10  12
ATOM     12  C   UNL A   1      38.533  31.950  34.055  1.00  0.00     0.060 A 
ATOM     13  C   UNL A   1      38.418  31.448  32.756  1.00  0.00     0.016 A 
ATOM     14  C   UNL A   1      39.833  32.134  34.566  1.00  0.00     0.016 A 
ATOM     15  C   UNL A   1      39.535  31.046  32.029  1.00  0.00     0.010 A 
ATOM     16  C   UNL A   1      40.965  31.763  33.832  1.00  0.00     0.010 A 
ATOM     17  C   UNL A   1      40.810  31.173  32.575  1.00  0.00    -0.014 A 
BRANCH  17  18
ATOM     18  C   UNL A   1      41.928  30.499  31.888  1.00  0.00     0.031 A 
ATOM     19  C   UNL A   1      42.641  31.254  30.805  1.00  0.00     0.074 A 
ATOM     20  C   UNL A   1      42.382  29.313  32.330  1.00  0.00     0.049 A 
ATOM     21  N   UNL A   1      43.655  30.892  30.066  1.00  0.00    -0.248 NA
ATOM     22  C   UNL A   1      42.159  32.621  30.535  1.00  0.00     0.031 C 
ATOM     23  C   UNL A   1      41.823  28.563  33.456  1.00  0.00     0.029 A 
ATOM     24  N   UNL A   1      43.437  28.549  31.907  1.00  0.00    -0.354 N 
ATOM     25  C   UNL A   1      43.927  31.979  29.246  1.00  0.00     0.074 A 
ATOM     26  C   UNL A   1      42.962  33.008  29.559  1.00  0.00     0.031 C 
ATOM     27  C   UNL A   1      42.552  27.450  33.642  1.00  0.00     0.029 A 
ATOM     28  C   UNL A   1      43.593  27.387  32.621  1.00  0.00     0.049 A 
ATOM     29  H   UNL A   1      44.026  28.809  31.163  1.00  0.00     0.167 HD
ATOM     30  C   UNL A   1      44.900  32.106  28.316  1.00  0.00     0.037 A 
ATOM     31  C   UNL A   1      44.469  26.380  32.445  1.00  0.00     0.037 A 
ATOM     32  C   UNL A   1      45.835  31.061  28.004  1.00  0.00     0.049 A 
ATOM     33  C   UNL A   1      45.474  26.499  31.328  1.00  0.00     0.074 A 
ATOM     34  C   UNL A   1      46.797  31.022  27.012  1.00  0.00     0.029 A 
ATOM     35  N   UNL A   1      45.920  29.862  28.698  1.00  0.00    -0.354 N 
ATOM     36  N   UNL A   1      45.676  27.498  30.501  1.00  0.00    -0.248 NA
ATOM     37  C   UNL A   1      46.364  25.352  31.113  1.00  0.00     0.031 C 
ATOM     38  C   UNL A   1      47.445  29.783  27.089  1.00  0.00     0.029 A 
ATOM     39  C   UNL A   1      46.914  29.071  28.154  1.00  0.00     0.049 A 
ATOM     40  H   UNL A   1      45.356  29.612  29.465  1.00  0.00     0.167 HD
ATOM     41  C   UNL A   1      46.721  27.107  29.675  1.00  0.00     0.074 A 
ATOM     42  C   UNL A   1      47.128  25.789  30.121  1.00  0.00     0.031 C 
ATOM     43  C   UNL A   1      47.291  27.766  28.636  1.00  0.00     0.037 A 
BRANCH  30  44
ATOM     44  C   UNL A   1      44.943  33.395  27.551  1.00  0.00     0.057 A 
ATOM     45  C   UNL A   1      45.525  34.552  28.085  1.00  0.00     0.134 A 
ATOM     46  C   UNL A   1      44.349  33.494  26.288  1.00  0.00     0.134 A 
ATOM     47  F   UNL A   1      46.082  34.532  29.306  1.00  0.00    -0.206 F 
ATOM     48  C   UNL A   1      45.492  35.768  27.399  1.00  0.00     0.040 A 
ATOM     49  C   UNL A   1      44.328  34.699  25.584  1.00  0.00     0.040 A 
ATOM     50  F   UNL A   1      43.764  32.427  25.724  1.00  0.00    -0.206 F 
ATOM     51  C   UNL A   1      44.893  35.843  26.144  1.00  0.00     0.006 A 
ENDBRANCH  30  44
BRANCH  31  52
ATOM     52  C   UNL A   1      44.405  25.162  33.296  1.00  0.00     0.057 A 
ATOM     53  C   UNL A   1      44.848  25.169  34.624  1.00  0.00     0.134 A 
ATOM     54  C   UNL A   1      43.927  23.947  32.788  1.00  0.00     0.134 A 
ATOM     55  F   UNL A   1      45.341  26.292  35.167  1.00  0.00    -0.206 F 
ATOM     56  C   UNL A   1      44.837  24.011  35.406  1.00  0.00     0.040 A 
ATOM     57  C   UNL A   1      43.884  22.790  33.566  1.00  0.00     0.040 A 
ATOM     58  F   UNL A   1      43.489  23.867  31.522  1.00  0.00    -0.206 F 
ATOM     59  C   UNL A   1      44.350  22.817  34.878  1.00  0.00     0.006 A 
ENDBRANCH  31  52
BRANCH  43  60
ATOM     60  C   UNL A   1      48.422  27.076  27.939  1.00  0.00     0.057 A 
ATOM     61  C   UNL A   1      48.240  26.419  26.716  1.00  0.00     0.134 A 
ATOM     62  C   UNL A   1      49.713  27.106  28.478  1.00  0.00     0.134 A 
ATOM     63  F   UNL A   1      47.023  26.348  26.157  1.00  0.00    -0.206 F 
ATOM     64  C   UNL A   1      49.303  25.797  26.062  1.00  0.00     0.040 A 
ATOM     65  C   UNL A   1      50.788  26.507  27.821  1.00  0.00     0.040 A 
ATOM     66  F   UNL A   1      49.952  27.727  29.643  1.00  0.00    -0.206 F 
ATOM     67  C   UNL A   1      50.582  25.846  26.611  1.00  0.00     0.006 A 
ENDBRANCH  43  60
ENDBRANCH  17  18
ENDBRANCH  10  12
ENDBRANCH   9  10
ENDBRANCH   8   9
ENDBRANCH   7   8
ENDBRANCH   6   7
ENDBRANCH   5   6
ENDBRANCH   4   5
ENDBRANCH   3   4
ENDBRANCH   2   3
ENDBRANCH   1   2
BRANCH   1  68
ATOM     68  O   UNL A   1      35.015  33.580  29.390  1.00  0.00    -0.376 OA
BRANCH  68  69
ATOM     69  C   UNL A   1      36.423  33.785  29.380  1.00  0.00     0.202 C 
BRANCH  69  70
ATOM     70  C   UNL A   1      37.205  32.610  28.802  1.00  0.00     0.261 C 
BRANCH  70  71
ATOM     71  O   UNL A   1      36.668  31.320  29.116  1.00  0.00    -0.460 OA
BRANCH  71  72
ATOM     72  C   UNL A   1      36.985  30.210  28.406  1.00  0.00     0.338 C 
ATOM     73  O   UNL A   1      36.676  29.939  27.262  1.00  0.00    -0.246 OA
BRANCH  72  74
ATOM     74  C   UNL A   1      37.958  29.481  29.255  1.00  0.00     0.060 A 
ATOM     75  C   UNL A   1      37.553  28.664  30.308  1.00  0.00     0.016 A 
ATOM     76  C   UNL A   1      39.279  29.444  28.816  1.00  0.00     0.020 A 
ATOM     77  C   UNL A   1      38.478  27.777  30.868  1.00  0.00     0.001 A 
ATOM     78  C   UNL A   1      40.211  28.549  29.337  1.00  0.00    -0.038 A 
ATOM     79  C   UNL A   1      39.792  27.709  30.377  1.00  0.00     0.004 A 
BRANCH  78  80
ATOM     80  C   UNL A   1      41.571  28.387  28.668  1.00  0.00     0.074 C 
ATOM     81  C   UNL A   1      41.686  29.014  27.265  1.00  0.00     0.020 C 
ATOM     82  C   UNL A   1      41.979  26.898  28.608  1.00  0.00     0.270 C 
ATOM     83  C   UNL A   1      41.103  28.170  26.127  1.00  0.00     0.062 C 
ATOM     84  N   UNL A   1      41.200  26.138  27.622  1.00  0.00    -0.331 N 
ATOM     85  C   UNL A   1      41.361  26.664  26.261  1.00  0.00     0.262 C 
ATOM     86  H   UNL A   1      40.218  26.286  27.858  1.00  0.00     0.348 HD
BRANCH  84  87
ATOM     87  C   UNL A   1      41.379  24.673  27.728  1.00  0.00     0.299 C 
BRANCH  87  88
ATOM     88  C   UNL A   1      42.569  24.119  26.966  1.00  0.00     0.010 A 
ATOM     89  C   UNL A   1      43.837  24.697  27.109  1.00  0.00     0.010 A 
ATOM     90  C   UNL A   1      42.442  22.929  26.234  1.00  0.00     0.056 A 
ATOM     91  C   UNL A   1      44.959  24.055  26.588  1.00  0.00     0.004 A 
ATOM     92  C   UNL A   1      43.565  22.232  25.801  1.00  0.00     0.119 A 
ATOM     93  C   UNL A   1      44.824  22.815  25.960  1.00  0.00     0.046 A 
BRANCH  92  94
ATOM     94  O   UNL A   1      43.566  20.967  25.281  1.00  0.00    -0.491 OA
BRANCH  94  95
ATOM     95  C   UNL A   1      44.824  20.333  25.007  1.00  0.00     0.257 C 
BRANCH  95  96
ATOM     96  C   UNL A   1      44.708  18.806  24.932  1.00  0.00     0.197 C 
BRANCH  96  97
ATOM     97  O   UNL A   1      45.963  18.159  24.756  1.00  0.00    -0.393 OA
ATOM     98  H   UNL A   1      46.332  17.929  25.623  1.00  0.00     0.210 HD
ENDBRANCH  96  97
ENDBRANCH  95  96
ENDBRANCH  94  95
ENDBRANCH  92  94
ENDBRANCH  87  88
ENDBRANCH  84  87
ENDBRANCH  78  80
ENDBRANCH  72  74
ENDBRANCH  71  72
ENDBRANCH  70  71
ENDBRANCH  69  70
ENDBRANCH  68  69
ENDBRANCH   1  68
TORSDOF 27
ENDMDL
MODEL 2
REMARK VINA RESULT:      -8.1      1.159      2.132
REMARK SMILES O=C(OCCOCCOCCOCCOC(=O)c1cccc([C@@H]2CCC[N@@H+](Cc3cccc(OCCO)c3)C2)c1)c1ccc(-c2c3nc(c(-c4c(F)cccc4F)c4ccc([nH]4)c(-c4c(F)cccc4F)c4nc(c(-c5c(F)cccc5F)c5ccc2[nH]5)C=C4)C=C3)cc1
REMARK SMILES IDX 11 1 10 2 9 3 8 4 7 5 6 6 5 7 4 8 3 9 2 10 1 11 41 12 42 13
REMARK SMILES IDX 94 14 43 15 93 16 44 17 45 18 46 19 87 20 47 21 92 22 86 23
REMARK SMILES IDX 88 24 48 25 91 26 85 27 84 28 49 30 75 31 58 32 74 33 59 34
REMARK SMILES IDX 62 35 73 36 89 37 60 38 61 39 72 41 90 42 63 43 50 44 51 45
REMARK SMILES IDX 56 46 52 47 53 48 55 49 57 50 54 51 76 52 77 53 82 54 78 55
REMARK SMILES IDX 79 56 81 57 83 58 80 59 64 60 65 61 70 62 66 63 67 64 69 65
REMARK SMILES IDX 71 66 68 67 12 68 13 69 14 70 15 71 16 72 17 73 18 74 19 75
REMARK SMILES IDX 40 76 20 77 22 78 21 79 23 80 24 81 39 82 25 83 27 84 26 85
REMARK SMILES IDX 28 87 29 88 30 89 38 90 31 91 33 92 32 93 34 94 35 95 36 96
REMARK SMILES IDX 37 97
REMARK H PARENT 88 29 62 40 27 86 37 98
REMARK Flexibility Score: inf
ROOT
ATOM      1  C   UNL A   1      34.685  32.820  29.590  1.00  0.00     0.188 C 
ENDROOT
BRANCH   1   2
ATOM      2  C   UNL A   1      33.977  34.143  29.959  1.00  0.00     0.188 C 
BRANCH   2   3
ATOM      3  O   UNL A   1      33.566  34.354  31.308  1.00  0.00    -0.377 OA
BRANCH   3   4
ATOM      4  C   UNL A   1      33.746  35.657  31.858  1.00  0.00     0.188 C 
BRANCH   4   5
ATOM      5  C   UNL A   1      34.415  35.684  33.231  1.00  0.00     0.188 C 
BRANCH   5   6
ATOM      6  O   UNL A   1      35.835  35.635  33.085  1.00  0.00    -0.376 OA
BRANCH   6   7
ATOM      7  C   UNL A   1      36.433  34.376  33.372  1.00  0.00     0.202 C 
BRANCH   7   8
ATOM      8  C   UNL A   1      36.300  33.976  34.841  1.00  0.00     0.261 C 
BRANCH   8   9
ATOM      9  O   UNL A   1      36.484  32.564  35.023  1.00  0.00    -0.460 OA
BRANCH   9  10
ATOM     10  C   UNL A   1      37.618  31.900  35.358  1.00  0.00     0.338 C 
ATOM     11  O   UNL A   1      37.742  31.530  36.526  1.00  0.00    -0.246 OA
BRANCH  10  12
ATOM     12  C   UNL A   1      38.711  31.530  34.398  1.00  0.00     0.060 A 
ATOM     13  C   UNL A   1      38.558  30.823  33.202  1.00  0.00     0.016 A 
ATOM     14  C   UNL A   1      40.007  31.974  34.726  1.00  0.00     0.016 A 
ATOM     15  C   UNL A   1      39.652  30.477  32.414  1.00  0.00     0.010 A 
ATOM     16  C   UNL A   1      41.111  31.660  33.925  1.00  0.00     0.010 A 
ATOM     17  C   UNL A   1      40.936  30.867  32.788  1.00  0.00    -0.014 A 
BRANCH  17  18
ATOM     18  C   UNL A   1      42.078  30.262  32.077  1.00  0.00     0.031 A 
ATOM     19  C   UNL A   1      42.736  31.067  30.995  1.00  0.00     0.074 A 
ATOM     20  C   UNL A   1      42.601  29.097  32.498  1.00  0.00     0.049 A 
ATOM     21  N   UNL A   1      43.756  30.768  30.238  1.00  0.00    -0.248 NA
ATOM     22  C   UNL A   1      42.178  32.410  30.749  1.00  0.00     0.031 C 
ATOM     23  C   UNL A   1      42.098  28.305  33.621  1.00  0.00     0.029 A 
ATOM     24  N   UNL A   1      43.689  28.395  32.051  1.00  0.00    -0.354 N 
ATOM     25  C   UNL A   1      43.959  31.878  29.428  1.00  0.00     0.074 A 
ATOM     26  C   UNL A   1      42.946  32.851  29.767  1.00  0.00     0.031 C 
ATOM     27  C   UNL A   1      42.887  27.229  33.784  1.00  0.00     0.029 A 
ATOM     28  C   UNL A   1      43.916  27.234  32.748  1.00  0.00     0.049 A 
ATOM     29  H   UNL A   1      44.253  28.694  31.302  1.00  0.00     0.167 HD
ATOM     30  C   UNL A   1      44.911  32.068  28.487  1.00  0.00     0.037 A 
ATOM     31  C   UNL A   1      44.842  26.277  32.547  1.00  0.00     0.037 A 
ATOM     32  C   UNL A   1      45.896  31.078  28.149  1.00  0.00     0.049 A 
ATOM     33  C   UNL A   1      45.823  26.463  31.419  1.00  0.00     0.074 A 
ATOM     34  C   UNL A   1      46.844  31.102  27.144  1.00  0.00     0.029 A 
ATOM     35  N   UNL A   1      46.053  29.877  28.826  1.00  0.00    -0.354 N 
ATOM     36  N   UNL A   1      45.960  27.482  30.601  1.00  0.00    -0.248 NA
ATOM     37  C   UNL A   1      46.769  25.367  31.177  1.00  0.00     0.031 C 
ATOM     38  C   UNL A   1      47.558  29.898  27.196  1.00  0.00     0.029 A 
ATOM     39  C   UNL A   1      47.080  29.146  28.259  1.00  0.00     0.049 A 
ATOM     40  H   UNL A   1      45.514  29.588  29.598  1.00  0.00     0.167 HD
ATOM     41  C   UNL A   1      47.013  27.156  29.757  1.00  0.00     0.074 A 
ATOM     42  C   UNL A   1      47.495  25.856  30.180  1.00  0.00     0.031 C 
ATOM     43  C   UNL A   1      47.532  27.857  28.719  1.00  0.00     0.037 A 
BRANCH  30  44
ATOM     44  C   UNL A   1      44.874  33.366  27.739  1.00  0.00     0.057 A 
ATOM     45  C   UNL A   1      44.218  33.492  26.507  1.00  0.00     0.134 A 
ATOM     46  C   UNL A   1      45.547  34.491  28.230  1.00  0.00     0.134 A 
ATOM     47  F   UNL A   1      43.582  32.441  25.965  1.00  0.00    -0.206 F 
ATOM     48  C   UNL A   1      44.254  34.683  25.779  1.00  0.00     0.040 A 
ATOM     49  C   UNL A   1      45.573  35.693  27.521  1.00  0.00     0.040 A 
ATOM     50  F   UNL A   1      46.204  34.436  29.397  1.00  0.00    -0.206 F 
ATOM     51  C   UNL A   1      44.932  35.789  26.287  1.00  0.00     0.006 A 
ENDBRANCH  30  44
BRANCH  31  52
ATOM     52  C   UNL A   1      44.854  25.048  33.383  1.00  0.00     0.057 A 
ATOM     53  C   UNL A   1      44.326  23.837  32.920  1.00  0.00     0.134 A 
ATOM     54  C   UNL A   1      45.369  25.063  34.687  1.00  0.00     0.134 A 
ATOM     55  F   UNL A   1      43.794  23.758  31.691  1.00  0.00    -0.206 F 
ATOM     56  C   UNL A   1      44.289  22.696  33.727  1.00  0.00     0.040 A 
ATOM     57  C   UNL A   1      45.365  23.924  35.492  1.00  0.00     0.040 A 
ATOM     58  F   UNL A   1      45.889  26.189  35.196  1.00  0.00    -0.206 F 
ATOM     59  C   UNL A   1      44.815  22.737  35.017  1.00  0.00     0.006 A 
ENDBRANCH  31  52
BRANCH  43  60
ATOM     60  C   UNL A   1      48.689  27.237  27.998  1.00  0.00     0.057 A 
ATOM     61  C   UNL A   1      48.503  26.439  26.862  1.00  0.00     0.134 A 
ATOM     62  C   UNL A   1      50.001  27.476  28.421  1.00  0.00     0.134 A 
ATOM     63  F   UNL A   1      47.268  26.166  26.417  1.00  0.00    -0.206 F 
ATOM     64  C   UNL A   1      49.586  25.881  26.183  1.00  0.00     0.040 A 
ATOM     65  C   UNL A   1      51.093  26.942  27.736  1.00  0.00     0.040 A 
ATOM     66  F   UNL A   1      50.243  28.240  29.497  1.00  0.00    -0.206 F 
ATOM     67  C   UNL A   1      50.886  26.139  26.616  1.00  0.00     0.006 A 
ENDBRANCH  43  60
ENDBRANCH  17  18
ENDBRANCH  10  12
ENDBRANCH   9  10
ENDBRANCH   8   9
ENDBRANCH   7   8
ENDBRANCH   6   7
ENDBRANCH   5   6
ENDBRANCH   4   5
ENDBRANCH   3   4
ENDBRANCH   2   3
ENDBRANCH   1   2
BRANCH   1  68
ATOM     68  O   UNL A   1      35.573  32.329  30.587  1.00  0.00    -0.376 OA
BRANCH  68  69
ATOM     69  C   UNL A   1      36.923  32.768  30.489  1.00  0.00     0.202 C 
BRANCH  69  70
ATOM     70  C   UNL A   1      37.798  31.858  29.635  1.00  0.00     0.261 C 
BRANCH  70  71
ATOM     71  O   UNL A   1      37.302  30.523  29.478  1.00  0.00    -0.460 OA
BRANCH  71  72
ATOM     72  C   UNL A   1      37.712  29.709  28.475  1.00  0.00     0.338 C 
ATOM     73  O   UNL A   1      37.282  29.646  27.340  1.00  0.00    -0.246 OA
BRANCH  72  74
ATOM     74  C   UNL A   1      38.933  29.048  28.995  1.00  0.00     0.060 A 
ATOM     75  C   UNL A   1      38.870  27.954  29.854  1.00  0.00     0.016 A 
ATOM     76  C   UNL A   1      40.145  29.402  28.408  1.00  0.00     0.020 A 
ATOM     77  C   UNL A   1      40.026  27.194  30.063  1.00  0.00     0.001 A 
ATOM     78  C   UNL A   1      41.302  28.645  28.577  1.00  0.00    -0.038 A 
ATOM     79  C   UNL A   1      41.229  27.528  29.419  1.00  0.00     0.004 A 
BRANCH  78  80
ATOM     80  C   UNL A   1      42.536  28.938  27.733  1.00  0.00     0.074 C 
ATOM     81  C   UNL A   1      42.257  29.215  26.242  1.00  0.00     0.020 C 
ATOM     82  C   UNL A   1      43.575  27.802  27.866  1.00  0.00     0.270 C 
ATOM     83  C   UNL A   1      42.048  27.967  25.379  1.00  0.00     0.062 C 
ATOM     84  N   UNL A   1      43.164  26.577  27.167  1.00  0.00    -0.331 N 
ATOM     85  C   UNL A   1      42.974  26.795  25.728  1.00  0.00     0.262 C 
ATOM     86  H   UNL A   1      42.242  26.336  27.531  1.00  0.00     0.348 HD
BRANCH  84  87
ATOM     87  C   UNL A   1      44.000  25.401  27.495  1.00  0.00     0.299 C 
BRANCH  87  88
ATOM     88  C   UNL A   1      43.672  24.146  26.705  1.00  0.00     0.010 A 
ATOM     89  C   UNL A   1      44.689  23.267  26.311  1.00  0.00     0.010 A 
ATOM     90  C   UNL A   1      42.335  23.777  26.496  1.00  0.00     0.056 A 
ATOM     91  C   UNL A   1      44.366  22.017  25.786  1.00  0.00     0.004 A 
ATOM     92  C   UNL A   1      42.005  22.494  26.071  1.00  0.00     0.119 A 
ATOM     93  C   UNL A   1      43.030  21.625  25.691  1.00  0.00     0.046 A 
BRANCH  92  94
ATOM     94  O   UNL A   1      40.746  21.962  26.048  1.00  0.00    -0.491 OA
BRANCH  94  95
ATOM     95  C   UNL A   1      39.732  22.544  26.880  1.00  0.00     0.257 C 
BRANCH  95  96
ATOM     96  C   UNL A   1      38.529  23.051  26.075  1.00  0.00     0.197 C 
BRANCH  96  97
ATOM     97  O   UNL A   1      37.438  23.454  26.894  1.00  0.00    -0.393 OA
ATOM     98  H   UNL A   1      36.645  22.956  26.643  1.00  0.00     0.210 HD
ENDBRANCH  96  97
ENDBRANCH  95  96
ENDBRANCH  94  95
ENDBRANCH  92  94
ENDBRANCH  87  88
ENDBRANCH  84  87
ENDBRANCH  78  80
ENDBRANCH  72  74
ENDBRANCH  71  72
ENDBRANCH  70  71
ENDBRANCH  69  70
ENDBRANCH  68  69
ENDBRANCH   1  68
TORSDOF 27
ENDMDL
MODEL 3
REMARK VINA RESULT:      -7.7      1.299      6.067
REMARK SMILES O=C(OCCOCCOCCOCCOC(=O)c1cccc([C@@H]2CCC[N@@H+](Cc3cccc(OCCO)c3)C2)c1)c1ccc(-c2c3nc(c(-c4c(F)cccc4F)c4ccc([nH]4)c(-c4c(F)cccc4F)c4nc(c(-c5c(F)cccc5F)c5ccc2[nH]5)C=C4)C=C3)cc1
REMARK SMILES IDX 11 1 10 2 9 3 8 4 7 5 6 6 5 7 4 8 3 9 2 10 1 11 41 12 42 13
REMARK SMILES IDX 94 14 43 15 93 16 44 17 45 18 46 19 87 20 47 21 92 22 86 23
REMARK SMILES IDX 88 24 48 25 91 26 85 27 84 28 49 30 75 31 58 32 74 33 59 34
REMARK SMILES IDX 62 35 73 36 89 37 60 38 61 39 72 41 90 42 63 43 50 44 51 45
REMARK SMILES IDX 56 46 52 47 53 48 55 49 57 50 54 51 76 52 77 53 82 54 78 55
REMARK SMILES IDX 79 56 81 57 83 58 80 59 64 60 65 61 70 62 66 63 67 64 69 65
REMARK SMILES IDX 71 66 68 67 12 68 13 69 14 70 15 71 16 72 17 73 18 74 19 75
REMARK SMILES IDX 40 76 20 77 22 78 21 79 23 80 24 81 39 82 25 83 27 84 26 85
REMARK SMILES IDX 28 87 29 88 30 89 38 90 31 91 33 92 32 93 34 94 35 95 36 96
REMARK SMILES IDX 37 97
REMARK H PARENT 88 29 62 40 27 86 37 98
REMARK Flexibility Score: inf
ROOT
ATOM      1  C   UNL A   1      35.116  33.170  29.398  1.00  0.00     0.188 C 
ENDROOT
BRANCH   1   2
ATOM      2  C   UNL A   1      34.150  34.245  29.946  1.00  0.00     0.188 C 
BRANCH   2   3
ATOM      3  O   UNL A   1      33.847  34.254  31.340  1.00  0.00    -0.377 OA
BRANCH   3   4
ATOM      4  C   UNL A   1      33.791  35.519  31.996  1.00  0.00     0.188 C 
BRANCH   4   5
ATOM      5  C   UNL A   1      34.510  35.572  33.342  1.00  0.00     0.188 C 
BRANCH   5   6
ATOM      6  O   UNL A   1      35.921  35.461  33.148  1.00  0.00    -0.376 OA
BRANCH   6   7
ATOM      7  C   UNL A   1      36.483  34.197  33.482  1.00  0.00     0.202 C 
BRANCH   7   8
ATOM      8  C   UNL A   1      36.470  33.918  34.984  1.00  0.00     0.261 C 
BRANCH   8   9
ATOM      9  O   UNL A   1      36.849  32.564  35.273  1.00  0.00    -0.460 OA
BRANCH   9  10
ATOM     10  C   UNL A   1      38.066  32.091  35.642  1.00  0.00     0.338 C 
ATOM     11  O   UNL A   1      38.248  31.846  36.835  1.00  0.00    -0.246 OA
BRANCH  10  12
ATOM     12  C   UNL A   1      39.192  31.790  34.696  1.00  0.00     0.060 A 
ATOM     13  C   UNL A   1      39.096  31.082  33.494  1.00  0.00     0.016 A 
ATOM     14  C   UNL A   1      40.455  32.307  35.044  1.00  0.00     0.016 A 
ATOM     15  C   UNL A   1      40.220  30.804  32.721  1.00  0.00     0.010 A 
ATOM     16  C   UNL A   1      41.587  32.061  34.258  1.00  0.00     0.010 A 
ATOM     17  C   UNL A   1      41.474  31.265  33.115  1.00  0.00    -0.014 A 
BRANCH  17  18
ATOM     18  C   UNL A   1      42.658  30.730  32.418  1.00  0.00     0.031 A 
ATOM     19  C   UNL A   1      43.192  29.400  32.864  1.00  0.00     0.074 A 
ATOM     20  C   UNL A   1      43.138  31.345  31.323  1.00  0.00     0.049 A 
ATOM     21  N   UNL A   1      44.204  28.714  32.407  1.00  0.00    -0.248 NA
ATOM     22  C   UNL A   1      42.464  28.740  33.963  1.00  0.00     0.031 C 
ATOM     23  C   UNL A   1      42.603  32.580  30.748  1.00  0.00     0.029 A 
ATOM     24  N   UNL A   1      44.160  30.996  30.481  1.00  0.00    -0.354 N 
ATOM     25  C   UNL A   1      44.236  27.548  33.163  1.00  0.00     0.074 A 
ATOM     26  C   UNL A   1      43.158  27.626  34.122  1.00  0.00     0.031 C 
ATOM     27  C   UNL A   1      43.297  32.879  29.636  1.00  0.00     0.029 A 
ATOM     28  C   UNL A   1      44.351  31.886  29.452  1.00  0.00     0.049 A 
ATOM     29  H   UNL A   1      44.706  30.186  30.602  1.00  0.00     0.167 HD
ATOM     30  C   UNL A   1      45.090  26.506  33.061  1.00  0.00     0.037 A 
ATOM     31  C   UNL A   1      45.292  31.898  28.489  1.00  0.00     0.037 A 
ATOM     32  C   UNL A   1      46.170  26.459  32.114  1.00  0.00     0.049 A 
ATOM     33  C   UNL A   1      46.300  30.779  28.465  1.00  0.00     0.074 A 
ATOM     34  C   UNL A   1      47.169  25.514  31.981  1.00  0.00     0.029 A 
ATOM     35  N   UNL A   1      46.383  27.415  31.131  1.00  0.00    -0.354 N 
ATOM     36  N   UNL A   1      46.375  29.717  29.235  1.00  0.00    -0.248 NA
ATOM     37  C   UNL A   1      47.358  30.861  27.451  1.00  0.00     0.031 C 
ATOM     38  C   UNL A   1      48.005  25.915  30.931  1.00  0.00     0.029 A 
ATOM     39  C   UNL A   1      47.500  27.087  30.386  1.00  0.00     0.049 A 
ATOM     40  H   UNL A   1      45.819  28.209  30.983  1.00  0.00     0.167 HD
ATOM     41  C   UNL A   1      47.479  29.001  28.791  1.00  0.00     0.074 A 
ATOM     42  C   UNL A   1      48.025  29.736  27.668  1.00  0.00     0.031 C 
ATOM     43  C   UNL A   1      48.004  27.846  29.270  1.00  0.00     0.037 A 
BRANCH  30  44
ATOM     44  C   UNL A   1      44.907  25.382  34.035  1.00  0.00     0.057 A 
ATOM     45  C   UNL A   1      44.256  24.193  33.679  1.00  0.00     0.134 A 
ATOM     46  C   UNL A   1      45.341  25.509  35.360  1.00  0.00     0.134 A 
ATOM     47  F   UNL A   1      43.786  24.022  32.434  1.00  0.00    -0.206 F 
ATOM     48  C   UNL A   1      44.020  23.182  34.614  1.00  0.00     0.040 A 
ATOM     49  C   UNL A   1      45.129  24.497  36.298  1.00  0.00     0.040 A 
ATOM     50  F   UNL A   1      45.961  26.625  35.769  1.00  0.00    -0.206 F 
ATOM     51  C   UNL A   1      44.458  23.333  35.928  1.00  0.00     0.006 A 
ENDBRANCH  30  44
BRANCH  31  52
ATOM     52  C   UNL A   1      45.361  33.017  27.512  1.00  0.00     0.057 A 
ATOM     53  C   UNL A   1      44.635  32.996  26.315  1.00  0.00     0.134 A 
ATOM     54  C   UNL A   1      46.186  34.127  27.739  1.00  0.00     0.134 A 
ATOM     55  F   UNL A   1      43.845  31.952  26.023  1.00  0.00    -0.206 F 
ATOM     56  C   UNL A   1      44.743  34.023  25.374  1.00  0.00     0.040 A 
ATOM     57  C   UNL A   1      46.280  35.173  26.821  1.00  0.00     0.040 A 
ATOM     58  F   UNL A   1      46.912  34.213  28.864  1.00  0.00    -0.206 F 
ATOM     59  C   UNL A   1      45.565  35.119  25.628  1.00  0.00     0.006 A 
ENDBRANCH  31  52
BRANCH  43  60
ATOM     60  C   UNL A   1      49.209  27.308  28.562  1.00  0.00     0.057 A 
ATOM     61  C   UNL A   1      50.507  27.666  28.946  1.00  0.00     0.134 A 
ATOM     62  C   UNL A   1      49.067  26.393  27.512  1.00  0.00     0.134 A 
ATOM     63  F   UNL A   1      50.704  28.547  29.938  1.00  0.00    -0.206 F 
ATOM     64  C   UNL A   1      51.625  27.145  28.295  1.00  0.00     0.040 A 
ATOM     65  C   UNL A   1      50.179  25.849  26.869  1.00  0.00     0.040 A 
ATOM     66  F   UNL A   1      47.849  26.006  27.104  1.00  0.00    -0.206 F 
ATOM     67  C   UNL A   1      51.462  26.229  27.258  1.00  0.00     0.006 A 
ENDBRANCH  43  60
ENDBRANCH  17  18
ENDBRANCH  10  12
ENDBRANCH   9  10
ENDBRANCH   8   9
ENDBRANCH   7   8
ENDBRANCH   6   7
ENDBRANCH   5   6
ENDBRANCH   4   5
ENDBRANCH   3   4
ENDBRANCH   2   3
ENDBRANCH   1   2
BRANCH   1  68
ATOM     68  O   UNL A   1      35.895  32.515  30.391  1.00  0.00    -0.376 OA
BRANCH  68  69
ATOM     69  C   UNL A   1      37.282  32.831  30.403  1.00  0.00     0.202 C 
BRANCH  69  70
ATOM     70  C   UNL A   1      38.161  31.738  29.805  1.00  0.00     0.261 C 
BRANCH  70  71
ATOM     71  O   UNL A   1      37.640  30.410  29.937  1.00  0.00    -0.460 OA
BRANCH  71  72
ATOM     72  C   UNL A   1      37.995  29.404  29.102  1.00  0.00     0.338 C 
ATOM     73  O   UNL A   1      37.373  28.960  28.157  1.00  0.00    -0.246 OA
BRANCH  72  74
ATOM     74  C   UNL A   1      39.398  29.088  29.463  1.00  0.00     0.060 A 
ATOM     75  C   UNL A   1      39.716  28.237  30.519  1.00  0.00     0.016 A 
ATOM     76  C   UNL A   1      40.387  29.476  28.563  1.00  0.00     0.020 A 
ATOM     77  C   UNL A   1      41.020  27.742  30.617  1.00  0.00     0.001 A 
ATOM     78  C   UNL A   1      41.686  28.974  28.622  1.00  0.00    -0.038 A 
ATOM     79  C   UNL A   1      41.994  28.095  29.669  1.00  0.00     0.004 A 
BRANCH  78  80
ATOM     80  C   UNL A   1      42.662  29.246  27.484  1.00  0.00     0.074 C 
ATOM     81  C   UNL A   1      42.047  29.201  26.072  1.00  0.00     0.020 C 
ATOM     82  C   UNL A   1      43.870  28.286  27.556  1.00  0.00     0.270 C 
ATOM     83  C   UNL A   1      41.864  27.797  25.488  1.00  0.00     0.062 C 
ATOM     84  N   UNL A   1      43.522  26.911  27.172  1.00  0.00    -0.331 N 
ATOM     85  C   UNL A   1      43.013  26.830  25.798  1.00  0.00     0.262 C 
ATOM     86  H   UNL A   1      42.742  26.636  27.770  1.00  0.00     0.348 HD
BRANCH  84  87
ATOM     87  C   UNL A   1      44.580  25.924  27.485  1.00  0.00     0.299 C 
BRANCH  87  88
ATOM     88  C   UNL A   1      44.073  24.537  27.838  1.00  0.00     0.010 A 
ATOM     89  C   UNL A   1      43.554  24.271  29.111  1.00  0.00     0.010 A 
ATOM     90  C   UNL A   1      43.977  23.551  26.844  1.00  0.00     0.056 A 
ATOM     91  C   UNL A   1      42.892  23.071  29.359  1.00  0.00     0.004 A 
ATOM     92  C   UNL A   1      43.228  22.397  27.052  1.00  0.00     0.119 A 
ATOM     93  C   UNL A   1      42.708  22.150  28.325  1.00  0.00     0.046 A 
BRANCH  92  94
ATOM     94  O   UNL A   1      42.886  21.485  26.093  1.00  0.00    -0.491 OA
BRANCH  94  95
ATOM     95  C   UNL A   1      41.496  21.212  25.863  1.00  0.00     0.257 C 
BRANCH  95  96
ATOM     96  C   UNL A   1      40.943  20.140  26.810  1.00  0.00     0.197 C 
BRANCH  96  97
ATOM     97  O   UNL A   1      40.584  18.936  26.143  1.00  0.00    -0.393 OA
ATOM     98  H   UNL A   1      40.926  18.177  26.640  1.00  0.00     0.210 HD
ENDBRANCH  96  97
ENDBRANCH  95  96
ENDBRANCH  94  95
ENDBRANCH  92  94
ENDBRANCH  87  88
ENDBRANCH  84  87
ENDBRANCH  78  80
ENDBRANCH  72  74
ENDBRANCH  71  72
ENDBRANCH  70  71
ENDBRANCH  69  70
ENDBRANCH  68  69
ENDBRANCH   1  68
TORSDOF 27
ENDMDL
