MODEL 1
REMARK VINA RESULT:     -11.3      0.000      0.000
REMARK SMILES O=C(OCCOCCOCCOCCOC(=O)c1ccc([C@H]2Nc3ccc(Cl)cc3[C@@H]3C=CC[C@@H]23)cc1)c1ccc(-c2c3nc(c(-c4c(F)cccc4F)c4ccc([nH]4)c(-c4c(F)cccc4F)c4nc(c(-c5c(F)cccc5F)c5ccc2[nH]5)C=C4)C=C3)cc1
REMARK SMILES IDX 8 1 7 2 6 3 5 4 4 5 3 6 2 7 1 8 38 9 39 10 91 11 40 12 90 13
REMARK SMILES IDX 41 14 42 15 43 16 84 17 44 18 89 19 83 20 85 21 45 22 88 23
REMARK SMILES IDX 82 24 81 25 46 27 72 28 55 29 71 30 56 31 59 32 70 33 86 34
REMARK SMILES IDX 57 35 58 36 69 38 87 39 60 40 47 41 48 42 53 43 49 44 50 45
REMARK SMILES IDX 52 46 54 47 51 48 73 49 74 50 79 51 75 52 76 53 78 54 80 55
REMARK SMILES IDX 77 56 61 57 62 58 67 59 63 60 64 61 66 62 68 63 65 64 9 65
REMARK SMILES IDX 10 66 11 67 12 68 13 69 14 70 15 71 16 72 17 73 18 74 19 75
REMARK SMILES IDX 37 76 20 77 36 78 21 79 22 80 23 81 35 82 24 83 31 85 34 86
REMARK SMILES IDX 25 87 30 88 32 89 33 90 26 91 29 92 27 93 28 94
REMARK H PARENT 85 26 59 37 23 84
REMARK Flexibility Score: inf
ROOT
ATOM      1  C   UNL A   1      42.782  19.551  26.137  1.00  0.00     0.188 C 
ENDROOT
BRANCH   1   2
ATOM      2  C   UNL A   1      43.867  18.762  25.408  1.00  0.00     0.188 C 
BRANCH   2   3
ATOM      3  O   UNL A   1      45.068  19.532  25.291  1.00  0.00    -0.376 OA
BRANCH   3   4
ATOM      4  C   UNL A   1      44.921  20.786  24.627  1.00  0.00     0.202 C 
BRANCH   4   5
ATOM      5  C   UNL A   1      45.225  22.011  25.497  1.00  0.00     0.261 C 
BRANCH   5   6
ATOM      6  O   UNL A   1      44.135  22.945  25.545  1.00  0.00    -0.460 OA
BRANCH   6   7
ATOM      7  C   UNL A   1      44.195  24.300  25.499  1.00  0.00     0.338 C 
ATOM      8  O   UNL A   1      44.863  24.828  24.611  1.00  0.00    -0.246 OA
BRANCH   7   9
ATOM      9  C   UNL A   1      43.477  25.199  26.456  1.00  0.00     0.060 A 
ATOM     10  C   UNL A   1      43.683  26.573  26.573  1.00  0.00     0.016 A 
ATOM     11  C   UNL A   1      42.480  24.619  27.261  1.00  0.00     0.016 A 
ATOM     12  C   UNL A   1      43.016  27.332  27.519  1.00  0.00     0.010 A 
ATOM     13  C   UNL A   1      41.766  25.385  28.191  1.00  0.00     0.010 A 
ATOM     14  C   UNL A   1      42.070  26.740  28.347  1.00  0.00    -0.014 A 
BRANCH  14  15
ATOM     15  C   UNL A   1      41.579  27.547  29.478  1.00  0.00     0.031 A 
ATOM     16  C   UNL A   1      42.371  27.512  30.751  1.00  0.00     0.074 A 
ATOM     17  C   UNL A   1      40.587  28.434  29.285  1.00  0.00     0.049 A 
ATOM     18  N   UNL A   1      42.156  28.132  31.879  1.00  0.00    -0.248 NA
ATOM     19  C   UNL A   1      43.587  26.680  30.744  1.00  0.00     0.031 C 
ATOM     20  C   UNL A   1      39.872  28.639  28.023  1.00  0.00     0.029 A 
ATOM     21  N   UNL A   1      40.043  29.363  30.131  1.00  0.00    -0.354 N 
ATOM     22  C   UNL A   1      43.196  27.750  32.716  1.00  0.00     0.074 A 
ATOM     23  C   UNL A   1      44.034  26.835  31.979  1.00  0.00     0.031 C 
ATOM     24  C   UNL A   1      38.997  29.647  28.173  1.00  0.00     0.029 A 
ATOM     25  C   UNL A   1      39.042  30.107  29.556  1.00  0.00     0.049 A 
ATOM     26  H   UNL A   1      40.339  29.484  31.062  1.00  0.00     0.167 HD
ATOM     27  C   UNL A   1      43.426  28.138  33.991  1.00  0.00     0.037 A 
ATOM     28  C   UNL A   1      38.232  31.030  30.108  1.00  0.00     0.037 A 
ATOM     29  C   UNL A   1      42.568  29.048  34.698  1.00  0.00     0.049 A 
ATOM     30  C   UNL A   1      38.434  31.352  31.565  1.00  0.00     0.074 A 
ATOM     31  C   UNL A   1      42.615  29.439  36.022  1.00  0.00     0.029 A 
ATOM     32  N   UNL A   1      41.500  29.718  34.115  1.00  0.00    -0.354 N 
ATOM     33  N   UNL A   1      39.355  30.908  32.390  1.00  0.00    -0.248 NA
ATOM     34  C   UNL A   1      37.482  32.288  32.174  1.00  0.00     0.031 C 
ATOM     35  C   UNL A   1      41.552  30.320  36.248  1.00  0.00     0.029 A 
ATOM     36  C   UNL A   1      40.874  30.516  35.053  1.00  0.00     0.049 A 
ATOM     37  H   UNL A   1      41.229  29.638  33.172  1.00  0.00     0.167 HD
ATOM     38  C   UNL A   1      39.100  31.517  33.610  1.00  0.00     0.074 A 
ATOM     39  C   UNL A   1      37.956  32.385  33.406  1.00  0.00     0.031 C 
ATOM     40  C   UNL A   1      39.741  31.371  34.797  1.00  0.00     0.037 A 
BRANCH  27  41
ATOM     41  C   UNL A   1      44.599  27.519  34.689  1.00  0.00     0.057 A 
ATOM     42  C   UNL A   1      45.863  28.123  34.699  1.00  0.00     0.134 A 
ATOM     43  C   UNL A   1      44.476  26.271  35.312  1.00  0.00     0.134 A 
ATOM     44  F   UNL A   1      46.059  29.302  34.089  1.00  0.00    -0.206 F 
ATOM     45  C   UNL A   1      46.968  27.496  35.282  1.00  0.00     0.040 A 
ATOM     46  C   UNL A   1      45.566  25.644  35.916  1.00  0.00     0.040 A 
ATOM     47  F   UNL A   1      43.297  25.631  35.326  1.00  0.00    -0.206 F 
ATOM     48  C   UNL A   1      46.820  26.254  35.895  1.00  0.00     0.006 A 
ENDBRANCH  27  41
BRANCH  28  49
ATOM     49  C   UNL A   1      37.131  31.645  29.321  1.00  0.00     0.057 A 
ATOM     50  C   UNL A   1      37.226  32.941  28.802  1.00  0.00     0.134 A 
ATOM     51  C   UNL A   1      35.929  30.956  29.098  1.00  0.00     0.134 A 
ATOM     52  F   UNL A   1      38.337  33.666  28.994  1.00  0.00    -0.206 F 
ATOM     53  C   UNL A   1      36.164  33.537  28.116  1.00  0.00     0.040 A 
ATOM     54  C   UNL A   1      34.872  31.526  28.387  1.00  0.00     0.040 A 
ATOM     55  F   UNL A   1      35.766  29.710  29.567  1.00  0.00    -0.206 F 
ATOM     56  C   UNL A   1      34.983  32.827  27.904  1.00  0.00     0.006 A 
ENDBRANCH  28  49
BRANCH  40  57
ATOM     57  C   UNL A   1      39.230  32.192  35.939  1.00  0.00     0.057 A 
ATOM     58  C   UNL A   1      39.674  33.501  36.163  1.00  0.00     0.134 A 
ATOM     59  C   UNL A   1      38.254  31.677  36.800  1.00  0.00     0.134 A 
ATOM     60  F   UNL A   1      40.618  34.042  35.379  1.00  0.00    -0.206 F 
ATOM     61  C   UNL A   1      39.183  34.261  37.224  1.00  0.00     0.040 A 
ATOM     62  C   UNL A   1      37.735  32.438  37.846  1.00  0.00     0.040 A 
ATOM     63  F   UNL A   1      37.782  30.433  36.630  1.00  0.00    -0.206 F 
ATOM     64  C   UNL A   1      38.205  33.731  38.064  1.00  0.00     0.006 A 
ENDBRANCH  40  57
ENDBRANCH  14  15
ENDBRANCH   7   9
ENDBRANCH   6   7
ENDBRANCH   5   6
ENDBRANCH   4   5
ENDBRANCH   3   4
ENDBRANCH   2   3
ENDBRANCH   1   2
BRANCH   1  65
ATOM     65  O   UNL A   1      41.590  19.780  25.387  1.00  0.00    -0.377 OA
BRANCH  65  66
ATOM     66  C   UNL A   1      40.373  19.875  26.123  1.00  0.00     0.188 C 
BRANCH  66  67
ATOM     67  C   UNL A   1      39.053  19.543  25.394  1.00  0.00     0.188 C 
BRANCH  67  68
ATOM     68  O   UNL A   1      38.224  20.669  25.159  1.00  0.00    -0.376 OA
BRANCH  68  69
ATOM     69  C   UNL A   1      38.629  21.883  25.777  1.00  0.00     0.202 C 
BRANCH  69  70
ATOM     70  C   UNL A   1      37.579  22.999  25.910  1.00  0.00     0.261 C 
BRANCH  70  71
ATOM     71  O   UNL A   1      36.765  23.267  24.750  1.00  0.00    -0.460 OA
BRANCH  71  72
ATOM     72  C   UNL A   1      35.488  22.819  24.705  1.00  0.00     0.338 C 
ATOM     73  O   UNL A   1      35.090  21.715  25.036  1.00  0.00    -0.246 OA
BRANCH  72  74
ATOM     74  C   UNL A   1      34.625  23.993  24.391  1.00  0.00     0.060 A 
ATOM     75  C   UNL A   1      34.302  24.903  25.406  1.00  0.00     0.016 A 
ATOM     76  C   UNL A   1      34.283  24.290  23.071  1.00  0.00     0.016 A 
ATOM     77  C   UNL A   1      33.753  26.158  25.085  1.00  0.00     0.007 A 
ATOM     78  C   UNL A   1      33.687  25.520  22.765  1.00  0.00     0.007 A 
ATOM     79  C   UNL A   1      33.494  26.511  23.751  1.00  0.00    -0.025 A 
BRANCH  79  80
ATOM     80  C   UNL A   1      33.188  27.942  23.293  1.00  0.00     0.114 C 
ATOM     81  N   UNL A   1      32.024  28.036  22.376  1.00  0.00    -0.378 N 
ATOM     82  C   UNL A   1      32.963  28.912  24.471  1.00  0.00     0.031 C 
ATOM     83  C   UNL A   1      30.952  28.896  22.648  1.00  0.00     0.038 A 
ATOM     84  H   UNL A   1      32.005  27.483  21.562  1.00  0.00     0.161 HD
ATOM     85  C   UNL A   1      31.552  28.659  25.026  1.00  0.00     0.049 C 
ATOM     86  C   UNL A   1      33.890  29.011  25.680  1.00  0.00     0.034 C 
ATOM     87  C   UNL A   1      30.227  29.499  21.617  1.00  0.00     0.027 A 
ATOM     88  C   UNL A   1      30.657  29.269  23.986  1.00  0.00    -0.016 A 
ATOM     89  C   UNL A   1      31.651  29.208  26.408  1.00  0.00    -0.023 C 
ATOM     90  C   UNL A   1      32.929  29.355  26.780  1.00  0.00    -0.030 C 
ATOM     91  C   UNL A   1      29.248  30.461  21.903  1.00  0.00     0.022 A 
ATOM     92  C   UNL A   1      29.654  30.202  24.273  1.00  0.00     0.027 A 
ATOM     93  C   UNL A   1      28.965  30.804  23.225  1.00  0.00     0.041 A 
ATOM     94  Cl  UNL A   1      27.787  32.012  23.568  1.00  0.00    -0.084 Cl
ENDBRANCH  79  80
ENDBRANCH  72  74
ENDBRANCH  71  72
ENDBRANCH  70  71
ENDBRANCH  69  70
ENDBRANCH  68  69
ENDBRANCH  67  68
ENDBRANCH  66  67
ENDBRANCH  65  66
ENDBRANCH   1  65
TORSDOF 21
ENDMDL
MODEL 2
REMARK VINA RESULT:     -11.3      4.411      6.944
REMARK SMILES O=C(OCCOCCOCCOCCOC(=O)c1ccc([C@H]2Nc3ccc(Cl)cc3[C@@H]3C=CC[C@@H]23)cc1)c1ccc(-c2c3nc(c(-c4c(F)cccc4F)c4ccc([nH]4)c(-c4c(F)cccc4F)c4nc(c(-c5c(F)cccc5F)c5ccc2[nH]5)C=C4)C=C3)cc1
REMARK SMILES IDX 8 1 7 2 6 3 5 4 4 5 3 6 2 7 1 8 38 9 39 10 91 11 40 12 90 13
REMARK SMILES IDX 41 14 42 15 43 16 84 17 44 18 89 19 83 20 85 21 45 22 88 23
REMARK SMILES IDX 82 24 81 25 46 27 72 28 55 29 71 30 56 31 59 32 70 33 86 34
REMARK SMILES IDX 57 35 58 36 69 38 87 39 60 40 47 41 48 42 53 43 49 44 50 45
REMARK SMILES IDX 52 46 54 47 51 48 73 49 74 50 79 51 75 52 76 53 78 54 80 55
REMARK SMILES IDX 77 56 61 57 62 58 67 59 63 60 64 61 66 62 68 63 65 64 9 65
REMARK SMILES IDX 10 66 11 67 12 68 13 69 14 70 15 71 16 72 17 73 18 74 19 75
REMARK SMILES IDX 37 76 20 77 36 78 21 79 22 80 23 81 35 82 24 83 31 85 34 86
REMARK SMILES IDX 25 87 30 88 32 89 33 90 26 91 29 92 27 93 28 94
REMARK H PARENT 85 26 59 37 23 84
REMARK Flexibility Score: inf
ROOT
ATOM      1  C   UNL A   1      41.374  21.656  26.747  1.00  0.00     0.188 C 
ENDROOT
BRANCH   1   2
ATOM      2  C   UNL A   1      41.070  20.182  26.489  1.00  0.00     0.188 C 
BRANCH   2   3
ATOM      3  O   UNL A   1      42.151  19.353  26.926  1.00  0.00    -0.376 OA
BRANCH   3   4
ATOM      4  C   UNL A   1      42.604  18.394  25.972  1.00  0.00     0.202 C 
BRANCH   4   5
ATOM      5  C   UNL A   1      44.115  18.131  25.994  1.00  0.00     0.261 C 
BRANCH   5   6
ATOM      6  O   UNL A   1      44.754  18.458  24.750  1.00  0.00    -0.460 OA
BRANCH   6   7
ATOM      7  C   UNL A   1      44.632  19.598  24.025  1.00  0.00     0.338 C 
ATOM      8  O   UNL A   1      44.532  19.508  22.802  1.00  0.00    -0.246 OA
BRANCH   7   9
ATOM      9  C   UNL A   1      44.590  20.968  24.625  1.00  0.00     0.060 A 
ATOM     10  C   UNL A   1      43.978  22.079  24.047  1.00  0.00     0.016 A 
ATOM     11  C   UNL A   1      45.168  21.132  25.898  1.00  0.00     0.016 A 
ATOM     12  C   UNL A   1      44.024  23.329  24.640  1.00  0.00     0.010 A 
ATOM     13  C   UNL A   1      45.183  22.382  26.529  1.00  0.00     0.010 A 
ATOM     14  C   UNL A   1      44.644  23.493  25.873  1.00  0.00    -0.014 A 
BRANCH  14  15
ATOM     15  C   UNL A   1      44.865  24.877  26.327  1.00  0.00     0.031 A 
ATOM     16  C   UNL A   1      46.204  25.493  26.054  1.00  0.00     0.074 A 
ATOM     17  C   UNL A   1      43.826  25.609  26.770  1.00  0.00     0.049 A 
ATOM     18  N   UNL A   1      46.642  26.687  26.343  1.00  0.00    -0.248 NA
ATOM     19  C   UNL A   1      47.177  24.652  25.333  1.00  0.00     0.031 C 
ATOM     20  C   UNL A   1      42.451  25.122  26.913  1.00  0.00     0.029 A 
ATOM     21  N   UNL A   1      43.752  26.926  27.133  1.00  0.00    -0.354 N 
ATOM     22  C   UNL A   1      47.943  26.732  25.857  1.00  0.00     0.074 A 
ATOM     23  C   UNL A   1      48.232  25.446  25.269  1.00  0.00     0.031 C 
ATOM     24  C   UNL A   1      41.667  26.135  27.313  1.00  0.00     0.029 A 
ATOM     25  C   UNL A   1      42.494  27.317  27.522  1.00  0.00     0.049 A 
ATOM     26  H   UNL A   1      44.527  27.534  27.118  1.00  0.00     0.167 HD
ATOM     27  C   UNL A   1      48.815  27.766  25.901  1.00  0.00     0.037 A 
ATOM     28  C   UNL A   1      42.079  28.494  28.024  1.00  0.00     0.037 A 
ATOM     29  C   UNL A   1      48.495  29.032  26.499  1.00  0.00     0.049 A 
ATOM     30  C   UNL A   1      43.101  29.589  28.175  1.00  0.00     0.074 A 
ATOM     31  C   UNL A   1      49.313  30.124  26.714  1.00  0.00     0.029 A 
ATOM     32  N   UNL A   1      47.234  29.370  26.973  1.00  0.00    -0.354 N 
ATOM     33  N   UNL A   1      44.364  29.595  27.814  1.00  0.00    -0.248 NA
ATOM     34  C   UNL A   1      42.652  30.831  28.814  1.00  0.00     0.031 C 
ATOM     35  C   UNL A   1      48.553  31.112  27.351  1.00  0.00     0.029 A 
ATOM     36  C   UNL A   1      47.251  30.653  27.487  1.00  0.00     0.049 A 
ATOM     37  H   UNL A   1      46.444  28.784  26.945  1.00  0.00     0.167 HD
ATOM     38  C   UNL A   1      44.857  30.842  28.170  1.00  0.00     0.074 A 
ATOM     39  C   UNL A   1      43.747  31.574  28.748  1.00  0.00     0.031 C 
ATOM     40  C   UNL A   1      46.112  31.341  28.044  1.00  0.00     0.037 A 
BRANCH  27  41
ATOM     41  C   UNL A   1      50.187  27.521  25.352  1.00  0.00     0.057 A 
ATOM     42  C   UNL A   1      51.290  27.276  26.181  1.00  0.00     0.134 A 
ATOM     43  C   UNL A   1      50.420  27.586  23.972  1.00  0.00     0.134 A 
ATOM     44  F   UNL A   1      51.142  27.237  27.514  1.00  0.00    -0.206 F 
ATOM     45  C   UNL A   1      52.578  27.131  25.660  1.00  0.00     0.040 A 
ATOM     46  C   UNL A   1      51.699  27.422  23.438  1.00  0.00     0.040 A 
ATOM     47  F   UNL A   1      49.411  27.830  23.122  1.00  0.00    -0.206 F 
ATOM     48  C   UNL A   1      52.784  27.202  24.284  1.00  0.00     0.006 A 
ENDBRANCH  27  41
BRANCH  28  49
ATOM     49  C   UNL A   1      40.676  28.672  28.485  1.00  0.00     0.057 A 
ATOM     50  C   UNL A   1      40.293  28.417  29.807  1.00  0.00     0.134 A 
ATOM     51  C   UNL A   1      39.667  29.069  27.595  1.00  0.00     0.134 A 
ATOM     52  F   UNL A   1      41.201  28.014  30.707  1.00  0.00    -0.206 F 
ATOM     53  C   UNL A   1      38.962  28.525  30.220  1.00  0.00     0.040 A 
ATOM     54  C   UNL A   1      38.340  29.213  28.000  1.00  0.00     0.040 A 
ATOM     55  F   UNL A   1      39.959  29.329  26.312  1.00  0.00    -0.206 F 
ATOM     56  C   UNL A   1      37.981  28.929  29.315  1.00  0.00     0.006 A 
ENDBRANCH  28  49
BRANCH  40  57
ATOM     57  C   UNL A   1      46.325  32.747  28.514  1.00  0.00     0.057 A 
ATOM     58  C   UNL A   1      46.711  33.034  29.828  1.00  0.00     0.134 A 
ATOM     59  C   UNL A   1      46.176  33.819  27.627  1.00  0.00     0.134 A 
ATOM     60  F   UNL A   1      46.856  32.049  30.726  1.00  0.00    -0.206 F 
ATOM     61  C   UNL A   1      46.918  34.347  30.252  1.00  0.00     0.040 A 
ATOM     62  C   UNL A   1      46.407  35.133  28.031  1.00  0.00     0.040 A 
ATOM     63  F   UNL A   1      45.817  33.605  26.352  1.00  0.00    -0.206 F 
ATOM     64  C   UNL A   1      46.773  35.399  29.349  1.00  0.00     0.006 A 
ENDBRANCH  40  57
ENDBRANCH  14  15
ENDBRANCH   7   9
ENDBRANCH   6   7
ENDBRANCH   5   6
ENDBRANCH   4   5
ENDBRANCH   3   4
ENDBRANCH   2   3
ENDBRANCH   1   2
BRANCH   1  65
ATOM     65  O   UNL A   1      40.290  22.415  27.282  1.00  0.00    -0.377 OA
BRANCH  65  66
ATOM     66  C   UNL A   1      39.118  22.521  26.477  1.00  0.00     0.188 C 
BRANCH  66  67
ATOM     67  C   UNL A   1      38.336  23.852  26.500  1.00  0.00     0.188 C 
BRANCH  67  68
ATOM     68  O   UNL A   1      37.157  23.843  25.713  1.00  0.00    -0.376 OA
BRANCH  68  69
ATOM     69  C   UNL A   1      36.635  22.562  25.384  1.00  0.00     0.202 C 
BRANCH  69  70
ATOM     70  C   UNL A   1      35.367  22.100  26.122  1.00  0.00     0.261 C 
BRANCH  70  71
ATOM     71  O   UNL A   1      34.522  23.131  26.671  1.00  0.00    -0.460 OA
BRANCH  71  72
ATOM     72  C   UNL A   1      33.345  22.800  27.252  1.00  0.00     0.338 C 
ATOM     73  O   UNL A   1      33.190  22.282  28.344  1.00  0.00    -0.246 OA
BRANCH  72  74
ATOM     74  C   UNL A   1      32.264  23.391  26.412  1.00  0.00     0.060 A 
ATOM     75  C   UNL A   1      31.777  24.670  26.712  1.00  0.00     0.016 A 
ATOM     76  C   UNL A   1      31.857  22.762  25.234  1.00  0.00     0.016 A 
ATOM     77  C   UNL A   1      30.989  25.366  25.777  1.00  0.00     0.007 A 
ATOM     78  C   UNL A   1      31.027  23.441  24.333  1.00  0.00     0.007 A 
ATOM     79  C   UNL A   1      30.652  24.784  24.545  1.00  0.00    -0.025 A 
BRANCH  79  80
ATOM     80  C   UNL A   1      30.064  25.570  23.366  1.00  0.00     0.114 C 
ATOM     81  N   UNL A   1      28.881  26.390  23.730  1.00  0.00    -0.378 N 
ATOM     82  C   UNL A   1      31.101  26.483  22.678  1.00  0.00     0.031 C 
ATOM     83  C   UNL A   1      28.835  27.763  23.450  1.00  0.00     0.038 A 
ATOM     84  H   UNL A   1      28.116  25.962  24.176  1.00  0.00     0.161 HD
ATOM     85  C   UNL A   1      31.296  27.724  23.564  1.00  0.00     0.049 C 
ATOM     86  C   UNL A   1      32.496  26.024  22.266  1.00  0.00     0.034 C 
ATOM     87  C   UNL A   1      27.627  28.401  23.158  1.00  0.00     0.027 A 
ATOM     88  C   UNL A   1      30.036  28.510  23.340  1.00  0.00    -0.016 A 
ATOM     89  C   UNL A   1      32.630  28.221  23.125  1.00  0.00    -0.023 C 
ATOM     90  C   UNL A   1      33.303  27.275  22.457  1.00  0.00    -0.030 C 
ATOM     91  C   UNL A   1      27.612  29.742  22.747  1.00  0.00     0.022 A 
ATOM     92  C   UNL A   1      30.017  29.859  22.966  1.00  0.00     0.027 A 
ATOM     93  C   UNL A   1      28.803  30.463  22.656  1.00  0.00     0.041 A 
ATOM     94  Cl  UNL A   1      28.781  32.097  22.117  1.00  0.00    -0.084 Cl
ENDBRANCH  79  80
ENDBRANCH  72  74
ENDBRANCH  71  72
ENDBRANCH  70  71
ENDBRANCH  69  70
ENDBRANCH  68  69
ENDBRANCH  67  68
ENDBRANCH  66  67
ENDBRANCH  65  66
ENDBRANCH   1  65
TORSDOF 21
ENDMDL
MODEL 3
REMARK VINA RESULT:     -10.9      4.705      8.499
REMARK SMILES O=C(OCCOCCOCCOCCOC(=O)c1ccc([C@H]2Nc3ccc(Cl)cc3[C@@H]3C=CC[C@@H]23)cc1)c1ccc(-c2c3nc(c(-c4c(F)cccc4F)c4ccc([nH]4)c(-c4c(F)cccc4F)c4nc(c(-c5c(F)cccc5F)c5ccc2[nH]5)C=C4)C=C3)cc1
REMARK SMILES IDX 8 1 7 2 6 3 5 4 4 5 3 6 2 7 1 8 38 9 39 10 91 11 40 12 90 13
REMARK SMILES IDX 41 14 42 15 43 16 84 17 44 18 89 19 83 20 85 21 45 22 88 23
REMARK SMILES IDX 82 24 81 25 46 27 72 28 55 29 71 30 56 31 59 32 70 33 86 34
REMARK SMILES IDX 57 35 58 36 69 38 87 39 60 40 47 41 48 42 53 43 49 44 50 45
REMARK SMILES IDX 52 46 54 47 51 48 73 49 74 50 79 51 75 52 76 53 78 54 80 55
REMARK SMILES IDX 77 56 61 57 62 58 67 59 63 60 64 61 66 62 68 63 65 64 9 65
REMARK SMILES IDX 10 66 11 67 12 68 13 69 14 70 15 71 16 72 17 73 18 74 19 75
REMARK SMILES IDX 37 76 20 77 36 78 21 79 22 80 23 81 35 82 24 83 31 85 34 86
REMARK SMILES IDX 25 87 30 88 32 89 33 90 26 91 29 92 27 93 28 94
REMARK H PARENT 85 26 59 37 23 84
REMARK Flexibility Score: inf
ROOT
ATOM      1  C   UNL A   1      40.592  22.437  26.720  1.00  0.00     0.188 C 
ENDROOT
BRANCH   1   2
ATOM      2  C   UNL A   1      40.559  21.025  26.138  1.00  0.00     0.188 C 
BRANCH   2   3
ATOM      3  O   UNL A   1      41.881  20.493  26.010  1.00  0.00    -0.376 OA
BRANCH   3   4
ATOM      4  C   UNL A   1      41.959  19.070  25.950  1.00  0.00     0.202 C 
BRANCH   4   5
ATOM      5  C   UNL A   1      43.366  18.514  25.703  1.00  0.00     0.261 C 
BRANCH   5   6
ATOM      6  O   UNL A   1      43.948  18.994  24.482  1.00  0.00    -0.460 OA
BRANCH   6   7
ATOM      7  C   UNL A   1      45.008  19.829  24.335  1.00  0.00     0.338 C 
ATOM      8  O   UNL A   1      46.025  19.398  23.794  1.00  0.00    -0.246 OA
BRANCH   7   9
ATOM      9  C   UNL A   1      45.010  21.259  24.777  1.00  0.00     0.060 A 
ATOM     10  C   UNL A   1      44.689  22.348  23.969  1.00  0.00     0.016 A 
ATOM     11  C   UNL A   1      45.307  21.516  26.129  1.00  0.00     0.016 A 
ATOM     12  C   UNL A   1      44.763  23.650  24.435  1.00  0.00     0.010 A 
ATOM     13  C   UNL A   1      45.341  22.825  26.624  1.00  0.00     0.010 A 
ATOM     14  C   UNL A   1      45.109  23.898  25.758  1.00  0.00    -0.014 A 
BRANCH  14  15
ATOM     15  C   UNL A   1      45.399  25.296  26.118  1.00  0.00     0.031 A 
ATOM     16  C   UNL A   1      44.292  26.099  26.733  1.00  0.00     0.074 A 
ATOM     17  C   UNL A   1      46.666  25.745  26.087  1.00  0.00     0.049 A 
ATOM     18  N   UNL A   1      44.295  27.339  27.142  1.00  0.00    -0.248 NA
ATOM     19  C   UNL A   1      43.011  25.400  26.939  1.00  0.00     0.031 C 
ATOM     20  C   UNL A   1      47.827  24.965  25.648  1.00  0.00     0.029 A 
ATOM     21  N   UNL A   1      47.199  26.944  26.475  1.00  0.00    -0.354 N 
ATOM     22  C   UNL A   1      43.016  27.570  27.632  1.00  0.00     0.074 A 
ATOM     23  C   UNL A   1      42.258  26.354  27.460  1.00  0.00     0.031 C 
ATOM     24  C   UNL A   1      48.937  25.701  25.813  1.00  0.00     0.029 A 
ATOM     25  C   UNL A   1      48.559  27.022  26.300  1.00  0.00     0.049 A 
ATOM     26  H   UNL A   1      46.659  27.680  26.844  1.00  0.00     0.167 HD
ATOM     27  C   UNL A   1      42.526  28.705  28.181  1.00  0.00     0.037 A 
ATOM     28  C   UNL A   1      49.390  28.065  26.481  1.00  0.00     0.037 A 
ATOM     29  C   UNL A   1      43.308  29.900  28.334  1.00  0.00     0.049 A 
ATOM     30  C   UNL A   1      48.793  29.355  26.978  1.00  0.00     0.074 A 
ATOM     31  C   UNL A   1      42.911  31.150  28.766  1.00  0.00     0.029 A 
ATOM     32  N   UNL A   1      44.667  29.978  28.058  1.00  0.00    -0.354 N 
ATOM     33  N   UNL A   1      47.555  29.606  27.342  1.00  0.00    -0.248 NA
ATOM     34  C   UNL A   1      49.695  30.507  27.078  1.00  0.00     0.031 C 
ATOM     35  C   UNL A   1      44.026  31.995  28.718  1.00  0.00     0.029 A 
ATOM     36  C   UNL A   1      45.126  31.258  28.303  1.00  0.00     0.049 A 
ATOM     37  H   UNL A   1      45.222  29.232  27.736  1.00  0.00     0.167 HD
ATOM     38  C   UNL A   1      47.533  30.940  27.723  1.00  0.00     0.074 A 
ATOM     39  C   UNL A   1      48.888  31.434  27.574  1.00  0.00     0.031 C 
ATOM     40  C   UNL A   1      46.491  31.697  28.148  1.00  0.00     0.037 A 
BRANCH  27  41
ATOM     41  C   UNL A   1      41.080  28.699  28.575  1.00  0.00     0.057 A 
ATOM     42  C   UNL A   1      40.059  29.017  27.670  1.00  0.00     0.134 A 
ATOM     43  C   UNL A   1      40.707  28.426  29.898  1.00  0.00     0.134 A 
ATOM     44  F   UNL A   1      40.351  29.324  26.396  1.00  0.00    -0.206 F 
ATOM     45  C   UNL A   1      38.723  29.088  28.071  1.00  0.00     0.040 A 
ATOM     46  C   UNL A   1      39.374  28.473  30.305  1.00  0.00     0.040 A 
ATOM     47  F   UNL A   1      41.636  28.128  30.819  1.00  0.00    -0.206 F 
ATOM     48  C   UNL A   1      38.377  28.813  29.392  1.00  0.00     0.006 A 
ENDBRANCH  27  41
BRANCH  28  49
ATOM     49  C   UNL A   1      50.830  27.962  26.125  1.00  0.00     0.057 A 
ATOM     50  C   UNL A   1      51.279  28.109  24.808  1.00  0.00     0.134 A 
ATOM     51  C   UNL A   1      51.797  27.673  27.099  1.00  0.00     0.134 A 
ATOM     52  F   UNL A   1      50.408  28.366  23.822  1.00  0.00    -0.206 F 
ATOM     53  C   UNL A   1      52.626  27.949  24.469  1.00  0.00     0.040 A 
ATOM     54  C   UNL A   1      53.149  27.543  26.781  1.00  0.00     0.040 A 
ATOM     55  F   UNL A   1      51.440  27.517  28.383  1.00  0.00    -0.206 F 
ATOM     56  C   UNL A   1      53.567  27.669  25.459  1.00  0.00     0.006 A 
ENDBRANCH  28  49
BRANCH  40  57
ATOM     57  C   UNL A   1      46.798  33.118  28.506  1.00  0.00     0.057 A 
ATOM     58  C   UNL A   1      46.652  34.159  27.582  1.00  0.00     0.134 A 
ATOM     59  C   UNL A   1      47.208  33.449  29.803  1.00  0.00     0.134 A 
ATOM     60  F   UNL A   1      46.274  33.902  26.320  1.00  0.00    -0.206 F 
ATOM     61  C   UNL A   1      46.929  35.481  27.929  1.00  0.00     0.040 A 
ATOM     62  C   UNL A   1      47.461  34.769  30.169  1.00  0.00     0.040 A 
ATOM     63  F   UNL A   1      47.357  32.495  30.735  1.00  0.00    -0.206 F 
ATOM     64  C   UNL A   1      47.329  35.788  29.229  1.00  0.00     0.006 A 
ENDBRANCH  40  57
ENDBRANCH  14  15
ENDBRANCH   7   9
ENDBRANCH   6   7
ENDBRANCH   5   6
ENDBRANCH   4   5
ENDBRANCH   3   4
ENDBRANCH   2   3
ENDBRANCH   1   2
BRANCH   1  65
ATOM     65  O   UNL A   1      39.325  22.960  27.118  1.00  0.00    -0.377 OA
BRANCH  65  66
ATOM     66  C   UNL A   1      38.641  23.779  26.173  1.00  0.00     0.188 C 
BRANCH  66  67
ATOM     67  C   UNL A   1      37.106  23.647  26.072  1.00  0.00     0.188 C 
BRANCH  67  68
ATOM     68  O   UNL A   1      36.671  22.566  25.265  1.00  0.00    -0.376 OA
BRANCH  68  69
ATOM     69  C   UNL A   1      35.636  21.757  25.808  1.00  0.00     0.202 C 
BRANCH  69  70
ATOM     70  C   UNL A   1      35.213  20.512  25.010  1.00  0.00     0.261 C 
BRANCH  70  71
ATOM     71  O   UNL A   1      33.891  19.995  25.264  1.00  0.00    -0.460 OA
BRANCH  71  72
ATOM     72  C   UNL A   1      32.990  19.925  24.256  1.00  0.00     0.338 C 
ATOM     73  O   UNL A   1      32.782  18.969  23.528  1.00  0.00    -0.246 OA
BRANCH  72  74
ATOM     74  C   UNL A   1      32.140  21.147  24.346  1.00  0.00     0.060 A 
ATOM     75  C   UNL A   1      31.721  21.606  25.601  1.00  0.00     0.016 A 
ATOM     76  C   UNL A   1      31.907  21.932  23.216  1.00  0.00     0.016 A 
ATOM     77  C   UNL A   1      31.184  22.899  25.740  1.00  0.00     0.007 A 
ATOM     78  C   UNL A   1      31.322  23.198  23.355  1.00  0.00     0.007 A 
ATOM     79  C   UNL A   1      31.034  23.740  24.625  1.00  0.00    -0.025 A 
BRANCH  79  80
ATOM     80  C   UNL A   1      30.748  25.243  24.727  1.00  0.00     0.114 C 
ATOM     81  N   UNL A   1      30.852  25.775  26.109  1.00  0.00    -0.378 N 
ATOM     82  C   UNL A   1      31.652  26.089  23.806  1.00  0.00     0.031 C 
ATOM     83  C   UNL A   1      31.679  26.868  26.406  1.00  0.00     0.038 A 
ATOM     84  H   UNL A   1      30.332  25.353  26.830  1.00  0.00     0.161 HD
ATOM     85  C   UNL A   1      33.037  26.185  24.467  1.00  0.00     0.049 C 
ATOM     86  C   UNL A   1      31.899  25.772  22.334  1.00  0.00     0.034 C 
ATOM     87  C   UNL A   1      31.348  27.771  27.419  1.00  0.00     0.027 A 
ATOM     88  C   UNL A   1      32.813  27.146  25.599  1.00  0.00    -0.016 A 
ATOM     89  C   UNL A   1      33.918  26.513  23.311  1.00  0.00    -0.023 C 
ATOM     90  C   UNL A   1      33.311  26.242  22.148  1.00  0.00    -0.030 C 
ATOM     91  C   UNL A   1      32.110  28.932  27.614  1.00  0.00     0.022 A 
ATOM     92  C   UNL A   1      33.595  28.285  25.819  1.00  0.00     0.027 A 
ATOM     93  C   UNL A   1      33.228  29.181  26.818  1.00  0.00     0.041 A 
ATOM     94  Cl  UNL A   1      34.138  30.625  27.040  1.00  0.00    -0.084 Cl
ENDBRANCH  79  80
ENDBRANCH  72  74
ENDBRANCH  71  72
ENDBRANCH  70  71
ENDBRANCH  69  70
ENDBRANCH  68  69
ENDBRANCH  67  68
ENDBRANCH  66  67
ENDBRANCH  65  66
ENDBRANCH   1  65
TORSDOF 21
ENDMDL
