MODEL 1
REMARK VINA RESULT:      -9.8      0.000      0.000
REMARK SMILES Cc1nc(CC(=O)N2[C@@H](C(=O)OCCOCCOCCOCCOC(=O)c3ccc(-c4c5nc(c(-c6c(F)cccc6F)c6ccc([nH]6)c(-c6c(F)cccc6F)c6nc(c(-c7c(F)cccc7F)c7ccc4[nH]7)C=C6)C=C5)cc3)C[C@@H]3CCCC[C@H]32)cs1
REMARK SMILES IDX 17 1 16 2 15 3 14 4 13 5 12 6 10 7 11 8 9 9 8 10 87 11 81 12
REMARK SMILES IDX 82 13 86 14 83 15 85 16 84 17 6 18 7 19 5 20 4 21 1 22 2 23
REMARK SMILES IDX 3 24 89 25 88 26 18 27 19 28 20 29 21 30 22 31 23 32 24 33
REMARK SMILES IDX 25 34 26 35 27 36 28 37 80 38 29 39 79 40 30 41 31 42 32 43
REMARK SMILES IDX 73 44 33 45 78 46 72 47 74 48 34 49 77 50 71 51 70 52 35 54
REMARK SMILES IDX 61 55 44 56 60 57 45 58 48 59 59 60 75 61 46 62 47 63 58 65
REMARK SMILES IDX 76 66 49 67 36 68 37 69 42 70 38 71 39 72 41 73 43 74 40 75
REMARK SMILES IDX 62 76 63 77 68 78 64 79 65 80 67 81 69 82 66 83 50 84 51 85
REMARK SMILES IDX 56 86 52 87 53 88 55 89 57 90 54 91
REMARK H PARENT 74 53 48 64
REMARK Flexibility Score: inf
ROOT
ATOM      1  C   UNL A   1      38.683  21.834  25.769  1.00  0.00     0.188 C 
ENDROOT
BRANCH   1   2
ATOM      2  C   UNL A   1      37.458  21.334  24.979  1.00  0.00     0.188 C 
BRANCH   2   3
ATOM      3  O   UNL A   1      36.945  22.062  23.871  1.00  0.00    -0.376 OA
BRANCH   3   4
ATOM      4  C   UNL A   1      36.077  23.161  24.074  1.00  0.00     0.202 C 
BRANCH   4   5
ATOM      5  C   UNL A   1      36.150  23.954  25.390  1.00  0.00     0.261 C 
BRANCH   5   6
ATOM      6  O   UNL A   1      34.935  24.183  26.124  1.00  0.00    -0.462 OA
BRANCH   6   7
ATOM      7  C   UNL A   1      34.242  23.076  26.519  1.00  0.00     0.328 C 
ATOM      8  O   UNL A   1      34.753  22.093  27.047  1.00  0.00    -0.250 OA
BRANCH   7   9
ATOM      9  C   UNL A   1      32.715  23.215  26.325  1.00  0.00     0.195 C 
ATOM     10  N   UNL A   1      32.231  23.108  24.936  1.00  0.00    -0.325 N 
ATOM     11  C   UNL A   1      31.104  24.031  24.769  1.00  0.00     0.089 C 
ATOM     12  C   UNL A   1      32.150  24.573  26.824  1.00  0.00     0.043 C 
ATOM     13  C   UNL A   1      31.598  25.235  25.557  1.00  0.00     0.014 C 
ATOM     14  C   UNL A   1      30.610  24.468  23.406  1.00  0.00     0.025 C 
ATOM     15  C   UNL A   1      30.554  26.329  25.718  1.00  0.00     0.006 C 
ATOM     16  C   UNL A   1      29.582  25.602  23.500  1.00  0.00     0.002 C 
ATOM     17  C   UNL A   1      30.075  26.780  24.334  1.00  0.00     0.000 C 
BRANCH  10  18
ATOM     18  C   UNL A   1      32.422  21.890  24.302  1.00  0.00     0.229 C 
ATOM     19  O   UNL A   1      32.786  21.832  23.124  1.00  0.00    -0.274 OA
BRANCH  18  20
ATOM     20  C   UNL A   1      31.935  20.642  25.013  1.00  0.00     0.157 C 
BRANCH  20  21
ATOM     21  C   UNL A   1      32.792  19.454  24.780  1.00  0.00     0.061 A 
ATOM     22  C   UNL A   1      32.744  15.853  25.204  1.00  0.00     0.079 C 
ATOM     23  C   UNL A   1      33.068  17.258  24.843  1.00  0.00     0.090 A 
ATOM     24  N   UNL A   1      32.169  18.214  24.791  1.00  0.00    -0.246 NA
ATOM     25  S   UNL A   1      34.693  17.770  24.627  1.00  0.00    -0.127 S 
ATOM     26  C   UNL A   1      34.164  19.405  24.626  1.00  0.00     0.091 A 
ENDBRANCH  20  21
ENDBRANCH  18  20
ENDBRANCH  10  18
ENDBRANCH   7   9
ENDBRANCH   6   7
ENDBRANCH   5   6
ENDBRANCH   4   5
ENDBRANCH   3   4
ENDBRANCH   2   3
ENDBRANCH   1   2
BRANCH   1  27
ATOM     27  O   UNL A   1      39.683  20.875  26.054  1.00  0.00    -0.377 OA
BRANCH  27  28
ATOM     28  C   UNL A   1      41.001  21.376  26.201  1.00  0.00     0.188 C 
BRANCH  28  29
ATOM     29  C   UNL A   1      41.643  21.159  27.578  1.00  0.00     0.188 C 
BRANCH  29  30
ATOM     30  O   UNL A   1      42.610  20.115  27.566  1.00  0.00    -0.376 OA
BRANCH  30  31
ATOM     31  C   UNL A   1      42.268  18.872  26.974  1.00  0.00     0.202 C 
BRANCH  31  32
ATOM     32  C   UNL A   1      43.161  18.390  25.821  1.00  0.00     0.261 C 
BRANCH  32  33
ATOM     33  O   UNL A   1      43.425  19.342  24.779  1.00  0.00    -0.460 OA
BRANCH  33  34
ATOM     34  C   UNL A   1      44.712  19.600  24.467  1.00  0.00     0.338 C 
ATOM     35  O   UNL A   1      45.479  18.879  23.854  1.00  0.00    -0.246 OA
BRANCH  34  36
ATOM     36  C   UNL A   1      44.974  21.014  24.811  1.00  0.00     0.060 A 
ATOM     37  C   UNL A   1      45.343  21.331  26.126  1.00  0.00     0.016 A 
ATOM     38  C   UNL A   1      44.901  22.012  23.836  1.00  0.00     0.016 A 
ATOM     39  C   UNL A   1      45.630  22.651  26.472  1.00  0.00     0.010 A 
ATOM     40  C   UNL A   1      45.157  23.339  24.193  1.00  0.00     0.010 A 
ATOM     41  C   UNL A   1      45.501  23.666  25.516  1.00  0.00    -0.014 A 
BRANCH  41  42
ATOM     42  C   UNL A   1      45.547  25.085  25.937  1.00  0.00     0.031 A 
ATOM     43  C   UNL A   1      46.871  25.792  25.920  1.00  0.00     0.074 A 
ATOM     44  C   UNL A   1      44.438  25.733  26.330  1.00  0.00     0.049 A 
ATOM     45  N   UNL A   1      47.176  26.999  26.316  1.00  0.00    -0.248 NA
ATOM     46  C   UNL A   1      48.008  25.024  25.386  1.00  0.00     0.031 C 
ATOM     47  C   UNL A   1      43.092  25.169  26.351  1.00  0.00     0.029 A 
ATOM     48  N   UNL A   1      44.280  27.010  26.809  1.00  0.00    -0.354 N 
ATOM     49  C   UNL A   1      48.540  27.134  26.092  1.00  0.00     0.074 A 
ATOM     50  C   UNL A   1      49.007  25.877  25.547  1.00  0.00     0.031 C 
ATOM     51  C   UNL A   1      42.245  26.088  26.846  1.00  0.00     0.029 A 
ATOM     52  C   UNL A   1      42.998  27.289  27.209  1.00  0.00     0.049 A 
ATOM     53  H   UNL A   1      45.016  27.663  26.860  1.00  0.00     0.167 HD
ATOM     54  C   UNL A   1      49.332  28.208  26.320  1.00  0.00     0.037 A 
ATOM     55  C   UNL A   1      42.498  28.374  27.832  1.00  0.00     0.037 A 
ATOM     56  C   UNL A   1      48.863  29.450  26.875  1.00  0.00     0.049 A 
ATOM     57  C   UNL A   1      43.411  29.528  28.155  1.00  0.00     0.074 A 
ATOM     58  C   UNL A   1      49.575  30.613  27.109  1.00  0.00     0.029 A 
ATOM     59  N   UNL A   1      47.563  29.683  27.301  1.00  0.00    -0.354 N 
ATOM     60  N   UNL A   1      44.691  29.667  27.905  1.00  0.00    -0.248 NA
ATOM     61  C   UNL A   1      42.811  30.675  28.852  1.00  0.00     0.031 C 
ATOM     62  C   UNL A   1      48.723  31.525  27.742  1.00  0.00     0.029 A 
ATOM     63  C   UNL A   1      47.464  30.955  27.844  1.00  0.00     0.049 A 
ATOM     64  H   UNL A   1      46.822  29.040  27.230  1.00  0.00     0.167 HD
ATOM     65  C   UNL A   1      45.046  30.916  28.401  1.00  0.00     0.074 A 
ATOM     66  C   UNL A   1      43.840  31.504  28.948  1.00  0.00     0.031 C 
ATOM     67  C   UNL A   1      46.260  31.521  28.403  1.00  0.00     0.037 A 
BRANCH  54  68
ATOM     68  C   UNL A   1      50.794  28.058  26.018  1.00  0.00     0.057 A 
ATOM     69  C   UNL A   1      51.310  28.199  24.723  1.00  0.00     0.134 A 
ATOM     70  C   UNL A   1      51.703  27.763  27.043  1.00  0.00     0.134 A 
ATOM     71  F   UNL A   1      50.494  28.464  23.691  1.00  0.00    -0.206 F 
ATOM     72  C   UNL A   1      52.667  28.018  24.452  1.00  0.00     0.040 A 
ATOM     73  C   UNL A   1      53.066  27.609  26.792  1.00  0.00     0.040 A 
ATOM     74  F   UNL A   1      51.278  27.616  28.307  1.00  0.00    -0.206 F 
ATOM     75  C   UNL A   1      53.550  27.726  25.491  1.00  0.00     0.006 A 
ENDBRANCH  54  68
BRANCH  55  76
ATOM     76  C   UNL A   1      41.067  28.402  28.222  1.00  0.00     0.057 A 
ATOM     77  C   UNL A   1      40.643  27.955  29.478  1.00  0.00     0.134 A 
ATOM     78  C   UNL A   1      40.086  28.890  27.347  1.00  0.00     0.134 A 
ATOM     79  F   UNL A   1      41.530  27.451  30.349  1.00  0.00    -0.206 F 
ATOM     80  C   UNL A   1      39.298  27.990  29.852  1.00  0.00     0.040 A 
ATOM     81  C   UNL A   1      38.742  28.955  27.716  1.00  0.00     0.040 A 
ATOM     82  F   UNL A   1      40.427  29.327  26.126  1.00  0.00    -0.206 F 
ATOM     83  C   UNL A   1      38.344  28.501  28.972  1.00  0.00     0.006 A 
ENDBRANCH  55  76
BRANCH  67  84
ATOM     84  C   UNL A   1      46.349  32.891  29.012  1.00  0.00     0.057 A 
ATOM     85  C   UNL A   1      46.737  33.083  30.345  1.00  0.00     0.134 A 
ATOM     86  C   UNL A   1      46.092  34.035  28.245  1.00  0.00     0.134 A 
ATOM     87  F   UNL A   1      46.987  32.029  31.137  1.00  0.00    -0.206 F 
ATOM     88  C   UNL A   1      46.846  34.360  30.898  1.00  0.00     0.040 A 
ATOM     89  C   UNL A   1      46.226  35.318  28.778  1.00  0.00     0.040 A 
ATOM     90  F   UNL A   1      45.727  33.925  26.959  1.00  0.00    -0.206 F 
ATOM     91  C   UNL A   1      46.598  35.483  30.111  1.00  0.00     0.006 A 
ENDBRANCH  67  84
ENDBRANCH  41  42
ENDBRANCH  34  36
ENDBRANCH  33  34
ENDBRANCH  32  33
ENDBRANCH  31  32
ENDBRANCH  30  31
ENDBRANCH  29  30
ENDBRANCH  28  29
ENDBRANCH  27  28
ENDBRANCH   1  27
TORSDOF 23
ENDMDL
MODEL 2
REMARK VINA RESULT:      -9.0      5.297      8.972
REMARK SMILES Cc1nc(CC(=O)N2[C@@H](C(=O)OCCOCCOCCOCCOC(=O)c3ccc(-c4c5nc(c(-c6c(F)cccc6F)c6ccc([nH]6)c(-c6c(F)cccc6F)c6nc(c(-c7c(F)cccc7F)c7ccc4[nH]7)C=C6)C=C5)cc3)C[C@@H]3CCCC[C@H]32)cs1
REMARK SMILES IDX 17 1 16 2 15 3 14 4 13 5 12 6 10 7 11 8 9 9 8 10 87 11 81 12
REMARK SMILES IDX 82 13 86 14 83 15 85 16 84 17 6 18 7 19 5 20 4 21 1 22 2 23
REMARK SMILES IDX 3 24 89 25 88 26 18 27 19 28 20 29 21 30 22 31 23 32 24 33
REMARK SMILES IDX 25 34 26 35 27 36 28 37 80 38 29 39 79 40 30 41 31 42 32 43
REMARK SMILES IDX 73 44 33 45 78 46 72 47 74 48 34 49 77 50 71 51 70 52 35 54
REMARK SMILES IDX 61 55 44 56 60 57 45 58 48 59 59 60 75 61 46 62 47 63 58 65
REMARK SMILES IDX 76 66 49 67 36 68 37 69 42 70 38 71 39 72 41 73 43 74 40 75
REMARK SMILES IDX 62 76 63 77 68 78 64 79 65 80 67 81 69 82 66 83 50 84 51 85
REMARK SMILES IDX 56 86 52 87 53 88 55 89 57 90 54 91
REMARK H PARENT 74 53 48 64
REMARK Flexibility Score: inf
ROOT
ATOM      1  C   UNL A   1      38.412  21.676  25.970  1.00  0.00     0.188 C 
ENDROOT
BRANCH   1   2
ATOM      2  C   UNL A   1      37.617  22.238  24.775  1.00  0.00     0.188 C 
BRANCH   2   3
ATOM      3  O   UNL A   1      37.071  23.549  24.802  1.00  0.00    -0.376 OA
BRANCH   3   4
ATOM      4  C   UNL A   1      35.719  23.757  25.164  1.00  0.00     0.202 C 
BRANCH   4   5
ATOM      5  C   UNL A   1      35.186  23.164  26.480  1.00  0.00     0.261 C 
BRANCH   5   6
ATOM      6  O   UNL A   1      34.176  22.143  26.415  1.00  0.00    -0.462 OA
BRANCH   6   7
ATOM      7  C   UNL A   1      33.053  22.345  27.164  1.00  0.00     0.328 C 
ATOM      8  O   UNL A   1      33.019  22.276  28.388  1.00  0.00    -0.250 OA
BRANCH   7   9
ATOM      9  C   UNL A   1      31.830  22.769  26.320  1.00  0.00     0.195 C 
ATOM     10  N   UNL A   1      32.088  23.016  24.890  1.00  0.00    -0.325 N 
ATOM     11  C   UNL A   1      31.237  24.127  24.454  1.00  0.00     0.089 C 
ATOM     12  C   UNL A   1      31.160  24.079  26.820  1.00  0.00     0.043 C 
ATOM     13  C   UNL A   1      31.337  25.057  25.654  1.00  0.00     0.014 C 
ATOM     14  C   UNL A   1      31.501  24.897  23.176  1.00  0.00     0.025 C 
ATOM     15  C   UNL A   1      30.405  26.255  25.577  1.00  0.00     0.006 C 
ATOM     16  C   UNL A   1      30.617  26.145  23.060  1.00  0.00     0.002 C 
ATOM     17  C   UNL A   1      30.693  27.040  24.292  1.00  0.00     0.000 C 
BRANCH  10  18
ATOM     18  C   UNL A   1      32.506  21.931  24.137  1.00  0.00     0.229 C 
ATOM     19  O   UNL A   1      33.283  22.071  23.186  1.00  0.00    -0.274 OA
BRANCH  18  20
ATOM     20  C   UNL A   1      31.796  20.608  24.352  1.00  0.00     0.157 C 
BRANCH  20  21
ATOM     21  C   UNL A   1      32.710  19.440  24.373  1.00  0.00     0.061 A 
ATOM     22  C   UNL A   1      32.757  15.950  25.359  1.00  0.00     0.079 C 
ATOM     23  C   UNL A   1      33.057  17.296  24.803  1.00  0.00     0.090 A 
ATOM     24  N   UNL A   1      32.132  18.189  24.536  1.00  0.00    -0.246 NA
ATOM     25  S   UNL A   1      34.675  17.844  24.624  1.00  0.00    -0.127 S 
ATOM     26  C   UNL A   1      34.091  19.432  24.326  1.00  0.00     0.091 A 
ENDBRANCH  20  21
ENDBRANCH  18  20
ENDBRANCH  10  18
ENDBRANCH   7   9
ENDBRANCH   6   7
ENDBRANCH   5   6
ENDBRANCH   4   5
ENDBRANCH   3   4
ENDBRANCH   2   3
ENDBRANCH   1   2
BRANCH   1  27
ATOM     27  O   UNL A   1      39.616  20.999  25.662  1.00  0.00    -0.377 OA
BRANCH  27  28
ATOM     28  C   UNL A   1      40.722  21.285  26.503  1.00  0.00     0.188 C 
BRANCH  28  29
ATOM     29  C   UNL A   1      41.931  20.351  26.349  1.00  0.00     0.188 C 
BRANCH  29  30
ATOM     30  O   UNL A   1      43.146  21.067  26.152  1.00  0.00    -0.376 OA
BRANCH  30  31
ATOM     31  C   UNL A   1      43.127  22.240  25.356  1.00  0.00     0.202 C 
BRANCH  31  32
ATOM     32  C   UNL A   1      43.629  23.531  26.021  1.00  0.00     0.261 C 
BRANCH  32  33
ATOM     33  O   UNL A   1      42.658  24.286  26.760  1.00  0.00    -0.460 OA
BRANCH  33  34
ATOM     34  C   UNL A   1      42.133  25.385  26.180  1.00  0.00     0.338 C 
ATOM     35  O   UNL A   1      41.870  25.540  25.000  1.00  0.00    -0.246 OA
BRANCH  34  36
ATOM     36  C   UNL A   1      41.725  26.305  27.264  1.00  0.00     0.060 A 
ATOM     37  C   UNL A   1      42.486  27.459  27.490  1.00  0.00     0.016 A 
ATOM     38  C   UNL A   1      40.577  26.053  28.020  1.00  0.00     0.016 A 
ATOM     39  C   UNL A   1      42.106  28.363  28.483  1.00  0.00     0.010 A 
ATOM     40  C   UNL A   1      40.217  26.943  29.036  1.00  0.00     0.010 A 
ATOM     41  C   UNL A   1      40.992  28.088  29.285  1.00  0.00    -0.014 A 
BRANCH  41  42
ATOM     42  C   UNL A   1      40.740  28.899  30.499  1.00  0.00     0.031 A 
ATOM     43  C   UNL A   1      39.646  29.927  30.456  1.00  0.00     0.074 A 
ATOM     44  C   UNL A   1      41.468  28.731  31.615  1.00  0.00     0.049 A 
ATOM     45  N   UNL A   1      39.293  30.805  31.356  1.00  0.00    -0.248 NA
ATOM     46  C   UNL A   1      38.847  29.969  29.221  1.00  0.00     0.031 C 
ATOM     47  C   UNL A   1      42.527  27.742  31.793  1.00  0.00     0.029 A 
ATOM     48  N   UNL A   1      41.434  29.412  32.806  1.00  0.00    -0.354 N 
ATOM     49  C   UNL A   1      38.238  31.514  30.795  1.00  0.00     0.074 A 
ATOM     50  C   UNL A   1      38.026  30.978  29.467  1.00  0.00     0.031 C 
ATOM     51  C   UNL A   1      43.064  27.896  33.016  1.00  0.00     0.029 A 
ATOM     52  C   UNL A   1      42.410  29.019  33.688  1.00  0.00     0.049 A 
ATOM     53  H   UNL A   1      40.774  30.115  33.009  1.00  0.00     0.167 HD
ATOM     54  C   UNL A   1      37.513  32.520  31.338  1.00  0.00     0.037 A 
ATOM     55  C   UNL A   1      42.759  29.533  34.884  1.00  0.00     0.037 A 
ATOM     56  C   UNL A   1      37.738  33.056  32.654  1.00  0.00     0.049 A 
ATOM     57  C   UNL A   1      41.995  30.708  35.436  1.00  0.00     0.074 A 
ATOM     58  C   UNL A   1      37.036  34.048  33.313  1.00  0.00     0.029 A 
ATOM     59  N   UNL A   1      38.759  32.656  33.505  1.00  0.00    -0.354 N 
ATOM     60  N   UNL A   1      40.974  31.349  34.920  1.00  0.00    -0.248 NA
ATOM     61  C   UNL A   1      42.436  31.235  36.736  1.00  0.00     0.031 C 
ATOM     62  C   UNL A   1      37.673  34.298  34.533  1.00  0.00     0.029 A 
ATOM     63  C   UNL A   1      38.736  33.418  34.663  1.00  0.00     0.049 A 
ATOM     64  H   UNL A   1      39.406  31.939  33.313  1.00  0.00     0.167 HD
ATOM     65  C   UNL A   1      40.642  32.343  35.833  1.00  0.00     0.074 A 
ATOM     66  C   UNL A   1      41.559  32.207  36.946  1.00  0.00     0.031 C 
ATOM     67  C   UNL A   1      39.668  33.283  35.756  1.00  0.00     0.037 A 
BRANCH  54  68
ATOM     68  C   UNL A   1      36.447  33.136  30.480  1.00  0.00     0.057 A 
ATOM     69  C   UNL A   1      36.710  34.197  29.604  1.00  0.00     0.134 A 
ATOM     70  C   UNL A   1      35.130  32.660  30.537  1.00  0.00     0.134 A 
ATOM     71  F   UNL A   1      37.945  34.714  29.513  1.00  0.00    -0.206 F 
ATOM     72  C   UNL A   1      35.699  34.784  28.841  1.00  0.00     0.040 A 
ATOM     73  C   UNL A   1      34.116  33.218  29.758  1.00  0.00     0.040 A 
ATOM     74  F   UNL A   1      34.807  31.646  31.354  1.00  0.00    -0.206 F 
ATOM     75  C   UNL A   1      34.397  34.291  28.915  1.00  0.00     0.006 A 
ENDBRANCH  54  68
BRANCH  55  76
ATOM     76  C   UNL A   1      43.912  28.958  35.621  1.00  0.00     0.057 A 
ATOM     77  C   UNL A   1      45.191  29.517  35.527  1.00  0.00     0.134 A 
ATOM     78  C   UNL A   1      43.756  27.839  36.450  1.00  0.00     0.134 A 
ATOM     79  F   UNL A   1      45.409  30.571  34.729  1.00  0.00    -0.206 F 
ATOM     80  C   UNL A   1      46.274  28.984  36.229  1.00  0.00     0.040 A 
ATOM     81  C   UNL A   1      44.824  27.312  37.177  1.00  0.00     0.040 A 
ATOM     82  F   UNL A   1      42.556  27.253  36.578  1.00  0.00    -0.206 F 
ATOM     83  C   UNL A   1      46.090  27.883  37.064  1.00  0.00     0.006 A 
ENDBRANCH  55  76
BRANCH  67  84
ATOM     84  C   UNL A   1      39.537  34.240  36.907  1.00  0.00     0.057 A 
ATOM     85  C   UNL A   1      40.145  35.502  36.891  1.00  0.00     0.134 A 
ATOM     86  C   UNL A   1      38.754  33.915  38.024  1.00  0.00     0.134 A 
ATOM     87  F   UNL A   1      40.917  35.871  35.858  1.00  0.00    -0.206 F 
ATOM     88  C   UNL A   1      39.997  36.398  37.952  1.00  0.00     0.040 A 
ATOM     89  C   UNL A   1      38.575  34.814  39.076  1.00  0.00     0.040 A 
ATOM     90  F   UNL A   1      38.135  32.728  38.100  1.00  0.00    -0.206 F 
ATOM     91  C   UNL A   1      39.202  36.058  39.045  1.00  0.00     0.006 A 
ENDBRANCH  67  84
ENDBRANCH  41  42
ENDBRANCH  34  36
ENDBRANCH  33  34
ENDBRANCH  32  33
ENDBRANCH  31  32
ENDBRANCH  30  31
ENDBRANCH  29  30
ENDBRANCH  28  29
ENDBRANCH  27  28
ENDBRANCH   1  27
TORSDOF 23
ENDMDL
MODEL 3
REMARK VINA RESULT:      -8.8      6.623     12.731
REMARK SMILES Cc1nc(CC(=O)N2[C@@H](C(=O)OCCOCCOCCOCCOC(=O)c3ccc(-c4c5nc(c(-c6c(F)cccc6F)c6ccc([nH]6)c(-c6c(F)cccc6F)c6nc(c(-c7c(F)cccc7F)c7ccc4[nH]7)C=C6)C=C5)cc3)C[C@@H]3CCCC[C@H]32)cs1
REMARK SMILES IDX 17 1 16 2 15 3 14 4 13 5 12 6 10 7 11 8 9 9 8 10 87 11 81 12
REMARK SMILES IDX 82 13 86 14 83 15 85 16 84 17 6 18 7 19 5 20 4 21 1 22 2 23
REMARK SMILES IDX 3 24 89 25 88 26 18 27 19 28 20 29 21 30 22 31 23 32 24 33
REMARK SMILES IDX 25 34 26 35 27 36 28 37 80 38 29 39 79 40 30 41 31 42 32 43
REMARK SMILES IDX 73 44 33 45 78 46 72 47 74 48 34 49 77 50 71 51 70 52 35 54
REMARK SMILES IDX 61 55 44 56 60 57 45 58 48 59 59 60 75 61 46 62 47 63 58 65
REMARK SMILES IDX 76 66 49 67 36 68 37 69 42 70 38 71 39 72 41 73 43 74 40 75
REMARK SMILES IDX 62 76 63 77 68 78 64 79 65 80 67 81 69 82 66 83 50 84 51 85
REMARK SMILES IDX 56 86 52 87 53 88 55 89 57 90 54 91
REMARK H PARENT 74 53 48 64
REMARK Flexibility Score: inf
ROOT
ATOM      1  C   UNL A   1      33.841  34.608  33.039  1.00  0.00     0.188 C 
ENDROOT
BRANCH   1   2
ATOM      2  C   UNL A   1      35.086  35.516  33.012  1.00  0.00     0.188 C 
BRANCH   2   3
ATOM      3  O   UNL A   1      36.387  34.993  33.241  1.00  0.00    -0.376 OA
BRANCH   3   4
ATOM      4  C   UNL A   1      37.052  34.253  32.235  1.00  0.00     0.202 C 
BRANCH   4   5
ATOM      5  C   UNL A   1      38.588  34.169  32.243  1.00  0.00     0.261 C 
BRANCH   5   6
ATOM      6  O   UNL A   1      39.281  34.111  30.984  1.00  0.00    -0.462 OA
BRANCH   6   7
ATOM      7  C   UNL A   1      40.632  34.302  31.021  1.00  0.00     0.328 C 
ATOM      8  O   UNL A   1      41.286  34.406  32.054  1.00  0.00    -0.250 OA
BRANCH   7   9
ATOM      9  C   UNL A   1      41.286  34.280  29.622  1.00  0.00     0.195 C 
ATOM     10  N   UNL A   1      42.760  34.346  29.599  1.00  0.00    -0.325 N 
ATOM     11  C   UNL A   1      43.166  35.137  28.434  1.00  0.00     0.089 C 
ATOM     12  C   UNL A   1      40.836  35.456  28.712  1.00  0.00     0.043 C 
ATOM     13  C   UNL A   1      42.125  36.246  28.458  1.00  0.00     0.014 C 
ATOM     14  C   UNL A   1      44.554  35.729  28.301  1.00  0.00     0.025 C 
ATOM     15  C   UNL A   1      42.177  37.159  27.244  1.00  0.00     0.006 C 
ATOM     16  C   UNL A   1      44.659  36.695  27.115  1.00  0.00     0.002 C 
ATOM     17  C   UNL A   1      43.578  37.770  27.130  1.00  0.00     0.000 C 
BRANCH  10  18
ATOM     18  C   UNL A   1      43.439  33.284  30.174  1.00  0.00     0.229 C 
ATOM     19  O   UNL A   1      44.530  33.446  30.728  1.00  0.00    -0.274 OA
BRANCH  18  20
ATOM     20  C   UNL A   1      42.929  31.884  29.888  1.00  0.00     0.157 C 
BRANCH  20  21
ATOM     21  C   UNL A   1      43.706  31.170  28.845  1.00  0.00     0.061 A 
ATOM     22  C   UNL A   1      45.994  28.379  28.491  1.00  0.00     0.079 C 
ATOM     23  C   UNL A   1      45.059  29.515  28.273  1.00  0.00     0.090 A 
ATOM     24  N   UNL A   1      44.180  29.906  29.166  1.00  0.00    -0.246 NA
ATOM     25  S   UNL A   1      45.181  30.512  26.880  1.00  0.00    -0.127 S 
ATOM     26  C   UNL A   1      44.095  31.631  27.602  1.00  0.00     0.091 A 
ENDBRANCH  20  21
ENDBRANCH  18  20
ENDBRANCH  10  18
ENDBRANCH   7   9
ENDBRANCH   6   7
ENDBRANCH   5   6
ENDBRANCH   4   5
ENDBRANCH   3   4
ENDBRANCH   2   3
ENDBRANCH   1   2
BRANCH   1  27
ATOM     27  O   UNL A   1      32.746  35.017  32.242  1.00  0.00    -0.377 OA
BRANCH  27  28
ATOM     28  C   UNL A   1      32.702  36.393  31.903  1.00  0.00     0.188 C 
BRANCH  28  29
ATOM     29  C   UNL A   1      32.793  36.711  30.404  1.00  0.00     0.188 C 
BRANCH  29  30
ATOM     30  O   UNL A   1      32.716  35.540  29.598  1.00  0.00    -0.376 OA
BRANCH  30  31
ATOM     31  C   UNL A   1      33.908  35.020  29.030  1.00  0.00     0.202 C 
BRANCH  31  32
ATOM     32  C   UNL A   1      33.799  33.658  28.330  1.00  0.00     0.261 C 
BRANCH  32  33
ATOM     33  O   UNL A   1      34.886  32.745  28.539  1.00  0.00    -0.460 OA
BRANCH  33  34
ATOM     34  C   UNL A   1      34.702  31.451  28.204  1.00  0.00     0.338 C 
ATOM     35  O   UNL A   1      33.773  30.979  27.573  1.00  0.00    -0.246 OA
BRANCH  34  36
ATOM     36  C   UNL A   1      35.943  30.725  28.551  1.00  0.00     0.060 A 
ATOM     37  C   UNL A   1      35.872  29.671  29.472  1.00  0.00     0.016 A 
ATOM     38  C   UNL A   1      37.156  31.050  27.938  1.00  0.00     0.016 A 
ATOM     39  C   UNL A   1      37.020  28.946  29.793  1.00  0.00     0.010 A 
ATOM     40  C   UNL A   1      38.311  30.343  28.286  1.00  0.00     0.010 A 
ATOM     41  C   UNL A   1      38.251  29.303  29.230  1.00  0.00    -0.014 A 
BRANCH  41  42
ATOM     42  C   UNL A   1      39.502  28.716  29.759  1.00  0.00     0.031 A 
ATOM     43  C   UNL A   1      40.122  29.336  30.978  1.00  0.00     0.074 A 
ATOM     44  C   UNL A   1      40.081  27.656  29.171  1.00  0.00     0.049 A 
ATOM     45  N   UNL A   1      41.249  29.053  31.576  1.00  0.00    -0.248 NA
ATOM     46  C   UNL A   1      39.363  30.432  31.603  1.00  0.00     0.031 C 
ATOM     47  C   UNL A   1      39.556  26.943  28.010  1.00  0.00     0.029 A 
ATOM     48  N   UNL A   1      41.257  27.011  29.464  1.00  0.00    -0.354 N 
ATOM     49  C   UNL A   1      41.343  29.942  32.639  1.00  0.00     0.074 A 
ATOM     50  C   UNL A   1      40.170  30.789  32.590  1.00  0.00     0.031 C 
ATOM     51  C   UNL A   1      40.421  25.971  27.671  1.00  0.00     0.029 A 
ATOM     52  C   UNL A   1      41.576  26.022  28.568  1.00  0.00     0.049 A 
ATOM     53  H   UNL A   1      41.817  27.236  30.243  1.00  0.00     0.167 HD
ATOM     54  C   UNL A   1      42.319  30.042  33.572  1.00  0.00     0.037 A 
ATOM     55  C   UNL A   1      42.689  25.271  28.463  1.00  0.00     0.037 A 
ATOM     56  C   UNL A   1      43.489  29.205  33.607  1.00  0.00     0.049 A 
ATOM     57  C   UNL A   1      43.804  25.454  29.460  1.00  0.00     0.074 A 
ATOM     58  C   UNL A   1      44.517  29.200  34.532  1.00  0.00     0.029 A 
ATOM     59  N   UNL A   1      43.795  28.237  32.661  1.00  0.00    -0.354 N 
ATOM     60  N   UNL A   1      43.870  26.267  30.486  1.00  0.00    -0.248 NA
ATOM     61  C   UNL A   1      45.000  24.619  29.280  1.00  0.00     0.031 C 
ATOM     62  C   UNL A   1      45.480  28.277  34.107  1.00  0.00     0.029 A 
ATOM     63  C   UNL A   1      45.022  27.662  32.953  1.00  0.00     0.049 A 
ATOM     64  H   UNL A   1      43.225  27.996  31.896  1.00  0.00     0.167 HD
ATOM     65  C   UNL A   1      45.105  26.034  31.081  1.00  0.00     0.074 A 
ATOM     66  C   UNL A   1      45.746  24.987  30.312  1.00  0.00     0.031 C 
ATOM     67  C   UNL A   1      45.657  26.633  32.166  1.00  0.00     0.037 A 
BRANCH  54  68
ATOM     68  C   UNL A   1      42.180  31.133  34.594  1.00  0.00     0.057 A 
ATOM     69  C   UNL A   1      42.863  32.351  34.486  1.00  0.00     0.134 A 
ATOM     70  C   UNL A   1      41.351  30.957  35.709  1.00  0.00     0.134 A 
ATOM     71  F   UNL A   1      43.688  32.580  33.452  1.00  0.00    -0.206 F 
ATOM     72  C   UNL A   1      42.754  33.341  35.465  1.00  0.00     0.040 A 
ATOM     73  C   UNL A   1      41.209  31.949  36.679  1.00  0.00     0.040 A 
ATOM     74  F   UNL A   1      40.667  29.815  35.875  1.00  0.00    -0.206 F 
ATOM     75  C   UNL A   1      41.920  33.141  36.564  1.00  0.00     0.006 A 
ENDBRANCH  54  68
BRANCH  55  76
ATOM     76  C   UNL A   1      42.817  24.301  27.347  1.00  0.00     0.057 A 
ATOM     77  C   UNL A   1      43.257  24.699  26.080  1.00  0.00     0.134 A 
ATOM     78  C   UNL A   1      42.511  22.945  27.526  1.00  0.00     0.134 A 
ATOM     79  F   UNL A   1      43.539  25.987  25.838  1.00  0.00    -0.206 F 
ATOM     80  C   UNL A   1      43.388  23.785  25.031  1.00  0.00     0.040 A 
ATOM     81  C   UNL A   1      42.662  22.017  26.496  1.00  0.00     0.040 A 
ATOM     82  F   UNL A   1      42.077  22.501  28.715  1.00  0.00    -0.206 F 
ATOM     83  C   UNL A   1      43.099  22.438  25.241  1.00  0.00     0.006 A 
ENDBRANCH  55  76
BRANCH  67  84
ATOM     84  C   UNL A   1      47.023  26.171  32.590  1.00  0.00     0.057 A 
ATOM     85  C   UNL A   1      48.190  26.694  32.019  1.00  0.00     0.134 A 
ATOM     86  C   UNL A   1      47.174  25.229  33.616  1.00  0.00     0.134 A 
ATOM     87  F   UNL A   1      48.115  27.592  31.024  1.00  0.00    -0.206 F 
ATOM     88  C   UNL A   1      49.456  26.283  32.437  1.00  0.00     0.040 A 
ATOM     89  C   UNL A   1      48.435  24.831  34.063  1.00  0.00     0.040 A 
ATOM     90  F   UNL A   1      46.099  24.694  34.215  1.00  0.00    -0.206 F 
ATOM     91  C   UNL A   1      49.581  25.354  33.468  1.00  0.00     0.006 A 
ENDBRANCH  67  84
ENDBRANCH  41  42
ENDBRANCH  34  36
ENDBRANCH  33  34
ENDBRANCH  32  33
ENDBRANCH  31  32
ENDBRANCH  30  31
ENDBRANCH  29  30
ENDBRANCH  28  29
ENDBRANCH  27  28
ENDBRANCH   1  27
TORSDOF 23
ENDMDL
