MODEL 1
REMARK VINA RESULT:     -10.7      0.000      0.000
REMARK SMILES O=C(Cc1csc(Sc2ncnc3c2CCCC3)n1)OCCOCCOCCOCCOC(=O)c1ccc(-c2c3nc(c(-c4c(F)cccc4F)c4ccc([nH]4)c(-c4c(F)cccc4F)c4nc(c(-c5c(F)cccc5F)c5ccc2[nH]5)C=C4)C=C3)cc1
REMARK SMILES IDX 25 1 24 2 23 3 22 4 21 5 20 6 2 7 1 8 3 9 4 10 5 11 19 12
REMARK SMILES IDX 6 13 7 14 8 15 9 16 10 17 14 18 11 19 13 20 15 21 12 22
REMARK SMILES IDX 18 23 16 24 17 25 26 26 27 27 28 28 29 29 30 30 31 31 32 32
REMARK SMILES IDX 33 33 34 34 35 35 36 36 88 37 37 38 87 39 38 40 39 41 40 42
REMARK SMILES IDX 81 43 41 44 86 45 80 46 82 47 42 48 85 49 79 50 78 51 43 53
REMARK SMILES IDX 69 54 52 55 68 56 53 57 56 58 67 59 83 60 54 61 55 62 66 64
REMARK SMILES IDX 84 65 57 66 44 67 45 68 50 69 46 70 47 71 49 72 51 73 48 74
REMARK SMILES IDX 70 75 71 76 76 77 72 78 73 79 75 80 77 81 74 82 58 83 59 84
REMARK SMILES IDX 64 85 60 86 61 87 63 88 65 89 62 90
REMARK H PARENT 82 52 56 63
REMARK Flexibility Score: inf
ROOT
ATOM      1  C   UNL A   1      43.009  19.141  25.730  1.00  0.00     0.188 C 
ENDROOT
BRANCH   1   2
ATOM      2  C   UNL A   1      42.534  20.170  26.769  1.00  0.00     0.188 C 
BRANCH   2   3
ATOM      3  O   UNL A   1      41.147  20.418  26.774  1.00  0.00    -0.376 OA
BRANCH   3   4
ATOM      4  C   UNL A   1      40.464  21.408  26.040  1.00  0.00     0.202 C 
BRANCH   4   5
ATOM      5  C   UNL A   1      38.941  21.491  26.013  1.00  0.00     0.261 C 
BRANCH   5   6
ATOM      6  O   UNL A   1      38.332  22.747  25.665  1.00  0.00    -0.463 OA
BRANCH   6   7
ATOM      7  C   UNL A   1      37.061  22.958  25.259  1.00  0.00     0.311 C 
ATOM      8  O   UNL A   1      36.382  23.807  25.836  1.00  0.00    -0.252 OA
BRANCH   7   9
ATOM      9  C   UNL A   1      36.460  22.096  24.180  1.00  0.00     0.179 C 
BRANCH   9  10
ATOM     10  C   UNL A   1      35.076  22.506  23.831  1.00  0.00     0.064 A 
ATOM     11  C   UNL A   1      33.923  22.049  24.435  1.00  0.00     0.092 A 
ATOM     12  N   UNL A   1      34.870  23.439  22.818  1.00  0.00    -0.234 NA
ATOM     13  S   UNL A   1      32.561  22.800  23.731  1.00  0.00    -0.116 S 
ATOM     14  C   UNL A   1      33.589  23.678  22.661  1.00  0.00     0.156 A 
BRANCH  14  15
ATOM     15  S   UNL A   1      32.892  24.752  21.473  1.00  0.00    -0.039 SA
BRANCH  15  16
ATOM     16  C   UNL A   1      32.881  26.362  22.259  1.00  0.00     0.110 A 
ATOM     17  N   UNL A   1      33.965  27.131  22.035  1.00  0.00    -0.229 NA
ATOM     18  C   UNL A   1      31.697  26.875  22.803  1.00  0.00     0.006 A 
ATOM     19  C   UNL A   1      33.851  28.428  22.346  1.00  0.00     0.223 A 
ATOM     20  C   UNL A   1      31.669  28.253  23.000  1.00  0.00     0.048 A 
ATOM     21  C   UNL A   1      30.480  26.028  23.067  1.00  0.00     0.040 C 
ATOM     22  N   UNL A   1      32.747  29.035  22.800  1.00  0.00    -0.241 NA
ATOM     23  C   UNL A   1      30.416  28.975  23.436  1.00  0.00     0.056 C 
ATOM     24  C   UNL A   1      29.396  26.745  23.876  1.00  0.00     0.005 C 
ATOM     25  C   UNL A   1      29.151  28.132  23.303  1.00  0.00     0.007 C 
ENDBRANCH  15  16
ENDBRANCH  14  15
ENDBRANCH   9  10
ENDBRANCH   7   9
ENDBRANCH   6   7
ENDBRANCH   5   6
ENDBRANCH   4   5
ENDBRANCH   3   4
ENDBRANCH   2   3
ENDBRANCH   1   2
BRANCH   1  26
ATOM     26  O   UNL A   1      43.551  19.612  24.502  1.00  0.00    -0.377 OA
BRANCH  26  27
ATOM     27  C   UNL A   1      44.813  19.086  24.133  1.00  0.00     0.188 C 
BRANCH  27  28
ATOM     28  C   UNL A   1      45.954  19.412  25.131  1.00  0.00     0.188 C 
BRANCH  28  29
ATOM     29  O   UNL A   1      46.636  20.656  25.109  1.00  0.00    -0.376 OA
BRANCH  29  30
ATOM     30  C   UNL A   1      45.982  21.861  25.469  1.00  0.00     0.202 C 
BRANCH  30  31
ATOM     31  C   UNL A   1      45.804  23.054  24.509  1.00  0.00     0.261 C 
BRANCH  31  32
ATOM     32  O   UNL A   1      44.956  24.123  24.940  1.00  0.00    -0.460 OA
BRANCH  32  33
ATOM     33  C   UNL A   1      43.627  23.889  24.883  1.00  0.00     0.338 C 
ATOM     34  O   UNL A   1      43.056  22.958  24.337  1.00  0.00    -0.246 OA
BRANCH  33  35
ATOM     35  C   UNL A   1      42.959  24.840  25.795  1.00  0.00     0.060 A 
ATOM     36  C   UNL A   1      43.479  26.140  25.898  1.00  0.00     0.016 A 
ATOM     37  C   UNL A   1      41.815  24.474  26.507  1.00  0.00     0.016 A 
ATOM     38  C   UNL A   1      42.859  27.078  26.715  1.00  0.00     0.010 A 
ATOM     39  C   UNL A   1      41.227  25.399  27.373  1.00  0.00     0.010 A 
ATOM     40  C   UNL A   1      41.767  26.691  27.501  1.00  0.00    -0.014 A 
BRANCH  40  41
ATOM     41  C   UNL A   1      41.385  27.546  28.644  1.00  0.00     0.031 A 
ATOM     42  C   UNL A   1      42.220  27.442  29.890  1.00  0.00     0.074 A 
ATOM     43  C   UNL A   1      40.373  28.426  28.569  1.00  0.00     0.049 A 
ATOM     44  N   UNL A   1      42.087  28.060  31.033  1.00  0.00    -0.248 NA
ATOM     45  C   UNL A   1      43.367  26.518  29.833  1.00  0.00     0.031 C 
ATOM     46  C   UNL A   1      39.542  28.663  27.391  1.00  0.00     0.029 A 
ATOM     47  N   UNL A   1      39.877  29.286  29.514  1.00  0.00    -0.354 N 
ATOM     48  C   UNL A   1      43.132  27.604  31.825  1.00  0.00     0.074 A 
ATOM     49  C   UNL A   1      43.871  26.634  31.051  1.00  0.00     0.031 C 
ATOM     50  C   UNL A   1      38.630  29.607  27.688  1.00  0.00     0.029 A 
ATOM     51  C   UNL A   1      38.794  30.013  29.084  1.00  0.00     0.049 A 
ATOM     52  H   UNL A   1      40.261  29.376  30.417  1.00  0.00     0.167 HD
ATOM     53  C   UNL A   1      43.455  27.971  33.086  1.00  0.00     0.037 A 
ATOM     54  C   UNL A   1      38.018  30.889  29.753  1.00  0.00     0.037 A 
ATOM     55  C   UNL A   1      42.710  28.927  33.859  1.00  0.00     0.049 A 
ATOM     56  C   UNL A   1      38.330  31.197  31.196  1.00  0.00     0.074 A 
ATOM     57  C   UNL A   1      42.947  29.359  35.150  1.00  0.00     0.029 A 
ATOM     58  N   UNL A   1      41.578  29.591  33.410  1.00  0.00    -0.354 N 
ATOM     59  N   UNL A   1      39.321  30.767  31.940  1.00  0.00    -0.248 NA
ATOM     60  C   UNL A   1      37.413  32.112  31.894  1.00  0.00     0.031 C 
ATOM     61  C   UNL A   1      41.926  30.244  35.504  1.00  0.00     0.029 A 
ATOM     62  C   UNL A   1      41.088  30.410  34.412  1.00  0.00     0.049 A 
ATOM     63  H   UNL A   1      41.182  29.494  32.514  1.00  0.00     0.167 HD
ATOM     64  C   UNL A   1      39.164  31.376  33.179  1.00  0.00     0.074 A 
ATOM     65  C   UNL A   1      37.989  32.218  33.084  1.00  0.00     0.031 C 
ATOM     66  C   UNL A   1      39.922  31.248  34.296  1.00  0.00     0.037 A 
BRANCH  53  67
ATOM     67  C   UNL A   1      44.653  27.324  33.712  1.00  0.00     0.057 A 
ATOM     68  C   UNL A   1      44.557  26.111  34.407  1.00  0.00     0.134 A 
ATOM     69  C   UNL A   1      45.925  27.896  33.581  1.00  0.00     0.134 A 
ATOM     70  F   UNL A   1      43.365  25.522  34.587  1.00  0.00    -0.206 F 
ATOM     71  C   UNL A   1      45.682  25.496  34.958  1.00  0.00     0.040 A 
ATOM     72  C   UNL A   1      47.060  27.277  34.104  1.00  0.00     0.040 A 
ATOM     73  F   UNL A   1      46.084  29.059  32.930  1.00  0.00    -0.206 F 
ATOM     74  C   UNL A   1      46.940  26.074  34.796  1.00  0.00     0.006 A 
ENDBRANCH  53  67
BRANCH  54  75
ATOM     75  C   UNL A   1      36.870  31.537  29.069  1.00  0.00     0.057 A 
ATOM     76  C   UNL A   1      36.931  32.874  28.661  1.00  0.00     0.134 A 
ATOM     77  C   UNL A   1      35.682  30.840  28.812  1.00  0.00     0.134 A 
ATOM     78  F   UNL A   1      38.030  33.605  28.901  1.00  0.00    -0.206 F 
ATOM     79  C   UNL A   1      35.852  33.498  28.030  1.00  0.00     0.040 A 
ATOM     80  C   UNL A   1      34.606  31.442  28.158  1.00  0.00     0.040 A 
ATOM     81  F   UNL A   1      35.556  29.557  29.180  1.00  0.00    -0.206 F 
ATOM     82  C   UNL A   1      34.688  32.777  27.769  1.00  0.00     0.006 A 
ENDBRANCH  54  75
BRANCH  66  83
ATOM     83  C   UNL A   1      39.532  32.050  35.505  1.00  0.00     0.057 A 
ATOM     84  C   UNL A   1      40.004  33.353  35.710  1.00  0.00     0.134 A 
ATOM     85  C   UNL A   1      38.600  31.548  36.424  1.00  0.00     0.134 A 
ATOM     86  F   UNL A   1      40.902  33.890  34.872  1.00  0.00    -0.206 F 
ATOM     87  C   UNL A   1      39.572  34.122  36.792  1.00  0.00     0.040 A 
ATOM     88  C   UNL A   1      38.139  32.319  37.493  1.00  0.00     0.040 A 
ATOM     89  F   UNL A   1      38.096  30.313  36.279  1.00  0.00    -0.206 F 
ATOM     90  C   UNL A   1      38.628  33.610  37.680  1.00  0.00     0.006 A 
ENDBRANCH  66  83
ENDBRANCH  40  41
ENDBRANCH  33  35
ENDBRANCH  32  33
ENDBRANCH  31  32
ENDBRANCH  30  31
ENDBRANCH  29  30
ENDBRANCH  28  29
ENDBRANCH  27  28
ENDBRANCH  26  27
ENDBRANCH   1  26
TORSDOF 23
ENDMDL
MODEL 2
REMARK VINA RESULT:     -10.4      1.297      2.164
REMARK SMILES O=C(Cc1csc(Sc2ncnc3c2CCCC3)n1)OCCOCCOCCOCCOC(=O)c1ccc(-c2c3nc(c(-c4c(F)cccc4F)c4ccc([nH]4)c(-c4c(F)cccc4F)c4nc(c(-c5c(F)cccc5F)c5ccc2[nH]5)C=C4)C=C3)cc1
REMARK SMILES IDX 25 1 24 2 23 3 22 4 21 5 20 6 2 7 1 8 3 9 4 10 5 11 19 12
REMARK SMILES IDX 6 13 7 14 8 15 9 16 10 17 14 18 11 19 13 20 15 21 12 22
REMARK SMILES IDX 18 23 16 24 17 25 26 26 27 27 28 28 29 29 30 30 31 31 32 32
REMARK SMILES IDX 33 33 34 34 35 35 36 36 88 37 37 38 87 39 38 40 39 41 40 42
REMARK SMILES IDX 81 43 41 44 86 45 80 46 82 47 42 48 85 49 79 50 78 51 43 53
REMARK SMILES IDX 69 54 52 55 68 56 53 57 56 58 67 59 83 60 54 61 55 62 66 64
REMARK SMILES IDX 84 65 57 66 44 67 45 68 50 69 46 70 47 71 49 72 51 73 48 74
REMARK SMILES IDX 70 75 71 76 76 77 72 78 73 79 75 80 77 81 74 82 58 83 59 84
REMARK SMILES IDX 64 85 60 86 61 87 63 88 65 89 62 90
REMARK H PARENT 82 52 56 63
REMARK Flexibility Score: inf
ROOT
ATOM      1  C   UNL A   1      42.674  18.785  26.183  1.00  0.00     0.188 C 
ENDROOT
BRANCH   1   2
ATOM      2  C   UNL A   1      41.385  19.395  26.757  1.00  0.00     0.188 C 
BRANCH   2   3
ATOM      3  O   UNL A   1      40.722  20.301  25.906  1.00  0.00    -0.376 OA
BRANCH   3   4
ATOM      4  C   UNL A   1      40.608  21.695  26.081  1.00  0.00     0.202 C 
BRANCH   4   5
ATOM      5  C   UNL A   1      39.395  22.332  26.752  1.00  0.00     0.261 C 
BRANCH   5   6
ATOM      6  O   UNL A   1      38.703  23.382  26.054  1.00  0.00    -0.463 OA
BRANCH   6   7
ATOM      7  C   UNL A   1      37.437  23.359  25.583  1.00  0.00     0.311 C 
ATOM      8  O   UNL A   1      36.542  23.884  26.245  1.00  0.00    -0.252 OA
BRANCH   7   9
ATOM      9  C   UNL A   1      37.119  22.615  24.313  1.00  0.00     0.179 C 
BRANCH   9  10
ATOM     10  C   UNL A   1      35.799  21.934  24.369  1.00  0.00     0.064 A 
ATOM     11  C   UNL A   1      35.544  20.720  24.970  1.00  0.00     0.092 A 
ATOM     12  N   UNL A   1      34.688  22.540  23.787  1.00  0.00    -0.234 NA
ATOM     13  S   UNL A   1      33.890  20.329  24.811  1.00  0.00    -0.116 S 
ATOM     14  C   UNL A   1      33.619  21.795  23.944  1.00  0.00     0.156 A 
BRANCH  14  15
ATOM     15  S   UNL A   1      32.025  22.162  23.333  1.00  0.00    -0.039 SA
BRANCH  15  16
ATOM     16  C   UNL A   1      31.194  22.995  24.684  1.00  0.00     0.110 A 
ATOM     17  N   UNL A   1      31.050  22.276  25.815  1.00  0.00    -0.229 NA
ATOM     18  C   UNL A   1      30.995  24.380  24.644  1.00  0.00     0.006 A 
ATOM     19  C   UNL A   1      30.720  22.960  26.917  1.00  0.00     0.223 A 
ATOM     20  C   UNL A   1      30.743  24.990  25.870  1.00  0.00     0.048 A 
ATOM     21  C   UNL A   1      31.143  25.196  23.387  1.00  0.00     0.040 C 
ATOM     22  N   UNL A   1      30.578  24.287  27.008  1.00  0.00    -0.241 NA
ATOM     23  C   UNL A   1      30.656  26.491  26.017  1.00  0.00     0.056 C 
ATOM     24  C   UNL A   1      30.651  26.639  23.530  1.00  0.00     0.005 C 
ATOM     25  C   UNL A   1      31.198  27.252  24.810  1.00  0.00     0.007 C 
ENDBRANCH  15  16
ENDBRANCH  14  15
ENDBRANCH   9  10
ENDBRANCH   7   9
ENDBRANCH   6   7
ENDBRANCH   5   6
ENDBRANCH   4   5
ENDBRANCH   3   4
ENDBRANCH   2   3
ENDBRANCH   1   2
BRANCH   1  26
ATOM     26  O   UNL A   1      43.295  19.424  25.074  1.00  0.00    -0.377 OA
BRANCH  26  27
ATOM     27  C   UNL A   1      44.487  18.827  24.594  1.00  0.00     0.188 C 
BRANCH  27  28
ATOM     28  C   UNL A   1      45.771  19.644  24.891  1.00  0.00     0.188 C 
BRANCH  28  29
ATOM     29  O   UNL A   1      45.966  20.949  24.372  1.00  0.00    -0.376 OA
BRANCH  29  30
ATOM     30  C   UNL A   1      46.099  22.070  25.228  1.00  0.00     0.202 C 
BRANCH  30  31
ATOM     31  C   UNL A   1      46.149  23.527  24.724  1.00  0.00     0.261 C 
BRANCH  31  32
ATOM     32  O   UNL A   1      45.261  24.465  25.339  1.00  0.00    -0.460 OA
BRANCH  32  33
ATOM     33  C   UNL A   1      43.944  24.281  25.107  1.00  0.00     0.338 C 
ATOM     34  O   UNL A   1      43.421  23.418  24.420  1.00  0.00    -0.246 OA
BRANCH  33  35
ATOM     35  C   UNL A   1      43.194  25.173  26.015  1.00  0.00     0.060 A 
ATOM     36  C   UNL A   1      43.565  26.525  26.076  1.00  0.00     0.016 A 
ATOM     37  C   UNL A   1      42.115  24.698  26.764  1.00  0.00     0.016 A 
ATOM     38  C   UNL A   1      42.862  27.408  26.887  1.00  0.00     0.010 A 
ATOM     39  C   UNL A   1      41.446  25.572  27.623  1.00  0.00     0.010 A 
ATOM     40  C   UNL A   1      41.839  26.920  27.709  1.00  0.00    -0.014 A 
BRANCH  40  41
ATOM     41  C   UNL A   1      41.389  27.755  28.843  1.00  0.00     0.031 A 
ATOM     42  C   UNL A   1      42.173  27.660  30.121  1.00  0.00     0.074 A 
ATOM     43  C   UNL A   1      40.359  28.610  28.733  1.00  0.00     0.049 A 
ATOM     44  N   UNL A   1      41.977  28.264  31.263  1.00  0.00    -0.248 NA
ATOM     45  C   UNL A   1      43.344  26.764  30.105  1.00  0.00     0.031 C 
ATOM     46  C   UNL A   1      39.572  28.838  27.522  1.00  0.00     0.029 A 
ATOM     47  N   UNL A   1      39.803  29.449  29.663  1.00  0.00    -0.354 N 
ATOM     48  C   UNL A   1      43.000  27.826  32.094  1.00  0.00     0.074 A 
ATOM     49  C   UNL A   1      43.794  26.881  31.343  1.00  0.00     0.031 C 
ATOM     50  C   UNL A   1      38.625  29.756  27.789  1.00  0.00     0.029 A 
ATOM     51  C   UNL A   1      38.721  30.153  29.194  1.00  0.00     0.049 A 
ATOM     52  H   UNL A   1      40.146  29.540  30.581  1.00  0.00     0.167 HD
ATOM     53  C   UNL A   1      43.261  28.189  33.370  1.00  0.00     0.037 A 
ATOM     54  C   UNL A   1      37.897  31.004  29.837  1.00  0.00     0.037 A 
ATOM     55  C   UNL A   1      42.461  29.119  34.119  1.00  0.00     0.049 A 
ATOM     56  C   UNL A   1      38.140  31.306  31.294  1.00  0.00     0.074 A 
ATOM     57  C   UNL A   1      42.633  29.544  35.422  1.00  0.00     0.029 A 
ATOM     58  N   UNL A   1      41.333  29.759  33.629  1.00  0.00    -0.354 N 
ATOM     59  N   UNL A   1      39.110  30.894  32.075  1.00  0.00    -0.248 NA
ATOM     60  C   UNL A   1      37.172  32.191  31.961  1.00  0.00     0.031 C 
ATOM     61  C   UNL A   1      41.576  30.401  35.741  1.00  0.00     0.029 A 
ATOM     62  C   UNL A   1      40.781  30.557  34.616  1.00  0.00     0.049 A 
ATOM     63  H   UNL A   1      40.977  29.661  32.717  1.00  0.00     0.167 HD
ATOM     64  C   UNL A   1      38.886  31.487  33.312  1.00  0.00     0.074 A 
ATOM     65  C   UNL A   1      37.696  32.300  33.175  1.00  0.00     0.031 C 
ATOM     66  C   UNL A   1      39.600  31.367  34.459  1.00  0.00     0.037 A 
BRANCH  53  67
ATOM     67  C   UNL A   1      44.448  27.565  34.040  1.00  0.00     0.057 A 
ATOM     68  C   UNL A   1      45.709  28.175  34.024  1.00  0.00     0.134 A 
ATOM     69  C   UNL A   1      44.319  26.363  34.747  1.00  0.00     0.134 A 
ATOM     70  F   UNL A   1      45.905  29.316  33.346  1.00  0.00    -0.206 F 
ATOM     71  C   UNL A   1      46.802  27.606  34.679  1.00  0.00     0.040 A 
ATOM     72  C   UNL A   1      45.397  25.799  35.429  1.00  0.00     0.040 A 
ATOM     73  F   UNL A   1      43.138  25.727  34.799  1.00  0.00    -0.206 F 
ATOM     74  C   UNL A   1      46.644  26.420  35.393  1.00  0.00     0.006 A 
ENDBRANCH  53  67
BRANCH  54  75
ATOM     75  C   UNL A   1      36.762  31.630  29.111  1.00  0.00     0.057 A 
ATOM     76  C   UNL A   1      36.817  32.965  28.695  1.00  0.00     0.134 A 
ATOM     77  C   UNL A   1      35.593  30.914  28.821  1.00  0.00     0.134 A 
ATOM     78  F   UNL A   1      37.897  33.713  28.965  1.00  0.00    -0.206 F 
ATOM     79  C   UNL A   1      35.750  33.568  28.024  1.00  0.00     0.040 A 
ATOM     80  C   UNL A   1      34.531  31.496  28.128  1.00  0.00     0.040 A 
ATOM     81  F   UNL A   1      35.474  29.632  29.195  1.00  0.00    -0.206 F 
ATOM     82  C   UNL A   1      34.606  32.828  27.731  1.00  0.00     0.006 A 
ENDBRANCH  54  75
BRANCH  66  83
ATOM     83  C   UNL A   1      39.141  32.148  35.656  1.00  0.00     0.057 A 
ATOM     84  C   UNL A   1      38.324  31.578  36.640  1.00  0.00     0.134 A 
ATOM     85  C   UNL A   1      39.597  33.456  35.874  1.00  0.00     0.134 A 
ATOM     86  F   UNL A   1      37.847  30.334  36.491  1.00  0.00    -0.206 F 
ATOM     87  C   UNL A   1      37.969  32.284  37.792  1.00  0.00     0.040 A 
ATOM     88  C   UNL A   1      39.274  34.160  37.034  1.00  0.00     0.040 A 
ATOM     89  F   UNL A   1      40.395  34.058  34.978  1.00  0.00    -0.206 F 
ATOM     90  C   UNL A   1      38.455  33.574  37.996  1.00  0.00     0.006 A 
ENDBRANCH  66  83
ENDBRANCH  40  41
ENDBRANCH  33  35
ENDBRANCH  32  33
ENDBRANCH  31  32
ENDBRANCH  30  31
ENDBRANCH  29  30
ENDBRANCH  28  29
ENDBRANCH  27  28
ENDBRANCH  26  27
ENDBRANCH   1  26
TORSDOF 23
ENDMDL
MODEL 3
REMARK VINA RESULT:     -10.1      1.272      6.128
REMARK SMILES O=C(Cc1csc(Sc2ncnc3c2CCCC3)n1)OCCOCCOCCOCCOC(=O)c1ccc(-c2c3nc(c(-c4c(F)cccc4F)c4ccc([nH]4)c(-c4c(F)cccc4F)c4nc(c(-c5c(F)cccc5F)c5ccc2[nH]5)C=C4)C=C3)cc1
REMARK SMILES IDX 25 1 24 2 23 3 22 4 21 5 20 6 2 7 1 8 3 9 4 10 5 11 19 12
REMARK SMILES IDX 6 13 7 14 8 15 9 16 10 17 14 18 11 19 13 20 15 21 12 22
REMARK SMILES IDX 18 23 16 24 17 25 26 26 27 27 28 28 29 29 30 30 31 31 32 32
REMARK SMILES IDX 33 33 34 34 35 35 36 36 88 37 37 38 87 39 38 40 39 41 40 42
REMARK SMILES IDX 81 43 41 44 86 45 80 46 82 47 42 48 85 49 79 50 78 51 43 53
REMARK SMILES IDX 69 54 52 55 68 56 53 57 56 58 67 59 83 60 54 61 55 62 66 64
REMARK SMILES IDX 84 65 57 66 44 67 45 68 50 69 46 70 47 71 49 72 51 73 48 74
REMARK SMILES IDX 70 75 71 76 76 77 72 78 73 79 75 80 77 81 74 82 58 83 59 84
REMARK SMILES IDX 64 85 60 86 61 87 63 88 65 89 62 90
REMARK H PARENT 82 52 56 63
REMARK Flexibility Score: inf
ROOT
ATOM      1  C   UNL A   1      41.602  19.730  27.322  1.00  0.00     0.188 C 
ENDROOT
BRANCH   1   2
ATOM      2  C   UNL A   1      40.955  20.491  26.153  1.00  0.00     0.188 C 
BRANCH   2   3
ATOM      3  O   UNL A   1      39.881  21.331  26.507  1.00  0.00    -0.376 OA
BRANCH   3   4
ATOM      4  C   UNL A   1      39.903  22.737  26.598  1.00  0.00     0.202 C 
BRANCH   4   5
ATOM      5  C   UNL A   1      38.630  23.574  26.524  1.00  0.00     0.261 C 
BRANCH   5   6
ATOM      6  O   UNL A   1      37.780  23.424  25.374  1.00  0.00    -0.463 OA
BRANCH   6   7
ATOM      7  C   UNL A   1      36.555  22.856  25.327  1.00  0.00     0.311 C 
ATOM      8  O   UNL A   1      35.908  22.740  26.367  1.00  0.00    -0.252 OA
BRANCH   7   9
ATOM      9  C   UNL A   1      36.037  22.288  24.031  1.00  0.00     0.179 C 
BRANCH   9  10
ATOM     10  C   UNL A   1      34.577  22.506  23.859  1.00  0.00     0.064 A 
ATOM     11  C   UNL A   1      33.589  21.580  24.120  1.00  0.00     0.092 A 
ATOM     12  N   UNL A   1      34.115  23.739  23.408  1.00  0.00    -0.234 NA
ATOM     13  S   UNL A   1      32.057  22.262  23.800  1.00  0.00    -0.116 S 
ATOM     14  C   UNL A   1      32.805  23.742  23.327  1.00  0.00     0.156 A 
BRANCH  14  15
ATOM     15  S   UNL A   1      31.822  25.072  22.767  1.00  0.00    -0.039 SA
BRANCH  15  16
ATOM     16  C   UNL A   1      32.824  26.532  23.042  1.00  0.00     0.110 A 
ATOM     17  N   UNL A   1      33.525  26.970  21.978  1.00  0.00    -0.229 NA
ATOM     18  C   UNL A   1      32.637  27.311  24.190  1.00  0.00     0.006 A 
ATOM     19  C   UNL A   1      34.028  28.208  22.064  1.00  0.00     0.223 A 
ATOM     20  C   UNL A   1      33.131  28.612  24.125  1.00  0.00     0.048 A 
ATOM     21  C   UNL A   1      31.864  26.833  25.391  1.00  0.00     0.040 C 
ATOM     22  N   UNL A   1      33.849  29.062  23.079  1.00  0.00    -0.241 NA
ATOM     23  C   UNL A   1      32.876  29.621  25.220  1.00  0.00     0.056 C 
ATOM     24  C   UNL A   1      31.990  27.753  26.609  1.00  0.00     0.005 C 
ATOM     25  C   UNL A   1      31.778  29.200  26.192  1.00  0.00     0.007 C 
ENDBRANCH  15  16
ENDBRANCH  14  15
ENDBRANCH   9  10
ENDBRANCH   7   9
ENDBRANCH   6   7
ENDBRANCH   5   6
ENDBRANCH   4   5
ENDBRANCH   3   4
ENDBRANCH   2   3
ENDBRANCH   1   2
BRANCH   1  26
ATOM     26  O   UNL A   1      42.687  18.853  27.047  1.00  0.00    -0.377 OA
BRANCH  26  27
ATOM     27  C   UNL A   1      43.021  18.679  25.682  1.00  0.00     0.188 C 
BRANCH  27  28
ATOM     28  C   UNL A   1      44.399  19.267  25.284  1.00  0.00     0.188 C 
BRANCH  28  29
ATOM     29  O   UNL A   1      44.519  20.523  24.636  1.00  0.00    -0.376 OA
BRANCH  29  30
ATOM     30  C   UNL A   1      45.557  21.428  24.970  1.00  0.00     0.202 C 
BRANCH  30  31
ATOM     31  C   UNL A   1      45.436  22.494  26.078  1.00  0.00     0.261 C 
BRANCH  31  32
ATOM     32  O   UNL A   1      44.234  23.269  26.115  1.00  0.00    -0.460 OA
BRANCH  32  33
ATOM     33  C   UNL A   1      44.336  24.548  25.694  1.00  0.00     0.338 C 
ATOM     34  O   UNL A   1      44.770  24.949  24.625  1.00  0.00    -0.246 OA
BRANCH  33  35
ATOM     35  C   UNL A   1      43.617  25.403  26.660  1.00  0.00     0.060 A 
ATOM     36  C   UNL A   1      44.062  26.722  26.842  1.00  0.00     0.016 A 
ATOM     37  C   UNL A   1      42.498  24.931  27.349  1.00  0.00     0.016 A 
ATOM     38  C   UNL A   1      43.392  27.573  27.713  1.00  0.00     0.010 A 
ATOM     39  C   UNL A   1      41.861  25.767  28.268  1.00  0.00     0.010 A 
ATOM     40  C   UNL A   1      42.326  27.078  28.473  1.00  0.00    -0.014 A 
BRANCH  40  41
ATOM     41  C   UNL A   1      41.899  27.840  29.665  1.00  0.00     0.031 A 
ATOM     42  C   UNL A   1      40.690  28.723  29.521  1.00  0.00     0.074 A 
ATOM     43  C   UNL A   1      42.519  27.716  30.850  1.00  0.00     0.049 A 
ATOM     44  N   UNL A   1      40.126  29.507  30.400  1.00  0.00    -0.248 NA
ATOM     45  C   UNL A   1      40.025  28.711  28.206  1.00  0.00     0.031 C 
ATOM     46  C   UNL A   1      43.655  26.837  31.124  1.00  0.00     0.029 A 
ATOM     47  N   UNL A   1      42.272  28.336  32.047  1.00  0.00    -0.354 N 
ATOM     48  C   UNL A   1      39.040  30.075  29.746  1.00  0.00     0.074 A 
ATOM     49  C   UNL A   1      39.043  29.577  28.390  1.00  0.00     0.031 C 
ATOM     50  C   UNL A   1      44.012  26.982  32.413  1.00  0.00     0.029 A 
ATOM     51  C   UNL A   1      43.152  27.985  33.042  1.00  0.00     0.049 A 
ATOM     52  H   UNL A   1      41.534  28.974  32.183  1.00  0.00     0.167 HD
ATOM     53  C   UNL A   1      38.115  30.930  30.237  1.00  0.00     0.037 A 
ATOM     54  C   UNL A   1      43.256  28.440  34.306  1.00  0.00     0.037 A 
ATOM     55  C   UNL A   1      38.124  31.435  31.583  1.00  0.00     0.049 A 
ATOM     56  C   UNL A   1      42.281  29.480  34.797  1.00  0.00     0.074 A 
ATOM     57  C   UNL A   1      37.239  32.316  32.175  1.00  0.00     0.029 A 
ATOM     58  N   UNL A   1      39.072  31.107  32.540  1.00  0.00    -0.354 N 
ATOM     59  N   UNL A   1      41.254  30.012  34.178  1.00  0.00    -0.248 NA
ATOM     60  C   UNL A   1      42.480  29.987  36.164  1.00  0.00     0.031 C 
ATOM     61  C   UNL A   1      37.683  32.565  33.476  1.00  0.00     0.029 A 
ATOM     62  C   UNL A   1      38.809  31.792  33.714  1.00  0.00     0.049 A 
ATOM     63  H   UNL A   1      39.821  30.482  32.406  1.00  0.00     0.167 HD
ATOM     64  C   UNL A   1      40.672  30.891  35.083  1.00  0.00     0.074 A 
ATOM     65  C   UNL A   1      41.450  30.812  36.301  1.00  0.00     0.031 C 
ATOM     66  C   UNL A   1      39.590  31.693  34.920  1.00  0.00     0.037 A 
BRANCH  53  67
ATOM     67  C   UNL A   1      37.030  31.387  29.309  1.00  0.00     0.057 A 
ATOM     68  C   UNL A   1      35.945  30.563  28.982  1.00  0.00     0.134 A 
ATOM     69  C   UNL A   1      37.047  32.680  28.772  1.00  0.00     0.134 A 
ATOM     70  F   UNL A   1      35.881  29.305  29.445  1.00  0.00    -0.206 F 
ATOM     71  C   UNL A   1      34.921  31.006  28.144  1.00  0.00     0.040 A 
ATOM     72  C   UNL A   1      36.015  33.143  27.956  1.00  0.00     0.040 A 
ATOM     73  F   UNL A   1      38.059  33.517  29.044  1.00  0.00    -0.206 F 
ATOM     74  C   UNL A   1      34.949  32.304  27.639  1.00  0.00     0.006 A 
ENDBRANCH  53  67
BRANCH  54  75
ATOM     75  C   UNL A   1      44.323  27.919  35.198  1.00  0.00     0.057 A 
ATOM     76  C   UNL A   1      44.097  26.818  36.032  1.00  0.00     0.134 A 
ATOM     77  C   UNL A   1      45.593  28.510  35.244  1.00  0.00     0.134 A 
ATOM     78  F   UNL A   1      42.895  26.224  36.055  1.00  0.00    -0.206 F 
ATOM     79  C   UNL A   1      45.089  26.329  36.885  1.00  0.00     0.040 A 
ATOM     80  C   UNL A   1      46.601  28.014  36.071  1.00  0.00     0.040 A 
ATOM     81  F   UNL A   1      45.875  29.570  34.473  1.00  0.00    -0.206 F 
ATOM     82  C   UNL A   1      46.349  26.923  36.899  1.00  0.00     0.006 A 
ENDBRANCH  54  75
BRANCH  66  83
ATOM     83  C   UNL A   1      39.159  32.535  36.087  1.00  0.00     0.057 A 
ATOM     84  C   UNL A   1      38.309  32.037  37.082  1.00  0.00     0.134 A 
ATOM     85  C   UNL A   1      39.675  33.827  36.264  1.00  0.00     0.134 A 
ATOM     86  F   UNL A   1      37.775  30.812  36.970  1.00  0.00    -0.206 F 
ATOM     87  C   UNL A   1      37.979  32.797  38.205  1.00  0.00     0.040 A 
ATOM     88  C   UNL A   1      39.376  34.584  37.398  1.00  0.00     0.040 A 
ATOM     89  F   UNL A   1      40.507  34.360  35.356  1.00  0.00    -0.206 F 
ATOM     90  C   UNL A   1      38.523  34.070  38.371  1.00  0.00     0.006 A 
ENDBRANCH  66  83
ENDBRANCH  40  41
ENDBRANCH  33  35
ENDBRANCH  32  33
ENDBRANCH  31  32
ENDBRANCH  30  31
ENDBRANCH  29  30
ENDBRANCH  28  29
ENDBRANCH  27  28
ENDBRANCH  26  27
ENDBRANCH   1  26
TORSDOF 23
ENDMDL
