MODEL 1
REMARK VINA RESULT:      -9.5      0.000      0.000
REMARK SMILES O=C(OCCOCCOCCOCCOC(=O)[C@@H](CCO)NC(=O)c1c(F)ccc([N+](=O)[O-])c1F)c1ccc(-c2c3nc(c(-c4c(F)cccc4F)c4ccc([nH]4)c(-c4c(F)cccc4F)c4nc(c(-c5c(F)cccc5F)c5ccc2[nH]5)C=C4)C=C3)cc1
REMARK SMILES IDX 10 1 9 2 8 3 7 4 6 5 5 6 4 7 3 8 2 9 1 10 36 11 37 12 89 13
REMARK SMILES IDX 38 14 88 15 39 16 40 17 41 18 82 19 42 20 87 21 81 22 83 23
REMARK SMILES IDX 43 24 86 25 80 26 79 27 44 29 70 30 53 31 69 32 54 33 57 34
REMARK SMILES IDX 68 35 84 36 55 37 56 38 67 40 85 41 58 42 45 43 46 44 51 45
REMARK SMILES IDX 47 46 48 47 50 48 52 49 49 50 71 51 72 52 77 53 73 54 74 55
REMARK SMILES IDX 76 56 78 57 75 58 59 59 60 60 65 61 61 62 62 63 64 64 66 65
REMARK SMILES IDX 63 66 11 67 12 68 13 69 14 70 15 71 16 72 17 73 18 74 19 75
REMARK SMILES IDX 20 76 21 77 22 79 23 80 24 82 25 83 26 84 34 85 27 86 28 87
REMARK SMILES IDX 30 88 35 89 29 90 31 91 32 92 33 93
REMARK H PARENT 83 28 57 39 21 78 22 81
REMARK Flexibility Score: inf
ROOT
ATOM      1  C   UNL A   1      39.308  23.055  26.094  1.00  0.00     0.188 C 
ENDROOT
BRANCH   1   2
ATOM      2  O   UNL A   1      39.168  21.635  26.104  1.00  0.00    -0.377 OA
BRANCH   2   3
ATOM      3  C   UNL A   1      40.315  20.809  26.280  1.00  0.00     0.188 C 
BRANCH   3   4
ATOM      4  C   UNL A   1      41.123  21.137  27.521  1.00  0.00     0.188 C 
BRANCH   4   5
ATOM      5  O   UNL A   1      42.486  20.875  27.250  1.00  0.00    -0.376 OA
BRANCH   5   6
ATOM      6  C   UNL A   1      42.864  20.622  25.914  1.00  0.00     0.202 C 
BRANCH   6   7
ATOM      7  C   UNL A   1      43.936  21.531  25.310  1.00  0.00     0.261 C 
BRANCH   7   8
ATOM      8  O   UNL A   1      44.254  22.736  26.046  1.00  0.00    -0.460 OA
BRANCH   8   9
ATOM      9  C   UNL A   1      44.012  24.025  25.720  1.00  0.00     0.338 C 
ATOM     10  O   UNL A   1      44.402  24.478  24.640  1.00  0.00    -0.246 OA
BRANCH   9  11
ATOM     11  C   UNL A   1      43.292  24.924  26.643  1.00  0.00     0.060 A 
ATOM     12  C   UNL A   1      43.489  26.295  26.619  1.00  0.00     0.016 A 
ATOM     13  C   UNL A   1      42.292  24.418  27.476  1.00  0.00     0.016 A 
ATOM     14  C   UNL A   1      42.960  27.116  27.591  1.00  0.00     0.010 A 
ATOM     15  C   UNL A   1      41.613  25.274  28.353  1.00  0.00     0.010 A 
ATOM     16  C   UNL A   1      42.003  26.618  28.469  1.00  0.00    -0.014 A 
BRANCH  16  17
ATOM     17  C   UNL A   1      41.535  27.501  29.562  1.00  0.00     0.031 A 
ATOM     18  C   UNL A   1      42.379  27.602  30.801  1.00  0.00     0.074 A 
ATOM     19  C   UNL A   1      40.481  28.320  29.371  1.00  0.00     0.049 A 
ATOM     20  N   UNL A   1      42.140  28.240  31.915  1.00  0.00    -0.248 NA
ATOM     21  C   UNL A   1      43.673  26.894  30.784  1.00  0.00     0.031 C 
ATOM     22  C   UNL A   1      39.680  28.400  28.143  1.00  0.00     0.029 A 
ATOM     23  N   UNL A   1      39.937  29.287  30.175  1.00  0.00    -0.354 N 
ATOM     24  C   UNL A   1      43.223  27.967  32.741  1.00  0.00     0.074 A 
ATOM     25  C   UNL A   1      44.122  27.106  32.010  1.00  0.00     0.031 C 
ATOM     26  C   UNL A   1      38.811  29.416  28.246  1.00  0.00     0.029 A 
ATOM     27  C   UNL A   1      38.905  29.981  29.584  1.00  0.00     0.049 A 
ATOM     28  H   UNL A   1      40.255  29.470  31.089  1.00  0.00     0.167 HD
ATOM     29  C   UNL A   1      43.440  28.402  34.002  1.00  0.00     0.037 A 
ATOM     30  C   UNL A   1      38.100  30.935  30.089  1.00  0.00     0.037 A 
ATOM     31  C   UNL A   1      42.544  29.289  34.689  1.00  0.00     0.049 A 
ATOM     32  C   UNL A   1      38.308  31.329  31.526  1.00  0.00     0.074 A 
ATOM     33  C   UNL A   1      42.591  29.726  35.999  1.00  0.00     0.029 A 
ATOM     34  N   UNL A   1      41.445  29.895  34.097  1.00  0.00    -0.354 N 
ATOM     35  N   UNL A   1      39.257  30.957  32.353  1.00  0.00    -0.248 NA
ATOM     36  C   UNL A   1      37.319  32.241  32.112  1.00  0.00     0.031 C 
ATOM     37  C   UNL A   1      41.499  30.575  36.206  1.00  0.00     0.029 A 
ATOM     38  C   UNL A   1      40.799  30.700  35.015  1.00  0.00     0.049 A 
ATOM     39  H   UNL A   1      41.167  29.769  33.160  1.00  0.00     0.167 HD
ATOM     40  C   UNL A   1      38.979  31.586  33.558  1.00  0.00     0.074 A 
ATOM     41  C   UNL A   1      37.793  32.392  33.341  1.00  0.00     0.031 C 
ATOM     42  C   UNL A   1      39.628  31.494  34.745  1.00  0.00     0.037 A 
BRANCH  29  43
ATOM     43  C   UNL A   1      44.649  27.876  34.713  1.00  0.00     0.057 A 
ATOM     44  C   UNL A   1      45.852  28.593  34.686  1.00  0.00     0.134 A 
ATOM     45  C   UNL A   1      44.627  26.677  35.437  1.00  0.00     0.134 A 
ATOM     46  F   UNL A   1      45.936  29.755  34.022  1.00  0.00    -0.206 F 
ATOM     47  C   UNL A   1      46.992  28.132  35.348  1.00  0.00     0.040 A 
ATOM     48  C   UNL A   1      45.755  26.217  36.119  1.00  0.00     0.040 A 
ATOM     49  F   UNL A   1      43.496  25.961  35.532  1.00  0.00    -0.206 F 
ATOM     50  C   UNL A   1      46.944  26.942  36.071  1.00  0.00     0.006 A 
ENDBRANCH  29  43
BRANCH  30  51
ATOM     51  C   UNL A   1      36.999  31.517  29.275  1.00  0.00     0.057 A 
ATOM     52  C   UNL A   1      35.815  30.808  29.029  1.00  0.00     0.134 A 
ATOM     53  C   UNL A   1      37.089  32.806  28.737  1.00  0.00     0.134 A 
ATOM     54  F   UNL A   1      35.653  29.567  29.517  1.00  0.00    -0.206 F 
ATOM     55  C   UNL A   1      34.775  31.345  28.267  1.00  0.00     0.040 A 
ATOM     56  C   UNL A   1      36.043  33.370  28.000  1.00  0.00     0.040 A 
ATOM     57  F   UNL A   1      38.183  33.551  28.950  1.00  0.00    -0.206 F 
ATOM     58  C   UNL A   1      34.884  32.635  27.757  1.00  0.00     0.006 A 
ENDBRANCH  30  51
BRANCH  42  59
ATOM     59  C   UNL A   1      39.077  32.299  35.878  1.00  0.00     0.057 A 
ATOM     60  C   UNL A   1      39.479  33.626  36.069  1.00  0.00     0.134 A 
ATOM     61  C   UNL A   1      38.203  31.737  36.817  1.00  0.00     0.134 A 
ATOM     62  F   UNL A   1      40.323  34.213  35.207  1.00  0.00    -0.206 F 
ATOM     63  C   UNL A   1      39.037  34.365  37.164  1.00  0.00     0.040 A 
ATOM     64  C   UNL A   1      37.735  32.475  37.902  1.00  0.00     0.040 A 
ATOM     65  F   UNL A   1      37.776  30.473  36.677  1.00  0.00    -0.206 F 
ATOM     66  C   UNL A   1      38.160  33.791  38.082  1.00  0.00     0.006 A 
ENDBRANCH  42  59
ENDBRANCH  16  17
ENDBRANCH   9  11
ENDBRANCH   8   9
ENDBRANCH   7   8
ENDBRANCH   6   7
ENDBRANCH   5   6
ENDBRANCH   4   5
ENDBRANCH   3   4
ENDBRANCH   2   3
ENDBRANCH   1   2
BRANCH   1  67
ATOM     67  C   UNL A   1      38.097  23.898  26.528  1.00  0.00     0.188 C 
BRANCH  67  68
ATOM     68  O   UNL A   1      36.960  23.653  25.725  1.00  0.00    -0.376 OA
BRANCH  68  69
ATOM     69  C   UNL A   1      36.097  22.591  26.119  1.00  0.00     0.202 C 
BRANCH  69  70
ATOM     70  C   UNL A   1      35.145  21.901  25.110  1.00  0.00     0.261 C 
BRANCH  70  71
ATOM     71  O   UNL A   1      34.211  22.757  24.419  1.00  0.00    -0.462 OA
BRANCH  71  72
ATOM     72  C   UNL A   1      32.973  22.867  24.979  1.00  0.00     0.328 C 
ATOM     73  O   UNL A   1      32.623  22.187  25.945  1.00  0.00    -0.250 OA
BRANCH  72  74
ATOM     74  C   UNL A   1      32.103  24.052  24.480  1.00  0.00     0.194 C 
BRANCH  74  75
ATOM     75  C   UNL A   1      31.556  24.188  23.053  1.00  0.00     0.065 C 
BRANCH  75  76
ATOM     76  C   UNL A   1      32.289  25.161  22.157  1.00  0.00     0.159 C 
BRANCH  76  77
ATOM     77  O   UNL A   1      33.617  24.698  21.969  1.00  0.00    -0.396 OA
ATOM     78  H   UNL A   1      33.598  23.781  21.653  1.00  0.00     0.210 HD
ENDBRANCH  76  77
ENDBRANCH  75  76
ENDBRANCH  74  75
BRANCH  74  79
ATOM     79  N   UNL A   1      30.961  24.187  25.401  1.00  0.00    -0.338 N 
ATOM     80  C   UNL A   1      30.225  25.284  25.736  1.00  0.00     0.258 C 
ATOM     81  H   UNL A   1      30.686  23.352  25.845  1.00  0.00     0.164 HD
ATOM     82  O   UNL A   1      29.345  25.199  26.600  1.00  0.00    -0.269 OA
BRANCH  80  83
ATOM     83  C   UNL A   1      30.426  26.577  25.073  1.00  0.00     0.118 A 
ATOM     84  C   UNL A   1      29.610  26.983  24.014  1.00  0.00     0.139 A 
ATOM     85  C   UNL A   1      31.365  27.466  25.601  1.00  0.00     0.216 A 
ATOM     86  F   UNL A   1      28.668  26.170  23.515  1.00  0.00    -0.206 F 
ATOM     87  C   UNL A   1      29.751  28.247  23.446  1.00  0.00     0.047 A 
ATOM     88  C   UNL A   1      31.490  28.746  25.057  1.00  0.00     0.305 A 
ATOM     89  F   UNL A   1      32.133  27.073  26.628  1.00  0.00    -0.198 F 
ATOM     90  C   UNL A   1      30.688  29.138  23.969  1.00  0.00     0.092 A 
BRANCH  88  91
ATOM     91  N   UNL A   1      32.435  29.709  25.622  1.00  0.00     0.065 N 
ATOM     92  O   UNL A   1      33.646  29.476  25.541  1.00  0.00    -0.258 OA
ATOM     93  O   UNL A   1      31.955  30.726  26.146  1.00  0.00    -0.258 OA
ENDBRANCH  88  91
ENDBRANCH  80  83
ENDBRANCH  74  79
ENDBRANCH  72  74
ENDBRANCH  71  72
ENDBRANCH  70  71
ENDBRANCH  69  70
ENDBRANCH  68  69
ENDBRANCH  67  68
ENDBRANCH   1  67
TORSDOF 26
ENDMDL
MODEL 2
REMARK VINA RESULT:      -9.4      4.721     10.103
REMARK SMILES O=C(OCCOCCOCCOCCOC(=O)[C@@H](CCO)NC(=O)c1c(F)ccc([N+](=O)[O-])c1F)c1ccc(-c2c3nc(c(-c4c(F)cccc4F)c4ccc([nH]4)c(-c4c(F)cccc4F)c4nc(c(-c5c(F)cccc5F)c5ccc2[nH]5)C=C4)C=C3)cc1
REMARK SMILES IDX 10 1 9 2 8 3 7 4 6 5 5 6 4 7 3 8 2 9 1 10 36 11 37 12 89 13
REMARK SMILES IDX 38 14 88 15 39 16 40 17 41 18 82 19 42 20 87 21 81 22 83 23
REMARK SMILES IDX 43 24 86 25 80 26 79 27 44 29 70 30 53 31 69 32 54 33 57 34
REMARK SMILES IDX 68 35 84 36 55 37 56 38 67 40 85 41 58 42 45 43 46 44 51 45
REMARK SMILES IDX 47 46 48 47 50 48 52 49 49 50 71 51 72 52 77 53 73 54 74 55
REMARK SMILES IDX 76 56 78 57 75 58 59 59 60 60 65 61 61 62 62 63 64 64 66 65
REMARK SMILES IDX 63 66 11 67 12 68 13 69 14 70 15 71 16 72 17 73 18 74 19 75
REMARK SMILES IDX 20 76 21 77 22 79 23 80 24 82 25 83 26 84 34 85 27 86 28 87
REMARK SMILES IDX 30 88 35 89 29 90 31 91 32 92 33 93
REMARK H PARENT 83 28 57 39 21 78 22 81
REMARK Flexibility Score: inf
ROOT
ATOM      1  C   UNL A   1      32.267  27.810  24.022  1.00  0.00     0.188 C 
ENDROOT
BRANCH   1   2
ATOM      2  O   UNL A   1      32.762  28.816  24.904  1.00  0.00    -0.377 OA
BRANCH   2   3
ATOM      3  C   UNL A   1      31.886  29.826  25.395  1.00  0.00     0.188 C 
BRANCH   3   4
ATOM      4  C   UNL A   1      32.368  30.489  26.671  1.00  0.00     0.188 C 
BRANCH   4   5
ATOM      5  O   UNL A   1      33.335  29.651  27.273  1.00  0.00    -0.376 OA
BRANCH   5   6
ATOM      6  C   UNL A   1      34.596  30.203  27.585  1.00  0.00     0.202 C 
BRANCH   6   7
ATOM      7  C   UNL A   1      34.614  31.408  28.527  1.00  0.00     0.261 C 
BRANCH   7   8
ATOM      8  O   UNL A   1      35.778  31.549  29.376  1.00  0.00    -0.460 OA
BRANCH   8   9
ATOM      9  C   UNL A   1      36.390  30.623  30.148  1.00  0.00     0.338 C 
ATOM     10  O   UNL A   1      35.891  30.282  31.224  1.00  0.00    -0.246 OA
BRANCH   9  11
ATOM     11  C   UNL A   1      37.667  30.009  29.736  1.00  0.00     0.060 A 
ATOM     12  C   UNL A   1      38.485  29.358  30.647  1.00  0.00     0.016 A 
ATOM     13  C   UNL A   1      38.017  29.957  28.385  1.00  0.00     0.016 A 
ATOM     14  C   UNL A   1      39.754  28.943  30.306  1.00  0.00     0.010 A 
ATOM     15  C   UNL A   1      39.231  29.375  27.998  1.00  0.00     0.010 A 
ATOM     16  C   UNL A   1      40.143  28.936  28.971  1.00  0.00    -0.014 A 
BRANCH  16  17
ATOM     17  C   UNL A   1      41.546  28.581  28.657  1.00  0.00     0.031 A 
ATOM     18  C   UNL A   1      41.837  27.181  28.197  1.00  0.00     0.074 A 
ATOM     19  C   UNL A   1      42.497  29.536  28.616  1.00  0.00     0.049 A 
ATOM     20  N   UNL A   1      42.985  26.614  27.944  1.00  0.00    -0.248 NA
ATOM     21  C   UNL A   1      40.675  26.297  27.987  1.00  0.00     0.031 C 
ATOM     22  C   UNL A   1      42.284  30.959  28.907  1.00  0.00     0.029 A 
ATOM     23  N   UNL A   1      43.817  29.476  28.251  1.00  0.00    -0.354 N 
ATOM     24  C   UNL A   1      42.686  25.302  27.597  1.00  0.00     0.074 A 
ATOM     25  C   UNL A   1      41.253  25.148  27.673  1.00  0.00     0.031 C 
ATOM     26  C   UNL A   1      43.403  31.643  28.627  1.00  0.00     0.029 A 
ATOM     27  C   UNL A   1      44.448  30.699  28.256  1.00  0.00     0.049 A 
ATOM     28  H   UNL A   1      44.270  28.637  28.008  1.00  0.00     0.167 HD
ATOM     29  C   UNL A   1      43.542  24.317  27.248  1.00  0.00     0.037 A 
ATOM     30  C   UNL A   1      45.738  31.011  28.028  1.00  0.00     0.037 A 
ATOM     31  C   UNL A   1      44.961  24.512  27.146  1.00  0.00     0.049 A 
ATOM     32  C   UNL A   1      46.683  29.878  27.734  1.00  0.00     0.074 A 
ATOM     33  C   UNL A   1      45.949  23.579  26.902  1.00  0.00     0.029 A 
ATOM     34  N   UNL A   1      45.585  25.746  27.261  1.00  0.00    -0.354 N 
ATOM     35  N   UNL A   1      46.414  28.607  27.547  1.00  0.00    -0.248 NA
ATOM     36  C   UNL A   1      48.111  30.211  27.658  1.00  0.00     0.031 C 
ATOM     37  C   UNL A   1      47.178  24.247  26.899  1.00  0.00     0.029 A 
ATOM     38  C   UNL A   1      46.949  25.601  27.097  1.00  0.00     0.049 A 
ATOM     39  H   UNL A   1      45.124  26.599  27.433  1.00  0.00     0.167 HD
ATOM     40  C   UNL A   1      47.636  27.987  27.334  1.00  0.00     0.074 A 
ATOM     41  C   UNL A   1      48.643  29.030  27.378  1.00  0.00     0.031 C 
ATOM     42  C   UNL A   1      47.910  26.674  27.138  1.00  0.00     0.037 A 
BRANCH  29  43
ATOM     43  C   UNL A   1      42.965  22.954  27.017  1.00  0.00     0.057 A 
ATOM     44  C   UNL A   1      42.604  22.147  28.104  1.00  0.00     0.134 A 
ATOM     45  C   UNL A   1      42.750  22.442  25.732  1.00  0.00     0.134 A 
ATOM     46  F   UNL A   1      42.774  22.583  29.361  1.00  0.00    -0.206 F 
ATOM     47  C   UNL A   1      42.056  20.876  27.920  1.00  0.00     0.040 A 
ATOM     48  C   UNL A   1      42.183  21.180  25.535  1.00  0.00     0.040 A 
ATOM     49  F   UNL A   1      43.040  23.179  24.648  1.00  0.00    -0.206 F 
ATOM     50  C   UNL A   1      41.840  20.391  26.632  1.00  0.00     0.006 A 
ENDBRANCH  29  43
BRANCH  30  51
ATOM     51  C   UNL A   1      46.218  32.415  28.140  1.00  0.00     0.057 A 
ATOM     52  C   UNL A   1      46.800  32.899  29.321  1.00  0.00     0.134 A 
ATOM     53  C   UNL A   1      46.128  33.308  27.066  1.00  0.00     0.134 A 
ATOM     54  F   UNL A   1      46.925  32.100  30.392  1.00  0.00    -0.206 F 
ATOM     55  C   UNL A   1      47.254  34.214  29.436  1.00  0.00     0.040 A 
ATOM     56  C   UNL A   1      46.608  34.618  27.156  1.00  0.00     0.040 A 
ATOM     57  F   UNL A   1      45.603  32.908  25.899  1.00  0.00    -0.206 F 
ATOM     58  C   UNL A   1      47.167  35.076  28.348  1.00  0.00     0.006 A 
ENDBRANCH  30  51
BRANCH  42  59
ATOM     59  C   UNL A   1      49.346  26.307  26.939  1.00  0.00     0.057 A 
ATOM     60  C   UNL A   1      49.904  26.285  25.656  1.00  0.00     0.134 A 
ATOM     61  C   UNL A   1      50.154  25.911  28.013  1.00  0.00     0.134 A 
ATOM     62  F   UNL A   1      49.173  26.645  24.589  1.00  0.00    -0.206 F 
ATOM     63  C   UNL A   1      51.217  25.870  25.444  1.00  0.00     0.040 A 
ATOM     64  C   UNL A   1      51.476  25.519  27.816  1.00  0.00     0.040 A 
ATOM     65  F   UNL A   1      49.675  25.924  29.265  1.00  0.00    -0.206 F 
ATOM     66  C   UNL A   1      52.008  25.488  26.527  1.00  0.00     0.006 A 
ENDBRANCH  42  59
ENDBRANCH  16  17
ENDBRANCH   9  11
ENDBRANCH   8   9
ENDBRANCH   7   8
ENDBRANCH   6   7
ENDBRANCH   5   6
ENDBRANCH   4   5
ENDBRANCH   3   4
ENDBRANCH   2   3
ENDBRANCH   1   2
BRANCH   1  67
ATOM     67  C   UNL A   1      31.604  26.571  24.646  1.00  0.00     0.188 C 
BRANCH  67  68
ATOM     68  O   UNL A   1      32.262  25.373  24.284  1.00  0.00    -0.376 OA
BRANCH  68  69
ATOM     69  C   UNL A   1      32.729  25.264  22.943  1.00  0.00     0.202 C 
BRANCH  69  70
ATOM     70  C   UNL A   1      33.386  23.963  22.416  1.00  0.00     0.261 C 
BRANCH  70  71
ATOM     71  O   UNL A   1      34.781  23.773  22.732  1.00  0.00    -0.462 OA
BRANCH  71  72
ATOM     72  C   UNL A   1      35.061  23.436  24.023  1.00  0.00     0.328 C 
ATOM     73  O   UNL A   1      35.409  24.268  24.862  1.00  0.00    -0.250 OA
BRANCH  72  74
ATOM     74  C   UNL A   1      34.701  21.984  24.441  1.00  0.00     0.194 C 
BRANCH  74  75
ATOM     75  C   UNL A   1      35.619  21.060  25.250  1.00  0.00     0.065 C 
BRANCH  75  76
ATOM     76  C   UNL A   1      37.083  21.092  24.874  1.00  0.00     0.159 C 
BRANCH  76  77
ATOM     77  O   UNL A   1      37.581  19.763  24.862  1.00  0.00    -0.396 OA
ATOM     78  H   UNL A   1      37.456  19.379  23.979  1.00  0.00     0.210 HD
ENDBRANCH  76  77
ENDBRANCH  75  76
ENDBRANCH  74  75
BRANCH  74  79
ATOM     79  N   UNL A   1      33.402  22.027  25.134  1.00  0.00    -0.338 N 
ATOM     80  C   UNL A   1      32.322  21.202  25.033  1.00  0.00     0.258 C 
ATOM     81  H   UNL A   1      33.297  22.770  25.772  1.00  0.00     0.164 HD
ATOM     82  O   UNL A   1      31.285  21.461  25.654  1.00  0.00    -0.269 OA
BRANCH  80  83
ATOM     83  C   UNL A   1      32.360  19.981  24.221  1.00  0.00     0.118 A 
ATOM     84  C   UNL A   1      32.149  20.022  22.841  1.00  0.00     0.139 A 
ATOM     85  C   UNL A   1      32.743  18.782  24.826  1.00  0.00     0.216 A 
ATOM     86  F   UNL A   1      31.825  21.166  22.224  1.00  0.00    -0.206 F 
ATOM     87  C   UNL A   1      32.271  18.872  22.065  1.00  0.00     0.047 A 
ATOM     88  C   UNL A   1      32.898  17.631  24.049  1.00  0.00     0.305 A 
ATOM     89  F   UNL A   1      32.958  18.756  26.150  1.00  0.00    -0.198 F 
ATOM     90  C   UNL A   1      32.653  17.671  22.664  1.00  0.00     0.092 A 
BRANCH  88  91
ATOM     91  N   UNL A   1      33.341  16.376  24.654  1.00  0.00     0.065 N 
ATOM     92  O   UNL A   1      32.744  15.947  25.647  1.00  0.00    -0.258 OA
ATOM     93  O   UNL A   1      34.299  15.800  24.115  1.00  0.00    -0.258 OA
ENDBRANCH  88  91
ENDBRANCH  80  83
ENDBRANCH  74  79
ENDBRANCH  72  74
ENDBRANCH  71  72
ENDBRANCH  70  71
ENDBRANCH  69  70
ENDBRANCH  68  69
ENDBRANCH  67  68
ENDBRANCH   1  67
TORSDOF 26
ENDMDL
MODEL 3
REMARK VINA RESULT:      -9.4      4.628     10.045
REMARK SMILES O=C(OCCOCCOCCOCCOC(=O)[C@@H](CCO)NC(=O)c1c(F)ccc([N+](=O)[O-])c1F)c1ccc(-c2c3nc(c(-c4c(F)cccc4F)c4ccc([nH]4)c(-c4c(F)cccc4F)c4nc(c(-c5c(F)cccc5F)c5ccc2[nH]5)C=C4)C=C3)cc1
REMARK SMILES IDX 10 1 9 2 8 3 7 4 6 5 5 6 4 7 3 8 2 9 1 10 36 11 37 12 89 13
REMARK SMILES IDX 38 14 88 15 39 16 40 17 41 18 82 19 42 20 87 21 81 22 83 23
REMARK SMILES IDX 43 24 86 25 80 26 79 27 44 29 70 30 53 31 69 32 54 33 57 34
REMARK SMILES IDX 68 35 84 36 55 37 56 38 67 40 85 41 58 42 45 43 46 44 51 45
REMARK SMILES IDX 47 46 48 47 50 48 52 49 49 50 71 51 72 52 77 53 73 54 74 55
REMARK SMILES IDX 76 56 78 57 75 58 59 59 60 60 65 61 61 62 62 63 64 64 66 65
REMARK SMILES IDX 63 66 11 67 12 68 13 69 14 70 15 71 16 72 17 73 18 74 19 75
REMARK SMILES IDX 20 76 21 77 22 79 23 80 24 82 25 83 26 84 34 85 27 86 28 87
REMARK SMILES IDX 30 88 35 89 29 90 31 91 32 92 33 93
REMARK H PARENT 83 28 57 39 21 78 22 81
REMARK Flexibility Score: inf
ROOT
ATOM      1  C   UNL A   1      32.651  27.592  23.926  1.00  0.00     0.188 C 
ENDROOT
BRANCH   1   2
ATOM      2  O   UNL A   1      32.925  28.749  24.714  1.00  0.00    -0.377 OA
BRANCH   2   3
ATOM      3  C   UNL A   1      31.908  29.723  24.926  1.00  0.00     0.188 C 
BRANCH   3   4
ATOM      4  C   UNL A   1      32.052  30.487  26.229  1.00  0.00     0.188 C 
BRANCH   4   5
ATOM      5  O   UNL A   1      32.832  29.712  27.118  1.00  0.00    -0.376 OA
BRANCH   5   6
ATOM      6  C   UNL A   1      34.114  30.188  27.470  1.00  0.00     0.202 C 
BRANCH   6   7
ATOM      7  C   UNL A   1      34.193  31.591  28.074  1.00  0.00     0.261 C 
BRANCH   7   8
ATOM      8  O   UNL A   1      35.382  31.902  28.838  1.00  0.00    -0.460 OA
BRANCH   8   9
ATOM      9  C   UNL A   1      36.043  31.138  29.738  1.00  0.00     0.338 C 
ATOM     10  O   UNL A   1      35.630  31.044  30.897  1.00  0.00    -0.246 OA
BRANCH   9  11
ATOM     11  C   UNL A   1      37.273  30.412  29.366  1.00  0.00     0.060 A 
ATOM     12  C   UNL A   1      37.996  29.687  30.299  1.00  0.00     0.016 A 
ATOM     13  C   UNL A   1      37.662  30.334  28.027  1.00  0.00     0.016 A 
ATOM     14  C   UNL A   1      39.233  29.159  29.999  1.00  0.00     0.010 A 
ATOM     15  C   UNL A   1      38.832  29.646  27.677  1.00  0.00     0.010 A 
ATOM     16  C   UNL A   1      39.666  29.122  28.678  1.00  0.00    -0.014 A 
BRANCH  16  17
ATOM     17  C   UNL A   1      41.041  28.642  28.410  1.00  0.00     0.031 A 
ATOM     18  C   UNL A   1      42.185  29.575  28.691  1.00  0.00     0.074 A 
ATOM     19  C   UNL A   1      41.262  27.350  28.095  1.00  0.00     0.049 A 
ATOM     20  N   UNL A   1      43.460  29.414  28.464  1.00  0.00    -0.248 NA
ATOM     21  C   UNL A   1      41.849  30.865  29.323  1.00  0.00     0.031 C 
ATOM     22  C   UNL A   1      40.222  26.325  27.939  1.00  0.00     0.029 A 
ATOM     23  N   UNL A   1      42.429  26.655  27.913  1.00  0.00    -0.354 N 
ATOM     24  C   UNL A   1      44.065  30.596  28.873  1.00  0.00     0.074 A 
ATOM     25  C   UNL A   1      43.025  31.470  29.362  1.00  0.00     0.031 C 
ATOM     26  C   UNL A   1      40.800  25.127  27.772  1.00  0.00     0.029 A 
ATOM     27  C   UNL A   1      42.242  25.310  27.686  1.00  0.00     0.049 A 
ATOM     28  H   UNL A   1      43.317  27.078  27.942  1.00  0.00     0.167 HD
ATOM     29  C   UNL A   1      45.377  30.915  28.839  1.00  0.00     0.037 A 
ATOM     30  C   UNL A   1      43.137  24.347  27.396  1.00  0.00     0.037 A 
ATOM     31  C   UNL A   1      46.392  30.009  28.382  1.00  0.00     0.049 A 
ATOM     32  C   UNL A   1      44.580  24.755  27.274  1.00  0.00     0.074 A 
ATOM     33  C   UNL A   1      47.742  30.237  28.200  1.00  0.00     0.029 A 
ATOM     34  N   UNL A   1      46.157  28.680  28.056  1.00  0.00    -0.354 N 
ATOM     35  N   UNL A   1      45.131  25.919  27.526  1.00  0.00    -0.248 NA
ATOM     36  C   UNL A   1      45.517  23.734  26.791  1.00  0.00     0.031 C 
ATOM     37  C   UNL A   1      48.319  29.051  27.735  1.00  0.00     0.029 A 
ATOM     38  C   UNL A   1      47.337  28.074  27.669  1.00  0.00     0.049 A 
ATOM     39  H   UNL A   1      45.279  28.235  28.096  1.00  0.00     0.167 HD
ATOM     40  C   UNL A   1      46.479  25.773  27.231  1.00  0.00     0.074 A 
ATOM     41  C   UNL A   1      46.666  24.396  26.817  1.00  0.00     0.031 C 
ATOM     42  C   UNL A   1      47.473  26.694  27.278  1.00  0.00     0.037 A 
BRANCH  29  43
ATOM     43  C   UNL A   1      45.759  32.304  29.250  1.00  0.00     0.057 A 
ATOM     44  C   UNL A   1      46.135  32.570  30.574  1.00  0.00     0.134 A 
ATOM     45  C   UNL A   1      45.772  33.373  28.347  1.00  0.00     0.134 A 
ATOM     46  F   UNL A   1      46.155  31.587  31.486  1.00  0.00    -0.206 F 
ATOM     47  C   UNL A   1      46.504  33.853  30.984  1.00  0.00     0.040 A 
ATOM     48  C   UNL A   1      46.160  34.656  28.741  1.00  0.00     0.040 A 
ATOM     49  F   UNL A   1      45.458  33.178  27.057  1.00  0.00    -0.206 F 
ATOM     50  C   UNL A   1      46.521  34.900  30.065  1.00  0.00     0.006 A 
ENDBRANCH  29  43
BRANCH  30  51
ATOM     51  C   UNL A   1      42.699  22.949  27.133  1.00  0.00     0.057 A 
ATOM     52  C   UNL A   1      42.369  22.075  28.179  1.00  0.00     0.134 A 
ATOM     53  C   UNL A   1      42.578  22.453  25.830  1.00  0.00     0.134 A 
ATOM     54  F   UNL A   1      42.457  22.481  29.456  1.00  0.00    -0.206 F 
ATOM     55  C   UNL A   1      41.957  20.762  27.943  1.00  0.00     0.040 A 
ATOM     56  C   UNL A   1      42.134  21.151  25.577  1.00  0.00     0.040 A 
ATOM     57  F   UNL A   1      42.855  23.240  24.780  1.00  0.00    -0.206 F 
ATOM     58  C   UNL A   1      41.829  20.299  26.637  1.00  0.00     0.006 A 
ENDBRANCH  30  51
BRANCH  42  59
ATOM     59  C   UNL A   1      48.840  26.230  26.890  1.00  0.00     0.057 A 
ATOM     60  C   UNL A   1      49.679  25.624  27.833  1.00  0.00     0.134 A 
ATOM     61  C   UNL A   1      49.348  26.446  25.603  1.00  0.00     0.134 A 
ATOM     62  F   UNL A   1      49.249  25.402  29.084  1.00  0.00    -0.206 F 
ATOM     63  C   UNL A   1      50.984  25.257  27.510  1.00  0.00     0.040 A 
ATOM     64  C   UNL A   1      50.643  26.059  25.262  1.00  0.00     0.040 A 
ATOM     65  F   UNL A   1      48.584  27.012  24.657  1.00  0.00    -0.206 F 
ATOM     66  C   UNL A   1      51.468  25.472  26.221  1.00  0.00     0.006 A 
ENDBRANCH  42  59
ENDBRANCH  16  17
ENDBRANCH   9  11
ENDBRANCH   8   9
ENDBRANCH   7   8
ENDBRANCH   6   7
ENDBRANCH   5   6
ENDBRANCH   4   5
ENDBRANCH   3   4
ENDBRANCH   2   3
ENDBRANCH   1   2
BRANCH   1  67
ATOM     67  C   UNL A   1      32.383  26.269  24.663  1.00  0.00     0.188 C 
BRANCH  67  68
ATOM     68  O   UNL A   1      33.179  25.211  24.168  1.00  0.00    -0.376 OA
BRANCH  68  69
ATOM     69  C   UNL A   1      32.788  24.620  22.933  1.00  0.00     0.202 C 
BRANCH  69  70
ATOM     70  C   UNL A   1      33.483  23.348  22.385  1.00  0.00     0.261 C 
BRANCH  70  71
ATOM     71  O   UNL A   1      34.909  23.259  22.582  1.00  0.00    -0.462 OA
BRANCH  71  72
ATOM     72  C   UNL A   1      35.319  22.930  23.840  1.00  0.00     0.328 C 
ATOM     73  O   UNL A   1      35.827  23.751  24.605  1.00  0.00    -0.250 OA
BRANCH  72  74
ATOM     74  C   UNL A   1      34.906  21.520  24.344  1.00  0.00     0.194 C 
BRANCH  74  75
ATOM     75  C   UNL A   1      35.781  20.623  25.228  1.00  0.00     0.065 C 
BRANCH  75  76
ATOM     76  C   UNL A   1      37.254  20.596  24.887  1.00  0.00     0.159 C 
BRANCH  76  77
ATOM     77  O   UNL A   1      37.915  21.608  25.632  1.00  0.00    -0.396 OA
ATOM     78  H   UNL A   1      37.569  21.619  26.539  1.00  0.00     0.210 HD
ENDBRANCH  76  77
ENDBRANCH  75  76
ENDBRANCH  74  75
BRANCH  74  79
ATOM     79  N   UNL A   1      33.598  21.647  25.008  1.00  0.00    -0.338 N 
ATOM     80  C   UNL A   1      32.513  20.823  24.981  1.00  0.00     0.258 C 
ATOM     81  H   UNL A   1      33.490  22.457  25.558  1.00  0.00     0.164 HD
ATOM     82  O   UNL A   1      31.468  21.156  25.554  1.00  0.00    -0.269 OA
BRANCH  80  83
ATOM     83  C   UNL A   1      32.553  19.520  24.309  1.00  0.00     0.118 A 
ATOM     84  C   UNL A   1      32.352  19.410  22.931  1.00  0.00     0.139 A 
ATOM     85  C   UNL A   1      32.928  18.394  25.045  1.00  0.00     0.216 A 
ATOM     86  F   UNL A   1      32.036  20.480  22.189  1.00  0.00    -0.206 F 
ATOM     87  C   UNL A   1      32.476  18.181  22.287  1.00  0.00     0.047 A 
ATOM     88  C   UNL A   1      33.084  17.165  24.400  1.00  0.00     0.305 A 
ATOM     89  F   UNL A   1      33.132  18.514  26.365  1.00  0.00    -0.198 F 
ATOM     90  C   UNL A   1      32.849  17.053  23.017  1.00  0.00     0.092 A 
BRANCH  88  91
ATOM     91  N   UNL A   1      33.519  15.982  25.143  1.00  0.00     0.065 N 
ATOM     92  O   UNL A   1      34.721  15.697  25.160  1.00  0.00    -0.258 OA
ATOM     93  O   UNL A   1      32.641  15.335  25.733  1.00  0.00    -0.258 OA
ENDBRANCH  88  91
ENDBRANCH  80  83
ENDBRANCH  74  79
ENDBRANCH  72  74
ENDBRANCH  71  72
ENDBRANCH  70  71
ENDBRANCH  69  70
ENDBRANCH  68  69
ENDBRANCH  67  68
ENDBRANCH   1  67
TORSDOF 26
ENDMDL
