MODEL 1
REMARK VINA RESULT:     -10.4      0.000      0.000
REMARK SMILES CC(=O)Nc1cccc(-c2ccc(F)c(C(=O)OCCOCCOCCOCCOC(=O)c3ccc(-c4c5nc(c(-c6c(F)cccc6F)c6ccc([nH]6)c(-c6c(F)cccc6F)c6nc(c(-c7c(F)cccc7F)c7ccc4[nH]7)C=C6)C=C5)cc3)c2)c1
REMARK SMILES IDX 24 1 23 2 22 3 21 4 20 5 19 6 18 7 16 8 17 9 15 10 10 11
REMARK SMILES IDX 11 12 87 13 12 14 13 15 14 16 9 17 5 18 6 19 88 20 7 21 8 22
REMARK SMILES IDX 4 23 1 24 2 25 3 26 25 28 26 29 27 30 28 31 29 32 30 33
REMARK SMILES IDX 31 34 32 35 33 36 34 37 86 38 35 39 85 40 36 41 37 42 38 43
REMARK SMILES IDX 79 44 39 45 84 46 78 47 80 48 40 49 83 50 77 51 76 52 41 54
REMARK SMILES IDX 67 55 50 56 66 57 51 58 54 59 65 60 81 61 52 62 53 63 64 65
REMARK SMILES IDX 82 66 55 67 42 68 43 69 48 70 44 71 45 72 47 73 49 74 46 75
REMARK SMILES IDX 68 76 69 77 74 78 70 79 71 80 73 81 75 82 72 83 56 84 57 85
REMARK SMILES IDX 62 86 58 87 59 88 61 89 63 90 60 91
REMARK H PARENT 4 27 80 53 54 64
REMARK Flexibility Score: inf
ROOT
ATOM      1  O   UNL A   1      33.124  31.063  27.267  1.00  0.00    -0.377 OA
ENDROOT
BRANCH   1   2
ATOM      2  C   UNL A   1      33.553  29.807  26.770  1.00  0.00     0.188 C 
BRANCH   2   3
ATOM      3  C   UNL A   1      32.756  29.165  25.623  1.00  0.00     0.188 C 
BRANCH   3   4
ATOM      4  O   UNL A   1      33.276  29.432  24.323  1.00  0.00    -0.376 OA
BRANCH   4   5
ATOM      5  C   UNL A   1      32.617  28.769  23.250  1.00  0.00     0.202 C 
BRANCH   5   6
ATOM      6  C   UNL A   1      33.580  27.972  22.368  1.00  0.00     0.261 C 
BRANCH   6   7
ATOM      7  O   UNL A   1      33.292  26.567  22.344  1.00  0.00    -0.460 OA
BRANCH   7   8
ATOM      8  C   UNL A   1      31.994  26.208  22.210  1.00  0.00     0.341 C 
ATOM      9  O   UNL A   1      31.251  26.489  21.288  1.00  0.00    -0.246 OA
BRANCH   8  10
ATOM     10  C   UNL A   1      31.678  25.301  23.329  1.00  0.00     0.096 A 
ATOM     11  C   UNL A   1      31.920  23.122  24.416  1.00  0.00    -0.017 A 
ATOM     12  C   UNL A   1      30.961  23.525  25.361  1.00  0.00     0.012 A 
ATOM     13  C   UNL A   1      32.248  24.024  23.386  1.00  0.00     0.027 A 
ATOM     14  C   UNL A   1      30.377  24.794  25.294  1.00  0.00     0.041 A 
ATOM     15  C   UNL A   1      30.746  25.681  24.287  1.00  0.00     0.137 A 
ATOM     16  F   UNL A   1      30.135  26.872  24.224  1.00  0.00    -0.206 F 
BRANCH  11  17
ATOM     17  C   UNL A   1      32.620  21.829  24.510  1.00  0.00    -0.016 A 
ATOM     18  C   UNL A   1      34.690  20.625  25.041  1.00  0.00     0.041 A 
ATOM     19  C   UNL A   1      34.080  19.429  24.662  1.00  0.00     0.026 A 
ATOM     20  C   UNL A   1      33.961  21.807  24.938  1.00  0.00     0.034 A 
ATOM     21  C   UNL A   1      32.744  19.419  24.251  1.00  0.00     0.003 A 
ATOM     22  C   UNL A   1      32.017  20.610  24.182  1.00  0.00     0.009 A 
BRANCH  18  23
ATOM     23  N   UNL A   1      36.037  20.588  25.441  1.00  0.00    -0.326 N 
ATOM     24  C   UNL A   1      37.063  22.166  23.798  1.00  0.00     0.114 C 
ATOM     25  C   UNL A   1      37.163  21.105  24.865  1.00  0.00     0.221 C 
ATOM     26  O   UNL A   1      38.267  20.732  25.271  1.00  0.00    -0.275 OA
ATOM     27  H   UNL A   1      36.197  20.106  26.284  1.00  0.00     0.169 HD
ENDBRANCH  18  23
ENDBRANCH  11  17
ENDBRANCH   8  10
ENDBRANCH   7   8
ENDBRANCH   6   7
ENDBRANCH   5   6
ENDBRANCH   4   5
ENDBRANCH   3   4
ENDBRANCH   2   3
ENDBRANCH   1   2
BRANCH   1  28
ATOM     28  C   UNL A   1      34.063  31.919  27.907  1.00  0.00     0.188 C 
BRANCH  28  29
ATOM     29  C   UNL A   1      33.805  33.434  28.050  1.00  0.00     0.188 C 
BRANCH  29  30
ATOM     30  O   UNL A   1      33.321  33.838  29.325  1.00  0.00    -0.376 OA
BRANCH  30  31
ATOM     31  C   UNL A   1      34.064  34.855  29.984  1.00  0.00     0.202 C 
BRANCH  31  32
ATOM     32  C   UNL A   1      34.869  34.334  31.177  1.00  0.00     0.261 C 
BRANCH  32  33
ATOM     33  O   UNL A   1      35.183  32.934  31.117  1.00  0.00    -0.460 OA
BRANCH  33  34
ATOM     34  C   UNL A   1      35.911  32.419  32.133  1.00  0.00     0.338 C 
ATOM     35  O   UNL A   1      35.560  32.229  33.282  1.00  0.00    -0.246 OA
BRANCH  34  36
ATOM     36  C   UNL A   1      37.185  31.955  31.557  1.00  0.00     0.060 A 
ATOM     37  C   UNL A   1      37.331  31.917  30.164  1.00  0.00     0.016 A 
ATOM     38  C   UNL A   1      38.238  31.594  32.398  1.00  0.00     0.016 A 
ATOM     39  C   UNL A   1      38.545  31.511  29.607  1.00  0.00     0.010 A 
ATOM     40  C   UNL A   1      39.442  31.169  31.840  1.00  0.00     0.010 A 
ATOM     41  C   UNL A   1      39.596  31.113  30.444  1.00  0.00    -0.014 A 
BRANCH  41  42
ATOM     42  C   UNL A   1      40.825  30.510  29.882  1.00  0.00     0.031 A 
ATOM     43  C   UNL A   1      42.003  31.399  29.615  1.00  0.00     0.074 A 
ATOM     44  C   UNL A   1      40.868  29.206  29.562  1.00  0.00     0.049 A 
ATOM     45  N   UNL A   1      43.133  31.119  29.021  1.00  0.00    -0.248 NA
ATOM     46  C   UNL A   1      41.885  32.794  30.070  1.00  0.00     0.031 C 
ATOM     47  C   UNL A   1      39.793  28.243  29.791  1.00  0.00     0.029 A 
ATOM     48  N   UNL A   1      41.852  28.477  28.945  1.00  0.00    -0.354 N 
ATOM     49  C   UNL A   1      43.861  32.302  29.026  1.00  0.00     0.074 A 
ATOM     50  C   UNL A   1      43.036  33.306  29.663  1.00  0.00     0.031 C 
ATOM     51  C   UNL A   1      40.166  27.052  29.290  1.00  0.00     0.029 A 
ATOM     52  C   UNL A   1      41.488  27.180  28.679  1.00  0.00     0.049 A 
ATOM     53  H   UNL A   1      42.735  28.848  28.715  1.00  0.00     0.167 HD
ATOM     54  C   UNL A   1      45.104  32.528  28.543  1.00  0.00     0.037 A 
ATOM     55  C   UNL A   1      42.133  26.221  27.987  1.00  0.00     0.037 A 
ATOM     56  C   UNL A   1      45.917  31.530  27.900  1.00  0.00     0.049 A 
ATOM     57  C   UNL A   1      43.483  26.518  27.390  1.00  0.00     0.074 A 
ATOM     58  C   UNL A   1      47.210  31.649  27.422  1.00  0.00     0.029 A 
ATOM     59  N   UNL A   1      45.504  30.235  27.628  1.00  0.00    -0.354 N 
ATOM     60  N   UNL A   1      44.186  27.623  27.443  1.00  0.00    -0.248 NA
ATOM     61  C   UNL A   1      44.124  25.437  26.626  1.00  0.00     0.031 C 
ATOM     62  C   UNL A   1      47.561  30.439  26.814  1.00  0.00     0.029 A 
ATOM     63  C   UNL A   1      46.503  29.556  26.951  1.00  0.00     0.049 A 
ATOM     64  H   UNL A   1      44.632  29.856  27.879  1.00  0.00     0.167 HD
ATOM     65  C   UNL A   1      45.355  27.369  26.736  1.00  0.00     0.074 A 
ATOM     66  C   UNL A   1      45.273  25.998  26.274  1.00  0.00     0.031 C 
ATOM     67  C   UNL A   1      46.401  28.195  26.489  1.00  0.00     0.037 A 
BRANCH  54  68
ATOM     68  C   UNL A   1      45.645  33.919  28.668  1.00  0.00     0.057 A 
ATOM     69  C   UNL A   1      46.399  34.322  29.776  1.00  0.00     0.134 A 
ATOM     70  C   UNL A   1      45.422  34.861  27.656  1.00  0.00     0.134 A 
ATOM     71  F   UNL A   1      46.630  33.471  30.788  1.00  0.00    -0.206 F 
ATOM     72  C   UNL A   1      46.897  35.622  29.885  1.00  0.00     0.040 A 
ATOM     73  C   UNL A   1      45.933  36.157  27.743  1.00  0.00     0.040 A 
ATOM     74  F   UNL A   1      44.707  34.537  26.568  1.00  0.00    -0.206 F 
ATOM     75  C   UNL A   1      46.668  36.541  28.862  1.00  0.00     0.006 A 
ENDBRANCH  54  68
BRANCH  55  76
ATOM     76  C   UNL A   1      41.495  24.897  27.788  1.00  0.00     0.057 A 
ATOM     77  C   UNL A   1      41.898  23.779  28.526  1.00  0.00     0.134 A 
ATOM     78  C   UNL A   1      40.475  24.717  26.845  1.00  0.00     0.134 A 
ATOM     79  F   UNL A   1      42.888  23.885  29.425  1.00  0.00    -0.206 F 
ATOM     80  C   UNL A   1      41.317  22.525  28.327  1.00  0.00     0.040 A 
ATOM     81  C   UNL A   1      39.870  23.474  26.652  1.00  0.00     0.040 A 
ATOM     82  F   UNL A   1      40.048  25.749  26.105  1.00  0.00    -0.206 F 
ATOM     83  C   UNL A   1      40.295  22.372  27.391  1.00  0.00     0.006 A 
ENDBRANCH  55  76
BRANCH  67  84
ATOM     84  C   UNL A   1      47.542  27.642  25.687  1.00  0.00     0.057 A 
ATOM     85  C   UNL A   1      48.641  27.031  26.302  1.00  0.00     0.134 A 
ATOM     86  C   UNL A   1      47.515  27.671  24.288  1.00  0.00     0.134 A 
ATOM     87  F   UNL A   1      48.732  26.981  27.639  1.00  0.00    -0.206 F 
ATOM     88  C   UNL A   1      49.682  26.480  25.552  1.00  0.00     0.040 A 
ATOM     89  C   UNL A   1      48.537  27.104  23.526  1.00  0.00     0.040 A 
ATOM     90  F   UNL A   1      46.485  28.235  23.637  1.00  0.00    -0.206 F 
ATOM     91  C   UNL A   1      49.626  26.508  24.159  1.00  0.00     0.006 A 
ENDBRANCH  67  84
ENDBRANCH  41  42
ENDBRANCH  34  36
ENDBRANCH  33  34
ENDBRANCH  32  33
ENDBRANCH  31  32
ENDBRANCH  30  31
ENDBRANCH  29  30
ENDBRANCH  28  29
ENDBRANCH   1  28
TORSDOF 22
ENDMDL
MODEL 2
REMARK VINA RESULT:     -10.3      4.670      8.825
REMARK SMILES CC(=O)Nc1cccc(-c2ccc(F)c(C(=O)OCCOCCOCCOCCOC(=O)c3ccc(-c4c5nc(c(-c6c(F)cccc6F)c6ccc([nH]6)c(-c6c(F)cccc6F)c6nc(c(-c7c(F)cccc7F)c7ccc4[nH]7)C=C6)C=C5)cc3)c2)c1
REMARK SMILES IDX 24 1 23 2 22 3 21 4 20 5 19 6 18 7 16 8 17 9 15 10 10 11
REMARK SMILES IDX 11 12 87 13 12 14 13 15 14 16 9 17 5 18 6 19 88 20 7 21 8 22
REMARK SMILES IDX 4 23 1 24 2 25 3 26 25 28 26 29 27 30 28 31 29 32 30 33
REMARK SMILES IDX 31 34 32 35 33 36 34 37 86 38 35 39 85 40 36 41 37 42 38 43
REMARK SMILES IDX 79 44 39 45 84 46 78 47 80 48 40 49 83 50 77 51 76 52 41 54
REMARK SMILES IDX 67 55 50 56 66 57 51 58 54 59 65 60 81 61 52 62 53 63 64 65
REMARK SMILES IDX 82 66 55 67 42 68 43 69 48 70 44 71 45 72 47 73 49 74 46 75
REMARK SMILES IDX 68 76 69 77 74 78 70 79 71 80 73 81 75 82 72 83 56 84 57 85
REMARK SMILES IDX 62 86 58 87 59 88 61 89 63 90 60 91
REMARK H PARENT 4 27 80 53 54 64
REMARK Flexibility Score: inf
ROOT
ATOM      1  O   UNL A   1      34.251  27.968  26.258  1.00  0.00    -0.377 OA
ENDROOT
BRANCH   1   2
ATOM      2  C   UNL A   1      33.636  26.928  25.517  1.00  0.00     0.188 C 
BRANCH   2   3
ATOM      3  C   UNL A   1      34.385  25.591  25.376  1.00  0.00     0.188 C 
BRANCH   3   4
ATOM      4  O   UNL A   1      34.595  25.175  24.029  1.00  0.00    -0.376 OA
BRANCH   4   5
ATOM      5  C   UNL A   1      35.107  23.857  23.867  1.00  0.00     0.202 C 
BRANCH   5   6
ATOM      6  C   UNL A   1      34.186  22.964  23.033  1.00  0.00     0.261 C 
BRANCH   6   7
ATOM      7  O   UNL A   1      32.980  23.624  22.623  1.00  0.00    -0.460 OA
BRANCH   7   8
ATOM      8  C   UNL A   1      31.811  23.021  22.941  1.00  0.00     0.341 C 
ATOM      9  O   UNL A   1      31.429  21.928  22.567  1.00  0.00    -0.246 OA
BRANCH   8  10
ATOM     10  C   UNL A   1      31.137  23.878  23.933  1.00  0.00     0.096 A 
ATOM     11  C   UNL A   1      29.667  25.768  24.441  1.00  0.00    -0.017 A 
ATOM     12  C   UNL A   1      29.980  25.602  25.800  1.00  0.00     0.012 A 
ATOM     13  C   UNL A   1      30.281  24.904  23.515  1.00  0.00     0.027 A 
ATOM     14  C   UNL A   1      30.850  24.590  26.218  1.00  0.00     0.041 A 
ATOM     15  C   UNL A   1      31.415  23.725  25.285  1.00  0.00     0.137 A 
ATOM     16  F   UNL A   1      32.279  22.794  25.713  1.00  0.00    -0.206 F 
BRANCH  11  17
ATOM     17  C   UNL A   1      28.685  26.764  23.977  1.00  0.00    -0.016 A 
ATOM     18  C   UNL A   1      28.267  28.857  22.769  1.00  0.00     0.041 A 
ATOM     19  C   UNL A   1      26.915  28.767  23.100  1.00  0.00     0.026 A 
ATOM     20  C   UNL A   1      29.133  27.870  23.230  1.00  0.00     0.034 A 
ATOM     21  C   UNL A   1      26.439  27.671  23.825  1.00  0.00     0.003 A 
ATOM     22  C   UNL A   1      27.317  26.672  24.255  1.00  0.00     0.009 A 
BRANCH  18  23
ATOM     23  N   UNL A   1      28.702  29.980  22.044  1.00  0.00    -0.326 N 
ATOM     24  C   UNL A   1      28.983  31.650  23.881  1.00  0.00     0.114 C 
ATOM     25  C   UNL A   1      28.889  31.280  22.422  1.00  0.00     0.221 C 
ATOM     26  O   UNL A   1      29.040  32.139  21.550  1.00  0.00    -0.275 OA
ATOM     27  H   UNL A   1      28.908  29.798  21.098  1.00  0.00     0.169 HD
ENDBRANCH  18  23
ENDBRANCH  11  17
ENDBRANCH   8  10
ENDBRANCH   7   8
ENDBRANCH   6   7
ENDBRANCH   5   6
ENDBRANCH   4   5
ENDBRANCH   3   4
ENDBRANCH   2   3
ENDBRANCH   1   2
BRANCH   1  28
ATOM     28  C   UNL A   1      33.505  28.644  27.263  1.00  0.00     0.188 C 
BRANCH  28  29
ATOM     29  C   UNL A   1      32.029  29.037  27.043  1.00  0.00     0.188 C 
BRANCH  29  30
ATOM     30  O   UNL A   1      31.812  30.419  26.785  1.00  0.00    -0.376 OA
BRANCH  30  31
ATOM     31  C   UNL A   1      32.818  31.309  27.249  1.00  0.00     0.202 C 
BRANCH  31  32
ATOM     32  C   UNL A   1      32.443  32.783  27.077  1.00  0.00     0.261 C 
BRANCH  32  33
ATOM     33  O   UNL A   1      32.186  33.479  28.307  1.00  0.00    -0.460 OA
BRANCH  33  34
ATOM     34  C   UNL A   1      32.927  34.580  28.561  1.00  0.00     0.338 C 
ATOM     35  O   UNL A   1      32.620  35.744  28.384  1.00  0.00    -0.246 OA
BRANCH  34  36
ATOM     36  C   UNL A   1      34.139  34.131  29.267  1.00  0.00     0.060 A 
ATOM     37  C   UNL A   1      35.395  34.414  28.715  1.00  0.00     0.016 A 
ATOM     38  C   UNL A   1      34.026  33.463  30.488  1.00  0.00     0.016 A 
ATOM     39  C   UNL A   1      36.551  34.022  29.392  1.00  0.00     0.010 A 
ATOM     40  C   UNL A   1      35.181  33.055  31.151  1.00  0.00     0.010 A 
ATOM     41  C   UNL A   1      36.447  33.320  30.600  1.00  0.00    -0.014 A 
BRANCH  41  42
ATOM     42  C   UNL A   1      37.645  32.738  31.245  1.00  0.00     0.031 A 
ATOM     43  C   UNL A   1      38.308  31.560  30.597  1.00  0.00     0.074 A 
ATOM     44  C   UNL A   1      38.096  33.215  32.417  1.00  0.00     0.049 A 
ATOM     45  N   UNL A   1      39.289  30.816  31.036  1.00  0.00    -0.248 NA
ATOM     46  C   UNL A   1      37.786  31.160  29.280  1.00  0.00     0.031 C 
ATOM     47  C   UNL A   1      37.545  34.366  33.131  1.00  0.00     0.029 A 
ATOM     48  N   UNL A   1      39.109  32.767  33.226  1.00  0.00    -0.354 N 
ATOM     49  C   UNL A   1      39.501  29.858  30.055  1.00  0.00     0.074 A 
ATOM     50  C   UNL A   1      38.534  30.101  29.006  1.00  0.00     0.031 C 
ATOM     51  C   UNL A   1      38.208  34.512  34.292  1.00  0.00     0.029 A 
ATOM     52  C   UNL A   1      39.205  33.449  34.413  1.00  0.00     0.049 A 
ATOM     53  H   UNL A   1      39.710  32.027  32.979  1.00  0.00     0.167 HD
ATOM     54  C   UNL A   1      40.421  28.866  30.031  1.00  0.00     0.037 A 
ATOM     55  C   UNL A   1      39.982  33.217  35.488  1.00  0.00     0.037 A 
ATOM     56  C   UNL A   1      41.373  28.619  31.080  1.00  0.00     0.049 A 
ATOM     57  C   UNL A   1      40.944  32.058  35.472  1.00  0.00     0.074 A 
ATOM     58  C   UNL A   1      42.379  27.670  31.125  1.00  0.00     0.029 A 
ATOM     59  N   UNL A   1      41.424  29.317  32.277  1.00  0.00    -0.354 N 
ATOM     60  N   UNL A   1      41.175  31.188  34.519  1.00  0.00    -0.248 NA
ATOM     61  C   UNL A   1      41.746  31.843  36.686  1.00  0.00     0.031 C 
ATOM     62  C   UNL A   1      43.005  27.759  32.373  1.00  0.00     0.029 A 
ATOM     63  C   UNL A   1      42.417  28.792  33.085  1.00  0.00     0.049 A 
ATOM     64  H   UNL A   1      40.841  30.072  32.515  1.00  0.00     0.167 HD
ATOM     65  C   UNL A   1      42.154  30.333  35.010  1.00  0.00     0.074 A 
ATOM     66  C   UNL A   1      42.485  30.798  36.340  1.00  0.00     0.031 C 
ATOM     67  C   UNL A   1      42.726  29.259  34.413  1.00  0.00     0.037 A 
BRANCH  54  68
ATOM     68  C   UNL A   1      40.415  27.955  28.841  1.00  0.00     0.057 A 
ATOM     69  C   UNL A   1      41.172  28.231  27.697  1.00  0.00     0.134 A 
ATOM     70  C   UNL A   1      39.655  26.780  28.850  1.00  0.00     0.134 A 
ATOM     71  F   UNL A   1      41.906  29.351  27.620  1.00  0.00    -0.206 F 
ATOM     72  C   UNL A   1      41.159  27.377  26.592  1.00  0.00     0.040 A 
ATOM     73  C   UNL A   1      39.650  25.908  27.761  1.00  0.00     0.040 A 
ATOM     74  F   UNL A   1      38.907  26.460  29.917  1.00  0.00    -0.206 F 
ATOM     75  C   UNL A   1      40.400  26.209  26.626  1.00  0.00     0.006 A 
ENDBRANCH  54  68
BRANCH  55  76
ATOM     76  C   UNL A   1      39.858  34.077  36.690  1.00  0.00     0.057 A 
ATOM     77  C   UNL A   1      38.955  33.768  37.713  1.00  0.00     0.134 A 
ATOM     78  C   UNL A   1      40.630  35.236  36.837  1.00  0.00     0.134 A 
ATOM     79  F   UNL A   1      38.170  32.685  37.616  1.00  0.00    -0.206 F 
ATOM     80  C   UNL A   1      38.817  34.586  38.837  1.00  0.00     0.040 A 
ATOM     81  C   UNL A   1      40.519  36.051  37.965  1.00  0.00     0.040 A 
ATOM     82  F   UNL A   1      41.510  35.587  35.889  1.00  0.00    -0.206 F 
ATOM     83  C   UNL A   1      39.605  35.728  38.966  1.00  0.00     0.006 A 
ENDBRANCH  55  76
BRANCH  67  84
ATOM     84  C   UNL A   1      43.771  28.514  35.190  1.00  0.00     0.057 A 
ATOM     85  C   UNL A   1      45.119  28.890  35.154  1.00  0.00     0.134 A 
ATOM     86  C   UNL A   1      43.418  27.446  36.024  1.00  0.00     0.134 A 
ATOM     87  F   UNL A   1      45.523  29.898  34.366  1.00  0.00    -0.206 F 
ATOM     88  C   UNL A   1      46.083  28.222  35.912  1.00  0.00     0.040 A 
ATOM     89  C   UNL A   1      44.367  26.784  36.803  1.00  0.00     0.040 A 
ATOM     90  F   UNL A   1      42.141  27.041  36.110  1.00  0.00    -0.206 F 
ATOM     91  C   UNL A   1      45.705  27.170  36.745  1.00  0.00     0.006 A 
ENDBRANCH  67  84
ENDBRANCH  41  42
ENDBRANCH  34  36
ENDBRANCH  33  34
ENDBRANCH  32  33
ENDBRANCH  31  32
ENDBRANCH  30  31
ENDBRANCH  29  30
ENDBRANCH  28  29
ENDBRANCH   1  28
TORSDOF 22
ENDMDL
MODEL 3
REMARK VINA RESULT:     -10.2      4.409      7.047
REMARK SMILES CC(=O)Nc1cccc(-c2ccc(F)c(C(=O)OCCOCCOCCOCCOC(=O)c3ccc(-c4c5nc(c(-c6c(F)cccc6F)c6ccc([nH]6)c(-c6c(F)cccc6F)c6nc(c(-c7c(F)cccc7F)c7ccc4[nH]7)C=C6)C=C5)cc3)c2)c1
REMARK SMILES IDX 24 1 23 2 22 3 21 4 20 5 19 6 18 7 16 8 17 9 15 10 10 11
REMARK SMILES IDX 11 12 87 13 12 14 13 15 14 16 9 17 5 18 6 19 88 20 7 21 8 22
REMARK SMILES IDX 4 23 1 24 2 25 3 26 25 28 26 29 27 30 28 31 29 32 30 33
REMARK SMILES IDX 31 34 32 35 33 36 34 37 86 38 35 39 85 40 36 41 37 42 38 43
REMARK SMILES IDX 79 44 39 45 84 46 78 47 80 48 40 49 83 50 77 51 76 52 41 54
REMARK SMILES IDX 67 55 50 56 66 57 51 58 54 59 65 60 81 61 52 62 53 63 64 65
REMARK SMILES IDX 82 66 55 67 42 68 43 69 48 70 44 71 45 72 47 73 49 74 46 75
REMARK SMILES IDX 68 76 69 77 74 78 70 79 71 80 73 81 75 82 72 83 56 84 57 85
REMARK SMILES IDX 62 86 58 87 59 88 61 89 63 90 60 91
REMARK H PARENT 4 27 80 53 54 64
REMARK Flexibility Score: inf
ROOT
ATOM      1  O   UNL A   1      34.112  28.310  25.927  1.00  0.00    -0.377 OA
ENDROOT
BRANCH   1   2
ATOM      2  C   UNL A   1      33.310  27.142  25.923  1.00  0.00     0.188 C 
BRANCH   2   3
ATOM      3  C   UNL A   1      34.008  25.778  25.787  1.00  0.00     0.188 C 
BRANCH   3   4
ATOM      4  O   UNL A   1      34.448  25.472  24.465  1.00  0.00    -0.376 OA
BRANCH   4   5
ATOM      5  C   UNL A   1      35.013  24.178  24.291  1.00  0.00     0.202 C 
BRANCH   5   6
ATOM      6  C   UNL A   1      34.420  23.431  23.095  1.00  0.00     0.261 C 
BRANCH   6   7
ATOM      7  O   UNL A   1      33.130  23.923  22.705  1.00  0.00    -0.460 OA
BRANCH   7   8
ATOM      8  C   UNL A   1      32.061  23.154  23.013  1.00  0.00     0.341 C 
ATOM      9  O   UNL A   1      31.850  22.014  22.640  1.00  0.00    -0.246 OA
BRANCH   8  10
ATOM     10  C   UNL A   1      31.254  23.904  23.992  1.00  0.00     0.096 A 
ATOM     11  C   UNL A   1      29.678  25.709  24.491  1.00  0.00    -0.017 A 
ATOM     12  C   UNL A   1      29.843  25.430  25.857  1.00  0.00     0.012 A 
ATOM     13  C   UNL A   1      30.418  24.944  23.569  1.00  0.00     0.027 A 
ATOM     14  C   UNL A   1      30.693  24.403  26.283  1.00  0.00     0.041 A 
ATOM     15  C   UNL A   1      31.385  23.637  25.349  1.00  0.00     0.137 A 
ATOM     16  F   UNL A   1      32.225  22.691  25.790  1.00  0.00    -0.206 F 
BRANCH  11  17
ATOM     17  C   UNL A   1      28.723  26.722  24.006  1.00  0.00    -0.016 A 
ATOM     18  C   UNL A   1      28.366  28.823  22.792  1.00  0.00     0.041 A 
ATOM     19  C   UNL A   1      27.006  28.753  23.091  1.00  0.00     0.026 A 
ATOM     20  C   UNL A   1      29.206  27.821  23.271  1.00  0.00     0.034 A 
ATOM     21  C   UNL A   1      26.496  27.664  23.803  1.00  0.00     0.003 A 
ATOM     22  C   UNL A   1      27.348  26.651  24.252  1.00  0.00     0.009 A 
BRANCH  18  23
ATOM     23  N   UNL A   1      28.836  29.939  22.080  1.00  0.00    -0.326 N 
ATOM     24  C   UNL A   1      28.972  31.642  23.902  1.00  0.00     0.114 C 
ATOM     25  C   UNL A   1      28.982  31.248  22.447  1.00  0.00     0.221 C 
ATOM     26  O   UNL A   1      29.180  32.095  21.573  1.00  0.00    -0.275 OA
ATOM     27  H   UNL A   1      29.107  29.745  21.153  1.00  0.00     0.169 HD
ENDBRANCH  18  23
ENDBRANCH  11  17
ENDBRANCH   8  10
ENDBRANCH   7   8
ENDBRANCH   6   7
ENDBRANCH   5   6
ENDBRANCH   4   5
ENDBRANCH   3   4
ENDBRANCH   2   3
ENDBRANCH   1   2
BRANCH   1  28
ATOM     28  C   UNL A   1      33.780  29.383  26.801  1.00  0.00     0.188 C 
BRANCH  28  29
ATOM     29  C   UNL A   1      32.319  29.838  26.997  1.00  0.00     0.188 C 
BRANCH  29  30
ATOM     30  O   UNL A   1      32.079  31.211  26.713  1.00  0.00    -0.376 OA
BRANCH  30  31
ATOM     31  C   UNL A   1      32.917  32.145  27.381  1.00  0.00     0.202 C 
BRANCH  31  32
ATOM     32  C   UNL A   1      32.395  33.582  27.308  1.00  0.00     0.261 C 
BRANCH  32  33
ATOM     33  O   UNL A   1      32.435  34.292  28.556  1.00  0.00    -0.460 OA
BRANCH  33  34
ATOM     34  C   UNL A   1      33.528  35.050  28.802  1.00  0.00     0.338 C 
ATOM     35  O   UNL A   1      33.619  36.262  28.769  1.00  0.00    -0.246 OA
BRANCH  34  36
ATOM     36  C   UNL A   1      34.577  34.143  29.297  1.00  0.00     0.060 A 
ATOM     37  C   UNL A   1      34.269  33.234  30.318  1.00  0.00     0.016 A 
ATOM     38  C   UNL A   1      35.850  34.173  28.725  1.00  0.00     0.016 A 
ATOM     39  C   UNL A   1      35.246  32.347  30.771  1.00  0.00     0.010 A 
ATOM     40  C   UNL A   1      36.830  33.301  29.194  1.00  0.00     0.010 A 
ATOM     41  C   UNL A   1      36.536  32.394  30.227  1.00  0.00    -0.014 A 
BRANCH  41  42
ATOM     42  C   UNL A   1      37.635  31.593  30.811  1.00  0.00     0.031 A 
ATOM     43  C   UNL A   1      38.160  31.972  32.163  1.00  0.00     0.074 A 
ATOM     44  C   UNL A   1      38.193  30.585  30.121  1.00  0.00     0.049 A 
ATOM     45  N   UNL A   1      39.187  31.496  32.816  1.00  0.00    -0.248 NA
ATOM     46  C   UNL A   1      37.435  33.041  32.869  1.00  0.00     0.031 C 
ATOM     47  C   UNL A   1      37.756  30.114  28.807  1.00  0.00     0.029 A 
ATOM     48  N   UNL A   1      39.271  29.793  30.424  1.00  0.00    -0.354 N 
ATOM     49  C   UNL A   1      39.236  32.207  34.007  1.00  0.00     0.074 A 
ATOM     50  C   UNL A   1      38.148  33.161  33.979  1.00  0.00     0.031 C 
ATOM     51  C   UNL A   1      38.583  29.134  28.403  1.00  0.00     0.029 A 
ATOM     52  C   UNL A   1      39.621  28.933  29.413  1.00  0.00     0.049 A 
ATOM     53  H   UNL A   1      39.748  29.837  31.284  1.00  0.00     0.167 HD
ATOM     54  C   UNL A   1      40.109  32.074  35.032  1.00  0.00     0.037 A 
ATOM     55  C   UNL A   1      40.680  28.107  29.302  1.00  0.00     0.037 A 
ATOM     56  C   UNL A   1      41.196  31.133  35.054  1.00  0.00     0.049 A 
ATOM     57  C   UNL A   1      41.683  28.033  30.422  1.00  0.00     0.074 A 
ATOM     58  C   UNL A   1      42.104  30.888  36.068  1.00  0.00     0.029 A 
ATOM     59  N   UNL A   1      41.532  30.295  34.002  1.00  0.00    -0.354 N 
ATOM     60  N   UNL A   1      41.693  28.671  31.567  1.00  0.00    -0.248 NA
ATOM     61  C   UNL A   1      42.829  27.132  30.228  1.00  0.00     0.031 C 
ATOM     62  C   UNL A   1      43.023  29.938  35.610  1.00  0.00     0.029 A 
ATOM     63  C   UNL A   1      42.660  29.561  34.326  1.00  0.00     0.049 A 
ATOM     64  H   UNL A   1      41.042  30.233  33.151  1.00  0.00     0.167 HD
ATOM     65  C   UNL A   1      42.833  28.241  32.235  1.00  0.00     0.074 A 
ATOM     66  C   UNL A   1      43.482  27.275  31.373  1.00  0.00     0.031 C 
ATOM     67  C   UNL A   1      43.301  28.612  33.452  1.00  0.00     0.037 A 
BRANCH  54  68
ATOM     68  C   UNL A   1      39.937  32.994  36.202  1.00  0.00     0.057 A 
ATOM     69  C   UNL A   1      40.655  34.191  36.313  1.00  0.00     0.134 A 
ATOM     70  C   UNL A   1      39.027  32.686  37.220  1.00  0.00     0.134 A 
ATOM     71  F   UNL A   1      41.556  34.533  35.379  1.00  0.00    -0.206 F 
ATOM     72  C   UNL A   1      40.489  35.041  37.408  1.00  0.00     0.040 A 
ATOM     73  C   UNL A   1      38.836  33.538  38.309  1.00  0.00     0.040 A 
ATOM     74  F   UNL A   1      38.308  31.553  37.172  1.00  0.00    -0.206 F 
ATOM     75  C   UNL A   1      39.573  34.716  38.407  1.00  0.00     0.006 A 
ENDBRANCH  54  68
BRANCH  55  76
ATOM     76  C   UNL A   1      40.868  27.309  28.065  1.00  0.00     0.057 A 
ATOM     77  C   UNL A   1      40.266  26.056  27.912  1.00  0.00     0.134 A 
ATOM     78  C   UNL A   1      41.666  27.777  27.014  1.00  0.00     0.134 A 
ATOM     79  F   UNL A   1      39.512  25.545  28.897  1.00  0.00    -0.206 F 
ATOM     80  C   UNL A   1      40.458  25.290  26.761  1.00  0.00     0.040 A 
ATOM     81  C   UNL A   1      41.848  27.032  25.848  1.00  0.00     0.040 A 
ATOM     82  F   UNL A   1      42.273  28.969  27.103  1.00  0.00    -0.206 F 
ATOM     83  C   UNL A   1      41.247  25.781  25.722  1.00  0.00     0.006 A 
ENDBRANCH  55  76
BRANCH  67  84
ATOM     84  C   UNL A   1      44.572  27.973  33.927  1.00  0.00     0.057 A 
ATOM     85  C   UNL A   1      45.816  28.583  33.732  1.00  0.00     0.134 A 
ATOM     86  C   UNL A   1      44.546  26.765  34.634  1.00  0.00     0.134 A 
ATOM     87  F   UNL A   1      45.910  29.736  33.052  1.00  0.00    -0.206 F 
ATOM     88  C   UNL A   1      46.994  28.007  34.213  1.00  0.00     0.040 A 
ATOM     89  C   UNL A   1      45.712  26.190  35.140  1.00  0.00     0.040 A 
ATOM     90  F   UNL A   1      43.384  26.133  34.863  1.00  0.00    -0.206 F 
ATOM     91  C   UNL A   1      46.942  26.811  34.927  1.00  0.00     0.006 A 
ENDBRANCH  67  84
ENDBRANCH  41  42
ENDBRANCH  34  36
ENDBRANCH  33  34
ENDBRANCH  32  33
ENDBRANCH  31  32
ENDBRANCH  30  31
ENDBRANCH  29  30
ENDBRANCH  28  29
ENDBRANCH   1  28
TORSDOF 22
ENDMDL
