MODEL 1
REMARK VINA RESULT:     -10.6      0.000      0.000
REMARK SMILES Cc1cccc(C(=O)Nc2ccc(C(=O)NNC(=O)c3ccccc3C(=O)OCCOCCOCCOCCOC(=O)c3ccc(-c4c5nc(c(-c6c(F)cccc6F)c6ccc([nH]6)c(-c6c(F)cccc6F)c6nc(c(-c7c(F)cccc7F)c7ccc4[nH]7)C=C6)C=C5)cc3)cc2)c1
REMARK SMILES IDX 32 1 31 2 30 3 29 4 28 5 26 6 27 7 25 8 20 9 21 10 22 11
REMARK SMILES IDX 24 12 23 13 18 14 17 15 19 17 16 18 14 19 15 20 13 22 10 23
REMARK SMILES IDX 11 24 98 25 12 26 97 27 9 28 7 29 8 30 6 32 1 33 2 34 3 35
REMARK SMILES IDX 99 36 4 37 5 38 33 39 34 40 35 41 36 42 37 43 38 44 39 45
REMARK SMILES IDX 40 46 41 47 42 48 43 49 44 50 96 51 45 52 95 53 46 54 47 55
REMARK SMILES IDX 48 56 89 57 49 58 94 59 88 60 90 61 50 62 93 63 87 64 86 65
REMARK SMILES IDX 51 67 77 68 60 69 76 70 61 71 64 72 75 73 91 74 62 75 63 76
REMARK SMILES IDX 74 78 92 79 65 80 52 81 53 82 58 83 54 84 55 85 57 86 59 87
REMARK SMILES IDX 56 88 78 89 79 90 84 91 80 92 81 93 83 94 85 95 82 96 66 97
REMARK SMILES IDX 67 98 72 99 68 100 69 101 71 102 73 103 70 104
REMARK H PARENT 17 16 16 21 9 31 90 66 64 77
REMARK Flexibility Score: inf
ROOT
ATOM      1  C   UNL A   1      33.989  31.587  27.581  1.00  0.00     0.188 C 
ENDROOT
BRANCH   1   2
ATOM      2  O   UNL A   1      34.170  30.181  27.450  1.00  0.00    -0.376 OA
BRANCH   2   3
ATOM      3  C   UNL A   1      33.248  29.440  26.660  1.00  0.00     0.202 C 
BRANCH   3   4
ATOM      4  C   UNL A   1      33.762  28.260  25.877  1.00  0.00     0.261 C 
BRANCH   4   5
ATOM      5  O   UNL A   1      32.628  27.659  25.305  1.00  0.00    -0.460 OA
BRANCH   5   6
ATOM      6  C   UNL A   1      32.475  27.787  24.004  1.00  0.00     0.339 C 
ATOM      7  O   UNL A   1      33.303  27.620  23.095  1.00  0.00    -0.246 OA
BRANCH   6   8
ATOM      8  C   UNL A   1      31.054  27.896  23.862  1.00  0.00     0.072 A 
ATOM      9  C   UNL A   1      30.229  26.784  23.877  1.00  0.00     0.056 A 
ATOM     10  C   UNL A   1      28.847  27.059  23.568  1.00  0.00     0.015 A 
ATOM     11  C   UNL A   1      28.378  28.299  23.121  1.00  0.00     0.001 A 
ATOM     12  C   UNL A   1      30.583  29.162  23.430  1.00  0.00     0.016 A 
ATOM     13  C   UNL A   1      29.265  29.352  23.024  1.00  0.00     0.001 A 
BRANCH   9  14
ATOM     14  C   UNL A   1      30.611  25.319  23.864  1.00  0.00     0.270 C 
ATOM     15  N   UNL A   1      30.864  24.317  22.753  1.00  0.00    -0.263 N 
ATOM     16  H   UNL A   1      30.295  24.367  21.950  1.00  0.00     0.191 HD
ATOM     17  O   UNL A   1      30.300  24.974  25.017  1.00  0.00    -0.267 OA
BRANCH  15  18
ATOM     18  N   UNL A   1      32.144  23.035  22.808  1.00  0.00    -0.263 N 
ATOM     19  C   UNL A   1      33.275  22.353  23.688  1.00  0.00     0.269 C 
ATOM     20  O   UNL A   1      33.107  21.152  23.987  1.00  0.00    -0.267 OA
ATOM     21  H   UNL A   1      32.135  22.576  21.937  1.00  0.00     0.191 HD
BRANCH  19  22
ATOM     22  C   UNL A   1      34.773  22.784  24.164  1.00  0.00     0.041 A 
ATOM     23  C   UNL A   1      37.258  23.143  25.687  1.00  0.00     0.041 A 
ATOM     24  C   UNL A   1      36.327  24.133  25.585  1.00  0.00     0.027 A 
ATOM     25  C   UNL A   1      37.163  22.213  24.636  1.00  0.00     0.027 A 
ATOM     26  C   UNL A   1      35.177  23.996  24.723  1.00  0.00     0.016 A 
ATOM     27  C   UNL A   1      35.919  22.014  23.910  1.00  0.00     0.016 A 
BRANCH  23  28
ATOM     28  N   UNL A   1      38.305  23.105  26.671  1.00  0.00    -0.322 N 
ATOM     29  C   UNL A   1      39.429  23.845  27.135  1.00  0.00     0.255 C 
ATOM     30  O   UNL A   1      40.238  23.143  27.767  1.00  0.00    -0.269 OA
ATOM     31  H   UNL A   1      38.214  22.284  27.209  1.00  0.00     0.170 HD
BRANCH  29  32
ATOM     32  C   UNL A   1      39.751  25.362  27.228  1.00  0.00     0.040 A 
ATOM     33  C   UNL A   1      41.703  28.373  25.665  1.00  0.00     0.044 C 
ATOM     34  C   UNL A   1      40.764  27.542  26.512  1.00  0.00    -0.050 A 
ATOM     35  C   UNL A   1      40.207  28.200  27.601  1.00  0.00     0.003 A 
ATOM     36  C   UNL A   1      40.453  26.153  26.326  1.00  0.00     0.017 A 
ATOM     37  C   UNL A   1      39.470  27.470  28.519  1.00  0.00     0.001 A 
ATOM     38  C   UNL A   1      39.277  26.080  28.348  1.00  0.00     0.014 A 
ENDBRANCH  29  32
ENDBRANCH  23  28
ENDBRANCH  19  22
ENDBRANCH  15  18
ENDBRANCH   9  14
ENDBRANCH   6   8
ENDBRANCH   5   6
ENDBRANCH   4   5
ENDBRANCH   3   4
ENDBRANCH   2   3
ENDBRANCH   1   2
BRANCH   1  39
ATOM     39  C   UNL A   1      34.074  32.328  28.932  1.00  0.00     0.188 C 
BRANCH  39  40
ATOM     40  O   UNL A   1      34.052  33.730  28.983  1.00  0.00    -0.377 OA
BRANCH  40  41
ATOM     41  C   UNL A   1      35.214  34.380  29.452  1.00  0.00     0.188 C 
BRANCH  41  42
ATOM     42  C   UNL A   1      36.595  33.843  29.140  1.00  0.00     0.188 C 
BRANCH  42  43
ATOM     43  O   UNL A   1      37.343  33.916  30.341  1.00  0.00    -0.376 OA
BRANCH  43  44
ATOM     44  C   UNL A   1      36.594  33.767  31.533  1.00  0.00     0.202 C 
BRANCH  44  45
ATOM     45  C   UNL A   1      37.453  33.906  32.792  1.00  0.00     0.261 C 
BRANCH  45  46
ATOM     46  O   UNL A   1      38.228  32.698  32.947  1.00  0.00    -0.460 OA
BRANCH  46  47
ATOM     47  C   UNL A   1      39.565  32.851  32.756  1.00  0.00     0.338 C 
ATOM     48  O   UNL A   1      40.167  33.906  32.865  1.00  0.00    -0.246 OA
BRANCH  47  49
ATOM     49  C   UNL A   1      40.128  31.633  32.102  1.00  0.00     0.060 A 
ATOM     50  C   UNL A   1      41.295  31.092  32.613  1.00  0.00     0.016 A 
ATOM     51  C   UNL A   1      39.774  31.289  30.812  1.00  0.00     0.016 A 
ATOM     52  C   UNL A   1      42.245  30.544  31.730  1.00  0.00     0.010 A 
ATOM     53  C   UNL A   1      40.747  30.729  29.978  1.00  0.00     0.010 A 
ATOM     54  C   UNL A   1      42.069  30.443  30.368  1.00  0.00    -0.014 A 
BRANCH  54  55
ATOM     55  C   UNL A   1      43.147  30.193  29.268  1.00  0.00     0.031 A 
ATOM     56  C   UNL A   1      43.288  28.472  29.135  1.00  0.00     0.074 A 
ATOM     57  C   UNL A   1      43.751  31.274  28.493  1.00  0.00     0.049 A 
ATOM     58  N   UNL A   1      43.802  27.774  28.168  1.00  0.00    -0.248 NA
ATOM     59  C   UNL A   1      42.864  27.491  30.176  1.00  0.00     0.031 C 
ATOM     60  C   UNL A   1      44.161  31.474  27.107  1.00  0.00     0.029 A 
ATOM     61  N   UNL A   1      44.221  32.589  28.769  1.00  0.00    -0.354 N 
ATOM     62  C   UNL A   1      43.759  26.403  28.338  1.00  0.00     0.074 A 
ATOM     63  C   UNL A   1      43.093  26.284  29.615  1.00  0.00     0.031 C 
ATOM     64  C   UNL A   1      44.613  32.639  26.635  1.00  0.00     0.029 A 
ATOM     65  C   UNL A   1      45.192  33.153  27.800  1.00  0.00     0.049 A 
ATOM     66  H   UNL A   1      43.920  33.094  29.559  1.00  0.00     0.167 HD
ATOM     67  C   UNL A   1      44.153  25.577  27.296  1.00  0.00     0.037 A 
ATOM     68  C   UNL A   1      46.563  33.128  27.546  1.00  0.00     0.037 A 
ATOM     69  C   UNL A   1      45.075  26.236  26.324  1.00  0.00     0.049 A 
ATOM     70  C   UNL A   1      47.498  31.808  27.019  1.00  0.00     0.074 A 
ATOM     71  C   UNL A   1      45.106  26.507  24.963  1.00  0.00     0.029 A 
ATOM     72  N   UNL A   1      46.267  26.764  26.783  1.00  0.00    -0.354 N 
ATOM     73  N   UNL A   1      47.175  30.682  26.370  1.00  0.00    -0.248 NA
ATOM     74  C   UNL A   1      48.895  31.708  27.488  1.00  0.00     0.031 C 
ATOM     75  C   UNL A   1      46.247  27.338  24.657  1.00  0.00     0.029 A 
ATOM     76  C   UNL A   1      46.978  27.516  25.818  1.00  0.00     0.049 A 
ATOM     77  H   UNL A   1      46.593  26.629  27.703  1.00  0.00     0.167 HD
ATOM     78  C   UNL A   1      48.196  29.667  26.527  1.00  0.00     0.074 A 
ATOM     79  C   UNL A   1      49.236  30.429  27.223  1.00  0.00     0.031 C 
ATOM     80  C   UNL A   1      48.183  28.258  26.289  1.00  0.00     0.037 A 
BRANCH  67  81
ATOM     81  C   UNL A   1      43.557  24.183  26.962  1.00  0.00     0.057 A 
ATOM     82  C   UNL A   1      43.749  23.087  27.844  1.00  0.00     0.134 A 
ATOM     83  C   UNL A   1      42.977  23.802  25.734  1.00  0.00     0.134 A 
ATOM     84  F   UNL A   1      44.219  23.257  29.087  1.00  0.00    -0.206 F 
ATOM     85  C   UNL A   1      43.476  21.746  27.509  1.00  0.00     0.040 A 
ATOM     86  C   UNL A   1      42.643  22.467  25.410  1.00  0.00     0.040 A 
ATOM     87  F   UNL A   1      42.737  24.687  24.761  1.00  0.00    -0.206 F 
ATOM     88  C   UNL A   1      42.919  21.428  26.285  1.00  0.00     0.006 A 
ENDBRANCH  67  81
BRANCH  68  89
ATOM     89  C   UNL A   1      46.944  34.638  27.615  1.00  0.00     0.057 A 
ATOM     90  C   UNL A   1      47.901  34.950  28.617  1.00  0.00     0.134 A 
ATOM     91  C   UNL A   1      47.286  35.147  26.349  1.00  0.00     0.134 A 
ATOM     92  F   UNL A   1      47.621  34.700  29.904  1.00  0.00    -0.206 F 
ATOM     93  C   UNL A   1      49.245  35.240  28.295  1.00  0.00     0.040 A 
ATOM     94  C   UNL A   1      48.629  35.393  25.993  1.00  0.00     0.040 A 
ATOM     95  F   UNL A   1      46.360  35.149  25.380  1.00  0.00    -0.206 F 
ATOM     96  C   UNL A   1      49.627  35.361  26.962  1.00  0.00     0.006 A 
ENDBRANCH  68  89
BRANCH  80  97
ATOM     97  C   UNL A   1      49.339  27.262  26.639  1.00  0.00     0.057 A 
ATOM     98  C   UNL A   1      49.725  26.975  27.949  1.00  0.00     0.134 A 
ATOM     99  C   UNL A   1      50.218  26.685  25.660  1.00  0.00     0.134 A 
ATOM    100  F   UNL A   1      49.099  27.543  28.988  1.00  0.00    -0.206 F 
ATOM    101  C   UNL A   1      50.811  26.126  28.252  1.00  0.00     0.040 A 
ATOM    102  C   UNL A   1      51.326  25.886  25.951  1.00  0.00     0.040 A 
ATOM    103  F   UNL A   1      50.083  26.845  24.340  1.00  0.00    -0.206 F 
ATOM    104  C   UNL A   1      51.614  25.578  27.258  1.00  0.00     0.006 A 
ENDBRANCH  80  97
ENDBRANCH  54  55
ENDBRANCH  47  49
ENDBRANCH  46  47
ENDBRANCH  45  46
ENDBRANCH  44  45
ENDBRANCH  43  44
ENDBRANCH  42  43
ENDBRANCH  41  42
ENDBRANCH  40  41
ENDBRANCH  39  40
ENDBRANCH   1  39
TORSDOF 25
ENDMDL
MODEL 2
REMARK VINA RESULT:     -10.1      2.815      6.710
REMARK SMILES Cc1cccc(C(=O)Nc2ccc(C(=O)NNC(=O)c3ccccc3C(=O)OCCOCCOCCOCCOC(=O)c3ccc(-c4c5nc(c(-c6c(F)cccc6F)c6ccc([nH]6)c(-c6c(F)cccc6F)c6nc(c(-c7c(F)cccc7F)c7ccc4[nH]7)C=C6)C=C5)cc3)cc2)c1
REMARK SMILES IDX 32 1 31 2 30 3 29 4 28 5 26 6 27 7 25 8 20 9 21 10 22 11
REMARK SMILES IDX 24 12 23 13 18 14 17 15 19 17 16 18 14 19 15 20 13 22 10 23
REMARK SMILES IDX 11 24 98 25 12 26 97 27 9 28 7 29 8 30 6 32 1 33 2 34 3 35
REMARK SMILES IDX 99 36 4 37 5 38 33 39 34 40 35 41 36 42 37 43 38 44 39 45
REMARK SMILES IDX 40 46 41 47 42 48 43 49 44 50 96 51 45 52 95 53 46 54 47 55
REMARK SMILES IDX 48 56 89 57 49 58 94 59 88 60 90 61 50 62 93 63 87 64 86 65
REMARK SMILES IDX 51 67 77 68 60 69 76 70 61 71 64 72 75 73 91 74 62 75 63 76
REMARK SMILES IDX 74 78 92 79 65 80 52 81 53 82 58 83 54 84 55 85 57 86 59 87
REMARK SMILES IDX 56 88 78 89 79 90 84 91 80 92 81 93 83 94 85 95 82 96 66 97
REMARK SMILES IDX 67 98 72 99 68 100 69 101 71 102 73 103 70 104
REMARK H PARENT 17 16 16 21 9 31 90 66 64 77
REMARK Flexibility Score: inf
ROOT
ATOM      1  C   UNL A   1      34.054  32.235  27.671  1.00  0.00     0.188 C 
ENDROOT
BRANCH   1   2
ATOM      2  O   UNL A   1      33.813  30.832  27.699  1.00  0.00    -0.376 OA
BRANCH   2   3
ATOM      3  C   UNL A   1      32.811  30.290  26.848  1.00  0.00     0.202 C 
BRANCH   3   4
ATOM      4  C   UNL A   1      33.240  29.391  25.717  1.00  0.00     0.261 C 
BRANCH   4   5
ATOM      5  O   UNL A   1      32.084  28.695  25.323  1.00  0.00    -0.460 OA
BRANCH   5   6
ATOM      6  C   UNL A   1      31.945  28.448  24.038  1.00  0.00     0.339 C 
ATOM      7  O   UNL A   1      32.806  28.137  23.199  1.00  0.00    -0.246 OA
BRANCH   6   8
ATOM      8  C   UNL A   1      30.524  28.349  23.887  1.00  0.00     0.072 A 
ATOM      9  C   UNL A   1      29.864  27.133  23.956  1.00  0.00     0.056 A 
ATOM     10  C   UNL A   1      28.459  27.195  23.630  1.00  0.00     0.015 A 
ATOM     11  C   UNL A   1      27.824  28.334  23.122  1.00  0.00     0.001 A 
ATOM     12  C   UNL A   1      29.884  29.513  23.392  1.00  0.00     0.016 A 
ATOM     13  C   UNL A   1      28.556  29.496  22.975  1.00  0.00     0.001 A 
BRANCH   9  14
ATOM     14  C   UNL A   1      30.447  25.738  24.016  1.00  0.00     0.270 C 
ATOM     15  N   UNL A   1      30.269  24.495  23.162  1.00  0.00    -0.263 N 
ATOM     16  H   UNL A   1      29.370  24.304  22.810  1.00  0.00     0.191 HD
ATOM     17  O   UNL A   1      30.848  25.689  25.191  1.00  0.00    -0.267 OA
BRANCH  15  18
ATOM     18  N   UNL A   1      31.605  23.342  22.751  1.00  0.00    -0.263 N 
ATOM     19  C   UNL A   1      32.689  22.336  23.328  1.00  0.00     0.269 C 
ATOM     20  O   UNL A   1      32.559  21.132  23.023  1.00  0.00    -0.267 OA
ATOM     21  H   UNL A   1      31.696  23.338  21.771  1.00  0.00     0.191 HD
BRANCH  19  22
ATOM     22  C   UNL A   1      34.116  22.507  24.099  1.00  0.00     0.041 A 
ATOM     23  C   UNL A   1      36.750  22.024  25.306  1.00  0.00     0.041 A 
ATOM     24  C   UNL A   1      35.618  22.118  26.060  1.00  0.00     0.027 A 
ATOM     25  C   UNL A   1      36.613  22.665  24.060  1.00  0.00     0.027 A 
ATOM     26  C   UNL A   1      34.353  22.492  25.473  1.00  0.00     0.016 A 
ATOM     27  C   UNL A   1      35.308  22.868  23.451  1.00  0.00     0.016 A 
BRANCH  23  28
ATOM     28  N   UNL A   1      37.989  21.455  25.759  1.00  0.00    -0.322 N 
ATOM     29  C   UNL A   1      39.301  21.823  26.171  1.00  0.00     0.255 C 
ATOM     30  O   UNL A   1      40.114  20.888  26.073  1.00  0.00    -0.269 OA
ATOM     31  H   UNL A   1      37.901  20.475  25.797  1.00  0.00     0.170 HD
BRANCH  29  32
ATOM     32  C   UNL A   1      39.885  23.049  26.927  1.00  0.00     0.040 A 
ATOM     33  C   UNL A   1      39.275  26.724  28.126  1.00  0.00     0.044 C 
ATOM     34  C   UNL A   1      39.874  25.349  27.925  1.00  0.00    -0.050 A 
ATOM     35  C   UNL A   1      41.181  25.200  28.373  1.00  0.00     0.003 A 
ATOM     36  C   UNL A   1      39.247  24.232  27.279  1.00  0.00     0.017 A 
ATOM     37  C   UNL A   1      41.860  24.029  28.080  1.00  0.00     0.001 A 
ATOM     38  C   UNL A   1      41.233  22.996  27.347  1.00  0.00     0.014 A 
ENDBRANCH  29  32
ENDBRANCH  23  28
ENDBRANCH  19  22
ENDBRANCH  15  18
ENDBRANCH   9  14
ENDBRANCH   6   8
ENDBRANCH   5   6
ENDBRANCH   4   5
ENDBRANCH   3   4
ENDBRANCH   2   3
ENDBRANCH   1   2
BRANCH   1  39
ATOM     39  C   UNL A   1      34.222  33.089  28.945  1.00  0.00     0.188 C 
BRANCH  39  40
ATOM     40  O   UNL A   1      35.455  33.687  29.249  1.00  0.00    -0.377 OA
BRANCH  40  41
ATOM     41  C   UNL A   1      35.811  33.782  30.612  1.00  0.00     0.188 C 
BRANCH  41  42
ATOM     42  C   UNL A   1      36.416  32.606  31.349  1.00  0.00     0.188 C 
BRANCH  42  43
ATOM     43  O   UNL A   1      35.458  32.186  32.305  1.00  0.00    -0.376 OA
BRANCH  43  44
ATOM     44  C   UNL A   1      34.519  33.169  32.697  1.00  0.00     0.202 C 
BRANCH  44  45
ATOM     45  C   UNL A   1      34.900  33.863  34.006  1.00  0.00     0.261 C 
BRANCH  45  46
ATOM     46  O   UNL A   1      35.920  33.074  34.657  1.00  0.00    -0.460 OA
BRANCH  46  47
ATOM     47  C   UNL A   1      37.131  33.681  34.759  1.00  0.00     0.338 C 
ATOM     48  O   UNL A   1      37.372  34.820  34.393  1.00  0.00    -0.246 OA
BRANCH  47  49
ATOM     49  C   UNL A   1      38.182  32.671  35.085  1.00  0.00     0.060 A 
ATOM     50  C   UNL A   1      39.426  33.124  35.487  1.00  0.00     0.016 A 
ATOM     51  C   UNL A   1      38.090  31.373  34.622  1.00  0.00     0.016 A 
ATOM     52  C   UNL A   1      40.579  32.425  35.076  1.00  0.00     0.010 A 
ATOM     53  C   UNL A   1      39.264  30.713  34.246  1.00  0.00     0.010 A 
ATOM     54  C   UNL A   1      40.558  31.261  34.343  1.00  0.00    -0.014 A 
BRANCH  54  55
ATOM     55  C   UNL A   1      41.723  30.597  33.544  1.00  0.00     0.031 A 
ATOM     56  C   UNL A   1      41.740  31.385  32.002  1.00  0.00     0.074 A 
ATOM     57  C   UNL A   1      42.622  29.608  34.133  1.00  0.00     0.049 A 
ATOM     58  N   UNL A   1      42.693  31.417  31.120  1.00  0.00    -0.248 NA
ATOM     59  C   UNL A   1      40.599  32.141  31.409  1.00  0.00     0.031 C 
ATOM     60  C   UNL A   1      44.048  29.308  34.063  1.00  0.00     0.029 A 
ATOM     61  N   UNL A   1      42.482  28.497  35.012  1.00  0.00    -0.354 N 
ATOM     62  C   UNL A   1      42.420  32.147  29.979  1.00  0.00     0.074 A 
ATOM     63  C   UNL A   1      41.087  32.635  30.250  1.00  0.00     0.031 C 
ATOM     64  C   UNL A   1      44.640  28.371  34.809  1.00  0.00     0.029 A 
ATOM     65  C   UNL A   1      43.568  27.487  34.966  1.00  0.00     0.049 A 
ATOM     66  H   UNL A   1      41.710  28.404  35.615  1.00  0.00     0.167 HD
ATOM     67  C   UNL A   1      43.428  32.355  29.049  1.00  0.00     0.037 A 
ATOM     68  C   UNL A   1      43.931  26.364  34.221  1.00  0.00     0.037 A 
ATOM     69  C   UNL A   1      44.518  31.337  29.109  1.00  0.00     0.049 A 
ATOM     70  C   UNL A   1      44.436  26.314  32.597  1.00  0.00     0.074 A 
ATOM     71  C   UNL A   1      45.893  31.319  29.297  1.00  0.00     0.029 A 
ATOM     72  N   UNL A   1      44.199  30.003  28.943  1.00  0.00    -0.354 N 
ATOM     73  N   UNL A   1      44.971  27.244  31.795  1.00  0.00    -0.248 NA
ATOM     74  C   UNL A   1      44.079  25.131  31.789  1.00  0.00     0.031 C 
ATOM     75  C   UNL A   1      46.353  29.953  29.401  1.00  0.00     0.029 A 
ATOM     76  C   UNL A   1      45.273  29.114  29.192  1.00  0.00     0.049 A 
ATOM     77  H   UNL A   1      43.302  29.696  28.675  1.00  0.00     0.167 HD
ATOM     78  C   UNL A   1      44.826  26.888  30.399  1.00  0.00     0.074 A 
ATOM     79  C   UNL A   1      44.277  25.535  30.516  1.00  0.00     0.031 C 
ATOM     80  C   UNL A   1      44.958  27.657  29.202  1.00  0.00     0.037 A 
BRANCH  67  81
ATOM     81  C   UNL A   1      43.609  33.620  28.168  1.00  0.00     0.057 A 
ATOM     82  C   UNL A   1      43.912  33.498  26.786  1.00  0.00     0.134 A 
ATOM     83  C   UNL A   1      43.699  34.949  28.632  1.00  0.00     0.134 A 
ATOM     84  F   UNL A   1      43.809  32.327  26.143  1.00  0.00    -0.206 F 
ATOM     85  C   UNL A   1      44.345  34.566  25.975  1.00  0.00     0.040 A 
ATOM     86  C   UNL A   1      44.075  36.038  27.813  1.00  0.00     0.040 A 
ATOM     87  F   UNL A   1      43.473  35.267  29.911  1.00  0.00    -0.206 F 
ATOM     88  C   UNL A   1      44.428  35.847  26.487  1.00  0.00     0.006 A 
ENDBRANCH  67  81
BRANCH  68  89
ATOM     89  C   UNL A   1      44.005  25.250  35.308  1.00  0.00     0.057 A 
ATOM     90  C   UNL A   1      43.015  24.240  35.173  1.00  0.00     0.134 A 
ATOM     91  C   UNL A   1      45.307  24.733  35.437  1.00  0.00     0.134 A 
ATOM     92  F   UNL A   1      41.717  24.569  35.234  1.00  0.00    -0.206 F 
ATOM     93  C   UNL A   1      43.331  22.953  34.685  1.00  0.00     0.040 A 
ATOM     94  C   UNL A   1      45.651  23.471  34.909  1.00  0.00     0.040 A 
ATOM     95  F   UNL A   1      46.294  25.552  35.826  1.00  0.00    -0.206 F 
ATOM     96  C   UNL A   1      44.660  22.606  34.457  1.00  0.00     0.006 A 
ENDBRANCH  68  89
BRANCH  80  97
ATOM     97  C   UNL A   1      44.633  27.155  27.754  1.00  0.00     0.057 A 
ATOM     98  C   UNL A   1      45.571  26.516  26.942  1.00  0.00     0.134 A 
ATOM     99  C   UNL A   1      43.409  27.453  27.064  1.00  0.00     0.134 A 
ATOM    100  F   UNL A   1      46.816  26.286  27.382  1.00  0.00    -0.206 F 
ATOM    101  C   UNL A   1      45.288  26.127  25.615  1.00  0.00     0.040 A 
ATOM    102  C   UNL A   1      43.138  27.117  25.735  1.00  0.00     0.040 A 
ATOM    103  F   UNL A   1      42.372  28.092  27.612  1.00  0.00    -0.206 F 
ATOM    104  C   UNL A   1      44.073  26.424  25.007  1.00  0.00     0.006 A 
ENDBRANCH  80  97
ENDBRANCH  54  55
ENDBRANCH  47  49
ENDBRANCH  46  47
ENDBRANCH  45  46
ENDBRANCH  44  45
ENDBRANCH  43  44
ENDBRANCH  42  43
ENDBRANCH  41  42
ENDBRANCH  40  41
ENDBRANCH  39  40
ENDBRANCH   1  39
TORSDOF 25
ENDMDL
MODEL 3
REMARK VINA RESULT:      -9.1      3.448      6.642
REMARK SMILES Cc1cccc(C(=O)Nc2ccc(C(=O)NNC(=O)c3ccccc3C(=O)OCCOCCOCCOCCOC(=O)c3ccc(-c4c5nc(c(-c6c(F)cccc6F)c6ccc([nH]6)c(-c6c(F)cccc6F)c6nc(c(-c7c(F)cccc7F)c7ccc4[nH]7)C=C6)C=C5)cc3)cc2)c1
REMARK SMILES IDX 32 1 31 2 30 3 29 4 28 5 26 6 27 7 25 8 20 9 21 10 22 11
REMARK SMILES IDX 24 12 23 13 18 14 17 15 19 17 16 18 14 19 15 20 13 22 10 23
REMARK SMILES IDX 11 24 98 25 12 26 97 27 9 28 7 29 8 30 6 32 1 33 2 34 3 35
REMARK SMILES IDX 99 36 4 37 5 38 33 39 34 40 35 41 36 42 37 43 38 44 39 45
REMARK SMILES IDX 40 46 41 47 42 48 43 49 44 50 96 51 45 52 95 53 46 54 47 55
REMARK SMILES IDX 48 56 89 57 49 58 94 59 88 60 90 61 50 62 93 63 87 64 86 65
REMARK SMILES IDX 51 67 77 68 60 69 76 70 61 71 64 72 75 73 91 74 62 75 63 76
REMARK SMILES IDX 74 78 92 79 65 80 52 81 53 82 58 83 54 84 55 85 57 86 59 87
REMARK SMILES IDX 56 88 78 89 79 90 84 91 80 92 81 93 83 94 85 95 82 96 66 97
REMARK SMILES IDX 67 98 72 99 68 100 69 101 71 102 73 103 70 104
REMARK H PARENT 17 16 16 21 9 31 90 66 64 77
REMARK Flexibility Score: inf
ROOT
ATOM      1  C   UNL A   1      33.908  32.012  27.795  1.00  0.00     0.188 C 
ENDROOT
BRANCH   1   2
ATOM      2  O   UNL A   1      33.446  30.669  27.692  1.00  0.00    -0.376 OA
BRANCH   2   3
ATOM      3  C   UNL A   1      32.595  30.316  26.608  1.00  0.00     0.202 C 
BRANCH   3   4
ATOM      4  C   UNL A   1      33.154  29.445  25.512  1.00  0.00     0.261 C 
BRANCH   4   5
ATOM      5  O   UNL A   1      32.097  28.607  25.116  1.00  0.00    -0.460 OA
BRANCH   5   6
ATOM      6  C   UNL A   1      31.860  28.516  23.825  1.00  0.00     0.339 C 
ATOM      7  O   UNL A   1      32.653  28.309  22.892  1.00  0.00    -0.246 OA
BRANCH   6   8
ATOM      8  C   UNL A   1      30.431  28.433  23.771  1.00  0.00     0.072 A 
ATOM      9  C   UNL A   1      29.763  27.226  23.886  1.00  0.00     0.056 A 
ATOM     10  C   UNL A   1      28.340  27.304  23.656  1.00  0.00     0.015 A 
ATOM     11  C   UNL A   1      27.686  28.451  23.190  1.00  0.00     0.001 A 
ATOM     12  C   UNL A   1      29.772  29.605  23.318  1.00  0.00     0.016 A 
ATOM     13  C   UNL A   1      28.419  29.603  22.992  1.00  0.00     0.001 A 
BRANCH   9  14
ATOM     14  C   UNL A   1      30.332  25.824  23.909  1.00  0.00     0.270 C 
ATOM     15  N   UNL A   1      30.383  24.701  22.888  1.00  0.00    -0.263 N 
ATOM     16  H   UNL A   1      29.598  24.573  22.306  1.00  0.00     0.191 HD
ATOM     17  O   UNL A   1      30.436  25.621  25.130  1.00  0.00    -0.267 OA
BRANCH  15  18
ATOM     18  N   UNL A   1      31.793  23.585  22.671  1.00  0.00    -0.263 N 
ATOM     19  C   UNL A   1      32.986  22.827  23.394  1.00  0.00     0.269 C 
ATOM     20  O   UNL A   1      32.948  21.579  23.387  1.00  0.00    -0.267 OA
ATOM     21  H   UNL A   1      31.838  23.354  21.714  1.00  0.00     0.191 HD
BRANCH  19  22
ATOM     22  C   UNL A   1      34.427  23.281  24.008  1.00  0.00     0.041 A 
ATOM     23  C   UNL A   1      36.962  23.377  25.487  1.00  0.00     0.041 A 
ATOM     24  C   UNL A   1      35.863  24.071  25.897  1.00  0.00     0.027 A 
ATOM     25  C   UNL A   1      36.918  23.074  24.113  1.00  0.00     0.027 A 
ATOM     26  C   UNL A   1      34.667  24.127  25.090  1.00  0.00     0.016 A 
ATOM     27  C   UNL A   1      35.657  22.992  23.395  1.00  0.00     0.016 A 
BRANCH  23  28
ATOM     28  N   UNL A   1      38.103  23.090  26.313  1.00  0.00    -0.322 N 
ATOM     29  C   UNL A   1      39.264  23.702  26.864  1.00  0.00     0.255 C 
ATOM     30  O   UNL A   1      40.136  22.876  27.184  1.00  0.00    -0.269 OA
ATOM     31  H   UNL A   1      38.070  22.147  26.595  1.00  0.00     0.170 HD
BRANCH  29  32
ATOM     32  C   UNL A   1      39.587  25.138  27.363  1.00  0.00     0.040 A 
ATOM     33  C   UNL A   1      39.189  27.741  30.258  1.00  0.00     0.044 C 
ATOM     34  C   UNL A   1      39.626  27.050  28.985  1.00  0.00    -0.050 A 
ATOM     35  C   UNL A   1      40.309  27.852  28.078  1.00  0.00     0.003 A 
ATOM     36  C   UNL A   1      39.354  25.690  28.617  1.00  0.00     0.017 A 
ATOM     37  C   UNL A   1      40.598  27.347  26.822  1.00  0.00     0.001 A 
ATOM     38  C   UNL A   1      40.216  26.032  26.468  1.00  0.00     0.014 A 
ENDBRANCH  29  32
ENDBRANCH  23  28
ENDBRANCH  19  22
ENDBRANCH  15  18
ENDBRANCH   9  14
ENDBRANCH   6   8
ENDBRANCH   5   6
ENDBRANCH   4   5
ENDBRANCH   3   4
ENDBRANCH   2   3
ENDBRANCH   1   2
BRANCH   1  39
ATOM     39  C   UNL A   1      34.325  32.662  29.132  1.00  0.00     0.188 C 
BRANCH  39  40
ATOM     40  O   UNL A   1      35.575  32.379  29.705  1.00  0.00    -0.377 OA
BRANCH  40  41
ATOM     41  C   UNL A   1      36.155  33.378  30.517  1.00  0.00     0.188 C 
BRANCH  41  42
ATOM     42  C   UNL A   1      37.613  33.311  30.921  1.00  0.00     0.188 C 
BRANCH  42  43
ATOM     43  O   UNL A   1      37.645  33.305  32.338  1.00  0.00    -0.376 OA
BRANCH  43  44
ATOM     44  C   UNL A   1      36.411  33.580  32.974  1.00  0.00     0.202 C 
BRANCH  44  45
ATOM     45  C   UNL A   1      36.578  33.981  34.441  1.00  0.00     0.261 C 
BRANCH  45  46
ATOM     46  O   UNL A   1      37.644  33.190  35.009  1.00  0.00    -0.460 OA
BRANCH  46  47
ATOM     47  C   UNL A   1      38.679  33.908  35.517  1.00  0.00     0.338 C 
ATOM     48  O   UNL A   1      38.799  35.118  35.420  1.00  0.00    -0.246 OA
BRANCH  47  49
ATOM     49  C   UNL A   1      39.784  32.991  35.927  1.00  0.00     0.060 A 
ATOM     50  C   UNL A   1      41.075  33.490  35.957  1.00  0.00     0.016 A 
ATOM     51  C   UNL A   1      39.628  31.620  35.875  1.00  0.00     0.016 A 
ATOM     52  C   UNL A   1      42.143  32.660  35.567  1.00  0.00     0.010 A 
ATOM     53  C   UNL A   1      40.723  30.835  35.501  1.00  0.00     0.010 A 
ATOM     54  C   UNL A   1      42.006  31.337  35.210  1.00  0.00    -0.014 A 
BRANCH  54  55
ATOM     55  C   UNL A   1      43.017  30.431  34.440  1.00  0.00     0.031 A 
ATOM     56  C   UNL A   1      42.853  30.860  32.771  1.00  0.00     0.074 A 
ATOM     57  C   UNL A   1      43.945  29.530  35.119  1.00  0.00     0.049 A 
ATOM     58  N   UNL A   1      43.673  30.629  31.790  1.00  0.00    -0.248 NA
ATOM     59  C   UNL A   1      41.674  31.552  32.172  1.00  0.00     0.031 C 
ATOM     60  C   UNL A   1      45.332  29.115  34.938  1.00  0.00     0.029 A 
ATOM     61  N   UNL A   1      43.881  28.650  36.236  1.00  0.00    -0.354 N 
ATOM     62  C   UNL A   1      43.276  31.111  30.558  1.00  0.00     0.074 A 
ATOM     63  C   UNL A   1      42.017  31.744  30.879  1.00  0.00     0.031 C 
ATOM     64  C   UNL A   1      45.980  28.322  35.795  1.00  0.00     0.029 A 
ATOM     65  C   UNL A   1      44.903  27.576  36.282  1.00  0.00     0.049 A 
ATOM     66  H   UNL A   1      43.197  28.749  36.938  1.00  0.00     0.167 HD
ATOM     67  C   UNL A   1      44.151  31.036  29.485  1.00  0.00     0.037 A 
ATOM     68  C   UNL A   1      45.108  26.294  35.770  1.00  0.00     0.037 A 
ATOM     69  C   UNL A   1      45.193  29.977  29.635  1.00  0.00     0.049 A 
ATOM     70  C   UNL A   1      45.377  25.854  34.149  1.00  0.00     0.074 A 
ATOM     71  C   UNL A   1      46.579  29.897  29.647  1.00  0.00     0.029 A 
ATOM     72  N   UNL A   1      44.795  28.666  29.816  1.00  0.00    -0.354 N 
ATOM     73  N   UNL A   1      45.836  26.545  33.097  1.00  0.00    -0.248 NA
ATOM     74  C   UNL A   1      44.858  24.554  33.680  1.00  0.00     0.031 C 
ATOM     75  C   UNL A   1      46.987  28.557  29.998  1.00  0.00     0.029 A 
ATOM     76  C   UNL A   1      45.852  27.776  30.122  1.00  0.00     0.049 A 
ATOM     77  H   UNL A   1      43.857  28.376  29.740  1.00  0.00     0.167 HD
ATOM     78  C   UNL A   1      45.481  25.905  31.847  1.00  0.00     0.074 A 
ATOM     79  C   UNL A   1      44.894  24.655  32.335  1.00  0.00     0.031 C 
ATOM     80  C   UNL A   1      45.478  26.383  30.500  1.00  0.00     0.037 A 
BRANCH  67  81
ATOM     81  C   UNL A   1      44.263  32.061  28.326  1.00  0.00     0.057 A 
ATOM     82  C   UNL A   1      44.230  31.627  26.974  1.00  0.00     0.134 A 
ATOM     83  C   UNL A   1      44.599  33.425  28.454  1.00  0.00     0.134 A 
ATOM     84  F   UNL A   1      43.859  30.383  26.643  1.00  0.00    -0.206 F 
ATOM     85  C   UNL A   1      44.581  32.437  25.876  1.00  0.00     0.040 A 
ATOM     86  C   UNL A   1      44.894  34.263  27.354  1.00  0.00     0.040 A 
ATOM     87  F   UNL A   1      44.704  34.018  29.648  1.00  0.00    -0.206 F 
ATOM     88  C   UNL A   1      44.915  33.765  26.061  1.00  0.00     0.006 A 
ENDBRANCH  67  81
BRANCH  68  89
ATOM     89  C   UNL A   1      45.284  25.441  37.063  1.00  0.00     0.057 A 
ATOM     90  C   UNL A   1      46.488  25.703  37.771  1.00  0.00     0.134 A 
ATOM     91  C   UNL A   1      44.142  25.492  37.880  1.00  0.00     0.134 A 
ATOM     92  F   UNL A   1      47.670  25.502  37.171  1.00  0.00    -0.206 F 
ATOM     93  C   UNL A   1      46.494  26.442  38.974  1.00  0.00     0.040 A 
ATOM     94  C   UNL A   1      44.115  26.267  39.059  1.00  0.00     0.040 A 
ATOM     95  F   UNL A   1      42.982  25.018  37.403  1.00  0.00    -0.206 F 
ATOM     96  C   UNL A   1      45.290  26.811  39.566  1.00  0.00     0.006 A 
ENDBRANCH  68  89
BRANCH  80  97
ATOM     97  C   UNL A   1      44.931  25.604  29.256  1.00  0.00     0.057 A 
ATOM     98  C   UNL A   1      43.570  25.468  28.982  1.00  0.00     0.134 A 
ATOM     99  C   UNL A   1      45.757  24.818  28.382  1.00  0.00     0.134 A 
ATOM    100  F   UNL A   1      42.651  26.023  29.783  1.00  0.00    -0.206 F 
ATOM    101  C   UNL A   1      43.086  24.709  27.895  1.00  0.00     0.040 A 
ATOM    102  C   UNL A   1      45.284  24.023  27.335  1.00  0.00     0.040 A 
ATOM    103  F   UNL A   1      47.089  24.749  28.464  1.00  0.00    -0.206 F 
ATOM    104  C   UNL A   1      43.938  23.986  27.068  1.00  0.00     0.006 A 
ENDBRANCH  80  97
ENDBRANCH  54  55
ENDBRANCH  47  49
ENDBRANCH  46  47
ENDBRANCH  45  46
ENDBRANCH  44  45
ENDBRANCH  43  44
ENDBRANCH  42  43
ENDBRANCH  41  42
ENDBRANCH  40  41
ENDBRANCH  39  40
ENDBRANCH   1  39
TORSDOF 25
ENDMDL
