MODEL 1
REMARK VINA RESULT:     -10.8      0.000      0.000
REMARK SMILES O=C(OCCOCCOCCOCCOC(=O)c1cccc(OS(=O)(=O)c2cccc([N+](=O)[O-])c2)c1)c1ccc(-c2c3nc(c(-c4c(F)cccc4F)c4ccc([nH]4)c(-c4c(F)cccc4F)c4nc(c(-c5c(F)cccc5F)c5ccc2[nH]5)C=C4)C=C3)cc1
REMARK SMILES IDX 10 1 9 2 8 3 7 4 6 5 5 6 4 7 3 8 2 9 1 10 37 11 38 12 90 13
REMARK SMILES IDX 39 14 89 15 40 16 41 17 42 18 83 19 43 20 88 21 82 22 84 23
REMARK SMILES IDX 44 24 87 25 81 26 80 27 45 29 71 30 54 31 70 32 55 33 58 34
REMARK SMILES IDX 69 35 85 36 56 37 57 38 68 40 86 41 59 42 46 43 47 44 52 45
REMARK SMILES IDX 48 46 49 47 51 48 53 49 50 50 72 51 73 52 78 53 74 54 75 55
REMARK SMILES IDX 77 56 79 57 76 58 60 59 61 60 66 61 62 62 63 63 65 64 67 65
REMARK SMILES IDX 64 66 11 67 12 68 13 69 14 70 15 71 16 72 17 73 18 74 19 75
REMARK SMILES IDX 36 76 20 77 22 78 21 79 23 80 24 81 25 82 26 83 27 84 28 85
REMARK SMILES IDX 35 86 29 87 31 88 30 89 32 90 33 91 34 92
REMARK H PARENT 84 28 58 39
REMARK Flexibility Score: inf
ROOT
ATOM      1  C   UNL A   1      33.228  36.149  29.162  1.00  0.00     0.188 C 
ENDROOT
BRANCH   1   2
ATOM      2  O   UNL A   1      32.490  36.447  30.341  1.00  0.00    -0.377 OA
BRANCH   2   3
ATOM      3  C   UNL A   1      33.240  36.784  31.506  1.00  0.00     0.188 C 
BRANCH   3   4
ATOM      4  C   UNL A   1      33.811  35.593  32.279  1.00  0.00     0.188 C 
BRANCH   4   5
ATOM      5  O   UNL A   1      34.708  36.044  33.298  1.00  0.00    -0.376 OA
BRANCH   5   6
ATOM      6  C   UNL A   1      35.199  35.027  34.170  1.00  0.00     0.202 C 
BRANCH   6   7
ATOM      7  C   UNL A   1      34.602  33.647  33.895  1.00  0.00     0.261 C 
BRANCH   7   8
ATOM      8  O   UNL A   1      35.574  32.743  33.354  1.00  0.00    -0.460 OA
BRANCH   8   9
ATOM      9  C   UNL A   1      35.554  32.126  32.146  1.00  0.00     0.338 C 
ATOM     10  O   UNL A   1      34.533  32.224  31.466  1.00  0.00    -0.246 OA
BRANCH   9  11
ATOM     11  C   UNL A   1      36.705  31.361  31.561  1.00  0.00     0.060 A 
ATOM     12  C   UNL A   1      37.693  30.684  32.278  1.00  0.00     0.016 A 
ATOM     13  C   UNL A   1      36.751  31.281  30.157  1.00  0.00     0.016 A 
ATOM     14  C   UNL A   1      38.734  30.020  31.641  1.00  0.00     0.010 A 
ATOM     15  C   UNL A   1      37.781  30.598  29.504  1.00  0.00     0.010 A 
ATOM     16  C   UNL A   1      38.796  29.997  30.253  1.00  0.00    -0.014 A 
BRANCH  16  17
ATOM     17  C   UNL A   1      40.042  29.520  29.630  1.00  0.00     0.031 A 
ATOM     18  C   UNL A   1      41.206  30.463  29.601  1.00  0.00     0.074 A 
ATOM     19  C   UNL A   1      40.161  28.239  29.248  1.00  0.00     0.049 A 
ATOM     20  N   UNL A   1      42.394  30.305  29.084  1.00  0.00    -0.248 NA
ATOM     21  C   UNL A   1      41.007  31.763  30.268  1.00  0.00     0.031 C 
ATOM     22  C   UNL A   1      39.120  27.217  29.381  1.00  0.00     0.029 A 
ATOM     23  N   UNL A   1      41.222  27.569  28.699  1.00  0.00    -0.354 N 
ATOM     24  C   UNL A   1      43.068  31.493  29.335  1.00  0.00     0.074 A 
ATOM     25  C   UNL A   1      42.164  32.364  30.048  1.00  0.00     0.031 C 
ATOM     26  C   UNL A   1      39.602  26.043  28.937  1.00  0.00     0.029 A 
ATOM     27  C   UNL A   1      40.956  26.248  28.433  1.00  0.00     0.049 A 
ATOM     28  H   UNL A   1      42.091  27.992  28.513  1.00  0.00     0.167 HD
ATOM     29  C   UNL A   1      44.333  31.822  28.989  1.00  0.00     0.037 A 
ATOM     30  C   UNL A   1      41.720  25.328  27.817  1.00  0.00     0.037 A 
ATOM     31  C   UNL A   1      45.205  30.932  28.274  1.00  0.00     0.049 A 
ATOM     32  C   UNL A   1      43.085  25.751  27.340  1.00  0.00     0.074 A 
ATOM     33  C   UNL A   1      46.480  31.163  27.795  1.00  0.00     0.029 A 
ATOM     34  N   UNL A   1      44.876  29.624  27.938  1.00  0.00    -0.354 N 
ATOM     35  N   UNL A   1      43.696  26.903  27.503  1.00  0.00    -0.248 NA
ATOM     36  C   UNL A   1      43.856  24.762  26.579  1.00  0.00     0.031 C 
ATOM     37  C   UNL A   1      46.904  30.005  27.130  1.00  0.00     0.029 A 
ATOM     38  C   UNL A   1      45.914  29.039  27.239  1.00  0.00     0.049 A 
ATOM     39  H   UNL A   1      44.027  29.181  28.165  1.00  0.00     0.167 HD
ATOM     40  C   UNL A   1      44.927  26.775  26.876  1.00  0.00     0.074 A 
ATOM     41  C   UNL A   1      44.982  25.424  26.348  1.00  0.00     0.031 C 
ATOM     42  C   UNL A   1      45.922  27.686  26.738  1.00  0.00     0.037 A 
BRANCH  29  43
ATOM     43  C   UNL A   1      44.778  33.219  29.305  1.00  0.00     0.057 A 
ATOM     44  C   UNL A   1      45.428  33.545  30.505  1.00  0.00     0.134 A 
ATOM     45  C   UNL A   1      44.484  34.269  28.427  1.00  0.00     0.134 A 
ATOM     46  F   UNL A   1      45.707  32.592  31.408  1.00  0.00    -0.206 F 
ATOM     47  C   UNL A   1      45.736  34.867  30.832  1.00  0.00     0.040 A 
ATOM     48  C   UNL A   1      44.809  35.592  28.732  1.00  0.00     0.040 A 
ATOM     49  F   UNL A   1      43.855  34.029  27.267  1.00  0.00    -0.206 F 
ATOM     50  C   UNL A   1      45.426  35.895  29.943  1.00  0.00     0.006 A 
ENDBRANCH  29  43
BRANCH  30  51
ATOM     51  C   UNL A   1      41.200  23.957  27.574  1.00  0.00     0.057 A 
ATOM     52  C   UNL A   1      40.206  23.709  26.621  1.00  0.00     0.134 A 
ATOM     53  C   UNL A   1      41.683  22.857  28.296  1.00  0.00     0.134 A 
ATOM     54  F   UNL A   1      39.683  24.720  25.911  1.00  0.00    -0.206 F 
ATOM     55  C   UNL A   1      39.705  22.422  26.400  1.00  0.00     0.040 A 
ATOM     56  C   UNL A   1      41.213  21.563  28.068  1.00  0.00     0.040 A 
ATOM     57  F   UNL A   1      42.633  23.023  29.227  1.00  0.00    -0.206 F 
ATOM     58  C   UNL A   1      40.216  21.343  27.120  1.00  0.00     0.006 A 
ENDBRANCH  30  51
BRANCH  42  59
ATOM     59  C   UNL A   1      47.154  27.236  26.014  1.00  0.00     0.057 A 
ATOM     60  C   UNL A   1      47.332  27.477  24.647  1.00  0.00     0.134 A 
ATOM     61  C   UNL A   1      48.193  26.604  26.708  1.00  0.00     0.134 A 
ATOM     62  F   UNL A   1      46.366  28.067  23.928  1.00  0.00    -0.206 F 
ATOM     63  C   UNL A   1      48.500  27.088  23.989  1.00  0.00     0.040 A 
ATOM     64  C   UNL A   1      49.374  26.235  26.067  1.00  0.00     0.040 A 
ATOM     65  F   UNL A   1      48.084  26.357  28.022  1.00  0.00    -0.206 F 
ATOM     66  C   UNL A   1      49.528  26.473  24.702  1.00  0.00     0.006 A 
ENDBRANCH  42  59
ENDBRANCH  16  17
ENDBRANCH   9  11
ENDBRANCH   8   9
ENDBRANCH   7   8
ENDBRANCH   6   7
ENDBRANCH   5   6
ENDBRANCH   4   5
ENDBRANCH   3   4
ENDBRANCH   2   3
ENDBRANCH   1   2
BRANCH   1  67
ATOM     67  C   UNL A   1      33.405  34.673  28.741  1.00  0.00     0.188 C 
BRANCH  67  68
ATOM     68  O   UNL A   1      34.516  34.410  27.894  1.00  0.00    -0.376 OA
BRANCH  68  69
ATOM     69  C   UNL A   1      35.000  33.069  27.910  1.00  0.00     0.202 C 
BRANCH  69  70
ATOM     70  C   UNL A   1      33.912  32.012  28.119  1.00  0.00     0.261 C 
BRANCH  70  71
ATOM     71  O   UNL A   1      33.646  31.188  26.976  1.00  0.00    -0.460 OA
BRANCH  71  72
ATOM     72  C   UNL A   1      33.924  29.866  27.021  1.00  0.00     0.338 C 
ATOM     73  O   UNL A   1      34.689  29.289  27.771  1.00  0.00    -0.246 OA
BRANCH  72  74
ATOM     74  C   UNL A   1      32.956  29.209  26.111  1.00  0.00     0.063 A 
ATOM     75  C   UNL A   1      31.941  29.946  25.494  1.00  0.00     0.016 A 
ATOM     76  C   UNL A   1      33.154  27.870  25.774  1.00  0.00     0.064 A 
ATOM     77  C   UNL A   1      31.155  29.335  24.514  1.00  0.00     0.005 A 
ATOM     78  C   UNL A   1      32.305  27.230  24.875  1.00  0.00     0.143 A 
ATOM     79  C   UNL A   1      31.332  27.978  24.209  1.00  0.00     0.048 A 
BRANCH  78  80
ATOM     80  O   UNL A   1      32.352  25.879  24.617  1.00  0.00    -0.379 OA
BRANCH  80  81
ATOM     81  S   UNL A   1      31.387  24.839  25.436  1.00  0.00     0.339 S 
ATOM     82  O   UNL A   1      31.049  25.434  26.713  1.00  0.00    -0.181 OA
ATOM     83  O   UNL A   1      30.361  24.325  24.545  1.00  0.00    -0.181 OA
BRANCH  81  84
ATOM     84  C   UNL A   1      32.375  23.417  25.806  1.00  0.00     0.112 A 
ATOM     85  C   UNL A   1      33.358  23.581  26.793  1.00  0.00     0.024 A 
ATOM     86  C   UNL A   1      32.135  22.177  25.218  1.00  0.00     0.109 A 
ATOM     87  C   UNL A   1      34.120  22.493  27.205  1.00  0.00     0.009 A 
ATOM     88  C   UNL A   1      32.910  21.089  25.642  1.00  0.00     0.270 A 
ATOM     89  C   UNL A   1      33.899  21.242  26.631  1.00  0.00     0.086 A 
BRANCH  88  90
ATOM     90  N   UNL A   1      32.679  19.762  25.057  1.00  0.00     0.062 N 
ATOM     91  O   UNL A   1      32.356  19.707  23.862  1.00  0.00    -0.258 OA
ATOM     92  O   UNL A   1      32.824  18.779  25.796  1.00  0.00    -0.258 OA
ENDBRANCH  88  90
ENDBRANCH  81  84
ENDBRANCH  80  81
ENDBRANCH  78  80
ENDBRANCH  72  74
ENDBRANCH  71  72
ENDBRANCH  70  71
ENDBRANCH  69  70
ENDBRANCH  68  69
ENDBRANCH  67  68
ENDBRANCH   1  67
TORSDOF 24
ENDMDL
MODEL 2
REMARK VINA RESULT:     -10.2      0.672      5.947
REMARK SMILES O=C(OCCOCCOCCOCCOC(=O)c1cccc(OS(=O)(=O)c2cccc([N+](=O)[O-])c2)c1)c1ccc(-c2c3nc(c(-c4c(F)cccc4F)c4ccc([nH]4)c(-c4c(F)cccc4F)c4nc(c(-c5c(F)cccc5F)c5ccc2[nH]5)C=C4)C=C3)cc1
REMARK SMILES IDX 10 1 9 2 8 3 7 4 6 5 5 6 4 7 3 8 2 9 1 10 37 11 38 12 90 13
REMARK SMILES IDX 39 14 89 15 40 16 41 17 42 18 83 19 43 20 88 21 82 22 84 23
REMARK SMILES IDX 44 24 87 25 81 26 80 27 45 29 71 30 54 31 70 32 55 33 58 34
REMARK SMILES IDX 69 35 85 36 56 37 57 38 68 40 86 41 59 42 46 43 47 44 52 45
REMARK SMILES IDX 48 46 49 47 51 48 53 49 50 50 72 51 73 52 78 53 74 54 75 55
REMARK SMILES IDX 77 56 79 57 76 58 60 59 61 60 66 61 62 62 63 63 65 64 67 65
REMARK SMILES IDX 64 66 11 67 12 68 13 69 14 70 15 71 16 72 17 73 18 74 19 75
REMARK SMILES IDX 36 76 20 77 22 78 21 79 23 80 24 81 25 82 26 83 27 84 28 85
REMARK SMILES IDX 35 86 29 87 31 88 30 89 32 90 33 91 34 92
REMARK H PARENT 84 28 58 39
REMARK Flexibility Score: inf
ROOT
ATOM      1  C   UNL A   1      32.913  36.107  29.641  1.00  0.00     0.188 C 
ENDROOT
BRANCH   1   2
ATOM      2  O   UNL A   1      32.337  36.502  30.880  1.00  0.00    -0.377 OA
BRANCH   2   3
ATOM      3  C   UNL A   1      33.237  36.808  31.943  1.00  0.00     0.188 C 
BRANCH   3   4
ATOM      4  C   UNL A   1      34.130  35.651  32.394  1.00  0.00     0.188 C 
BRANCH   4   5
ATOM      5  O   UNL A   1      34.782  35.974  33.626  1.00  0.00    -0.376 OA
BRANCH   5   6
ATOM      6  C   UNL A   1      35.240  34.856  34.384  1.00  0.00     0.202 C 
BRANCH   6   7
ATOM      7  C   UNL A   1      34.800  33.509  33.811  1.00  0.00     0.261 C 
BRANCH   7   8
ATOM      8  O   UNL A   1      35.900  32.786  33.243  1.00  0.00    -0.460 OA
BRANCH   8   9
ATOM      9  C   UNL A   1      35.910  32.047  32.105  1.00  0.00     0.338 C 
ATOM     10  O   UNL A   1      34.860  31.953  31.470  1.00  0.00    -0.246 OA
BRANCH   9  11
ATOM     11  C   UNL A   1      37.122  31.364  31.543  1.00  0.00     0.060 A 
ATOM     12  C   UNL A   1      38.168  30.805  32.280  1.00  0.00     0.016 A 
ATOM     13  C   UNL A   1      37.172  31.236  30.143  1.00  0.00     0.016 A 
ATOM     14  C   UNL A   1      39.262  30.212  31.664  1.00  0.00     0.010 A 
ATOM     15  C   UNL A   1      38.258  30.622  29.511  1.00  0.00     0.010 A 
ATOM     16  C   UNL A   1      39.323  30.142  30.276  1.00  0.00    -0.014 A 
BRANCH  16  17
ATOM     17  C   UNL A   1      40.605  29.754  29.666  1.00  0.00     0.031 A 
ATOM     18  C   UNL A   1      40.713  28.369  29.104  1.00  0.00     0.074 A 
ATOM     19  C   UNL A   1      41.576  30.665  29.489  1.00  0.00     0.049 A 
ATOM     20  N   UNL A   1      41.732  27.771  28.550  1.00  0.00    -0.248 NA
ATOM     21  C   UNL A   1      39.489  27.548  29.157  1.00  0.00     0.031 C 
ATOM     22  C   UNL A   1      41.489  32.075  29.875  1.00  0.00     0.029 A 
ATOM     23  N   UNL A   1      42.811  30.548  28.912  1.00  0.00    -0.354 N 
ATOM     24  C   UNL A   1      41.282  26.499  28.221  1.00  0.00     0.074 A 
ATOM     25  C   UNL A   1      39.902  26.406  28.634  1.00  0.00     0.031 C 
ATOM     26  C   UNL A   1      42.623  32.697  29.509  1.00  0.00     0.029 A 
ATOM     27  C   UNL A   1      43.533  31.717  28.924  1.00  0.00     0.049 A 
ATOM     28  H   UNL A   1      43.150  29.709  28.525  1.00  0.00     0.167 HD
ATOM     29  C   UNL A   1      41.973  25.497  27.631  1.00  0.00     0.037 A 
ATOM     30  C   UNL A   1      44.801  31.944  28.535  1.00  0.00     0.037 A 
ATOM     31  C   UNL A   1      43.348  25.622  27.237  1.00  0.00     0.049 A 
ATOM     32  C   UNL A   1      45.587  30.784  27.984  1.00  0.00     0.074 A 
ATOM     33  C   UNL A   1      44.189  24.667  26.700  1.00  0.00     0.029 A 
ATOM     34  N   UNL A   1      44.084  26.797  27.344  1.00  0.00    -0.354 N 
ATOM     35  N   UNL A   1      45.189  29.555  27.747  1.00  0.00    -0.248 NA
ATOM     36  C   UNL A   1      46.997  31.032  27.665  1.00  0.00     0.031 C 
ATOM     37  C   UNL A   1      45.448  25.255  26.522  1.00  0.00     0.029 A 
ATOM     38  C   UNL A   1      45.377  26.587  26.902  1.00  0.00     0.049 A 
ATOM     39  H   UNL A   1      43.735  27.652  27.684  1.00  0.00     0.167 HD
ATOM     40  C   UNL A   1      46.294  28.885  27.242  1.00  0.00     0.074 A 
ATOM     41  C   UNL A   1      47.373  29.853  27.188  1.00  0.00     0.031 C 
ATOM     42  C   UNL A   1      46.416  27.588  26.863  1.00  0.00     0.037 A 
BRANCH  29  43
ATOM     43  C   UNL A   1      41.262  24.186  27.477  1.00  0.00     0.057 A 
ATOM     44  C   UNL A   1      41.609  23.053  28.228  1.00  0.00     0.134 A 
ATOM     45  C   UNL A   1      40.262  24.035  26.509  1.00  0.00     0.134 A 
ATOM     46  F   UNL A   1      42.584  23.119  29.148  1.00  0.00    -0.206 F 
ATOM     47  C   UNL A   1      41.012  21.812  27.994  1.00  0.00     0.040 A 
ATOM     48  C   UNL A   1      39.641  22.805  26.283  1.00  0.00     0.040 A 
ATOM     49  F   UNL A   1      39.889  25.075  25.748  1.00  0.00    -0.206 F 
ATOM     50  C   UNL A   1      40.024  21.687  27.019  1.00  0.00     0.006 A 
ENDBRANCH  29  43
BRANCH  30  51
ATOM     51  C   UNL A   1      45.409  33.290  28.702  1.00  0.00     0.057 A 
ATOM     52  C   UNL A   1      45.372  34.243  27.679  1.00  0.00     0.134 A 
ATOM     53  C   UNL A   1      46.052  33.655  29.893  1.00  0.00     0.134 A 
ATOM     54  F   UNL A   1      44.793  33.951  26.504  1.00  0.00    -0.206 F 
ATOM     55  C   UNL A   1      45.956  35.504  27.828  1.00  0.00     0.040 A 
ATOM     56  C   UNL A   1      46.615  34.920  30.068  1.00  0.00     0.040 A 
ATOM     57  F   UNL A   1      46.129  32.789  30.914  1.00  0.00    -0.206 F 
ATOM     58  C   UNL A   1      46.573  35.848  29.030  1.00  0.00     0.006 A 
ENDBRANCH  30  51
BRANCH  42  59
ATOM     59  C   UNL A   1      47.751  27.162  26.335  1.00  0.00     0.057 A 
ATOM     60  C   UNL A   1      48.742  26.642  27.176  1.00  0.00     0.134 A 
ATOM     61  C   UNL A   1      48.024  27.223  24.963  1.00  0.00     0.134 A 
ATOM     62  F   UNL A   1      48.542  26.572  28.500  1.00  0.00    -0.206 F 
ATOM     63  C   UNL A   1      49.969  26.212  26.670  1.00  0.00     0.040 A 
ATOM     64  C   UNL A   1      49.235  26.772  24.443  1.00  0.00     0.040 A 
ATOM     65  F   UNL A   1      47.108  27.701  24.107  1.00  0.00    -0.206 F 
ATOM     66  C   UNL A   1      50.214  26.270  25.299  1.00  0.00     0.006 A 
ENDBRANCH  42  59
ENDBRANCH  16  17
ENDBRANCH   9  11
ENDBRANCH   8   9
ENDBRANCH   7   8
ENDBRANCH   6   7
ENDBRANCH   5   6
ENDBRANCH   4   5
ENDBRANCH   3   4
ENDBRANCH   2   3
ENDBRANCH   1   2
BRANCH   1  67
ATOM     67  C   UNL A   1      33.299  34.625  29.431  1.00  0.00     0.188 C 
BRANCH  67  68
ATOM     68  O   UNL A   1      33.543  34.244  28.083  1.00  0.00    -0.376 OA
BRANCH  68  69
ATOM     69  C   UNL A   1      34.521  33.223  27.898  1.00  0.00     0.202 C 
BRANCH  69  70
ATOM     70  C   UNL A   1      34.005  31.805  28.161  1.00  0.00     0.261 C 
BRANCH  70  71
ATOM     71  O   UNL A   1      33.809  31.009  26.984  1.00  0.00    -0.460 OA
BRANCH  71  72
ATOM     72  C   UNL A   1      34.143  29.699  26.996  1.00  0.00     0.338 C 
ATOM     73  O   UNL A   1      35.052  29.167  27.605  1.00  0.00    -0.246 OA
BRANCH  72  74
ATOM     74  C   UNL A   1      33.056  28.989  26.283  1.00  0.00     0.063 A 
ATOM     75  C   UNL A   1      32.174  29.684  25.450  1.00  0.00     0.016 A 
ATOM     76  C   UNL A   1      33.007  27.596  26.348  1.00  0.00     0.064 A 
ATOM     77  C   UNL A   1      31.272  28.965  24.661  1.00  0.00     0.005 A 
ATOM     78  C   UNL A   1      32.040  26.885  25.644  1.00  0.00     0.143 A 
ATOM     79  C   UNL A   1      31.201  27.569  24.763  1.00  0.00     0.048 A 
BRANCH  78  80
ATOM     80  O   UNL A   1      31.843  25.530  25.784  1.00  0.00    -0.379 OA
BRANCH  80  81
ATOM     81  S   UNL A   1      31.985  24.529  24.494  1.00  0.00     0.339 S 
ATOM     82  O   UNL A   1      30.658  24.216  24.006  1.00  0.00    -0.181 OA
ATOM     83  O   UNL A   1      33.020  25.028  23.606  1.00  0.00    -0.181 OA
BRANCH  81  84
ATOM     84  C   UNL A   1      32.652  23.008  25.107  1.00  0.00     0.112 A 
ATOM     85  C   UNL A   1      33.455  23.096  26.254  1.00  0.00     0.024 A 
ATOM     86  C   UNL A   1      32.329  21.777  24.539  1.00  0.00     0.109 A 
ATOM     87  C   UNL A   1      33.947  21.940  26.850  1.00  0.00     0.009 A 
ATOM     88  C   UNL A   1      32.832  20.620  25.149  1.00  0.00     0.270 A 
ATOM     89  C   UNL A   1      33.638  20.697  26.299  1.00  0.00     0.086 A 
BRANCH  88  90
ATOM     90  N   UNL A   1      32.502  19.303  24.589  1.00  0.00     0.062 N 
ATOM     91  O   UNL A   1      32.154  18.412  25.377  1.00  0.00    -0.258 OA
ATOM     92  O   UNL A   1      32.589  19.166  23.362  1.00  0.00    -0.258 OA
ENDBRANCH  88  90
ENDBRANCH  81  84
ENDBRANCH  80  81
ENDBRANCH  78  80
ENDBRANCH  72  74
ENDBRANCH  71  72
ENDBRANCH  70  71
ENDBRANCH  69  70
ENDBRANCH  68  69
ENDBRANCH  67  68
ENDBRANCH   1  67
TORSDOF 24
ENDMDL
MODEL 3
REMARK VINA RESULT:     -10.0      1.783      2.583
REMARK SMILES O=C(OCCOCCOCCOCCOC(=O)c1cccc(OS(=O)(=O)c2cccc([N+](=O)[O-])c2)c1)c1ccc(-c2c3nc(c(-c4c(F)cccc4F)c4ccc([nH]4)c(-c4c(F)cccc4F)c4nc(c(-c5c(F)cccc5F)c5ccc2[nH]5)C=C4)C=C3)cc1
REMARK SMILES IDX 10 1 9 2 8 3 7 4 6 5 5 6 4 7 3 8 2 9 1 10 37 11 38 12 90 13
REMARK SMILES IDX 39 14 89 15 40 16 41 17 42 18 83 19 43 20 88 21 82 22 84 23
REMARK SMILES IDX 44 24 87 25 81 26 80 27 45 29 71 30 54 31 70 32 55 33 58 34
REMARK SMILES IDX 69 35 85 36 56 37 57 38 68 40 86 41 59 42 46 43 47 44 52 45
REMARK SMILES IDX 48 46 49 47 51 48 53 49 50 50 72 51 73 52 78 53 74 54 75 55
REMARK SMILES IDX 77 56 79 57 76 58 60 59 61 60 66 61 62 62 63 63 65 64 67 65
REMARK SMILES IDX 64 66 11 67 12 68 13 69 14 70 15 71 16 72 17 73 18 74 19 75
REMARK SMILES IDX 36 76 20 77 22 78 21 79 23 80 24 81 25 82 26 83 27 84 28 85
REMARK SMILES IDX 35 86 29 87 31 88 30 89 32 90 33 91 34 92
REMARK H PARENT 84 28 58 39
REMARK Flexibility Score: inf
ROOT
ATOM      1  C   UNL A   1      35.420  34.215  28.906  1.00  0.00     0.188 C 
ENDROOT
BRANCH   1   2
ATOM      2  O   UNL A   1      34.736  33.980  30.130  1.00  0.00    -0.377 OA
BRANCH   2   3
ATOM      3  C   UNL A   1      33.733  34.922  30.503  1.00  0.00     0.188 C 
BRANCH   3   4
ATOM      4  C   UNL A   1      33.802  35.408  31.952  1.00  0.00     0.188 C 
BRANCH   4   5
ATOM      5  O   UNL A   1      32.953  34.613  32.785  1.00  0.00    -0.376 OA
BRANCH   5   6
ATOM      6  C   UNL A   1      33.505  33.366  33.204  1.00  0.00     0.202 C 
BRANCH   6   7
ATOM      7  C   UNL A   1      34.860  33.502  33.898  1.00  0.00     0.261 C 
BRANCH   7   8
ATOM      8  O   UNL A   1      35.880  32.748  33.230  1.00  0.00    -0.460 OA
BRANCH   8   9
ATOM      9  C   UNL A   1      36.982  33.220  32.594  1.00  0.00     0.338 C 
ATOM     10  O   UNL A   1      37.173  34.436  32.598  1.00  0.00    -0.246 OA
BRANCH   9  11
ATOM     11  C   UNL A   1      38.009  32.361  31.917  1.00  0.00     0.060 A 
ATOM     12  C   UNL A   1      39.003  31.613  32.550  1.00  0.00     0.016 A 
ATOM     13  C   UNL A   1      37.918  32.268  30.516  1.00  0.00     0.016 A 
ATOM     14  C   UNL A   1      39.925  30.863  31.830  1.00  0.00     0.010 A 
ATOM     15  C   UNL A   1      38.826  31.500  29.781  1.00  0.00     0.010 A 
ATOM     16  C   UNL A   1      39.855  30.825  30.442  1.00  0.00    -0.014 A 
BRANCH  16  17
ATOM     17  C   UNL A   1      40.996  30.245  29.715  1.00  0.00     0.031 A 
ATOM     18  C   UNL A   1      42.220  31.095  29.556  1.00  0.00     0.074 A 
ATOM     19  C   UNL A   1      40.981  28.953  29.349  1.00  0.00     0.049 A 
ATOM     20  N   UNL A   1      43.337  30.839  28.933  1.00  0.00    -0.248 NA
ATOM     21  C   UNL A   1      42.184  32.416  30.212  1.00  0.00     0.031 C 
ATOM     22  C   UNL A   1      39.884  28.017  29.602  1.00  0.00     0.029 A 
ATOM     23  N   UNL A   1      41.931  28.197  28.716  1.00  0.00    -0.354 N 
ATOM     24  C   UNL A   1      44.120  31.975  29.094  1.00  0.00     0.074 A 
ATOM     25  C   UNL A   1      43.357  32.922  29.871  1.00  0.00     0.031 C 
ATOM     26  C   UNL A   1      40.231  26.804  29.139  1.00  0.00     0.029 A 
ATOM     27  C   UNL A   1      41.542  26.897  28.505  1.00  0.00     0.049 A 
ATOM     28  H   UNL A   1      42.807  28.549  28.441  1.00  0.00     0.167 HD
ATOM     29  C   UNL A   1      45.368  32.201  28.623  1.00  0.00     0.037 A 
ATOM     30  C   UNL A   1      42.172  25.912  27.838  1.00  0.00     0.037 A 
ATOM     31  C   UNL A   1      46.097  31.237  27.848  1.00  0.00     0.049 A 
ATOM     32  C   UNL A   1      43.513  26.222  27.226  1.00  0.00     0.074 A 
ATOM     33  C   UNL A   1      47.334  31.362  27.246  1.00  0.00     0.029 A 
ATOM     34  N   UNL A   1      45.640  29.954  27.571  1.00  0.00    -0.354 N 
ATOM     35  N   UNL A   1      44.221  27.326  27.306  1.00  0.00    -0.248 NA
ATOM     36  C   UNL A   1      44.131  25.167  26.416  1.00  0.00     0.031 C 
ATOM     37  C   UNL A   1      47.604  30.166  26.568  1.00  0.00     0.029 A 
ATOM     38  C   UNL A   1      46.559  29.281  26.789  1.00  0.00     0.049 A 
ATOM     39  H   UNL A   1      44.785  29.580  27.887  1.00  0.00     0.167 HD
ATOM     40  C   UNL A   1      45.374  27.095  26.568  1.00  0.00     0.074 A 
ATOM     41  C   UNL A   1      45.276  25.737  26.066  1.00  0.00     0.031 C 
ATOM     42  C   UNL A   1      46.417  27.925  26.319  1.00  0.00     0.037 A 
BRANCH  29  43
ATOM     43  C   UNL A   1      45.945  33.563  28.867  1.00  0.00     0.057 A 
ATOM     44  C   UNL A   1      45.671  34.654  28.030  1.00  0.00     0.134 A 
ATOM     45  C   UNL A   1      46.850  33.768  29.916  1.00  0.00     0.134 A 
ATOM     46  F   UNL A   1      44.841  34.518  26.984  1.00  0.00    -0.206 F 
ATOM     47  C   UNL A   1      46.303  35.887  28.207  1.00  0.00     0.040 A 
ATOM     48  C   UNL A   1      47.470  35.002  30.118  1.00  0.00     0.040 A 
ATOM     49  F   UNL A   1      47.165  32.764  30.748  1.00  0.00    -0.206 F 
ATOM     50  C   UNL A   1      47.206  36.063  29.255  1.00  0.00     0.006 A 
ENDBRANCH  29  43
BRANCH  30  51
ATOM     51  C   UNL A   1      41.529  24.582  27.673  1.00  0.00     0.057 A 
ATOM     52  C   UNL A   1      41.928  23.476  28.431  1.00  0.00     0.134 A 
ATOM     53  C   UNL A   1      40.497  24.384  26.746  1.00  0.00     0.134 A 
ATOM     54  F   UNL A   1      42.925  23.591  29.321  1.00  0.00    -0.206 F 
ATOM     55  C   UNL A   1      41.333  22.222  28.268  1.00  0.00     0.040 A 
ATOM     56  C   UNL A   1      39.874  23.144  26.590  1.00  0.00     0.040 A 
ATOM     57  F   UNL A   1      40.067  25.400  25.983  1.00  0.00    -0.206 F 
ATOM     58  C   UNL A   1      40.297  22.056  27.350  1.00  0.00     0.006 A 
ENDBRANCH  30  51
BRANCH  42  59
ATOM     59  C   UNL A   1      47.536  27.372  25.491  1.00  0.00     0.057 A 
ATOM     60  C   UNL A   1      47.568  27.526  24.100  1.00  0.00     0.134 A 
ATOM     61  C   UNL A   1      48.618  26.726  26.102  1.00  0.00     0.134 A 
ATOM     62  F   UNL A   1      46.554  28.124  23.459  1.00  0.00    -0.206 F 
ATOM     63  C   UNL A   1      48.634  27.041  23.342  1.00  0.00     0.040 A 
ATOM     64  C   UNL A   1      49.700  26.261  25.358  1.00  0.00     0.040 A 
ATOM     65  F   UNL A   1      48.648  26.559  27.433  1.00  0.00    -0.206 F 
ATOM     66  C   UNL A   1      49.708  26.414  23.972  1.00  0.00     0.006 A 
ENDBRANCH  42  59
ENDBRANCH  16  17
ENDBRANCH   9  11
ENDBRANCH   8   9
ENDBRANCH   7   8
ENDBRANCH   6   7
ENDBRANCH   5   6
ENDBRANCH   4   5
ENDBRANCH   3   4
ENDBRANCH   2   3
ENDBRANCH   1   2
BRANCH   1  67
ATOM     67  C   UNL A   1      35.220  33.230  27.732  1.00  0.00     0.188 C 
BRANCH  67  68
ATOM     68  O   UNL A   1      34.928  31.889  28.104  1.00  0.00    -0.376 OA
BRANCH  68  69
ATOM     69  C   UNL A   1      33.631  31.418  27.747  1.00  0.00     0.202 C 
BRANCH  69  70
ATOM     70  C   UNL A   1      33.604  29.969  27.253  1.00  0.00     0.261 C 
BRANCH  70  71
ATOM     71  O   UNL A   1      32.292  29.406  27.110  1.00  0.00    -0.460 OA
BRANCH  71  72
ATOM     72  C   UNL A   1      31.673  29.443  25.909  1.00  0.00     0.338 C 
ATOM     73  O   UNL A   1      31.447  30.417  25.215  1.00  0.00    -0.246 OA
BRANCH  72  74
ATOM     74  C   UNL A   1      31.498  28.032  25.491  1.00  0.00     0.063 A 
ATOM     75  C   UNL A   1      31.157  27.048  26.422  1.00  0.00     0.016 A 
ATOM     76  C   UNL A   1      31.548  27.723  24.132  1.00  0.00     0.064 A 
ATOM     77  C   UNL A   1      30.833  25.765  25.971  1.00  0.00     0.005 A 
ATOM     78  C   UNL A   1      31.330  26.422  23.689  1.00  0.00     0.143 A 
ATOM     79  C   UNL A   1      30.925  25.451  24.608  1.00  0.00     0.048 A 
BRANCH  78  80
ATOM     80  O   UNL A   1      31.513  26.022  22.385  1.00  0.00    -0.379 OA
BRANCH  80  81
ATOM     81  S   UNL A   1      32.992  25.558  21.855  1.00  0.00     0.339 S 
ATOM     82  O   UNL A   1      32.862  25.071  20.497  1.00  0.00    -0.181 OA
ATOM     83  O   UNL A   1      33.972  26.570  22.206  1.00  0.00    -0.181 OA
BRANCH  81  84
ATOM     84  C   UNL A   1      33.462  24.159  22.834  1.00  0.00     0.112 A 
ATOM     85  C   UNL A   1      32.640  23.026  22.737  1.00  0.00     0.024 A 
ATOM     86  C   UNL A   1      34.632  24.145  23.590  1.00  0.00     0.109 A 
ATOM     87  C   UNL A   1      32.986  21.856  23.404  1.00  0.00     0.009 A 
ATOM     88  C   UNL A   1      34.968  22.960  24.258  1.00  0.00     0.270 A 
ATOM     89  C   UNL A   1      34.152  21.818  24.168  1.00  0.00     0.086 A 
BRANCH  88  90
ATOM     90  N   UNL A   1      36.201  22.900  25.054  1.00  0.00     0.062 N 
ATOM     91  O   UNL A   1      36.440  21.853  25.670  1.00  0.00    -0.258 OA
ATOM     92  O   UNL A   1      36.928  23.903  25.056  1.00  0.00    -0.258 OA
ENDBRANCH  88  90
ENDBRANCH  81  84
ENDBRANCH  80  81
ENDBRANCH  78  80
ENDBRANCH  72  74
ENDBRANCH  71  72
ENDBRANCH  70  71
ENDBRANCH  69  70
ENDBRANCH  68  69
ENDBRANCH  67  68
ENDBRANCH   1  67
TORSDOF 24
ENDMDL
