MODEL 1
REMARK VINA RESULT:     -10.0      0.000      0.000
REMARK SMILES C[C@H]1OCC[C@H]1C(=O)N1CCCC[C@@H]1CC(=O)OCCOCCOCCOCCOC(=O)c1ccc(-c2c3nc(c(-c4c(F)cccc4F)c4ccc([nH]4)c(-c4c(F)cccc4F)c4nc(c(-c5c(F)cccc5F)c5ccc2[nH]5)C=C4)C=C3)cc1
REMARK SMILES IDX 23 1 22 2 21 3 20 4 19 5 18 6 16 7 17 8 15 9 14 10 9 11
REMARK SMILES IDX 10 12 11 13 13 14 12 15 7 16 8 17 6 18 1 19 2 20 3 21 4 22
REMARK SMILES IDX 5 23 24 24 25 25 26 26 27 27 28 28 29 29 30 30 31 31 32 32
REMARK SMILES IDX 33 33 34 34 86 35 35 36 85 37 36 38 37 39 38 40 79 41 39 42
REMARK SMILES IDX 84 43 78 44 80 45 40 46 83 47 77 48 76 49 41 51 67 52 50 53
REMARK SMILES IDX 66 54 51 55 54 56 65 57 81 58 52 59 53 60 64 62 82 63 55 64
REMARK SMILES IDX 42 65 43 66 48 67 44 68 45 69 47 70 49 71 46 72 68 73 69 74
REMARK SMILES IDX 74 75 70 76 71 77 73 78 75 79 72 80 56 81 57 82 62 83 58 84
REMARK SMILES IDX 59 85 61 86 63 87 60 88
REMARK H PARENT 80 50 54 61
REMARK Flexibility Score: inf
ROOT
ATOM      1  C   UNL A   1      33.942  33.872  28.279  1.00  0.00     0.188 C 
ENDROOT
BRANCH   1   2
ATOM      2  C   UNL A   1      34.185  32.632  29.147  1.00  0.00     0.188 C 
BRANCH   2   3
ATOM      3  O   UNL A   1      34.857  31.578  28.498  1.00  0.00    -0.376 OA
BRANCH   3   4
ATOM      4  C   UNL A   1      34.388  31.084  27.254  1.00  0.00     0.202 C 
BRANCH   4   5
ATOM      5  C   UNL A   1      33.029  30.386  27.049  1.00  0.00     0.261 C 
BRANCH   5   6
ATOM      6  O   UNL A   1      32.773  29.219  27.848  1.00  0.00    -0.463 OA
BRANCH   6   7
ATOM      7  C   UNL A   1      31.884  28.356  27.303  1.00  0.00     0.307 C 
ATOM      8  O   UNL A   1      31.333  27.455  27.935  1.00  0.00    -0.252 OA
BRANCH   7   9
ATOM      9  C   UNL A   1      31.424  28.663  25.905  1.00  0.00     0.147 C 
BRANCH   9  10
ATOM     10  C   UNL A   1      31.787  27.925  24.625  1.00  0.00     0.096 C 
ATOM     11  N   UNL A   1      31.337  28.670  23.399  1.00  0.00    -0.339 N 
ATOM     12  C   UNL A   1      31.523  27.975  22.126  1.00  0.00     0.120 C 
ATOM     13  C   UNL A   1      31.047  26.522  22.161  1.00  0.00     0.022 C 
ATOM     14  C   UNL A   1      31.307  26.471  24.642  1.00  0.00     0.026 C 
ATOM     15  C   UNL A   1      31.667  25.772  23.333  1.00  0.00     0.004 C 
BRANCH  11  16
ATOM     16  C   UNL A   1      30.340  29.638  23.445  1.00  0.00     0.228 C 
ATOM     17  O   UNL A   1      30.333  30.493  24.333  1.00  0.00    -0.274 OA
BRANCH  16  18
ATOM     18  C   UNL A   1      29.226  29.617  22.366  1.00  0.00     0.109 C 
ATOM     19  C   UNL A   1      27.810  27.734  23.537  1.00  0.00     0.039 C 
ATOM     20  C   UNL A   1      27.866  29.037  22.755  1.00  0.00     0.127 C 
ATOM     21  O   UNL A   1      27.166  30.114  23.407  1.00  0.00    -0.378 OA
ATOM     22  C   UNL A   1      27.639  31.341  22.821  1.00  0.00     0.161 C 
ATOM     23  C   UNL A   1      28.777  30.984  21.880  1.00  0.00     0.044 C 
ENDBRANCH  16  18
ENDBRANCH  11  16
ENDBRANCH   9  10
ENDBRANCH   7   9
ENDBRANCH   6   7
ENDBRANCH   5   6
ENDBRANCH   4   5
ENDBRANCH   3   4
ENDBRANCH   2   3
ENDBRANCH   1   2
BRANCH   1  24
ATOM     24  O   UNL A   1      34.227  35.163  28.799  1.00  0.00    -0.377 OA
BRANCH  24  25
ATOM     25  C   UNL A   1      33.179  36.057  29.148  1.00  0.00     0.188 C 
BRANCH  25  26
ATOM     26  C   UNL A   1      32.730  36.184  30.614  1.00  0.00     0.188 C 
BRANCH  26  27
ATOM     27  O   UNL A   1      33.019  35.054  31.412  1.00  0.00    -0.376 OA
BRANCH  27  28
ATOM     28  C   UNL A   1      33.837  35.237  32.556  1.00  0.00     0.202 C 
BRANCH  28  29
ATOM     29  C   UNL A   1      35.332  34.901  32.429  1.00  0.00     0.261 C 
BRANCH  29  30
ATOM     30  O   UNL A   1      35.659  33.555  32.035  1.00  0.00    -0.460 OA
BRANCH  30  31
ATOM     31  C   UNL A   1      36.310  32.768  32.913  1.00  0.00     0.338 C 
ATOM     32  O   UNL A   1      36.077  32.631  34.105  1.00  0.00    -0.246 OA
BRANCH  31  33
ATOM     33  C   UNL A   1      37.267  31.938  32.155  1.00  0.00     0.060 A 
ATOM     34  C   UNL A   1      38.125  31.073  32.846  1.00  0.00     0.016 A 
ATOM     35  C   UNL A   1      37.329  32.031  30.763  1.00  0.00     0.016 A 
ATOM     36  C   UNL A   1      39.075  30.324  32.149  1.00  0.00     0.010 A 
ATOM     37  C   UNL A   1      38.295  31.297  30.068  1.00  0.00     0.010 A 
ATOM     38  C   UNL A   1      39.196  30.468  30.761  1.00  0.00    -0.014 A 
BRANCH  38  39
ATOM     39  C   UNL A   1      40.385  29.922  30.061  1.00  0.00     0.031 A 
ATOM     40  C   UNL A   1      41.558  30.838  29.832  1.00  0.00     0.074 A 
ATOM     41  C   UNL A   1      40.441  28.640  29.657  1.00  0.00     0.049 A 
ATOM     42  N   UNL A   1      42.670  30.620  29.177  1.00  0.00    -0.248 NA
ATOM     43  C   UNL A   1      41.461  32.183  30.423  1.00  0.00     0.031 C 
ATOM     44  C   UNL A   1      39.401  27.636  29.871  1.00  0.00     0.029 A 
ATOM     45  N   UNL A   1      41.422  27.968  28.969  1.00  0.00    -0.354 N 
ATOM     46  C   UNL A   1      43.402  31.797  29.279  1.00  0.00     0.074 A 
ATOM     47  C   UNL A   1      42.595  32.739  30.024  1.00  0.00     0.031 C 
ATOM     48  C   UNL A   1      39.794  26.477  29.313  1.00  0.00     0.029 A 
ATOM     49  C   UNL A   1      41.093  26.668  28.669  1.00  0.00     0.049 A 
ATOM     50  H   UNL A   1      42.280  28.379  28.716  1.00  0.00     0.167 HD
ATOM     51  C   UNL A   1      44.643  32.067  28.808  1.00  0.00     0.037 A 
ATOM     52  C   UNL A   1      41.755  25.752  27.934  1.00  0.00     0.037 A 
ATOM     53  C   UNL A   1      45.443  31.134  28.059  1.00  0.00     0.049 A 
ATOM     54  C   UNL A   1      43.085  26.117  27.321  1.00  0.00     0.074 A 
ATOM     55  C   UNL A   1      46.705  31.317  27.523  1.00  0.00     0.029 A 
ATOM     56  N   UNL A   1      45.055  29.842  27.740  1.00  0.00    -0.354 N 
ATOM     57  N   UNL A   1      43.773  27.230  27.426  1.00  0.00    -0.248 NA
ATOM     58  C   UNL A   1      43.733  25.095  26.482  1.00  0.00     0.031 C 
ATOM     59  C   UNL A   1      47.062  30.154  26.836  1.00  0.00     0.029 A 
ATOM     60  C   UNL A   1      46.047  29.223  26.996  1.00  0.00     0.049 A 
ATOM     61  H   UNL A   1      44.202  29.426  28.001  1.00  0.00     0.167 HD
ATOM     62  C   UNL A   1      44.945  27.024  26.708  1.00  0.00     0.074 A 
ATOM     63  C   UNL A   1      44.883  25.678  26.182  1.00  0.00     0.031 C 
ATOM     64  C   UNL A   1      45.983  27.873  26.502  1.00  0.00     0.037 A 
BRANCH  51  65
ATOM     65  C   UNL A   1      45.206  33.431  29.075  1.00  0.00     0.057 A 
ATOM     66  C   UNL A   1      45.968  33.703  30.219  1.00  0.00     0.134 A 
ATOM     67  C   UNL A   1      45.027  34.473  28.156  1.00  0.00     0.134 A 
ATOM     68  F   UNL A   1      46.165  32.754  31.146  1.00  0.00    -0.206 F 
ATOM     69  C   UNL A   1      46.518  34.966  30.446  1.00  0.00     0.040 A 
ATOM     70  C   UNL A   1      45.594  35.732  28.359  1.00  0.00     0.040 A 
ATOM     71  F   UNL A   1      44.310  34.280  27.038  1.00  0.00    -0.206 F 
ATOM     72  C   UNL A   1      46.339  35.982  29.509  1.00  0.00     0.006 A 
ENDBRANCH  51  65
BRANCH  52  73
ATOM     73  C   UNL A   1      41.176  24.402  27.700  1.00  0.00     0.057 A 
ATOM     74  C   UNL A   1      41.681  23.271  28.355  1.00  0.00     0.134 A 
ATOM     75  C   UNL A   1      40.155  24.197  26.762  1.00  0.00     0.134 A 
ATOM     76  F   UNL A   1      42.677  23.397  29.245  1.00  0.00    -0.206 F 
ATOM     77  C   UNL A   1      41.221  21.986  28.061  1.00  0.00     0.040 A 
ATOM     78  C   UNL A   1      39.664  22.920  26.483  1.00  0.00     0.040 A 
ATOM     79  F   UNL A   1      39.627  25.234  26.098  1.00  0.00    -0.206 F 
ATOM     80  C   UNL A   1      40.207  21.808  27.123  1.00  0.00     0.006 A 
ENDBRANCH  52  73
BRANCH  64  81
ATOM     81  C   UNL A   1      47.163  27.354  25.729  1.00  0.00     0.057 A 
ATOM     82  C   UNL A   1      47.267  27.499  24.340  1.00  0.00     0.134 A 
ATOM     83  C   UNL A   1      48.232  26.740  26.395  1.00  0.00     0.134 A 
ATOM     84  F   UNL A   1      46.276  28.069  23.639  1.00  0.00    -0.206 F 
ATOM     85  C   UNL A   1      48.379  27.027  23.639  1.00  0.00     0.040 A 
ATOM     86  C   UNL A   1      49.362  26.293  25.710  1.00  0.00     0.040 A 
ATOM     87  F   UNL A   1      48.204  26.581  27.728  1.00  0.00    -0.206 F 
ATOM     88  C   UNL A   1      49.435  26.429  24.325  1.00  0.00     0.006 A 
ENDBRANCH  64  81
ENDBRANCH  38  39
ENDBRANCH  31  33
ENDBRANCH  30  31
ENDBRANCH  29  30
ENDBRANCH  28  29
ENDBRANCH  27  28
ENDBRANCH  26  27
ENDBRANCH  25  26
ENDBRANCH  24  25
ENDBRANCH   1  24
TORSDOF 23
ENDMDL
MODEL 2
REMARK VINA RESULT:      -9.6      1.898      3.615
REMARK SMILES C[C@H]1OCC[C@H]1C(=O)N1CCCC[C@@H]1CC(=O)OCCOCCOCCOCCOC(=O)c1ccc(-c2c3nc(c(-c4c(F)cccc4F)c4ccc([nH]4)c(-c4c(F)cccc4F)c4nc(c(-c5c(F)cccc5F)c5ccc2[nH]5)C=C4)C=C3)cc1
REMARK SMILES IDX 23 1 22 2 21 3 20 4 19 5 18 6 16 7 17 8 15 9 14 10 9 11
REMARK SMILES IDX 10 12 11 13 13 14 12 15 7 16 8 17 6 18 1 19 2 20 3 21 4 22
REMARK SMILES IDX 5 23 24 24 25 25 26 26 27 27 28 28 29 29 30 30 31 31 32 32
REMARK SMILES IDX 33 33 34 34 86 35 35 36 85 37 36 38 37 39 38 40 79 41 39 42
REMARK SMILES IDX 84 43 78 44 80 45 40 46 83 47 77 48 76 49 41 51 67 52 50 53
REMARK SMILES IDX 66 54 51 55 54 56 65 57 81 58 52 59 53 60 64 62 82 63 55 64
REMARK SMILES IDX 42 65 43 66 48 67 44 68 45 69 47 70 49 71 46 72 68 73 69 74
REMARK SMILES IDX 74 75 70 76 71 77 73 78 75 79 72 80 56 81 57 82 62 83 58 84
REMARK SMILES IDX 59 85 61 86 63 87 60 88
REMARK H PARENT 80 50 54 61
REMARK Flexibility Score: inf
ROOT
ATOM      1  C   UNL A   1      34.195  33.908  28.279  1.00  0.00     0.188 C 
ENDROOT
BRANCH   1   2
ATOM      2  C   UNL A   1      34.751  32.632  28.921  1.00  0.00     0.188 C 
BRANCH   2   3
ATOM      3  O   UNL A   1      35.156  31.637  28.009  1.00  0.00    -0.376 OA
BRANCH   3   4
ATOM      4  C   UNL A   1      34.231  31.093  27.081  1.00  0.00     0.202 C 
BRANCH   4   5
ATOM      5  C   UNL A   1      33.543  29.722  27.238  1.00  0.00     0.261 C 
BRANCH   5   6
ATOM      6  O   UNL A   1      33.999  28.665  26.378  1.00  0.00    -0.463 OA
BRANCH   6   7
ATOM      7  C   UNL A   1      33.023  28.090  25.637  1.00  0.00     0.307 C 
ATOM      8  O   UNL A   1      32.209  28.726  24.970  1.00  0.00    -0.252 OA
BRANCH   7   9
ATOM      9  C   UNL A   1      33.087  26.595  25.493  1.00  0.00     0.147 C 
BRANCH   9  10
ATOM     10  C   UNL A   1      32.243  25.555  26.214  1.00  0.00     0.096 C 
ATOM     11  N   UNL A   1      32.883  24.195  26.190  1.00  0.00    -0.339 N 
ATOM     12  C   UNL A   1      32.082  23.103  26.742  1.00  0.00     0.120 C 
ATOM     13  C   UNL A   1      30.639  23.103  26.237  1.00  0.00     0.022 C 
ATOM     14  C   UNL A   1      30.796  25.536  25.711  1.00  0.00     0.026 C 
ATOM     15  C   UNL A   1      29.989  24.465  26.441  1.00  0.00     0.004 C 
BRANCH  11  16
ATOM     16  C   UNL A   1      33.854  23.851  25.256  1.00  0.00     0.228 C 
ATOM     17  O   UNL A   1      33.599  23.861  24.050  1.00  0.00    -0.274 OA
BRANCH  16  18
ATOM     18  C   UNL A   1      35.263  23.439  25.757  1.00  0.00     0.109 C 
ATOM     19  C   UNL A   1      34.629  20.920  26.177  1.00  0.00     0.039 C 
ATOM     20  C   UNL A   1      35.636  21.958  25.704  1.00  0.00     0.127 C 
ATOM     21  O   UNL A   1      36.087  21.728  24.354  1.00  0.00    -0.378 OA
ATOM     22  C   UNL A   1      36.669  22.959  23.889  1.00  0.00     0.161 C 
ATOM     23  C   UNL A   1      36.421  24.011  24.958  1.00  0.00     0.044 C 
ENDBRANCH  16  18
ENDBRANCH  11  16
ENDBRANCH   9  10
ENDBRANCH   7   9
ENDBRANCH   6   7
ENDBRANCH   5   6
ENDBRANCH   4   5
ENDBRANCH   3   4
ENDBRANCH   2   3
ENDBRANCH   1   2
BRANCH   1  24
ATOM     24  O   UNL A   1      34.391  35.162  28.919  1.00  0.00    -0.377 OA
BRANCH  24  25
ATOM     25  C   UNL A   1      33.286  35.995  29.243  1.00  0.00     0.188 C 
BRANCH  25  26
ATOM     26  C   UNL A   1      32.780  36.073  30.694  1.00  0.00     0.188 C 
BRANCH  26  27
ATOM     27  O   UNL A   1      33.156  34.976  31.503  1.00  0.00    -0.376 OA
BRANCH  27  28
ATOM     28  C   UNL A   1      34.021  35.223  32.600  1.00  0.00     0.202 C 
BRANCH  28  29
ATOM     29  C   UNL A   1      35.492  34.799  32.461  1.00  0.00     0.261 C 
BRANCH  29  30
ATOM     30  O   UNL A   1      35.737  33.446  32.035  1.00  0.00    -0.460 OA
BRANCH  30  31
ATOM     31  C   UNL A   1      36.373  32.611  32.880  1.00  0.00     0.338 C 
ATOM     32  O   UNL A   1      36.126  32.417  34.061  1.00  0.00    -0.246 OA
BRANCH  31  33
ATOM     33  C   UNL A   1      37.331  31.812  32.091  1.00  0.00     0.060 A 
ATOM     34  C   UNL A   1      38.136  30.867  32.740  1.00  0.00     0.016 A 
ATOM     35  C   UNL A   1      37.446  32.011  30.713  1.00  0.00     0.016 A 
ATOM     36  C   UNL A   1      39.087  30.143  32.018  1.00  0.00     0.010 A 
ATOM     37  C   UNL A   1      38.414  31.302  29.995  1.00  0.00     0.010 A 
ATOM     38  C   UNL A   1      39.263  30.392  30.650  1.00  0.00    -0.014 A 
BRANCH  38  39
ATOM     39  C   UNL A   1      40.460  29.863  29.950  1.00  0.00     0.031 A 
ATOM     40  C   UNL A   1      41.623  30.792  29.729  1.00  0.00     0.074 A 
ATOM     41  C   UNL A   1      40.530  28.584  29.538  1.00  0.00     0.049 A 
ATOM     42  N   UNL A   1      42.739  30.591  29.076  1.00  0.00    -0.248 NA
ATOM     43  C   UNL A   1      41.511  32.133  30.329  1.00  0.00     0.031 C 
ATOM     44  C   UNL A   1      39.501  27.567  29.743  1.00  0.00     0.029 A 
ATOM     45  N   UNL A   1      41.520  27.927  28.848  1.00  0.00    -0.354 N 
ATOM     46  C   UNL A   1      43.458  31.775  29.187  1.00  0.00     0.074 A 
ATOM     47  C   UNL A   1      42.640  32.703  29.935  1.00  0.00     0.031 C 
ATOM     48  C   UNL A   1      39.907  26.416  29.178  1.00  0.00     0.029 A 
ATOM     49  C   UNL A   1      41.205  26.625  28.539  1.00  0.00     0.049 A 
ATOM     50  H   UNL A   1      42.374  28.348  28.599  1.00  0.00     0.167 HD
ATOM     51  C   UNL A   1      44.697  32.060  28.720  1.00  0.00     0.037 A 
ATOM     52  C   UNL A   1      41.879  25.721  27.799  1.00  0.00     0.037 A 
ATOM     53  C   UNL A   1      45.509  31.141  27.968  1.00  0.00     0.049 A 
ATOM     54  C   UNL A   1      43.206  26.104  27.192  1.00  0.00     0.074 A 
ATOM     55  C   UNL A   1      46.770  31.341  27.436  1.00  0.00     0.029 A 
ATOM     56  N   UNL A   1      45.135  29.847  27.639  1.00  0.00    -0.354 N 
ATOM     57  N   UNL A   1      43.881  27.223  27.306  1.00  0.00    -0.248 NA
ATOM     58  C   UNL A   1      43.866  25.095  26.349  1.00  0.00     0.031 C 
ATOM     59  C   UNL A   1      47.140  30.186  26.742  1.00  0.00     0.029 A 
ATOM     60  C   UNL A   1      46.135  29.244  26.894  1.00  0.00     0.049 A 
ATOM     61  H   UNL A   1      44.286  29.421  27.896  1.00  0.00     0.167 HD
ATOM     62  C   UNL A   1      45.058  27.035  26.589  1.00  0.00     0.074 A 
ATOM     63  C   UNL A   1      45.011  25.691  26.054  1.00  0.00     0.031 C 
ATOM     64  C   UNL A   1      46.087  27.896  26.391  1.00  0.00     0.037 A 
BRANCH  51  65
ATOM     65  C   UNL A   1      45.245  33.429  28.997  1.00  0.00     0.057 A 
ATOM     66  C   UNL A   1      46.034  33.693  30.125  1.00  0.00     0.134 A 
ATOM     67  C   UNL A   1      45.024  34.484  28.103  1.00  0.00     0.134 A 
ATOM     68  F   UNL A   1      46.271  32.731  31.029  1.00  0.00    -0.206 F 
ATOM     69  C   UNL A   1      46.568  34.961  30.361  1.00  0.00     0.040 A 
ATOM     70  C   UNL A   1      45.576  35.748  28.314  1.00  0.00     0.040 A 
ATOM     71  F   UNL A   1      44.280  34.299  27.001  1.00  0.00    -0.206 F 
ATOM     72  C   UNL A   1      46.347  35.990  29.448  1.00  0.00     0.006 A 
ENDBRANCH  51  65
BRANCH  52  73
ATOM     73  C   UNL A   1      41.314  24.366  27.556  1.00  0.00     0.057 A 
ATOM     74  C   UNL A   1      40.202  24.181  26.724  1.00  0.00     0.134 A 
ATOM     75  C   UNL A   1      41.823  23.235  28.207  1.00  0.00     0.134 A 
ATOM     76  F   UNL A   1      39.651  25.229  26.093  1.00  0.00    -0.206 F 
ATOM     77  C   UNL A   1      39.595  22.932  26.578  1.00  0.00     0.040 A 
ATOM     78  C   UNL A   1      41.245  21.974  28.043  1.00  0.00     0.040 A 
ATOM     79  F   UNL A   1      42.884  23.340  29.019  1.00  0.00    -0.206 F 
ATOM     80  C   UNL A   1      40.119  21.823  27.237  1.00  0.00     0.006 A 
ENDBRANCH  52  73
BRANCH  64  81
ATOM     81  C   UNL A   1      47.275  27.395  25.618  1.00  0.00     0.057 A 
ATOM     82  C   UNL A   1      48.301  26.659  26.221  1.00  0.00     0.134 A 
ATOM     83  C   UNL A   1      47.366  27.617  24.237  1.00  0.00     0.134 A 
ATOM     84  F   UNL A   1      48.282  26.418  27.540  1.00  0.00    -0.206 F 
ATOM     85  C   UNL A   1      49.390  26.185  25.484  1.00  0.00     0.040 A 
ATOM     86  C   UNL A   1      48.431  27.122  23.485  1.00  0.00     0.040 A 
ATOM     87  F   UNL A   1      46.410  28.304  23.592  1.00  0.00    -0.206 F 
ATOM     88  C   UNL A   1      49.452  26.410  24.110  1.00  0.00     0.006 A 
ENDBRANCH  64  81
ENDBRANCH  38  39
ENDBRANCH  31  33
ENDBRANCH  30  31
ENDBRANCH  29  30
ENDBRANCH  28  29
ENDBRANCH  27  28
ENDBRANCH  26  27
ENDBRANCH  25  26
ENDBRANCH  24  25
ENDBRANCH   1  24
TORSDOF 23
ENDMDL
MODEL 3
REMARK VINA RESULT:      -9.2      2.456      4.266
REMARK SMILES C[C@H]1OCC[C@H]1C(=O)N1CCCC[C@@H]1CC(=O)OCCOCCOCCOCCOC(=O)c1ccc(-c2c3nc(c(-c4c(F)cccc4F)c4ccc([nH]4)c(-c4c(F)cccc4F)c4nc(c(-c5c(F)cccc5F)c5ccc2[nH]5)C=C4)C=C3)cc1
REMARK SMILES IDX 23 1 22 2 21 3 20 4 19 5 18 6 16 7 17 8 15 9 14 10 9 11
REMARK SMILES IDX 10 12 11 13 13 14 12 15 7 16 8 17 6 18 1 19 2 20 3 21 4 22
REMARK SMILES IDX 5 23 24 24 25 25 26 26 27 27 28 28 29 29 30 30 31 31 32 32
REMARK SMILES IDX 33 33 34 34 86 35 35 36 85 37 36 38 37 39 38 40 79 41 39 42
REMARK SMILES IDX 84 43 78 44 80 45 40 46 83 47 77 48 76 49 41 51 67 52 50 53
REMARK SMILES IDX 66 54 51 55 54 56 65 57 81 58 52 59 53 60 64 62 82 63 55 64
REMARK SMILES IDX 42 65 43 66 48 67 44 68 45 69 47 70 49 71 46 72 68 73 69 74
REMARK SMILES IDX 74 75 70 76 71 77 73 78 75 79 72 80 56 81 57 82 62 83 58 84
REMARK SMILES IDX 59 85 61 86 63 87 60 88
REMARK H PARENT 80 50 54 61
REMARK Flexibility Score: inf
ROOT
ATOM      1  C   UNL A   1      33.080  29.237  26.426  1.00  0.00     0.188 C 
ENDROOT
BRANCH   1   2
ATOM      2  C   UNL A   1      32.684  28.918  24.980  1.00  0.00     0.188 C 
BRANCH   2   3
ATOM      3  O   UNL A   1      32.355  27.569  24.740  1.00  0.00    -0.376 OA
BRANCH   3   4
ATOM      4  C   UNL A   1      30.999  27.154  24.706  1.00  0.00     0.202 C 
BRANCH   4   5
ATOM      5  C   UNL A   1      30.416  26.010  25.560  1.00  0.00     0.261 C 
BRANCH   5   6
ATOM      6  O   UNL A   1      31.321  25.341  26.453  1.00  0.00    -0.463 OA
BRANCH   6   7
ATOM      7  C   UNL A   1      31.181  23.996  26.484  1.00  0.00     0.307 C 
ATOM      8  O   UNL A   1      30.510  23.399  27.325  1.00  0.00    -0.252 OA
BRANCH   7   9
ATOM      9  C   UNL A   1      31.726  23.239  25.304  1.00  0.00     0.147 C 
BRANCH   9  10
ATOM     10  C   UNL A   1      31.959  21.741  25.189  1.00  0.00     0.096 C 
ATOM     11  N   UNL A   1      33.226  21.314  25.877  1.00  0.00    -0.339 N 
ATOM     12  C   UNL A   1      33.604  19.912  25.706  1.00  0.00     0.120 C 
ATOM     13  C   UNL A   1      33.514  19.439  24.255  1.00  0.00     0.022 C 
ATOM     14  C   UNL A   1      31.883  21.255  23.739  1.00  0.00     0.026 C 
ATOM     15  C   UNL A   1      32.146  19.753  23.662  1.00  0.00     0.004 C 
BRANCH  11  16
ATOM     16  C   UNL A   1      34.251  22.209  26.163  1.00  0.00     0.228 C 
ATOM     17  O   UNL A   1      34.411  22.637  27.308  1.00  0.00    -0.274 OA
BRANCH  16  18
ATOM     18  C   UNL A   1      35.184  22.671  25.013  1.00  0.00     0.109 C 
ATOM     19  C   UNL A   1      34.752  25.240  25.387  1.00  0.00     0.039 C 
ATOM     20  C   UNL A   1      35.709  24.106  25.053  1.00  0.00     0.127 C 
ATOM     21  O   UNL A   1      36.858  24.066  25.922  1.00  0.00    -0.378 OA
ATOM     22  C   UNL A   1      37.437  22.755  25.795  1.00  0.00     0.161 C 
ATOM     23  C   UNL A   1      36.506  21.930  24.921  1.00  0.00     0.044 C 
ENDBRANCH  16  18
ENDBRANCH  11  16
ENDBRANCH   9  10
ENDBRANCH   7   9
ENDBRANCH   6   7
ENDBRANCH   5   6
ENDBRANCH   4   5
ENDBRANCH   3   4
ENDBRANCH   2   3
ENDBRANCH   1   2
BRANCH   1  24
ATOM     24  O   UNL A   1      33.155  30.590  26.853  1.00  0.00    -0.377 OA
BRANCH  24  25
ATOM     25  C   UNL A   1      34.272  31.059  27.596  1.00  0.00     0.188 C 
BRANCH  25  26
ATOM     26  C   UNL A   1      34.303  32.509  28.107  1.00  0.00     0.188 C 
BRANCH  26  27
ATOM     27  O   UNL A   1      34.825  32.658  29.413  1.00  0.00    -0.376 OA
BRANCH  27  28
ATOM     28  C   UNL A   1      34.263  33.658  30.246  1.00  0.00     0.202 C 
BRANCH  28  29
ATOM     29  C   UNL A   1      34.468  33.524  31.764  1.00  0.00     0.261 C 
BRANCH  29  30
ATOM     30  O   UNL A   1      35.587  32.730  32.196  1.00  0.00    -0.460 OA
BRANCH  30  31
ATOM     31  C   UNL A   1      36.795  33.319  32.295  1.00  0.00     0.338 C 
ATOM     32  O   UNL A   1      37.080  34.330  32.919  1.00  0.00    -0.246 OA
BRANCH  31  33
ATOM     33  C   UNL A   1      37.786  32.431  31.657  1.00  0.00     0.060 A 
ATOM     34  C   UNL A   1      38.696  31.729  32.459  1.00  0.00     0.016 A 
ATOM     35  C   UNL A   1      37.828  32.308  30.267  1.00  0.00     0.016 A 
ATOM     36  C   UNL A   1      39.676  30.929  31.869  1.00  0.00     0.010 A 
ATOM     37  C   UNL A   1      38.825  31.525  29.677  1.00  0.00     0.010 A 
ATOM     38  C   UNL A   1      39.775  30.861  30.473  1.00  0.00    -0.014 A 
BRANCH  38  39
ATOM     39  C   UNL A   1      40.984  30.273  29.844  1.00  0.00     0.031 A 
ATOM     40  C   UNL A   1      42.157  31.178  29.576  1.00  0.00     0.074 A 
ATOM     41  C   UNL A   1      41.058  28.965  29.539  1.00  0.00     0.049 A 
ATOM     42  N   UNL A   1      43.286  30.921  28.966  1.00  0.00    -0.248 NA
ATOM     43  C   UNL A   1      42.038  32.563  30.063  1.00  0.00     0.031 C 
ATOM     44  C   UNL A   1      40.019  27.971  29.801  1.00  0.00     0.029 A 
ATOM     45  N   UNL A   1      42.059  28.251  28.926  1.00  0.00    -0.354 N 
ATOM     46  C   UNL A   1      44.008  32.108  28.997  1.00  0.00     0.074 A 
ATOM     47  C   UNL A   1      43.178  33.096  29.650  1.00  0.00     0.031 C 
ATOM     48  C   UNL A   1      40.431  26.777  29.341  1.00  0.00     0.029 A 
ATOM     49  C   UNL A   1      41.745  26.930  28.716  1.00  0.00     0.049 A 
ATOM     50  H   UNL A   1      42.920  28.649  28.663  1.00  0.00     0.167 HD
ATOM     51  C   UNL A   1      45.258  32.351  28.537  1.00  0.00     0.037 A 
ATOM     52  C   UNL A   1      42.430  25.967  28.067  1.00  0.00     0.037 A 
ATOM     53  C   UNL A   1      46.082  31.371  27.879  1.00  0.00     0.049 A 
ATOM     54  C   UNL A   1      43.772  26.295  27.461  1.00  0.00     0.074 A 
ATOM     55  C   UNL A   1      47.356  31.523  27.361  1.00  0.00     0.029 A 
ATOM     56  N   UNL A   1      45.710  30.056  27.648  1.00  0.00    -0.354 N 
ATOM     57  N   UNL A   1      44.450  27.418  27.499  1.00  0.00    -0.248 NA
ATOM     58  C   UNL A   1      44.446  25.219  26.716  1.00  0.00     0.031 C 
ATOM     59  C   UNL A   1      47.736  30.315  26.771  1.00  0.00     0.029 A 
ATOM     60  C   UNL A   1      46.723  29.391  26.976  1.00  0.00     0.049 A 
ATOM     61  H   UNL A   1      44.853  29.654  27.919  1.00  0.00     0.167 HD
ATOM     62  C   UNL A   1      45.642  27.168  26.826  1.00  0.00     0.074 A 
ATOM     63  C   UNL A   1      45.600  25.786  26.400  1.00  0.00     0.031 C 
ATOM     64  C   UNL A   1      46.679  28.007  26.583  1.00  0.00     0.037 A 
BRANCH  51  65
ATOM     65  C   UNL A   1      45.808  33.736  28.715  1.00  0.00     0.057 A 
ATOM     66  C   UNL A   1      46.593  34.081  29.823  1.00  0.00     0.134 A 
ATOM     67  C   UNL A   1      45.591  34.722  27.745  1.00  0.00     0.134 A 
ATOM     68  F   UNL A   1      46.825  33.187  30.796  1.00  0.00    -0.206 F 
ATOM     69  C   UNL A   1      47.128  35.362  29.968  1.00  0.00     0.040 A 
ATOM     70  C   UNL A   1      46.143  35.998  27.865  1.00  0.00     0.040 A 
ATOM     71  F   UNL A   1      44.850  34.458  26.657  1.00  0.00    -0.206 F 
ATOM     72  C   UNL A   1      46.911  36.322  28.981  1.00  0.00     0.006 A 
ENDBRANCH  51  65
BRANCH  52  73
ATOM     73  C   UNL A   1      41.864  24.599  27.921  1.00  0.00     0.057 A 
ATOM     74  C   UNL A   1      42.268  23.552  28.760  1.00  0.00     0.134 A 
ATOM     75  C   UNL A   1      40.964  24.286  26.894  1.00  0.00     0.134 A 
ATOM     76  F   UNL A   1      43.149  23.780  29.745  1.00  0.00    -0.206 F 
ATOM     77  C   UNL A   1      41.830  22.241  28.561  1.00  0.00     0.040 A 
ATOM     78  C   UNL A   1      40.492  22.986  26.705  1.00  0.00     0.040 A 
ATOM     79  F   UNL A   1      40.536  25.239  26.054  1.00  0.00    -0.206 F 
ATOM     80  C   UNL A   1      40.936  21.956  27.531  1.00  0.00     0.006 A 
ENDBRANCH  52  73
BRANCH  64  81
ATOM     81  C   UNL A   1      47.881  27.442  25.879  1.00  0.00     0.057 A 
ATOM     82  C   UNL A   1      47.999  27.447  24.484  1.00  0.00     0.134 A 
ATOM     83  C   UNL A   1      48.954  26.924  26.616  1.00  0.00     0.134 A 
ATOM     84  F   UNL A   1      47.004  27.919  23.718  1.00  0.00    -0.206 F 
ATOM     85  C   UNL A   1      49.131  26.933  23.846  1.00  0.00     0.040 A 
ATOM     86  C   UNL A   1      50.104  26.437  25.991  1.00  0.00     0.040 A 
ATOM     87  F   UNL A   1      48.913  26.900  27.957  1.00  0.00    -0.206 F 
ATOM     88  C   UNL A   1      50.191  26.434  24.601  1.00  0.00     0.006 A 
ENDBRANCH  64  81
ENDBRANCH  38  39
ENDBRANCH  31  33
ENDBRANCH  30  31
ENDBRANCH  29  30
ENDBRANCH  28  29
ENDBRANCH  27  28
ENDBRANCH  26  27
ENDBRANCH  25  26
ENDBRANCH  24  25
ENDBRANCH   1  24
TORSDOF 23
ENDMDL
