MODEL 1
REMARK VINA RESULT:     -10.4      0.000      0.000
REMARK SMILES CC[C@@H]1CCC[C@@](Cc2ccccn2)(C(=O)OCCOCCOCCOCCOC(=O)c2ccc(-c3c4nc(c(-c5c(F)cccc5F)c5ccc([nH]5)c(-c5c(F)cccc5F)c5nc(c(-c6c(F)cccc6F)c6ccc3[nH]6)C=C5)C=C4)cc2)C1
REMARK SMILES IDX 23 1 22 2 21 3 20 4 19 5 18 6 17 7 15 8 16 9 7 10 3 11 4 12
REMARK SMILES IDX 86 13 5 14 6 15 2 16 1 17 8 18 9 19 10 20 14 21 11 22 13 23
REMARK SMILES IDX 12 24 24 25 25 26 26 27 27 28 28 29 29 30 30 31 31 32 32 33
REMARK SMILES IDX 33 34 85 35 34 36 84 37 35 38 36 39 37 40 78 41 38 42 83 43
REMARK SMILES IDX 77 44 79 45 39 46 82 47 76 48 75 49 40 51 66 52 49 53 65 54
REMARK SMILES IDX 50 55 53 56 64 57 80 58 51 59 52 60 63 62 81 63 54 64 41 65
REMARK SMILES IDX 42 66 47 67 43 68 44 69 46 70 48 71 45 72 67 73 68 74 73 75
REMARK SMILES IDX 69 76 70 77 72 78 74 79 71 80 55 81 56 82 61 83 57 84 58 85
REMARK SMILES IDX 60 86 62 87 59 88
REMARK H PARENT 79 50 53 61
REMARK Flexibility Score: inf
ROOT
ATOM      1  O   UNL A   1      41.945  19.882  27.583  1.00  0.00    -0.377 OA
ENDROOT
BRANCH   1   2
ATOM      2  C   UNL A   1      41.264  21.108  27.591  1.00  0.00     0.188 C 
BRANCH   2   3
ATOM      3  C   UNL A   1      40.497  21.465  26.325  1.00  0.00     0.188 C 
BRANCH   3   4
ATOM      4  O   UNL A   1      39.194  22.008  26.443  1.00  0.00    -0.376 OA
BRANCH   4   5
ATOM      5  C   UNL A   1      38.230  21.728  25.436  1.00  0.00     0.202 C 
BRANCH   5   6
ATOM      6  C   UNL A   1      36.747  22.037  25.701  1.00  0.00     0.261 C 
BRANCH   6   7
ATOM      7  O   UNL A   1      36.299  23.382  25.384  1.00  0.00    -0.463 OA
BRANCH   7   8
ATOM      8  C   UNL A   1      35.535  23.533  24.269  1.00  0.00     0.312 C 
ATOM      9  O   UNL A   1      36.015  23.548  23.138  1.00  0.00    -0.252 OA
BRANCH   8  10
ATOM     10  C   UNL A   1      34.028  23.808  24.521  1.00  0.00     0.074 C 
ATOM     11  C   UNL A   1      33.170  21.358  24.475  1.00  0.00    -0.010 C 
ATOM     12  C   UNL A   1      32.406  21.532  25.789  1.00  0.00     0.003 C 
ATOM     13  C   UNL A   1      33.224  22.713  23.738  1.00  0.00     0.022 C 
ATOM     14  C   UNL A   1      32.954  22.636  26.681  1.00  0.00     0.001 C 
ATOM     15  C   UNL A   1      33.487  23.891  25.979  1.00  0.00     0.019 C 
BRANCH  11  16
ATOM     16  C   UNL A   1      32.540  20.213  23.660  1.00  0.00     0.000 C 
ATOM     17  C   UNL A   1      32.843  18.835  24.234  1.00  0.00     0.004 C 
ENDBRANCH  11  16
BRANCH  10  18
ATOM     18  C   UNL A   1      33.815  25.209  23.834  1.00  0.00     0.075 C 
BRANCH  18  19
ATOM     19  C   UNL A   1      33.220  26.267  24.751  1.00  0.00     0.041 A 
ATOM     20  C   UNL A   1      34.007  26.956  25.671  1.00  0.00     0.024 A 
ATOM     21  N   UNL A   1      31.873  26.417  24.712  1.00  0.00    -0.261 NA
ATOM     22  C   UNL A   1      33.391  27.737  26.645  1.00  0.00     0.003 A 
ATOM     23  C   UNL A   1      31.303  27.220  25.640  1.00  0.00     0.111 A 
ATOM     24  C   UNL A   1      32.010  27.871  26.635  1.00  0.00     0.020 A 
ENDBRANCH  18  19
ENDBRANCH  10  18
ENDBRANCH   8  10
ENDBRANCH   7   8
ENDBRANCH   6   7
ENDBRANCH   5   6
ENDBRANCH   4   5
ENDBRANCH   3   4
ENDBRANCH   2   3
ENDBRANCH   1   2
BRANCH   1  25
ATOM     25  C   UNL A   1      41.958  19.138  26.388  1.00  0.00     0.188 C 
BRANCH  25  26
ATOM     26  C   UNL A   1      43.306  18.976  25.684  1.00  0.00     0.188 C 
BRANCH  26  27
ATOM     27  O   UNL A   1      43.702  19.888  24.666  1.00  0.00    -0.376 OA
BRANCH  27  28
ATOM     28  C   UNL A   1      44.485  21.046  24.912  1.00  0.00     0.202 C 
BRANCH  28  29
ATOM     29  C   UNL A   1      44.318  22.356  24.133  1.00  0.00     0.261 C 
BRANCH  29  30
ATOM     30  O   UNL A   1      43.561  23.382  24.773  1.00  0.00    -0.460 OA
BRANCH  30  31
ATOM     31  C   UNL A   1      44.263  24.499  25.075  1.00  0.00     0.338 C 
ATOM     32  O   UNL A   1      45.345  24.834  24.640  1.00  0.00    -0.246 OA
BRANCH  31  33
ATOM     33  C   UNL A   1      43.426  25.355  25.934  1.00  0.00     0.060 A 
ATOM     34  C   UNL A   1      43.580  26.744  25.851  1.00  0.00     0.016 A 
ATOM     35  C   UNL A   1      42.546  24.786  26.857  1.00  0.00     0.016 A 
ATOM     36  C   UNL A   1      42.887  27.573  26.727  1.00  0.00     0.010 A 
ATOM     37  C   UNL A   1      41.871  25.615  27.751  1.00  0.00     0.010 A 
ATOM     38  C   UNL A   1      42.075  27.005  27.715  1.00  0.00    -0.014 A 
BRANCH  38  39
ATOM     39  C   UNL A   1      41.614  27.842  28.843  1.00  0.00     0.031 A 
ATOM     40  C   UNL A   1      42.373  27.766  30.138  1.00  0.00     0.074 A 
ATOM     41  C   UNL A   1      40.557  28.660  28.711  1.00  0.00     0.049 A 
ATOM     42  N   UNL A   1      42.118  28.340  31.285  1.00  0.00    -0.248 NA
ATOM     43  C   UNL A   1      43.578  26.921  30.141  1.00  0.00     0.031 C 
ATOM     44  C   UNL A   1      39.781  28.848  27.487  1.00  0.00     0.029 A 
ATOM     45  N   UNL A   1      39.949  29.475  29.629  1.00  0.00    -0.354 N 
ATOM     46  C   UNL A   1      43.120  27.914  32.147  1.00  0.00     0.074 A 
ATOM     47  C   UNL A   1      43.970  27.012  31.402  1.00  0.00     0.031 C 
ATOM     48  C   UNL A   1      38.781  29.712  27.738  1.00  0.00     0.029 A 
ATOM     49  C   UNL A   1      38.830  30.105  29.145  1.00  0.00     0.049 A 
ATOM     50  H   UNL A   1      40.281  29.597  30.548  1.00  0.00     0.167 HD
ATOM     51  C   UNL A   1      43.315  28.251  33.443  1.00  0.00     0.037 A 
ATOM     52  C   UNL A   1      37.934  30.884  29.779  1.00  0.00     0.037 A 
ATOM     53  C   UNL A   1      42.461  29.149  34.174  1.00  0.00     0.049 A 
ATOM     54  C   UNL A   1      38.130  31.186  31.242  1.00  0.00     0.074 A 
ATOM     55  C   UNL A   1      42.580  29.574  35.484  1.00  0.00     0.029 A 
ATOM     56  N   UNL A   1      41.323  29.750  33.657  1.00  0.00    -0.354 N 
ATOM     57  N   UNL A   1      39.093  30.800  32.047  1.00  0.00    -0.248 NA
ATOM     58  C   UNL A   1      37.119  32.037  31.884  1.00  0.00     0.031 C 
ATOM     59  C   UNL A   1      41.479  30.385  35.779  1.00  0.00     0.029 A 
ATOM     60  C   UNL A   1      40.712  30.519  34.633  1.00  0.00     0.049 A 
ATOM     61  H   UNL A   1      40.998  29.645  32.733  1.00  0.00     0.167 HD
ATOM     62  C   UNL A   1      38.820  31.385  33.278  1.00  0.00     0.074 A 
ATOM     63  C   UNL A   1      37.609  32.162  33.110  1.00  0.00     0.031 C 
ATOM     64  C   UNL A   1      39.510  31.291  34.442  1.00  0.00     0.037 A 
BRANCH  51  65
ATOM     65  C   UNL A   1      44.472  27.616  34.159  1.00  0.00     0.057 A 
ATOM     66  C   UNL A   1      44.357  26.385  34.819  1.00  0.00     0.134 A 
ATOM     67  C   UNL A   1      45.729  28.235  34.162  1.00  0.00     0.134 A 
ATOM     68  F   UNL A   1      43.177  25.749  34.869  1.00  0.00    -0.206 F 
ATOM     69  C   UNL A   1      45.443  25.806  35.479  1.00  0.00     0.040 A 
ATOM     70  C   UNL A   1      46.830  27.650  34.791  1.00  0.00     0.040 A 
ATOM     71  F   UNL A   1      45.911  29.413  33.548  1.00  0.00    -0.206 F 
ATOM     72  C   UNL A   1      46.686  26.435  35.458  1.00  0.00     0.006 A 
ENDBRANCH  51  65
BRANCH  52  73
ATOM     73  C   UNL A   1      36.760  31.418  29.043  1.00  0.00     0.057 A 
ATOM     74  C   UNL A   1      36.708  32.753  28.630  1.00  0.00     0.134 A 
ATOM     75  C   UNL A   1      35.656  30.609  28.749  1.00  0.00     0.134 A 
ATOM     76  F   UNL A   1      37.727  33.584  28.900  1.00  0.00    -0.206 F 
ATOM     77  C   UNL A   1      35.593  33.272  27.970  1.00  0.00     0.040 A 
ATOM     78  C   UNL A   1      34.544  31.108  28.065  1.00  0.00     0.040 A 
ATOM     79  F   UNL A   1      35.643  29.318  29.112  1.00  0.00    -0.206 F 
ATOM     80  C   UNL A   1      34.508  32.446  27.681  1.00  0.00     0.006 A 
ENDBRANCH  52  73
BRANCH  64  81
ATOM     81  C   UNL A   1      38.998  32.082  35.613  1.00  0.00     0.057 A 
ATOM     82  C   UNL A   1      38.247  31.494  36.639  1.00  0.00     0.134 A 
ATOM     83  C   UNL A   1      39.305  33.443  35.739  1.00  0.00     0.134 A 
ATOM     84  F   UNL A   1      37.909  30.196  36.577  1.00  0.00    -0.206 F 
ATOM     85  C   UNL A   1      37.797  32.237  37.731  1.00  0.00     0.040 A 
ATOM     86  C   UNL A   1      38.889  34.189  36.842  1.00  0.00     0.040 A 
ATOM     87  F   UNL A   1      40.032  34.067  34.799  1.00  0.00    -0.206 F 
ATOM     88  C   UNL A   1      38.126  33.587  37.839  1.00  0.00     0.006 A 
ENDBRANCH  64  81
ENDBRANCH  38  39
ENDBRANCH  31  33
ENDBRANCH  30  31
ENDBRANCH  29  30
ENDBRANCH  28  29
ENDBRANCH  27  28
ENDBRANCH  26  27
ENDBRANCH  25  26
ENDBRANCH   1  25
TORSDOF 23
ENDMDL
MODEL 2
REMARK VINA RESULT:     -10.3      1.177      6.642
REMARK SMILES CC[C@@H]1CCC[C@@](Cc2ccccn2)(C(=O)OCCOCCOCCOCCOC(=O)c2ccc(-c3c4nc(c(-c5c(F)cccc5F)c5ccc([nH]5)c(-c5c(F)cccc5F)c5nc(c(-c6c(F)cccc6F)c6ccc3[nH]6)C=C5)C=C4)cc2)C1
REMARK SMILES IDX 23 1 22 2 21 3 20 4 19 5 18 6 17 7 15 8 16 9 7 10 3 11 4 12
REMARK SMILES IDX 86 13 5 14 6 15 2 16 1 17 8 18 9 19 10 20 14 21 11 22 13 23
REMARK SMILES IDX 12 24 24 25 25 26 26 27 27 28 28 29 29 30 30 31 31 32 32 33
REMARK SMILES IDX 33 34 85 35 34 36 84 37 35 38 36 39 37 40 78 41 38 42 83 43
REMARK SMILES IDX 77 44 79 45 39 46 82 47 76 48 75 49 40 51 66 52 49 53 65 54
REMARK SMILES IDX 50 55 53 56 64 57 80 58 51 59 52 60 63 62 81 63 54 64 41 65
REMARK SMILES IDX 42 66 47 67 43 68 44 69 46 70 48 71 45 72 67 73 68 74 73 75
REMARK SMILES IDX 69 76 70 77 72 78 74 79 71 80 55 81 56 82 61 83 57 84 58 85
REMARK SMILES IDX 60 86 62 87 59 88
REMARK H PARENT 79 50 53 61
REMARK Flexibility Score: inf
ROOT
ATOM      1  O   UNL A   1      41.723  19.665  25.670  1.00  0.00    -0.377 OA
ENDROOT
BRANCH   1   2
ATOM      2  C   UNL A   1      41.083  20.277  26.757  1.00  0.00     0.188 C 
BRANCH   2   3
ATOM      3  C   UNL A   1      41.010  21.798  26.732  1.00  0.00     0.188 C 
BRANCH   3   4
ATOM      4  O   UNL A   1      39.821  22.433  27.166  1.00  0.00    -0.376 OA
BRANCH   4   5
ATOM      5  C   UNL A   1      38.884  22.892  26.198  1.00  0.00     0.202 C 
BRANCH   5   6
ATOM      6  C   UNL A   1      37.870  21.903  25.599  1.00  0.00     0.261 C 
BRANCH   6   7
ATOM      7  O   UNL A   1      36.468  22.264  25.714  1.00  0.00    -0.463 OA
BRANCH   7   8
ATOM      8  C   UNL A   1      35.765  22.389  24.556  1.00  0.00     0.312 C 
ATOM      9  O   UNL A   1      36.312  22.527  23.465  1.00  0.00    -0.252 OA
BRANCH   8  10
ATOM     10  C   UNL A   1      34.223  22.471  24.714  1.00  0.00     0.074 C 
ATOM     11  C   UNL A   1      33.975  25.053  24.806  1.00  0.00    -0.010 C 
ATOM     12  C   UNL A   1      32.875  25.051  23.743  1.00  0.00     0.003 C 
ATOM     13  C   UNL A   1      33.917  23.729  25.597  1.00  0.00     0.022 C 
ATOM     14  C   UNL A   1      32.909  23.842  22.821  1.00  0.00     0.001 C 
ATOM     15  C   UNL A   1      33.314  22.504  23.450  1.00  0.00     0.019 C 
BRANCH  11  16
ATOM     16  C   UNL A   1      33.852  26.320  25.673  1.00  0.00     0.000 C 
ATOM     17  C   UNL A   1      32.418  26.623  26.089  1.00  0.00     0.004 C 
ENDBRANCH  11  16
BRANCH  10  18
ATOM     18  C   UNL A   1      33.890  21.163  25.527  1.00  0.00     0.075 C 
BRANCH  18  19
ATOM     19  C   UNL A   1      33.751  19.915  24.668  1.00  0.00     0.041 A 
ATOM     20  C   UNL A   1      32.583  19.652  23.956  1.00  0.00     0.024 A 
ATOM     21  N   UNL A   1      34.767  19.020  24.727  1.00  0.00    -0.261 NA
ATOM     22  C   UNL A   1      32.406  18.397  23.378  1.00  0.00     0.003 A 
ATOM     23  C   UNL A   1      34.589  17.826  24.116  1.00  0.00     0.111 A 
ATOM     24  C   UNL A   1      33.427  17.462  23.461  1.00  0.00     0.020 A 
ENDBRANCH  18  19
ENDBRANCH  10  18
ENDBRANCH   8  10
ENDBRANCH   7   8
ENDBRANCH   6   7
ENDBRANCH   5   6
ENDBRANCH   4   5
ENDBRANCH   3   4
ENDBRANCH   2   3
ENDBRANCH   1   2
BRANCH   1  25
ATOM     25  C   UNL A   1      42.851  18.864  25.929  1.00  0.00     0.188 C 
BRANCH  25  26
ATOM     26  C   UNL A   1      44.055  19.037  25.001  1.00  0.00     0.188 C 
BRANCH  26  27
ATOM     27  O   UNL A   1      44.261  20.262  24.307  1.00  0.00    -0.376 OA
BRANCH  27  28
ATOM     28  C   UNL A   1      44.465  21.507  24.958  1.00  0.00     0.202 C 
BRANCH  28  29
ATOM     29  C   UNL A   1      44.241  22.860  24.273  1.00  0.00     0.261 C 
BRANCH  29  30
ATOM     30  O   UNL A   1      43.511  23.834  25.017  1.00  0.00    -0.460 OA
BRANCH  30  31
ATOM     31  C   UNL A   1      44.183  24.982  25.260  1.00  0.00     0.338 C 
ATOM     32  O   UNL A   1      45.200  25.373  24.725  1.00  0.00    -0.246 OA
BRANCH  31  33
ATOM     33  C   UNL A   1      43.391  25.792  26.204  1.00  0.00     0.060 A 
ATOM     34  C   UNL A   1      43.771  27.120  26.432  1.00  0.00     0.016 A 
ATOM     35  C   UNL A   1      42.327  25.221  26.905  1.00  0.00     0.016 A 
ATOM     36  C   UNL A   1      43.114  27.873  27.399  1.00  0.00     0.010 A 
ATOM     37  C   UNL A   1      41.686  25.968  27.892  1.00  0.00     0.010 A 
ATOM     38  C   UNL A   1      42.108  27.279  28.169  1.00  0.00    -0.014 A 
BRANCH  38  39
ATOM     39  C   UNL A   1      41.650  27.950  29.404  1.00  0.00     0.031 A 
ATOM     40  C   UNL A   1      40.421  28.811  29.329  1.00  0.00     0.074 A 
ATOM     41  C   UNL A   1      42.305  27.785  30.566  1.00  0.00     0.049 A 
ATOM     42  N   UNL A   1      39.872  29.557  30.251  1.00  0.00    -0.248 NA
ATOM     43  C   UNL A   1      39.719  28.837  28.035  1.00  0.00     0.031 C 
ATOM     44  C   UNL A   1      43.478  26.935  30.761  1.00  0.00     0.029 A 
ATOM     45  N   UNL A   1      42.076  28.341  31.797  1.00  0.00    -0.354 N 
ATOM     46  C   UNL A   1      38.773  30.153  29.644  1.00  0.00     0.074 A 
ATOM     47  C   UNL A   1      38.748  29.704  28.270  1.00  0.00     0.031 C 
ATOM     48  C   UNL A   1      43.880  27.043  32.039  1.00  0.00     0.029 A 
ATOM     49  C   UNL A   1      43.016  27.995  32.735  1.00  0.00     0.049 A 
ATOM     50  H   UNL A   1      41.313  28.931  31.990  1.00  0.00     0.167 HD
ATOM     51  C   UNL A   1      37.864  30.994  30.189  1.00  0.00     0.037 A 
ATOM     52  C   UNL A   1      43.172  28.426  34.001  1.00  0.00     0.037 A 
ATOM     53  C   UNL A   1      37.900  31.434  31.558  1.00  0.00     0.049 A 
ATOM     54  C   UNL A   1      42.191  29.420  34.564  1.00  0.00     0.074 A 
ATOM     55  C   UNL A   1      37.017  32.269  32.218  1.00  0.00     0.029 A 
ATOM     56  N   UNL A   1      38.880  31.081  32.474  1.00  0.00    -0.354 N 
ATOM     57  N   UNL A   1      41.140  29.961  33.994  1.00  0.00    -0.248 NA
ATOM     58  C   UNL A   1      42.413  29.859  35.948  1.00  0.00     0.031 C 
ATOM     59  C   UNL A   1      37.497  32.470  33.516  1.00  0.00     0.029 A 
ATOM     60  C   UNL A   1      38.641  31.707  33.685  1.00  0.00     0.049 A 
ATOM     61  H   UNL A   1      39.635  30.476  32.289  1.00  0.00     0.167 HD
ATOM     62  C   UNL A   1      40.560  30.779  34.958  1.00  0.00     0.074 A 
ATOM     63  C   UNL A   1      41.369  30.651  36.152  1.00  0.00     0.031 C 
ATOM     64  C   UNL A   1      39.456  31.561  34.865  1.00  0.00     0.037 A 
BRANCH  51  65
ATOM     65  C   UNL A   1      36.780  31.520  29.293  1.00  0.00     0.057 A 
ATOM     66  C   UNL A   1      36.812  32.818  28.765  1.00  0.00     0.134 A 
ATOM     67  C   UNL A   1      35.701  30.703  28.931  1.00  0.00     0.134 A 
ATOM     68  F   UNL A   1      37.807  33.658  29.086  1.00  0.00    -0.206 F 
ATOM     69  C   UNL A   1      35.798  33.292  27.931  1.00  0.00     0.040 A 
ATOM     70  C   UNL A   1      34.698  31.156  28.072  1.00  0.00     0.040 A 
ATOM     71  F   UNL A   1      35.608  29.450  29.397  1.00  0.00    -0.206 F 
ATOM     72  C   UNL A   1      34.741  32.456  27.575  1.00  0.00     0.006 A 
ENDBRANCH  51  65
BRANCH  52  73
ATOM     73  C   UNL A   1      44.312  27.936  34.817  1.00  0.00     0.057 A 
ATOM     74  C   UNL A   1      45.541  28.603  34.823  1.00  0.00     0.134 A 
ATOM     75  C   UNL A   1      44.204  26.780  35.600  1.00  0.00     0.134 A 
ATOM     76  F   UNL A   1      45.715  29.706  34.079  1.00  0.00    -0.206 F 
ATOM     77  C   UNL A   1      46.629  28.129  35.559  1.00  0.00     0.040 A 
ATOM     78  C   UNL A   1      45.275  26.308  36.362  1.00  0.00     0.040 A 
ATOM     79  F   UNL A   1      43.051  26.094  35.644  1.00  0.00    -0.206 F 
ATOM     80  C   UNL A   1      46.494  26.980  36.336  1.00  0.00     0.006 A 
ENDBRANCH  52  73
BRANCH  64  81
ATOM     81  C   UNL A   1      39.032  32.306  36.100  1.00  0.00     0.057 A 
ATOM     82  C   UNL A   1      38.218  31.721  37.079  1.00  0.00     0.134 A 
ATOM     83  C   UNL A   1      39.487  33.610  36.334  1.00  0.00     0.134 A 
ATOM     84  F   UNL A   1      37.740  30.478  36.913  1.00  0.00    -0.206 F 
ATOM     85  C   UNL A   1      37.850  32.417  38.232  1.00  0.00     0.040 A 
ATOM     86  C   UNL A   1      39.153  34.304  37.498  1.00  0.00     0.040 A 
ATOM     87  F   UNL A   1      40.280  34.225  35.444  1.00  0.00    -0.206 F 
ATOM     88  C   UNL A   1      38.325  33.709  38.447  1.00  0.00     0.006 A 
ENDBRANCH  64  81
ENDBRANCH  38  39
ENDBRANCH  31  33
ENDBRANCH  30  31
ENDBRANCH  29  30
ENDBRANCH  28  29
ENDBRANCH  27  28
ENDBRANCH  26  27
ENDBRANCH  25  26
ENDBRANCH   1  25
TORSDOF 23
ENDMDL
MODEL 3
REMARK VINA RESULT:     -10.2      0.829      6.084
REMARK SMILES CC[C@@H]1CCC[C@@](Cc2ccccn2)(C(=O)OCCOCCOCCOCCOC(=O)c2ccc(-c3c4nc(c(-c5c(F)cccc5F)c5ccc([nH]5)c(-c5c(F)cccc5F)c5nc(c(-c6c(F)cccc6F)c6ccc3[nH]6)C=C5)C=C4)cc2)C1
REMARK SMILES IDX 23 1 22 2 21 3 20 4 19 5 18 6 17 7 15 8 16 9 7 10 3 11 4 12
REMARK SMILES IDX 86 13 5 14 6 15 2 16 1 17 8 18 9 19 10 20 14 21 11 22 13 23
REMARK SMILES IDX 12 24 24 25 25 26 26 27 27 28 28 29 29 30 30 31 31 32 32 33
REMARK SMILES IDX 33 34 85 35 34 36 84 37 35 38 36 39 37 40 78 41 38 42 83 43
REMARK SMILES IDX 77 44 79 45 39 46 82 47 76 48 75 49 40 51 66 52 49 53 65 54
REMARK SMILES IDX 50 55 53 56 64 57 80 58 51 59 52 60 63 62 81 63 54 64 41 65
REMARK SMILES IDX 42 66 47 67 43 68 44 69 46 70 48 71 45 72 67 73 68 74 73 75
REMARK SMILES IDX 69 76 70 77 72 78 74 79 71 80 55 81 56 82 61 83 57 84 58 85
REMARK SMILES IDX 60 86 62 87 59 88
REMARK H PARENT 79 50 53 61
REMARK Flexibility Score: inf
ROOT
ATOM      1  O   UNL A   1      42.064  19.184  25.448  1.00  0.00    -0.377 OA
ENDROOT
BRANCH   1   2
ATOM      2  C   UNL A   1      41.387  19.849  26.481  1.00  0.00     0.188 C 
BRANCH   2   3
ATOM      3  C   UNL A   1      40.943  21.277  26.192  1.00  0.00     0.188 C 
BRANCH   3   4
ATOM      4  O   UNL A   1      39.592  21.633  26.421  1.00  0.00    -0.376 OA
BRANCH   4   5
ATOM      5  C   UNL A   1      38.624  21.375  25.411  1.00  0.00     0.202 C 
BRANCH   5   6
ATOM      6  C   UNL A   1      37.157  21.768  25.652  1.00  0.00     0.261 C 
BRANCH   6   7
ATOM      7  O   UNL A   1      36.788  23.133  25.321  1.00  0.00    -0.463 OA
BRANCH   7   8
ATOM      8  C   UNL A   1      35.893  23.305  24.312  1.00  0.00     0.312 C 
ATOM      9  O   UNL A   1      36.212  23.233  23.128  1.00  0.00    -0.252 OA
BRANCH   8  10
ATOM     10  C   UNL A   1      34.462  23.721  24.750  1.00  0.00     0.074 C 
ATOM     11  C   UNL A   1      33.269  21.441  24.403  1.00  0.00    -0.010 C 
ATOM     12  C   UNL A   1      32.639  21.485  25.797  1.00  0.00     0.003 C 
ATOM     13  C   UNL A   1      33.456  22.884  23.887  1.00  0.00     0.022 C 
ATOM     14  C   UNL A   1      33.401  22.346  26.793  1.00  0.00     0.001 C 
ATOM     15  C   UNL A   1      34.049  23.624  26.248  1.00  0.00     0.019 C 
BRANCH  11  16
ATOM     16  C   UNL A   1      32.425  20.538  23.484  1.00  0.00     0.000 C 
ATOM     17  C   UNL A   1      32.639  19.053  23.746  1.00  0.00     0.004 C 
ENDBRANCH  11  16
BRANCH  10  18
ATOM     18  C   UNL A   1      34.396  25.234  24.315  1.00  0.00     0.075 C 
BRANCH  18  19
ATOM     19  C   UNL A   1      33.059  25.651  23.720  1.00  0.00     0.041 A 
ATOM     20  C   UNL A   1      32.894  25.809  22.346  1.00  0.00     0.024 A 
ATOM     21  N   UNL A   1      32.079  25.976  24.598  1.00  0.00    -0.261 NA
ATOM     22  C   UNL A   1      31.737  26.416  21.864  1.00  0.00     0.003 A 
ATOM     23  C   UNL A   1      30.944  26.520  24.099  1.00  0.00     0.111 A 
ATOM     24  C   UNL A   1      30.741  26.783  22.757  1.00  0.00     0.020 A 
ENDBRANCH  18  19
ENDBRANCH  10  18
ENDBRANCH   8  10
ENDBRANCH   7   8
ENDBRANCH   6   7
ENDBRANCH   5   6
ENDBRANCH   4   5
ENDBRANCH   3   4
ENDBRANCH   2   3
ENDBRANCH   1   2
BRANCH   1  25
ATOM     25  C   UNL A   1      43.297  18.574  25.748  1.00  0.00     0.188 C 
BRANCH  25  26
ATOM     26  C   UNL A   1      44.502  18.987  24.901  1.00  0.00     0.188 C 
BRANCH  26  27
ATOM     27  O   UNL A   1      44.506  20.232  24.212  1.00  0.00    -0.376 OA
BRANCH  27  28
ATOM     28  C   UNL A   1      44.554  21.491  24.866  1.00  0.00     0.202 C 
BRANCH  28  29
ATOM     29  C   UNL A   1      44.300  22.822  24.149  1.00  0.00     0.261 C 
BRANCH  29  30
ATOM     30  O   UNL A   1      43.552  23.798  24.872  1.00  0.00    -0.460 OA
BRANCH  30  31
ATOM     31  C   UNL A   1      44.236  24.924  25.177  1.00  0.00     0.338 C 
ATOM     32  O   UNL A   1      45.273  25.318  24.684  1.00  0.00    -0.246 OA
BRANCH  31  33
ATOM     33  C   UNL A   1      43.433  25.710  26.132  1.00  0.00     0.060 A 
ATOM     34  C   UNL A   1      43.733  27.067  26.303  1.00  0.00     0.016 A 
ATOM     35  C   UNL A   1      42.441  25.094  26.896  1.00  0.00     0.016 A 
ATOM     36  C   UNL A   1      43.070  27.806  27.277  1.00  0.00     0.010 A 
ATOM     37  C   UNL A   1      41.795  25.828  27.889  1.00  0.00     0.010 A 
ATOM     38  C   UNL A   1      42.140  27.173  28.109  1.00  0.00    -0.014 A 
BRANCH  38  39
ATOM     39  C   UNL A   1      41.692  27.851  29.342  1.00  0.00     0.031 A 
ATOM     40  C   UNL A   1      40.465  28.717  29.270  1.00  0.00     0.074 A 
ATOM     41  C   UNL A   1      42.352  27.689  30.501  1.00  0.00     0.049 A 
ATOM     42  N   UNL A   1      39.925  29.470  30.192  1.00  0.00    -0.248 NA
ATOM     43  C   UNL A   1      39.757  28.740  27.980  1.00  0.00     0.031 C 
ATOM     44  C   UNL A   1      43.522  26.835  30.694  1.00  0.00     0.029 A 
ATOM     45  N   UNL A   1      42.133  28.251  31.731  1.00  0.00    -0.354 N 
ATOM     46  C   UNL A   1      38.825  30.067  29.588  1.00  0.00     0.074 A 
ATOM     47  C   UNL A   1      38.791  29.612  28.217  1.00  0.00     0.031 C 
ATOM     48  C   UNL A   1      43.933  26.948  31.969  1.00  0.00     0.029 A 
ATOM     49  C   UNL A   1      43.076  27.906  32.665  1.00  0.00     0.049 A 
ATOM     50  H   UNL A   1      41.374  28.846  31.925  1.00  0.00     0.167 HD
ATOM     51  C   UNL A   1      37.922  30.915  30.135  1.00  0.00     0.037 A 
ATOM     52  C   UNL A   1      43.242  28.342  33.928  1.00  0.00     0.037 A 
ATOM     53  C   UNL A   1      37.968  31.361  31.501  1.00  0.00     0.049 A 
ATOM     54  C   UNL A   1      42.267  29.344  34.493  1.00  0.00     0.074 A 
ATOM     55  C   UNL A   1      37.092  32.203  32.162  1.00  0.00     0.029 A 
ATOM     56  N   UNL A   1      38.952  31.009  32.413  1.00  0.00    -0.354 N 
ATOM     57  N   UNL A   1      41.216  29.887  33.926  1.00  0.00    -0.248 NA
ATOM     58  C   UNL A   1      42.500  29.789  35.873  1.00  0.00     0.031 C 
ATOM     59  C   UNL A   1      37.581  32.409  33.456  1.00  0.00     0.029 A 
ATOM     60  C   UNL A   1      38.723  31.642  33.623  1.00  0.00     0.049 A 
ATOM     61  H   UNL A   1      39.703  30.399  32.227  1.00  0.00     0.167 HD
ATOM     62  C   UNL A   1      40.645  30.711  34.888  1.00  0.00     0.074 A 
ATOM     63  C   UNL A   1      41.460  30.586  36.079  1.00  0.00     0.031 C 
ATOM     64  C   UNL A   1      39.544  31.498  34.798  1.00  0.00     0.037 A 
BRANCH  51  65
ATOM     65  C   UNL A   1      36.836  31.441  29.241  1.00  0.00     0.057 A 
ATOM     66  C   UNL A   1      35.709  30.678  28.908  1.00  0.00     0.134 A 
ATOM     67  C   UNL A   1      36.908  32.743  28.730  1.00  0.00     0.134 A 
ATOM     68  F   UNL A   1      35.586  29.418  29.350  1.00  0.00    -0.206 F 
ATOM     69  C   UNL A   1      34.705  31.183  28.078  1.00  0.00     0.040 A 
ATOM     70  C   UNL A   1      35.896  33.269  27.925  1.00  0.00     0.040 A 
ATOM     71  F   UNL A   1      37.958  33.530  29.010  1.00  0.00    -0.206 F 
ATOM     72  C   UNL A   1      34.794  32.485  27.591  1.00  0.00     0.006 A 
ENDBRANCH  51  65
BRANCH  52  73
ATOM     73  C   UNL A   1      44.384  27.852  34.741  1.00  0.00     0.057 A 
ATOM     74  C   UNL A   1      45.597  28.547  34.783  1.00  0.00     0.134 A 
ATOM     75  C   UNL A   1      44.295  26.667  35.482  1.00  0.00     0.134 A 
ATOM     76  F   UNL A   1      45.752  29.679  34.080  1.00  0.00    -0.206 F 
ATOM     77  C   UNL A   1      46.687  28.073  35.516  1.00  0.00     0.040 A 
ATOM     78  C   UNL A   1      45.369  26.195  36.240  1.00  0.00     0.040 A 
ATOM     79  F   UNL A   1      43.159  25.953  35.489  1.00  0.00    -0.206 F 
ATOM     80  C   UNL A   1      46.572  26.895  36.251  1.00  0.00     0.006 A 
ENDBRANCH  52  73
BRANCH  64  81
ATOM     81  C   UNL A   1      39.130  32.250  36.032  1.00  0.00     0.057 A 
ATOM     82  C   UNL A   1      39.527  33.573  36.267  1.00  0.00     0.134 A 
ATOM     83  C   UNL A   1      38.281  31.655  36.975  1.00  0.00     0.134 A 
ATOM     84  F   UNL A   1      40.347  34.199  35.409  1.00  0.00    -0.206 F 
ATOM     85  C   UNL A   1      39.117  34.266  37.407  1.00  0.00     0.040 A 
ATOM     86  C   UNL A   1      37.839  32.348  38.102  1.00  0.00     0.040 A 
ATOM     87  F   UNL A   1      37.853  30.395  36.806  1.00  0.00    -0.206 F 
ATOM     88  C   UNL A   1      38.263  33.656  38.324  1.00  0.00     0.006 A 
ENDBRANCH  64  81
ENDBRANCH  38  39
ENDBRANCH  31  33
ENDBRANCH  30  31
ENDBRANCH  29  30
ENDBRANCH  28  29
ENDBRANCH  27  28
ENDBRANCH  26  27
ENDBRANCH  25  26
ENDBRANCH   1  25
TORSDOF 23
ENDMDL
