MODEL 1
REMARK VINA RESULT:     -10.9      0.000      0.000
REMARK SMILES C[C@@H]1Cc2ccccc2N1S(=O)(=O)c1cccc(C(=O)OCCOCCOCCOCCOC(=O)c2ccc(-c3c4nc(c(-c5c(F)cccc5F)c5ccc([nH]5)c(-c5c(F)cccc5F)c5nc(c(-c6c(F)cccc6F)c6ccc3[nH]6)C=C5)C=C4)cc2)c1
REMARK SMILES IDX 27 1 26 2 25 3 24 4 23 5 22 6 21 7 19 8 20 9 18 10 14 11
REMARK SMILES IDX 15 12 90 13 16 14 17 15 11 16 12 17 13 18 10 19 1 20 2 21
REMARK SMILES IDX 3 22 4 23 9 24 5 25 8 26 6 27 7 28 28 29 29 30 30 31 31 32
REMARK SMILES IDX 32 33 33 34 34 35 35 36 36 37 37 38 89 39 38 40 88 41 39 42
REMARK SMILES IDX 40 43 41 44 82 45 42 46 87 47 81 48 83 49 43 50 86 51 80 52
REMARK SMILES IDX 79 53 44 55 70 56 53 57 69 58 54 59 57 60 68 61 84 62 55 63
REMARK SMILES IDX 56 64 67 66 85 67 58 68 45 69 46 70 51 71 47 72 48 73 50 74
REMARK SMILES IDX 52 75 49 76 71 77 72 78 77 79 73 80 74 81 76 82 78 83 75 84
REMARK SMILES IDX 59 85 60 86 65 87 61 88 62 89 64 90 66 91 63 92
REMARK H PARENT 83 54 57 65
REMARK Flexibility Score: inf
ROOT
ATOM      1  O   UNL A   1      42.936  19.251  26.054  1.00  0.00    -0.377 OA
ENDROOT
BRANCH   1   2
ATOM      2  C   UNL A   1      41.907  20.213  25.905  1.00  0.00     0.188 C 
BRANCH   2   3
ATOM      3  C   UNL A   1      40.469  19.774  26.227  1.00  0.00     0.188 C 
BRANCH   3   4
ATOM      4  O   UNL A   1      39.484  20.712  25.815  1.00  0.00    -0.376 OA
BRANCH   4   5
ATOM      5  C   UNL A   1      38.441  20.223  24.985  1.00  0.00     0.202 C 
BRANCH   5   6
ATOM      6  C   UNL A   1      37.137  21.038  24.957  1.00  0.00     0.261 C 
BRANCH   6   7
ATOM      7  O   UNL A   1      37.288  22.445  24.715  1.00  0.00    -0.460 OA
BRANCH   7   8
ATOM      8  C   UNL A   1      37.037  23.272  25.751  1.00  0.00     0.338 C 
ATOM      9  O   UNL A   1      37.868  23.830  26.447  1.00  0.00    -0.246 OA
BRANCH   8  10
ATOM     10  C   UNL A   1      35.581  23.583  25.777  1.00  0.00     0.061 A 
ATOM     11  C   UNL A   1      33.606  24.755  25.022  1.00  0.00     0.088 A 
ATOM     12  C   UNL A   1      32.845  24.093  25.999  1.00  0.00     0.022 A 
ATOM     13  C   UNL A   1      34.978  24.492  24.893  1.00  0.00     0.038 A 
ATOM     14  C   UNL A   1      33.457  23.223  26.896  1.00  0.00     0.002 A 
ATOM     15  C   UNL A   1      34.820  22.965  26.782  1.00  0.00     0.016 A 
BRANCH  11  16
ATOM     16  S   UNL A   1      32.733  25.759  23.841  1.00  0.00     0.264 S 
ATOM     17  O   UNL A   1      31.723  24.891  23.262  1.00  0.00    -0.201 OA
ATOM     18  O   UNL A   1      33.730  26.363  22.977  1.00  0.00    -0.201 OA
BRANCH  16  19
ATOM     19  N   UNL A   1      31.926  27.044  24.651  1.00  0.00    -0.263 N 
ATOM     20  C   UNL A   1      33.393  27.869  26.520  1.00  0.00     0.032 C 
ATOM     21  C   UNL A   1      32.922  28.122  25.098  1.00  0.00     0.101 C 
ATOM     22  C   UNL A   1      32.210  29.483  24.950  1.00  0.00     0.063 C 
ATOM     23  C   UNL A   1      30.983  29.133  24.179  1.00  0.00    -0.021 A 
ATOM     24  C   UNL A   1      30.840  27.756  24.034  1.00  0.00     0.055 A 
ATOM     25  C   UNL A   1      30.012  30.020  23.729  1.00  0.00     0.006 A 
ATOM     26  C   UNL A   1      29.649  27.243  23.550  1.00  0.00     0.027 A 
ATOM     27  C   UNL A   1      28.853  29.503  23.152  1.00  0.00     0.000 A 
ATOM     28  C   UNL A   1      28.665  28.119  23.077  1.00  0.00     0.002 A 
ENDBRANCH  16  19
ENDBRANCH  11  16
ENDBRANCH   8  10
ENDBRANCH   7   8
ENDBRANCH   6   7
ENDBRANCH   5   6
ENDBRANCH   4   5
ENDBRANCH   3   4
ENDBRANCH   2   3
ENDBRANCH   1   2
BRANCH   1  29
ATOM     29  C   UNL A   1      43.918  19.108  25.031  1.00  0.00     0.188 C 
BRANCH  29  30
ATOM     30  C   UNL A   1      45.400  18.792  25.339  1.00  0.00     0.188 C 
BRANCH  30  31
ATOM     31  O   UNL A   1      46.266  19.918  25.331  1.00  0.00    -0.376 OA
BRANCH  31  32
ATOM     32  C   UNL A   1      45.722  21.136  24.850  1.00  0.00     0.202 C 
BRANCH  32  33
ATOM     33  C   UNL A   1      45.642  22.251  25.898  1.00  0.00     0.261 C 
BRANCH  33  34
ATOM     34  O   UNL A   1      44.410  22.987  25.920  1.00  0.00    -0.460 OA
BRANCH  34  35
ATOM     35  C   UNL A   1      44.429  24.257  25.445  1.00  0.00     0.338 C 
ATOM     36  O   UNL A   1      44.748  24.628  24.346  1.00  0.00    -0.246 OA
BRANCH  35  37
ATOM     37  C   UNL A   1      43.799  25.104  26.488  1.00  0.00     0.060 A 
ATOM     38  C   UNL A   1      42.733  24.608  27.239  1.00  0.00     0.016 A 
ATOM     39  C   UNL A   1      44.250  26.418  26.672  1.00  0.00     0.016 A 
ATOM     40  C   UNL A   1      42.129  25.422  28.198  1.00  0.00     0.010 A 
ATOM     41  C   UNL A   1      43.638  27.235  27.629  1.00  0.00     0.010 A 
ATOM     42  C   UNL A   1      42.588  26.733  28.412  1.00  0.00    -0.014 A 
BRANCH  42  43
ATOM     43  C   UNL A   1      42.081  27.495  29.579  1.00  0.00     0.031 A 
ATOM     44  C   UNL A   1      42.735  27.431  30.925  1.00  0.00     0.074 A 
ATOM     45  C   UNL A   1      41.002  28.278  29.389  1.00  0.00     0.049 A 
ATOM     46  N   UNL A   1      42.454  28.115  32.007  1.00  0.00    -0.248 NA
ATOM     47  C   UNL A   1      43.840  26.476  31.084  1.00  0.00     0.031 C 
ATOM     48  C   UNL A   1      40.265  28.397  28.129  1.00  0.00     0.029 A 
ATOM     49  N   UNL A   1      40.344  29.123  30.243  1.00  0.00    -0.354 N 
ATOM     50  C   UNL A   1      43.363  27.698  32.970  1.00  0.00     0.074 A 
ATOM     51  C   UNL A   1      44.170  26.661  32.357  1.00  0.00     0.031 C 
ATOM     52  C   UNL A   1      39.269  29.282  28.286  1.00  0.00     0.029 A 
ATOM     53  C   UNL A   1      39.284  29.773  29.660  1.00  0.00     0.049 A 
ATOM     54  H   UNL A   1      40.604  29.251  31.183  1.00  0.00     0.167 HD
ATOM     55  C   UNL A   1      43.519  28.153  34.238  1.00  0.00     0.037 A 
ATOM     56  C   UNL A   1      38.421  30.666  30.174  1.00  0.00     0.037 A 
ATOM     57  C   UNL A   1      42.692  29.166  34.850  1.00  0.00     0.049 A 
ATOM     58  C   UNL A   1      38.583  31.106  31.601  1.00  0.00     0.074 A 
ATOM     59  C   UNL A   1      42.792  29.712  36.120  1.00  0.00     0.029 A 
ATOM     60  N   UNL A   1      41.603  29.776  34.245  1.00  0.00    -0.354 N 
ATOM     61  N   UNL A   1      39.498  30.765  32.475  1.00  0.00    -0.248 NA
ATOM     62  C   UNL A   1      37.592  32.063  32.111  1.00  0.00     0.031 C 
ATOM     63  C   UNL A   1      41.734  30.611  36.299  1.00  0.00     0.029 A 
ATOM     64  C   UNL A   1      41.005  30.667  35.124  1.00  0.00     0.049 A 
ATOM     65  H   UNL A   1      41.298  29.600  33.326  1.00  0.00     0.167 HD
ATOM     66  C   UNL A   1      39.210  31.485  33.626  1.00  0.00     0.074 A 
ATOM     67  C   UNL A   1      38.050  32.300  33.330  1.00  0.00     0.031 C 
ATOM     68  C   UNL A   1      39.847  31.470  34.823  1.00  0.00     0.037 A 
BRANCH  55  69
ATOM     69  C   UNL A   1      44.632  27.564  35.056  1.00  0.00     0.057 A 
ATOM     70  C   UNL A   1      45.913  28.133  35.051  1.00  0.00     0.134 A 
ATOM     71  C   UNL A   1      44.452  26.392  35.802  1.00  0.00     0.134 A 
ATOM     72  F   UNL A   1      46.161  29.247  34.347  1.00  0.00    -0.206 F 
ATOM     73  C   UNL A   1      46.971  27.557  35.756  1.00  0.00     0.040 A 
ATOM     74  C   UNL A   1      45.497  25.820  36.532  1.00  0.00     0.040 A 
ATOM     75  F   UNL A   1      43.250  25.796  35.850  1.00  0.00    -0.206 F 
ATOM     76  C   UNL A   1      46.763  26.400  36.504  1.00  0.00     0.006 A 
ENDBRANCH  55  69
BRANCH  56  77
ATOM     77  C   UNL A   1      37.328  31.217  29.336  1.00  0.00     0.057 A 
ATOM     78  C   UNL A   1      36.165  30.481  29.081  1.00  0.00     0.134 A 
ATOM     79  C   UNL A   1      37.405  32.509  28.804  1.00  0.00     0.134 A 
ATOM     80  F   UNL A   1      36.035  29.233  29.554  1.00  0.00    -0.206 F 
ATOM     81  C   UNL A   1      35.115  31.012  28.333  1.00  0.00     0.040 A 
ATOM     82  C   UNL A   1      36.349  33.064  28.079  1.00  0.00     0.040 A 
ATOM     83  F   UNL A   1      38.487  33.269  29.028  1.00  0.00    -0.206 F 
ATOM     84  C   UNL A   1      35.200  32.313  27.841  1.00  0.00     0.006 A 
ENDBRANCH  56  77
BRANCH  68  85
ATOM     85  C   UNL A   1      39.309  32.384  35.887  1.00  0.00     0.057 A 
ATOM     86  C   UNL A   1      38.335  31.936  36.790  1.00  0.00     0.134 A 
ATOM     87  C   UNL A   1      39.757  33.705  36.026  1.00  0.00     0.134 A 
ATOM     88  F   UNL A   1      37.857  30.685  36.711  1.00  0.00    -0.206 F 
ATOM     89  C   UNL A   1      37.831  32.765  37.793  1.00  0.00     0.040 A 
ATOM     90  C   UNL A   1      39.283  34.534  37.044  1.00  0.00     0.040 A 
ATOM     91  F   UNL A   1      40.702  34.192  35.207  1.00  0.00    -0.206 F 
ATOM     92  C   UNL A   1      38.314  34.065  37.929  1.00  0.00     0.006 A 
ENDBRANCH  68  85
ENDBRANCH  42  43
ENDBRANCH  35  37
ENDBRANCH  34  35
ENDBRANCH  33  34
ENDBRANCH  32  33
ENDBRANCH  31  32
ENDBRANCH  30  31
ENDBRANCH  29  30
ENDBRANCH   1  29
TORSDOF 22
ENDMDL
MODEL 2
REMARK VINA RESULT:     -10.8      1.046      5.990
REMARK SMILES C[C@@H]1Cc2ccccc2N1S(=O)(=O)c1cccc(C(=O)OCCOCCOCCOCCOC(=O)c2ccc(-c3c4nc(c(-c5c(F)cccc5F)c5ccc([nH]5)c(-c5c(F)cccc5F)c5nc(c(-c6c(F)cccc6F)c6ccc3[nH]6)C=C5)C=C4)cc2)c1
REMARK SMILES IDX 27 1 26 2 25 3 24 4 23 5 22 6 21 7 19 8 20 9 18 10 14 11
REMARK SMILES IDX 15 12 90 13 16 14 17 15 11 16 12 17 13 18 10 19 1 20 2 21
REMARK SMILES IDX 3 22 4 23 9 24 5 25 8 26 6 27 7 28 28 29 29 30 30 31 31 32
REMARK SMILES IDX 32 33 33 34 34 35 35 36 36 37 37 38 89 39 38 40 88 41 39 42
REMARK SMILES IDX 40 43 41 44 82 45 42 46 87 47 81 48 83 49 43 50 86 51 80 52
REMARK SMILES IDX 79 53 44 55 70 56 53 57 69 58 54 59 57 60 68 61 84 62 55 63
REMARK SMILES IDX 56 64 67 66 85 67 58 68 45 69 46 70 51 71 47 72 48 73 50 74
REMARK SMILES IDX 52 75 49 76 71 77 72 78 77 79 73 80 74 81 76 82 78 83 75 84
REMARK SMILES IDX 59 85 60 86 65 87 61 88 62 89 64 90 66 91 63 92
REMARK H PARENT 83 54 57 65
REMARK Flexibility Score: inf
ROOT
ATOM      1  O   UNL A   1      43.394  19.430  24.913  1.00  0.00    -0.377 OA
ENDROOT
BRANCH   1   2
ATOM      2  C   UNL A   1      42.480  19.075  25.935  1.00  0.00     0.188 C 
BRANCH   2   3
ATOM      3  C   UNL A   1      41.147  19.839  25.997  1.00  0.00     0.188 C 
BRANCH   3   4
ATOM      4  O   UNL A   1      40.029  19.062  25.590  1.00  0.00    -0.376 OA
BRANCH   4   5
ATOM      5  C   UNL A   1      38.800  19.751  25.410  1.00  0.00     0.202 C 
BRANCH   5   6
ATOM      6  C   UNL A   1      38.763  21.227  25.841  1.00  0.00     0.261 C 
BRANCH   6   7
ATOM      7  O   UNL A   1      38.009  22.103  24.990  1.00  0.00    -0.460 OA
BRANCH   7   8
ATOM      8  C   UNL A   1      37.358  23.122  25.588  1.00  0.00     0.338 C 
ATOM      9  O   UNL A   1      37.811  23.866  26.442  1.00  0.00    -0.246 OA
BRANCH   8  10
ATOM     10  C   UNL A   1      36.065  23.348  24.885  1.00  0.00     0.061 A 
ATOM     11  C   UNL A   1      33.693  23.812  24.816  1.00  0.00     0.088 A 
ATOM     12  C   UNL A   1      33.714  23.686  23.417  1.00  0.00     0.022 A 
ATOM     13  C   UNL A   1      34.873  23.661  25.560  1.00  0.00     0.038 A 
ATOM     14  C   UNL A   1      34.890  23.340  22.761  1.00  0.00     0.002 A 
ATOM     15  C   UNL A   1      36.063  23.176  23.491  1.00  0.00     0.016 A 
BRANCH  11  16
ATOM     16  S   UNL A   1      32.181  24.372  25.569  1.00  0.00     0.264 S 
ATOM     17  O   UNL A   1      32.322  24.087  26.986  1.00  0.00    -0.201 OA
ATOM     18  O   UNL A   1      31.089  23.769  24.829  1.00  0.00    -0.201 OA
BRANCH  16  19
ATOM     19  N   UNL A   1      32.033  26.076  25.384  1.00  0.00    -0.263 N 
ATOM     20  C   UNL A   1      34.108  27.170  26.292  1.00  0.00     0.032 C 
ATOM     21  C   UNL A   1      33.386  26.709  25.037  1.00  0.00     0.101 C 
ATOM     22  C   UNL A   1      33.103  27.873  24.064  1.00  0.00     0.063 C 
ATOM     23  C   UNL A   1      31.674  27.660  23.700  1.00  0.00    -0.021 A 
ATOM     24  C   UNL A   1      31.092  26.652  24.464  1.00  0.00     0.055 A 
ATOM     25  C   UNL A   1      30.933  28.413  22.796  1.00  0.00     0.006 A 
ATOM     26  C   UNL A   1      29.719  26.476  24.425  1.00  0.00     0.027 A 
ATOM     27  C   UNL A   1      29.565  28.167  22.689  1.00  0.00     0.000 A 
ATOM     28  C   UNL A   1      28.957  27.213  23.511  1.00  0.00     0.002 A 
ENDBRANCH  16  19
ENDBRANCH  11  16
ENDBRANCH   8  10
ENDBRANCH   7   8
ENDBRANCH   6   7
ENDBRANCH   5   6
ENDBRANCH   4   5
ENDBRANCH   3   4
ENDBRANCH   2   3
ENDBRANCH   1   2
BRANCH   1  29
ATOM     29  C   UNL A   1      44.769  19.080  25.048  1.00  0.00     0.188 C 
BRANCH  29  30
ATOM     30  C   UNL A   1      45.914  20.040  24.646  1.00  0.00     0.188 C 
BRANCH  30  31
ATOM     31  O   UNL A   1      45.870  21.316  25.268  1.00  0.00    -0.376 OA
BRANCH  31  32
ATOM     32  C   UNL A   1      46.427  22.398  24.539  1.00  0.00     0.202 C 
BRANCH  32  33
ATOM     33  C   UNL A   1      45.424  23.497  24.174  1.00  0.00     0.261 C 
BRANCH  33  34
ATOM     34  O   UNL A   1      44.741  24.101  25.283  1.00  0.00    -0.460 OA
BRANCH  34  35
ATOM     35  C   UNL A   1      43.417  23.841  25.422  1.00  0.00     0.338 C 
ATOM     36  O   UNL A   1      42.797  22.914  24.970  1.00  0.00    -0.246 OA
BRANCH  35  37
ATOM     37  C   UNL A   1      42.897  24.825  26.403  1.00  0.00     0.060 A 
ATOM     38  C   UNL A   1      41.840  24.479  27.246  1.00  0.00     0.016 A 
ATOM     39  C   UNL A   1      43.442  26.116  26.436  1.00  0.00     0.016 A 
ATOM     40  C   UNL A   1      41.339  25.420  28.145  1.00  0.00     0.010 A 
ATOM     41  C   UNL A   1      42.934  27.060  27.334  1.00  0.00     0.010 A 
ATOM     42  C   UNL A   1      41.894  26.710  28.209  1.00  0.00    -0.014 A 
BRANCH  42  43
ATOM     43  C   UNL A   1      41.497  27.614  29.316  1.00  0.00     0.031 A 
ATOM     44  C   UNL A   1      40.348  28.567  29.202  1.00  0.00     0.074 A 
ATOM     45  C   UNL A   1      42.204  27.542  30.460  1.00  0.00     0.049 A 
ATOM     46  N   UNL A   1      39.834  29.347  30.121  1.00  0.00    -0.248 NA
ATOM     47  C   UNL A   1      39.693  28.667  27.891  1.00  0.00     0.031 C 
ATOM     48  C   UNL A   1      43.363  26.672  30.677  1.00  0.00     0.029 A 
ATOM     49  N   UNL A   1      42.052  28.199  31.653  1.00  0.00    -0.354 N 
ATOM     50  C   UNL A   1      38.777  30.010  29.513  1.00  0.00     0.074 A 
ATOM     51  C   UNL A   1      38.758  29.579  28.129  1.00  0.00     0.031 C 
ATOM     52  C   UNL A   1      43.802  26.832  31.934  1.00  0.00     0.029 A 
ATOM     53  C   UNL A   1      42.973  27.830  32.601  1.00  0.00     0.049 A 
ATOM     54  H   UNL A   1      41.350  28.870  31.814  1.00  0.00     0.167 HD
ATOM     55  C   UNL A   1      37.896  30.880  30.066  1.00  0.00     0.037 A 
ATOM     56  C   UNL A   1      43.133  28.249  33.869  1.00  0.00     0.037 A 
ATOM     57  C   UNL A   1      37.939  31.326  31.439  1.00  0.00     0.049 A 
ATOM     58  C   UNL A   1      42.176  29.259  34.435  1.00  0.00     0.074 A 
ATOM     59  C   UNL A   1      37.072  32.184  32.097  1.00  0.00     0.029 A 
ATOM     60  N   UNL A   1      38.908  30.963  32.362  1.00  0.00    -0.354 N 
ATOM     61  N   UNL A   1      41.131  29.815  33.873  1.00  0.00    -0.248 NA
ATOM     62  C   UNL A   1      42.420  29.695  35.816  1.00  0.00     0.031 C 
ATOM     63  C   UNL A   1      37.546  32.380  33.399  1.00  0.00     0.029 A 
ATOM     64  C   UNL A   1      38.679  31.604  33.572  1.00  0.00     0.049 A 
ATOM     65  H   UNL A   1      39.652  30.343  32.184  1.00  0.00     0.167 HD
ATOM     66  C   UNL A   1      40.577  30.644  34.840  1.00  0.00     0.074 A 
ATOM     67  C   UNL A   1      41.389  30.497  36.031  1.00  0.00     0.031 C 
ATOM     68  C   UNL A   1      39.496  31.456  34.750  1.00  0.00     0.037 A 
BRANCH  55  69
ATOM     69  C   UNL A   1      36.798  31.410  29.188  1.00  0.00     0.057 A 
ATOM     70  C   UNL A   1      36.795  32.743  28.758  1.00  0.00     0.134 A 
ATOM     71  C   UNL A   1      35.705  30.613  28.820  1.00  0.00     0.134 A 
ATOM     72  F   UNL A   1      37.801  33.567  29.085  1.00  0.00    -0.206 F 
ATOM     73  C   UNL A   1      35.747  33.264  27.996  1.00  0.00     0.040 A 
ATOM     74  C   UNL A   1      34.663  31.115  28.038  1.00  0.00     0.040 A 
ATOM     75  F   UNL A   1      35.646  29.326  29.199  1.00  0.00    -0.206 F 
ATOM     76  C   UNL A   1      34.679  32.446  27.629  1.00  0.00     0.006 A 
ENDBRANCH  55  69
BRANCH  56  77
ATOM     77  C   UNL A   1      44.236  27.708  34.701  1.00  0.00     0.057 A 
ATOM     78  C   UNL A   1      44.084  26.520  35.427  1.00  0.00     0.134 A 
ATOM     79  C   UNL A   1      45.481  28.344  34.756  1.00  0.00     0.134 A 
ATOM     80  F   UNL A   1      42.912  25.868  35.423  1.00  0.00    -0.206 F 
ATOM     81  C   UNL A   1      45.133  25.982  36.172  1.00  0.00     0.040 A 
ATOM     82  C   UNL A   1      46.547  27.801  35.473  1.00  0.00     0.040 A 
ATOM     83  F   UNL A   1      45.691  29.476  34.069  1.00  0.00    -0.206 F 
ATOM     84  C   UNL A   1      46.373  26.617  36.186  1.00  0.00     0.006 A 
ENDBRANCH  56  77
BRANCH  68  85
ATOM     85  C   UNL A   1      39.123  32.226  35.984  1.00  0.00     0.057 A 
ATOM     86  C   UNL A   1      39.615  33.521  36.196  1.00  0.00     0.134 A 
ATOM     87  C   UNL A   1      38.272  31.693  36.962  1.00  0.00     0.134 A 
ATOM     88  F   UNL A   1      40.438  34.091  35.303  1.00  0.00    -0.206 F 
ATOM     89  C   UNL A   1      39.270  34.258  37.330  1.00  0.00     0.040 A 
ATOM     90  C   UNL A   1      37.895  32.431  38.085  1.00  0.00     0.040 A 
ATOM     91  F   UNL A   1      37.750  30.466  36.813  1.00  0.00    -0.206 F 
ATOM     92  C   UNL A   1      38.399  33.717  38.273  1.00  0.00     0.006 A 
ENDBRANCH  68  85
ENDBRANCH  42  43
ENDBRANCH  35  37
ENDBRANCH  34  35
ENDBRANCH  33  34
ENDBRANCH  32  33
ENDBRANCH  31  32
ENDBRANCH  30  31
ENDBRANCH  29  30
ENDBRANCH   1  29
TORSDOF 22
ENDMDL
MODEL 3
REMARK VINA RESULT:     -10.5      0.816      1.914
REMARK SMILES C[C@@H]1Cc2ccccc2N1S(=O)(=O)c1cccc(C(=O)OCCOCCOCCOCCOC(=O)c2ccc(-c3c4nc(c(-c5c(F)cccc5F)c5ccc([nH]5)c(-c5c(F)cccc5F)c5nc(c(-c6c(F)cccc6F)c6ccc3[nH]6)C=C5)C=C4)cc2)c1
REMARK SMILES IDX 27 1 26 2 25 3 24 4 23 5 22 6 21 7 19 8 20 9 18 10 14 11
REMARK SMILES IDX 15 12 90 13 16 14 17 15 11 16 12 17 13 18 10 19 1 20 2 21
REMARK SMILES IDX 3 22 4 23 9 24 5 25 8 26 6 27 7 28 28 29 29 30 30 31 31 32
REMARK SMILES IDX 32 33 33 34 34 35 35 36 36 37 37 38 89 39 38 40 88 41 39 42
REMARK SMILES IDX 40 43 41 44 82 45 42 46 87 47 81 48 83 49 43 50 86 51 80 52
REMARK SMILES IDX 79 53 44 55 70 56 53 57 69 58 54 59 57 60 68 61 84 62 55 63
REMARK SMILES IDX 56 64 67 66 85 67 58 68 45 69 46 70 51 71 47 72 48 73 50 74
REMARK SMILES IDX 52 75 49 76 71 77 72 78 77 79 73 80 74 81 76 82 78 83 75 84
REMARK SMILES IDX 59 85 60 86 65 87 61 88 62 89 64 90 66 91 63 92
REMARK H PARENT 83 54 57 65
REMARK Flexibility Score: inf
ROOT
ATOM      1  O   UNL A   1      43.322  19.097  25.739  1.00  0.00    -0.377 OA
ENDROOT
BRANCH   1   2
ATOM      2  C   UNL A   1      42.292  20.069  25.769  1.00  0.00     0.188 C 
BRANCH   2   3
ATOM      3  C   UNL A   1      40.920  19.637  26.313  1.00  0.00     0.188 C 
BRANCH   3   4
ATOM      4  O   UNL A   1      39.867  20.525  25.966  1.00  0.00    -0.376 OA
BRANCH   4   5
ATOM      5  C   UNL A   1      38.716  19.951  25.364  1.00  0.00     0.202 C 
BRANCH   5   6
ATOM      6  C   UNL A   1      37.519  20.887  25.125  1.00  0.00     0.261 C 
BRANCH   6   7
ATOM      7  O   UNL A   1      37.843  22.268  24.910  1.00  0.00    -0.460 OA
BRANCH   7   8
ATOM      8  C   UNL A   1      37.470  23.139  25.871  1.00  0.00     0.338 C 
ATOM      9  O   UNL A   1      38.214  23.764  26.607  1.00  0.00    -0.246 OA
BRANCH   8  10
ATOM     10  C   UNL A   1      36.008  23.393  25.750  1.00  0.00     0.061 A 
ATOM     11  C   UNL A   1      34.056  24.303  24.652  1.00  0.00     0.088 A 
ATOM     12  C   UNL A   1      33.251  23.836  25.705  1.00  0.00     0.022 A 
ATOM     13  C   UNL A   1      35.439  24.070  24.658  1.00  0.00     0.038 A 
ATOM     14  C   UNL A   1      33.827  23.200  26.799  1.00  0.00     0.002 A 
ATOM     15  C   UNL A   1      35.201  22.974  26.820  1.00  0.00     0.016 A 
BRANCH  11  16
ATOM     16  S   UNL A   1      33.233  25.000  23.237  1.00  0.00     0.264 S 
ATOM     17  O   UNL A   1      32.127  24.104  22.948  1.00  0.00    -0.201 OA
ATOM     18  O   UNL A   1      34.247  25.224  22.223  1.00  0.00    -0.201 OA
BRANCH  16  19
ATOM     19  N   UNL A   1      32.577  26.538  23.640  1.00  0.00    -0.263 N 
ATOM     20  C   UNL A   1      30.656  27.028  22.093  1.00  0.00     0.032 C 
ATOM     21  C   UNL A   1      31.052  26.543  23.476  1.00  0.00     0.101 C 
ATOM     22  C   UNL A   1      30.482  27.440  24.596  1.00  0.00     0.063 C 
ATOM     23  C   UNL A   1      31.662  27.656  25.480  1.00  0.00    -0.021 A 
ATOM     24  C   UNL A   1      32.830  27.150  24.915  1.00  0.00     0.055 A 
ATOM     25  C   UNL A   1      31.676  28.361  26.678  1.00  0.00     0.006 A 
ATOM     26  C   UNL A   1      34.052  27.464  25.485  1.00  0.00     0.027 A 
ATOM     27  C   UNL A   1      32.901  28.593  27.301  1.00  0.00     0.000 A 
ATOM     28  C   UNL A   1      34.086  28.159  26.699  1.00  0.00     0.002 A 
ENDBRANCH  16  19
ENDBRANCH  11  16
ENDBRANCH   8  10
ENDBRANCH   7   8
ENDBRANCH   6   7
ENDBRANCH   5   6
ENDBRANCH   4   5
ENDBRANCH   3   4
ENDBRANCH   2   3
ENDBRANCH   1   2
BRANCH   1  29
ATOM     29  C   UNL A   1      44.444  19.290  24.880  1.00  0.00     0.188 C 
BRANCH  29  30
ATOM     30  C   UNL A   1      45.899  19.307  25.405  1.00  0.00     0.188 C 
BRANCH  30  31
ATOM     31  O   UNL A   1      46.661  20.442  25.020  1.00  0.00    -0.376 OA
BRANCH  31  32
ATOM     32  C   UNL A   1      45.933  21.589  24.613  1.00  0.00     0.202 C 
BRANCH  32  33
ATOM     33  C   UNL A   1      45.824  22.681  25.682  1.00  0.00     0.261 C 
BRANCH  33  34
ATOM     34  O   UNL A   1      44.532  22.818  26.292  1.00  0.00    -0.460 OA
BRANCH  34  35
ATOM     35  C   UNL A   1      43.620  23.599  25.661  1.00  0.00     0.338 C 
ATOM     36  O   UNL A   1      43.174  23.462  24.552  1.00  0.00    -0.246 OA
BRANCH  35  37
ATOM     37  C   UNL A   1      43.125  24.566  26.673  1.00  0.00     0.060 A 
ATOM     38  C   UNL A   1      41.982  24.273  27.417  1.00  0.00     0.016 A 
ATOM     39  C   UNL A   1      43.785  25.791  26.832  1.00  0.00     0.016 A 
ATOM     40  C   UNL A   1      41.508  25.200  28.345  1.00  0.00     0.010 A 
ATOM     41  C   UNL A   1      43.305  26.723  27.759  1.00  0.00     0.010 A 
ATOM     42  C   UNL A   1      42.176  26.423  28.536  1.00  0.00    -0.014 A 
BRANCH  42  43
ATOM     43  C   UNL A   1      41.787  27.289  29.675  1.00  0.00     0.031 A 
ATOM     44  C   UNL A   1      42.510  27.262  30.987  1.00  0.00     0.074 A 
ATOM     45  C   UNL A   1      40.754  28.132  29.491  1.00  0.00     0.049 A 
ATOM     46  N   UNL A   1      42.336  28.029  32.035  1.00  0.00    -0.248 NA
ATOM     47  C   UNL A   1      43.556  26.244  31.150  1.00  0.00     0.031 C 
ATOM     48  C   UNL A   1      39.956  28.225  28.266  1.00  0.00     0.029 A 
ATOM     49  N   UNL A   1      40.202  29.072  30.321  1.00  0.00    -0.354 N 
ATOM     50  C   UNL A   1      43.268  27.610  32.975  1.00  0.00     0.074 A 
ATOM     51  C   UNL A   1      43.969  26.483  32.390  1.00  0.00     0.031 C 
ATOM     52  C   UNL A   1      39.032  29.186  28.416  1.00  0.00     0.029 A 
ATOM     53  C   UNL A   1      39.157  29.757  29.752  1.00  0.00     0.049 A 
ATOM     54  H   UNL A   1      40.523  29.240  31.236  1.00  0.00     0.167 HD
ATOM     55  C   UNL A   1      43.524  28.130  34.200  1.00  0.00     0.037 A 
ATOM     56  C   UNL A   1      38.385  30.739  30.251  1.00  0.00     0.037 A 
ATOM     57  C   UNL A   1      42.803  29.235  34.788  1.00  0.00     0.049 A 
ATOM     58  C   UNL A   1      38.656  31.254  31.636  1.00  0.00     0.074 A 
ATOM     59  C   UNL A   1      43.010  29.850  36.013  1.00  0.00     0.029 A 
ATOM     60  N   UNL A   1      41.724  29.881  34.201  1.00  0.00    -0.354 N 
ATOM     61  N   UNL A   1      39.594  30.903  32.481  1.00  0.00    -0.248 NA
ATOM     62  C   UNL A   1      37.761  32.307  32.133  1.00  0.00     0.031 C 
ATOM     63  C   UNL A   1      42.026  30.830  36.187  1.00  0.00     0.029 A 
ATOM     64  C   UNL A   1      41.237  30.864  35.050  1.00  0.00     0.049 A 
ATOM     65  H   UNL A   1      41.357  29.670  33.312  1.00  0.00     0.167 HD
ATOM     66  C   UNL A   1      39.420  31.712  33.597  1.00  0.00     0.074 A 
ATOM     67  C   UNL A   1      38.302  32.586  33.309  1.00  0.00     0.031 C 
ATOM     68  C   UNL A   1      40.121  31.726  34.757  1.00  0.00     0.037 A 
BRANCH  55  69
ATOM     69  C   UNL A   1      44.640  27.517  34.997  1.00  0.00     0.057 A 
ATOM     70  C   UNL A   1      44.395  26.482  35.909  1.00  0.00     0.134 A 
ATOM     71  C   UNL A   1      45.954  27.996  34.907  1.00  0.00     0.134 A 
ATOM     72  F   UNL A   1      43.158  25.984  36.058  1.00  0.00    -0.206 F 
ATOM     73  C   UNL A   1      45.413  25.948  36.701  1.00  0.00     0.040 A 
ATOM     74  C   UNL A   1      46.986  27.454  35.676  1.00  0.00     0.040 A 
ATOM     75  F   UNL A   1      46.258  28.986  34.053  1.00  0.00    -0.206 F 
ATOM     76  C   UNL A   1      46.715  26.431  36.582  1.00  0.00     0.006 A 
ENDBRANCH  55  69
BRANCH  56  77
ATOM     77  C   UNL A   1      37.286  31.313  29.436  1.00  0.00     0.057 A 
ATOM     78  C   UNL A   1      36.062  30.648  29.295  1.00  0.00     0.134 A 
ATOM     79  C   UNL A   1      37.420  32.559  28.814  1.00  0.00     0.134 A 
ATOM     80  F   UNL A   1      35.875  29.445  29.859  1.00  0.00    -0.206 F 
ATOM     81  C   UNL A   1      35.010  31.204  28.569  1.00  0.00     0.040 A 
ATOM     82  C   UNL A   1      36.365  33.141  28.110  1.00  0.00     0.040 A 
ATOM     83  F   UNL A   1      38.564  33.250  28.927  1.00  0.00    -0.206 F 
ATOM     84  C   UNL A   1      35.156  32.461  27.985  1.00  0.00     0.006 A 
ENDBRANCH  56  77
BRANCH  68  85
ATOM     85  C   UNL A   1      39.705  32.739  35.786  1.00  0.00     0.057 A 
ATOM     86  C   UNL A   1      40.284  34.015  35.809  1.00  0.00     0.134 A 
ATOM     87  C   UNL A   1      38.728  32.457  36.751  1.00  0.00     0.134 A 
ATOM     88  F   UNL A   1      41.229  34.350  34.918  1.00  0.00    -0.206 F 
ATOM     89  C   UNL A   1      39.902  34.974  36.748  1.00  0.00     0.040 A 
ATOM     90  C   UNL A   1      38.316  33.418  37.676  1.00  0.00     0.040 A 
ATOM     91  F   UNL A   1      38.120  31.261  36.774  1.00  0.00    -0.206 F 
ATOM     92  C   UNL A   1      38.908  34.680  37.679  1.00  0.00     0.006 A 
ENDBRANCH  68  85
ENDBRANCH  42  43
ENDBRANCH  35  37
ENDBRANCH  34  35
ENDBRANCH  33  34
ENDBRANCH  32  33
ENDBRANCH  31  32
ENDBRANCH  30  31
ENDBRANCH  29  30
ENDBRANCH   1  29
TORSDOF 22
ENDMDL
