MODEL 1
REMARK VINA RESULT:     -10.6      0.000      0.000
REMARK SMILES Cc1c(CC(=O)OCCOCCOCCOCCOC(=O)c2ccc(-c3c4nc(c(-c5c(F)cccc5F)c5ccc([nH]5)c(-c5c(F)cccc5F)c5nc(c(-c6c(F)cccc6F)c6ccc3[nH]6)C=C5)C=C4)cc2)cccc1-c1ccn(C(F)F)c(=O)c1
REMARK SMILES IDX 12 1 11 2 10 3 9 4 8 5 7 6 5 7 6 8 4 9 3 10 1 11 2 12 79 13
REMARK SMILES IDX 76 14 78 15 77 16 80 17 81 18 89 19 82 20 87 21 83 22 88 23
REMARK SMILES IDX 84 24 85 25 86 26 13 27 14 28 15 29 16 30 17 31 18 32 19 33
REMARK SMILES IDX 20 34 21 35 22 36 23 37 75 38 24 39 74 40 25 41 26 42 27 43
REMARK SMILES IDX 68 44 28 45 73 46 67 47 69 48 29 49 72 50 66 51 65 52 30 54
REMARK SMILES IDX 56 55 39 56 55 57 40 58 43 59 54 60 70 61 41 62 42 63 53 65
REMARK SMILES IDX 71 66 44 67 31 68 32 69 37 70 33 71 34 72 36 73 38 74 35 75
REMARK SMILES IDX 57 76 58 77 63 78 59 79 60 80 62 81 64 82 61 83 45 84 46 85
REMARK SMILES IDX 51 86 47 87 48 88 50 89 52 90 49 91
REMARK H PARENT 69 53 43 64
REMARK Flexibility Score: inf
ROOT
ATOM      1  C   UNL A   1      31.779  25.063  26.459  1.00  0.00     0.188 C 
ENDROOT
BRANCH   1   2
ATOM      2  C   UNL A   1      31.420  24.201  25.228  1.00  0.00     0.188 C 
BRANCH   2   3
ATOM      3  O   UNL A   1      32.355  23.284  24.670  1.00  0.00    -0.376 OA
BRANCH   3   4
ATOM      4  C   UNL A   1      32.257  23.042  23.285  1.00  0.00     0.202 C 
BRANCH   4   5
ATOM      5  C   UNL A   1      33.648  23.115  22.668  1.00  0.00     0.261 C 
BRANCH   5   6
ATOM      6  O   UNL A   1      34.651  23.557  23.602  1.00  0.00    -0.463 OA
BRANCH   6   7
ATOM      7  C   UNL A   1      35.849  22.919  23.537  1.00  0.00     0.310 C 
ATOM      8  O   UNL A   1      36.630  22.963  22.594  1.00  0.00    -0.252 OA
BRANCH   7   9
ATOM      9  C   UNL A   1      36.090  22.070  24.764  1.00  0.00     0.158 C 
BRANCH   9  10
ATOM     10  C   UNL A   1      37.345  22.381  25.561  1.00  0.00    -0.033 A 
ATOM     11  C   UNL A   1      38.328  20.097  25.056  1.00  0.00     0.045 C 
ATOM     12  C   UNL A   1      38.419  21.467  25.685  1.00  0.00    -0.039 A 
ATOM     13  C   UNL A   1      39.604  21.876  26.353  1.00  0.00    -0.015 A 
ATOM     14  C   UNL A   1      37.470  23.656  26.149  1.00  0.00     0.004 A 
ATOM     15  C   UNL A   1      39.651  23.105  27.024  1.00  0.00     0.009 A 
ATOM     16  C   UNL A   1      38.590  23.995  26.913  1.00  0.00     0.001 A 
BRANCH  13  17
ATOM     17  C   UNL A   1      40.894  21.203  26.082  1.00  0.00    -0.011 A 
ATOM     18  C   UNL A   1      42.046  22.034  25.776  1.00  0.00     0.027 A 
ATOM     19  C   UNL A   1      41.046  19.869  26.142  1.00  0.00     0.080 A 
ATOM     20  C   UNL A   1      43.223  21.490  25.470  1.00  0.00     0.095 A 
ATOM     21  C   UNL A   1      42.377  19.249  25.845  1.00  0.00     0.255 A 
ATOM     22  N   UNL A   1      43.391  20.123  25.476  1.00  0.00    -0.258 N 
ATOM     23  O   UNL A   1      42.494  18.030  25.940  1.00  0.00    -0.269 OA
BRANCH  22  24
ATOM     24  C   UNL A   1      44.656  19.558  25.088  1.00  0.00     0.451 C 
ATOM     25  F   UNL A   1      44.767  19.472  23.740  1.00  0.00    -0.185 F 
ATOM     26  F   UNL A   1      45.687  20.305  25.552  1.00  0.00    -0.185 F 
ENDBRANCH  22  24
ENDBRANCH  13  17
ENDBRANCH   9  10
ENDBRANCH   7   9
ENDBRANCH   6   7
ENDBRANCH   5   6
ENDBRANCH   4   5
ENDBRANCH   3   4
ENDBRANCH   2   3
ENDBRANCH   1   2
BRANCH   1  27
ATOM     27  O   UNL A   1      31.159  26.314  26.744  1.00  0.00    -0.377 OA
BRANCH  27  28
ATOM     28  C   UNL A   1      31.713  27.454  26.122  1.00  0.00     0.188 C 
BRANCH  28  29
ATOM     29  C   UNL A   1      33.004  28.011  26.667  1.00  0.00     0.188 C 
BRANCH  29  30
ATOM     30  O   UNL A   1      32.630  29.221  27.308  1.00  0.00    -0.376 OA
BRANCH  30  31
ATOM     31  C   UNL A   1      32.517  30.372  26.494  1.00  0.00     0.202 C 
BRANCH  31  32
ATOM     32  C   UNL A   1      33.023  31.655  27.168  1.00  0.00     0.261 C 
BRANCH  32  33
ATOM     33  O   UNL A   1      33.944  31.293  28.220  1.00  0.00    -0.460 OA
BRANCH  33  34
ATOM     34  C   UNL A   1      35.229  31.698  28.078  1.00  0.00     0.338 C 
ATOM     35  O   UNL A   1      35.590  32.764  27.567  1.00  0.00    -0.246 OA
BRANCH  34  36
ATOM     36  C   UNL A   1      36.160  30.558  28.326  1.00  0.00     0.060 A 
ATOM     37  C   UNL A   1      36.019  29.793  29.499  1.00  0.00     0.016 A 
ATOM     38  C   UNL A   1      37.340  30.458  27.590  1.00  0.00     0.016 A 
ATOM     39  C   UNL A   1      37.118  29.096  30.036  1.00  0.00     0.010 A 
ATOM     40  C   UNL A   1      38.434  29.796  28.147  1.00  0.00     0.010 A 
ATOM     41  C   UNL A   1      38.365  29.180  29.415  1.00  0.00    -0.014 A 
BRANCH  41  42
ATOM     42  C   UNL A   1      39.666  28.891  30.080  1.00  0.00     0.031 A 
ATOM     43  C   UNL A   1      40.502  27.742  29.593  1.00  0.00     0.074 A 
ATOM     44  C   UNL A   1      40.263  29.825  30.880  1.00  0.00     0.049 A 
ATOM     45  N   UNL A   1      41.685  27.469  30.031  1.00  0.00    -0.248 NA
ATOM     46  C   UNL A   1      40.094  26.799  28.552  1.00  0.00     0.031 C 
ATOM     47  C   UNL A   1      41.702  29.971  31.141  1.00  0.00     0.029 A 
ATOM     48  N   UNL A   1      39.735  30.932  31.571  1.00  0.00    -0.354 N 
ATOM     49  C   UNL A   1      42.300  26.590  29.173  1.00  0.00     0.074 A 
ATOM     50  C   UNL A   1      41.231  26.130  28.323  1.00  0.00     0.031 C 
ATOM     51  C   UNL A   1      41.947  30.970  31.997  1.00  0.00     0.029 A 
ATOM     52  C   UNL A   1      40.671  31.310  32.566  1.00  0.00     0.049 A 
ATOM     53  H   UNL A   1      38.870  31.367  31.395  1.00  0.00     0.167 HD
ATOM     54  C   UNL A   1      43.659  26.456  29.240  1.00  0.00     0.037 A 
ATOM     55  C   UNL A   1      40.387  31.217  33.895  1.00  0.00     0.037 A 
ATOM     56  C   UNL A   1      44.204  27.078  30.471  1.00  0.00     0.049 A 
ATOM     57  C   UNL A   1      41.252  30.154  34.530  1.00  0.00     0.074 A 
ATOM     58  C   UNL A   1      45.201  27.997  30.753  1.00  0.00     0.029 A 
ATOM     59  N   UNL A   1      43.558  26.849  31.696  1.00  0.00    -0.354 N 
ATOM     60  N   UNL A   1      41.809  29.201  33.822  1.00  0.00    -0.248 NA
ATOM     61  C   UNL A   1      41.693  30.126  35.921  1.00  0.00     0.031 C 
ATOM     62  C   UNL A   1      45.025  28.446  32.096  1.00  0.00     0.029 A 
ATOM     63  C   UNL A   1      44.003  27.711  32.678  1.00  0.00     0.049 A 
ATOM     64  H   UNL A   1      42.871  26.159  31.837  1.00  0.00     0.167 HD
ATOM     65  C   UNL A   1      42.721  28.535  34.572  1.00  0.00     0.074 A 
ATOM     66  C   UNL A   1      42.570  29.101  35.902  1.00  0.00     0.031 C 
ATOM     67  C   UNL A   1      43.547  27.580  34.060  1.00  0.00     0.037 A 
BRANCH  54  68
ATOM     68  C   UNL A   1      44.542  25.879  28.128  1.00  0.00     0.057 A 
ATOM     69  C   UNL A   1      44.531  26.434  26.828  1.00  0.00     0.134 A 
ATOM     70  C   UNL A   1      45.348  24.724  28.231  1.00  0.00     0.134 A 
ATOM     71  F   UNL A   1      43.815  27.529  26.540  1.00  0.00    -0.206 F 
ATOM     72  C   UNL A   1      45.246  25.892  25.744  1.00  0.00     0.040 A 
ATOM     73  C   UNL A   1      46.116  24.208  27.169  1.00  0.00     0.040 A 
ATOM     74  F   UNL A   1      45.404  23.986  29.343  1.00  0.00    -0.206 F 
ATOM     75  C   UNL A   1      46.058  24.783  25.914  1.00  0.00     0.006 A 
ENDBRANCH  54  68
BRANCH  55  76
ATOM     76  C   UNL A   1      39.006  31.703  34.166  1.00  0.00     0.057 A 
ATOM     77  C   UNL A   1      38.882  33.112  34.183  1.00  0.00     0.134 A 
ATOM     78  C   UNL A   1      37.890  30.980  33.727  1.00  0.00     0.134 A 
ATOM     79  F   UNL A   1      39.907  33.867  34.609  1.00  0.00    -0.206 F 
ATOM     80  C   UNL A   1      37.811  33.768  33.567  1.00  0.00     0.040 A 
ATOM     81  C   UNL A   1      36.800  31.634  33.127  1.00  0.00     0.040 A 
ATOM     82  F   UNL A   1      37.917  29.641  33.693  1.00  0.00    -0.206 F 
ATOM     83  C   UNL A   1      36.791  33.023  32.985  1.00  0.00     0.006 A 
ENDBRANCH  55  76
BRANCH  67  84
ATOM     84  C   UNL A   1      44.030  26.419  34.875  1.00  0.00     0.057 A 
ATOM     85  C   UNL A   1      43.187  25.351  35.223  1.00  0.00     0.134 A 
ATOM     86  C   UNL A   1      45.403  26.217  35.118  1.00  0.00     0.134 A 
ATOM     87  F   UNL A   1      41.877  25.368  34.940  1.00  0.00    -0.206 F 
ATOM     88  C   UNL A   1      43.669  24.185  35.820  1.00  0.00     0.040 A 
ATOM     89  C   UNL A   1      45.901  25.035  35.668  1.00  0.00     0.040 A 
ATOM     90  F   UNL A   1      46.324  27.137  34.792  1.00  0.00    -0.206 F 
ATOM     91  C   UNL A   1      45.030  24.019  36.032  1.00  0.00     0.006 A 
ENDBRANCH  67  84
ENDBRANCH  41  42
ENDBRANCH  34  36
ENDBRANCH  33  34
ENDBRANCH  32  33
ENDBRANCH  31  32
ENDBRANCH  30  31
ENDBRANCH  29  30
ENDBRANCH  28  29
ENDBRANCH  27  28
ENDBRANCH   1  27
TORSDOF 23
ENDMDL
MODEL 2
REMARK VINA RESULT:      -9.8      3.165      5.828
REMARK SMILES Cc1c(CC(=O)OCCOCCOCCOCCOC(=O)c2ccc(-c3c4nc(c(-c5c(F)cccc5F)c5ccc([nH]5)c(-c5c(F)cccc5F)c5nc(c(-c6c(F)cccc6F)c6ccc3[nH]6)C=C5)C=C4)cc2)cccc1-c1ccn(C(F)F)c(=O)c1
REMARK SMILES IDX 12 1 11 2 10 3 9 4 8 5 7 6 5 7 6 8 4 9 3 10 1 11 2 12 79 13
REMARK SMILES IDX 76 14 78 15 77 16 80 17 81 18 89 19 82 20 87 21 83 22 88 23
REMARK SMILES IDX 84 24 85 25 86 26 13 27 14 28 15 29 16 30 17 31 18 32 19 33
REMARK SMILES IDX 20 34 21 35 22 36 23 37 75 38 24 39 74 40 25 41 26 42 27 43
REMARK SMILES IDX 68 44 28 45 73 46 67 47 69 48 29 49 72 50 66 51 65 52 30 54
REMARK SMILES IDX 56 55 39 56 55 57 40 58 43 59 54 60 70 61 41 62 42 63 53 65
REMARK SMILES IDX 71 66 44 67 31 68 32 69 37 70 33 71 34 72 36 73 38 74 35 75
REMARK SMILES IDX 57 76 58 77 63 78 59 79 60 80 62 81 64 82 61 83 45 84 46 85
REMARK SMILES IDX 51 86 47 87 48 88 50 89 52 90 49 91
REMARK H PARENT 69 53 43 64
REMARK Flexibility Score: inf
ROOT
ATOM      1  C   UNL A   1      34.568  25.481  25.363  1.00  0.00     0.188 C 
ENDROOT
BRANCH   1   2
ATOM      2  C   UNL A   1      35.565  24.365  25.751  1.00  0.00     0.188 C 
BRANCH   2   3
ATOM      3  O   UNL A   1      36.172  23.540  24.762  1.00  0.00    -0.376 OA
BRANCH   3   4
ATOM      4  C   UNL A   1      37.335  22.842  25.145  1.00  0.00     0.202 C 
BRANCH   4   5
ATOM      5  C   UNL A   1      37.027  21.351  25.193  1.00  0.00     0.261 C 
BRANCH   5   6
ATOM      6  O   UNL A   1      35.665  21.050  24.834  1.00  0.00    -0.463 OA
BRANCH   6   7
ATOM      7  C   UNL A   1      35.291  19.748  24.944  1.00  0.00     0.310 C 
ATOM      8  O   UNL A   1      36.042  18.782  24.866  1.00  0.00    -0.252 OA
BRANCH   7   9
ATOM      9  C   UNL A   1      33.796  19.614  25.111  1.00  0.00     0.158 C 
BRANCH   9  10
ATOM     10  C   UNL A   1      32.938  20.317  24.074  1.00  0.00    -0.033 A 
ATOM     11  C   UNL A   1      32.654  22.347  25.570  1.00  0.00     0.045 C 
ATOM     12  C   UNL A   1      32.414  21.618  24.269  1.00  0.00    -0.039 A 
ATOM     13  C   UNL A   1      31.717  22.252  23.206  1.00  0.00    -0.015 A 
ATOM     14  C   UNL A   1      32.707  19.673  22.842  1.00  0.00     0.004 A 
ATOM     15  C   UNL A   1      31.406  21.540  22.040  1.00  0.00     0.009 A 
ATOM     16  C   UNL A   1      31.908  20.258  21.857  1.00  0.00     0.001 A 
BRANCH  13  17
ATOM     17  C   UNL A   1      31.603  23.726  23.151  1.00  0.00    -0.011 A 
ATOM     18  C   UNL A   1      30.482  24.349  23.834  1.00  0.00     0.027 A 
ATOM     19  C   UNL A   1      32.506  24.504  22.530  1.00  0.00     0.080 A 
ATOM     20  C   UNL A   1      30.290  25.666  23.780  1.00  0.00     0.095 A 
ATOM     21  C   UNL A   1      32.325  25.991  22.501  1.00  0.00     0.255 A 
ATOM     22  N   UNL A   1      31.175  26.480  23.107  1.00  0.00    -0.258 N 
ATOM     23  O   UNL A   1      33.183  26.679  21.954  1.00  0.00    -0.269 OA
BRANCH  22  24
ATOM     24  C   UNL A   1      30.916  27.893  23.015  1.00  0.00     0.451 C 
ATOM     25  F   UNL A   1      30.162  28.188  21.929  1.00  0.00    -0.185 F 
ATOM     26  F   UNL A   1      30.269  28.343  24.117  1.00  0.00    -0.185 F 
ENDBRANCH  22  24
ENDBRANCH  13  17
ENDBRANCH   9  10
ENDBRANCH   7   9
ENDBRANCH   6   7
ENDBRANCH   5   6
ENDBRANCH   4   5
ENDBRANCH   3   4
ENDBRANCH   2   3
ENDBRANCH   1   2
BRANCH   1  27
ATOM     27  O   UNL A   1      33.352  25.719  26.067  1.00  0.00    -0.377 OA
BRANCH  27  28
ATOM     28  C   UNL A   1      32.887  27.051  26.098  1.00  0.00     0.188 C 
BRANCH  28  29
ATOM     29  C   UNL A   1      33.753  28.128  25.496  1.00  0.00     0.188 C 
BRANCH  29  30
ATOM     30  O   UNL A   1      33.484  29.283  26.277  1.00  0.00    -0.376 OA
BRANCH  30  31
ATOM     31  C   UNL A   1      34.391  29.578  27.321  1.00  0.00     0.202 C 
BRANCH  31  32
ATOM     32  C   UNL A   1      34.481  31.073  27.655  1.00  0.00     0.261 C 
BRANCH  32  33
ATOM     33  O   UNL A   1      35.863  31.483  27.580  1.00  0.00    -0.460 OA
BRANCH  33  34
ATOM     34  C   UNL A   1      36.612  31.327  28.697  1.00  0.00     0.338 C 
ATOM     35  O   UNL A   1      36.889  32.222  29.503  1.00  0.00    -0.246 OA
BRANCH  34  36
ATOM     36  C   UNL A   1      37.324  30.015  28.663  1.00  0.00     0.060 A 
ATOM     37  C   UNL A   1      37.243  29.156  29.774  1.00  0.00     0.016 A 
ATOM     38  C   UNL A   1      38.310  29.789  27.703  1.00  0.00     0.016 A 
ATOM     39  C   UNL A   1      38.256  28.212  30.026  1.00  0.00     0.010 A 
ATOM     40  C   UNL A   1      39.330  28.879  27.978  1.00  0.00     0.010 A 
ATOM     41  C   UNL A   1      39.365  28.140  29.180  1.00  0.00    -0.014 A 
BRANCH  41  42
ATOM     42  C   UNL A   1      40.677  27.542  29.550  1.00  0.00     0.031 A 
ATOM     43  C   UNL A   1      41.103  26.250  28.914  1.00  0.00     0.074 A 
ATOM     44  C   UNL A   1      41.631  28.290  30.182  1.00  0.00     0.049 A 
ATOM     45  N   UNL A   1      42.258  25.701  29.088  1.00  0.00    -0.248 NA
ATOM     46  C   UNL A   1      40.274  25.457  28.006  1.00  0.00     0.031 C 
ATOM     47  C   UNL A   1      43.087  28.098  30.119  1.00  0.00     0.029 A 
ATOM     48  N   UNL A   1      41.534  29.466  30.950  1.00  0.00    -0.354 N 
ATOM     49  C   UNL A   1      42.455  24.733  28.133  1.00  0.00     0.074 A 
ATOM     50  C   UNL A   1      41.150  24.555  27.547  1.00  0.00     0.031 C 
ATOM     51  C   UNL A   1      43.734  28.988  30.880  1.00  0.00     0.029 A 
ATOM     52  C   UNL A   1      42.725  29.591  31.709  1.00  0.00     0.049 A 
ATOM     53  H   UNL A   1      40.774  30.092  30.959  1.00  0.00     0.167 HD
ATOM     54  C   UNL A   1      43.728  24.292  27.903  1.00  0.00     0.037 A 
ATOM     55  C   UNL A   1      42.722  29.522  33.069  1.00  0.00     0.037 A 
ATOM     56  C   UNL A   1      44.655  24.735  28.973  1.00  0.00     0.049 A 
ATOM     57  C   UNL A   1      43.439  28.271  33.520  1.00  0.00     0.074 A 
ATOM     58  C   UNL A   1      45.873  25.395  29.013  1.00  0.00     0.029 A 
ATOM     59  N   UNL A   1      44.256  24.621  30.314  1.00  0.00    -0.354 N 
ATOM     60  N   UNL A   1      43.596  27.240  32.725  1.00  0.00    -0.248 NA
ATOM     61  C   UNL A   1      44.153  28.100  34.781  1.00  0.00     0.031 C 
ATOM     62  C   UNL A   1      46.100  25.829  30.353  1.00  0.00     0.029 A 
ATOM     63  C   UNL A   1      45.089  25.327  31.158  1.00  0.00     0.049 A 
ATOM     64  H   UNL A   1      43.477  24.100  30.616  1.00  0.00     0.167 HD
ATOM     65  C   UNL A   1      44.472  26.360  33.271  1.00  0.00     0.074 A 
ATOM     66  C   UNL A   1      44.748  26.904  34.590  1.00  0.00     0.031 C 
ATOM     67  C   UNL A   1      44.927  25.260  32.609  1.00  0.00     0.037 A 
BRANCH  54  68
ATOM     68  C   UNL A   1      44.193  23.565  26.637  1.00  0.00     0.057 A 
ATOM     69  C   UNL A   1      43.842  22.216  26.404  1.00  0.00     0.134 A 
ATOM     70  C   UNL A   1      45.065  24.089  25.657  1.00  0.00     0.134 A 
ATOM     71  F   UNL A   1      43.029  21.549  27.234  1.00  0.00    -0.206 F 
ATOM     72  C   UNL A   1      44.314  21.466  25.310  1.00  0.00     0.040 A 
ATOM     73  C   UNL A   1      45.495  23.368  24.526  1.00  0.00     0.040 A 
ATOM     74  F   UNL A   1      45.603  25.307  25.755  1.00  0.00    -0.206 F 
ATOM     75  C   UNL A   1      45.132  22.046  24.354  1.00  0.00     0.006 A 
ENDBRANCH  54  68
BRANCH  55  76
ATOM     76  C   UNL A   1      41.582  30.301  33.625  1.00  0.00     0.057 A 
ATOM     77  C   UNL A   1      41.743  31.703  33.542  1.00  0.00     0.134 A 
ATOM     78  C   UNL A   1      40.272  29.814  33.545  1.00  0.00     0.134 A 
ATOM     79  F   UNL A   1      42.971  32.240  33.630  1.00  0.00    -0.206 F 
ATOM     80  C   UNL A   1      40.697  32.546  33.152  1.00  0.00     0.040 A 
ATOM     81  C   UNL A   1      39.211  30.659  33.175  1.00  0.00     0.040 A 
ATOM     82  F   UNL A   1      40.027  28.499  33.630  1.00  0.00    -0.206 F 
ATOM     83  C   UNL A   1      39.437  32.011  32.911  1.00  0.00     0.006 A 
ENDBRANCH  55  76
BRANCH  67  84
ATOM     84  C   UNL A   1      45.297  23.994  33.321  1.00  0.00     0.057 A 
ATOM     85  C   UNL A   1      46.556  23.813  33.914  1.00  0.00     0.134 A 
ATOM     86  C   UNL A   1      44.324  23.028  33.647  1.00  0.00     0.134 A 
ATOM     87  F   UNL A   1      47.535  24.720  33.778  1.00  0.00    -0.206 F 
ATOM     88  C   UNL A   1      46.846  22.720  34.733  1.00  0.00     0.040 A 
ATOM     89  C   UNL A   1      44.588  21.960  34.504  1.00  0.00     0.040 A 
ATOM     90  F   UNL A   1      43.066  23.104  33.186  1.00  0.00    -0.206 F 
ATOM     91  C   UNL A   1      45.856  21.796  35.040  1.00  0.00     0.006 A 
ENDBRANCH  67  84
ENDBRANCH  41  42
ENDBRANCH  34  36
ENDBRANCH  33  34
ENDBRANCH  32  33
ENDBRANCH  31  32
ENDBRANCH  30  31
ENDBRANCH  29  30
ENDBRANCH  28  29
ENDBRANCH  27  28
ENDBRANCH   1  27
TORSDOF 23
ENDMDL
MODEL 3
REMARK VINA RESULT:      -9.5      3.064      5.880
REMARK SMILES Cc1c(CC(=O)OCCOCCOCCOCCOC(=O)c2ccc(-c3c4nc(c(-c5c(F)cccc5F)c5ccc([nH]5)c(-c5c(F)cccc5F)c5nc(c(-c6c(F)cccc6F)c6ccc3[nH]6)C=C5)C=C4)cc2)cccc1-c1ccn(C(F)F)c(=O)c1
REMARK SMILES IDX 12 1 11 2 10 3 9 4 8 5 7 6 5 7 6 8 4 9 3 10 1 11 2 12 79 13
REMARK SMILES IDX 76 14 78 15 77 16 80 17 81 18 89 19 82 20 87 21 83 22 88 23
REMARK SMILES IDX 84 24 85 25 86 26 13 27 14 28 15 29 16 30 17 31 18 32 19 33
REMARK SMILES IDX 20 34 21 35 22 36 23 37 75 38 24 39 74 40 25 41 26 42 27 43
REMARK SMILES IDX 68 44 28 45 73 46 67 47 69 48 29 49 72 50 66 51 65 52 30 54
REMARK SMILES IDX 56 55 39 56 55 57 40 58 43 59 54 60 70 61 41 62 42 63 53 65
REMARK SMILES IDX 71 66 44 67 31 68 32 69 37 70 33 71 34 72 36 73 38 74 35 75
REMARK SMILES IDX 57 76 58 77 63 78 59 79 60 80 62 81 64 82 61 83 45 84 46 85
REMARK SMILES IDX 51 86 47 87 48 88 50 89 52 90 49 91
REMARK H PARENT 69 53 43 64
REMARK Flexibility Score: inf
ROOT
ATOM      1  C   UNL A   1      34.078  33.368  28.003  1.00  0.00     0.188 C 
ENDROOT
BRANCH   1   2
ATOM      2  C   UNL A   1      33.478  32.004  27.588  1.00  0.00     0.188 C 
BRANCH   2   3
ATOM      3  O   UNL A   1      34.180  30.788  27.820  1.00  0.00    -0.376 OA
BRANCH   3   4
ATOM      4  C   UNL A   1      33.616  29.616  27.275  1.00  0.00     0.202 C 
BRANCH   4   5
ATOM      5  C   UNL A   1      32.313  29.973  26.571  1.00  0.00     0.261 C 
BRANCH   5   6
ATOM      6  O   UNL A   1      31.632  28.821  26.040  1.00  0.00    -0.463 OA
BRANCH   6   7
ATOM      7  C   UNL A   1      31.763  28.613  24.703  1.00  0.00     0.310 C 
ATOM      8  O   UNL A   1      32.520  29.224  23.957  1.00  0.00    -0.252 OA
BRANCH   7   9
ATOM      9  C   UNL A   1      30.796  27.562  24.209  1.00  0.00     0.158 C 
BRANCH   9  10
ATOM     10  C   UNL A   1      30.936  26.179  24.820  1.00  0.00    -0.033 A 
ATOM     11  C   UNL A   1      32.814  25.577  23.223  1.00  0.00     0.045 C 
ATOM     12  C   UNL A   1      31.902  25.242  24.380  1.00  0.00    -0.039 A 
ATOM     13  C   UNL A   1      32.045  24.013  25.078  1.00  0.00    -0.015 A 
ATOM     14  C   UNL A   1      30.112  25.838  25.911  1.00  0.00     0.004 A 
ATOM     15  C   UNL A   1      31.134  23.659  26.082  1.00  0.00     0.009 A 
ATOM     16  C   UNL A   1      30.178  24.574  26.502  1.00  0.00     0.001 A 
BRANCH  13  17
ATOM     17  C   UNL A   1      33.311  23.251  25.011  1.00  0.00    -0.011 A 
ATOM     18  C   UNL A   1      34.555  23.977  25.202  1.00  0.00     0.027 A 
ATOM     19  C   UNL A   1      33.352  21.921  24.819  1.00  0.00     0.080 A 
ATOM     20  C   UNL A   1      35.732  23.361  25.102  1.00  0.00     0.095 A 
ATOM     21  C   UNL A   1      34.669  21.210  24.750  1.00  0.00     0.255 A 
ATOM     22  N   UNL A   1      35.801  22.008  24.855  1.00  0.00    -0.258 N 
ATOM     23  O   UNL A   1      34.674  19.991  24.606  1.00  0.00    -0.269 OA
BRANCH  22  24
ATOM     24  C   UNL A   1      37.085  21.376  24.695  1.00  0.00     0.451 C 
ATOM     25  F   UNL A   1      38.094  22.217  25.025  1.00  0.00    -0.185 F 
ATOM     26  F   UNL A   1      37.184  20.269  25.470  1.00  0.00    -0.185 F 
ENDBRANCH  22  24
ENDBRANCH  13  17
ENDBRANCH   9  10
ENDBRANCH   7   9
ENDBRANCH   6   7
ENDBRANCH   5   6
ENDBRANCH   4   5
ENDBRANCH   3   4
ENDBRANCH   2   3
ENDBRANCH   1   2
BRANCH   1  27
ATOM     27  O   UNL A   1      33.282  34.484  28.391  1.00  0.00    -0.377 OA
BRANCH  27  28
ATOM     28  C   UNL A   1      33.965  35.690  28.654  1.00  0.00     0.188 C 
BRANCH  28  29
ATOM     29  C   UNL A   1      33.154  36.944  28.862  1.00  0.00     0.188 C 
BRANCH  29  30
ATOM     30  O   UNL A   1      33.206  37.177  30.262  1.00  0.00    -0.376 OA
BRANCH  30  31
ATOM     31  C   UNL A   1      32.311  36.437  31.070  1.00  0.00     0.202 C 
BRANCH  31  32
ATOM     32  C   UNL A   1      32.982  35.764  32.275  1.00  0.00     0.261 C 
BRANCH  32  33
ATOM     33  O   UNL A   1      33.937  34.795  31.791  1.00  0.00    -0.460 OA
BRANCH  33  34
ATOM     34  C   UNL A   1      34.207  33.742  32.599  1.00  0.00     0.338 C 
ATOM     35  O   UNL A   1      33.370  33.109  33.253  1.00  0.00    -0.246 OA
BRANCH  34  36
ATOM     36  C   UNL A   1      35.676  33.645  32.847  1.00  0.00     0.060 A 
ATOM     37  C   UNL A   1      36.573  33.895  31.792  1.00  0.00     0.016 A 
ATOM     38  C   UNL A   1      36.141  33.001  33.993  1.00  0.00     0.016 A 
ATOM     39  C   UNL A   1      37.863  33.331  31.799  1.00  0.00     0.010 A 
ATOM     40  C   UNL A   1      37.405  32.414  33.977  1.00  0.00     0.010 A 
ATOM     41  C   UNL A   1      38.250  32.496  32.849  1.00  0.00    -0.014 A 
BRANCH  41  42
ATOM     42  C   UNL A   1      39.358  31.503  32.779  1.00  0.00     0.031 A 
ATOM     43  C   UNL A   1      39.181  30.260  31.955  1.00  0.00     0.074 A 
ATOM     44  C   UNL A   1      40.626  31.845  33.159  1.00  0.00     0.049 A 
ATOM     45  N   UNL A   1      40.110  29.388  31.747  1.00  0.00    -0.248 NA
ATOM     46  C   UNL A   1      37.943  29.885  31.271  1.00  0.00     0.031 C 
ATOM     47  C   UNL A   1      41.881  31.263  32.664  1.00  0.00     0.029 A 
ATOM     48  N   UNL A   1      41.100  32.864  34.006  1.00  0.00    -0.354 N 
ATOM     49  C   UNL A   1      39.743  28.567  30.708  1.00  0.00     0.074 A 
ATOM     50  C   UNL A   1      38.345  28.857  30.514  1.00  0.00     0.031 C 
ATOM     51  C   UNL A   1      42.946  31.804  33.268  1.00  0.00     0.029 A 
ATOM     52  C   UNL A   1      42.421  32.529  34.394  1.00  0.00     0.049 A 
ATOM     53  H   UNL A   1      40.603  33.669  34.280  1.00  0.00     0.167 HD
ATOM     54  C   UNL A   1      40.712  27.828  30.088  1.00  0.00     0.037 A 
ATOM     55  C   UNL A   1      42.743  32.251  35.688  1.00  0.00     0.037 A 
ATOM     56  C   UNL A   1      41.970  27.819  30.873  1.00  0.00     0.049 A 
ATOM     57  C   UNL A   1      43.121  30.794  35.820  1.00  0.00     0.074 A 
ATOM     58  C   UNL A   1      43.302  28.095  30.606  1.00  0.00     0.029 A 
ATOM     59  N   UNL A   1      41.910  27.612  32.260  1.00  0.00    -0.354 N 
ATOM     60  N   UNL A   1      42.739  29.898  34.942  1.00  0.00    -0.248 NA
ATOM     61  C   UNL A   1      44.041  30.233  36.804  1.00  0.00     0.031 C 
ATOM     62  C   UNL A   1      43.986  28.231  31.850  1.00  0.00     0.029 A 
ATOM     63  C   UNL A   1      43.107  27.914  32.875  1.00  0.00     0.049 A 
ATOM     64  H   UNL A   1      41.111  27.290  32.736  1.00  0.00     0.167 HD
ATOM     65  C   UNL A   1      43.404  28.734  35.145  1.00  0.00     0.074 A 
ATOM     66  C   UNL A   1      44.161  28.964  36.364  1.00  0.00     0.031 C 
ATOM     67  C   UNL A   1      43.307  27.668  34.302  1.00  0.00     0.037 A 
BRANCH  54  68
ATOM     68  C   UNL A   1      40.588  27.207  28.692  1.00  0.00     0.057 A 
ATOM     69  C   UNL A   1      39.756  26.087  28.467  1.00  0.00     0.134 A 
ATOM     70  C   UNL A   1      41.326  27.589  27.551  1.00  0.00     0.134 A 
ATOM     71  F   UNL A   1      38.987  25.577  29.438  1.00  0.00    -0.206 F 
ATOM     72  C   UNL A   1      39.672  25.416  27.232  1.00  0.00     0.040 A 
ATOM     73  C   UNL A   1      41.205  26.964  26.295  1.00  0.00     0.040 A 
ATOM     74  F   UNL A   1      42.252  28.551  27.585  1.00  0.00    -0.206 F 
ATOM     75  C   UNL A   1      40.385  25.863  26.132  1.00  0.00     0.006 A 
ENDBRANCH  54  68
BRANCH  55  76
ATOM     76  C   UNL A   1      42.085  33.221  36.606  1.00  0.00     0.057 A 
ATOM     77  C   UNL A   1      41.019  32.674  37.358  1.00  0.00     0.134 A 
ATOM     78  C   UNL A   1      42.817  34.249  37.211  1.00  0.00     0.134 A 
ATOM     79  F   UNL A   1      40.264  31.696  36.831  1.00  0.00    -0.206 F 
ATOM     80  C   UNL A   1      40.852  32.956  38.718  1.00  0.00     0.040 A 
ATOM     81  C   UNL A   1      42.639  34.554  38.572  1.00  0.00     0.040 A 
ATOM     82  F   UNL A   1      43.834  34.834  36.563  1.00  0.00    -0.206 F 
ATOM     83  C   UNL A   1      41.705  33.859  39.342  1.00  0.00     0.006 A 
ENDBRANCH  55  76
BRANCH  67  84
ATOM     84  C   UNL A   1      43.429  26.254  34.783  1.00  0.00     0.057 A 
ATOM     85  C   UNL A   1      42.306  25.481  35.119  1.00  0.00     0.134 A 
ATOM     86  C   UNL A   1      44.646  25.551  34.683  1.00  0.00     0.134 A 
ATOM     87  F   UNL A   1      41.072  26.004  35.136  1.00  0.00    -0.206 F 
ATOM     88  C   UNL A   1      42.395  24.115  35.390  1.00  0.00     0.040 A 
ATOM     89  C   UNL A   1      44.737  24.176  34.902  1.00  0.00     0.040 A 
ATOM     90  F   UNL A   1      45.789  26.157  34.326  1.00  0.00    -0.206 F 
ATOM     91  C   UNL A   1      43.611  23.456  35.269  1.00  0.00     0.006 A 
ENDBRANCH  67  84
ENDBRANCH  41  42
ENDBRANCH  34  36
ENDBRANCH  33  34
ENDBRANCH  32  33
ENDBRANCH  31  32
ENDBRANCH  30  31
ENDBRANCH  29  30
ENDBRANCH  28  29
ENDBRANCH  27  28
ENDBRANCH   1  27
TORSDOF 23
ENDMDL
