MODEL 1
REMARK VINA RESULT:     -10.2      0.000      0.000
REMARK SMILES C[C@@]1(O)N(CC(=O)OCCOCCOCCOCCOC(=O)c2ccc(-c3c4nc(c(-c5c(F)cccc5F)c5ccc([nH]5)c(-c5c(F)cccc5F)c5nc(c(-c6c(F)cccc6F)c6ccc3[nH]6)C=C5)C=C4)cc2)C(=O)OC12CCCCC2
REMARK SMILES IDX 14 1 13 2 12 3 11 4 10 5 9 6 8 7 6 8 7 9 5 10 4 11 1 12 2 13
REMARK SMILES IDX 80 14 77 15 79 16 81 17 85 18 78 19 82 20 84 21 83 22 3 23
REMARK SMILES IDX 15 25 16 26 17 27 18 28 19 29 20 30 21 31 22 32 23 33 24 34
REMARK SMILES IDX 76 35 25 36 75 37 26 38 27 39 28 40 69 41 29 42 74 43 68 44
REMARK SMILES IDX 70 45 30 46 73 47 67 48 66 49 31 51 57 52 40 53 56 54 41 55
REMARK SMILES IDX 44 56 55 57 71 58 42 59 43 60 54 62 72 63 45 64 32 65 33 66
REMARK SMILES IDX 38 67 34 68 35 69 37 70 39 71 36 72 58 73 59 74 64 75 60 76
REMARK SMILES IDX 61 77 63 78 65 79 62 80 46 81 47 82 52 83 48 84 49 85 51 86
REMARK SMILES IDX 53 87 50 88
REMARK H PARENT 3 24 70 50 44 61
REMARK Flexibility Score: inf
ROOT
ATOM      1  O   UNL A   1      32.576  28.646  24.093  1.00  0.00    -0.377 OA
ENDROOT
BRANCH   1   2
ATOM      2  C   UNL A   1      32.001  28.346  22.832  1.00  0.00     0.188 C 
BRANCH   2   3
ATOM      3  C   UNL A   1      30.529  27.947  22.931  1.00  0.00     0.188 C 
BRANCH   3   4
ATOM      4  O   UNL A   1      30.279  26.568  23.153  1.00  0.00    -0.376 OA
BRANCH   4   5
ATOM      5  C   UNL A   1      29.530  26.224  24.323  1.00  0.00     0.202 C 
BRANCH   5   6
ATOM      6  C   UNL A   1      30.302  25.790  25.591  1.00  0.00     0.261 C 
BRANCH   6   7
ATOM      7  O   UNL A   1      29.552  25.008  26.581  1.00  0.00    -0.462 OA
BRANCH   7   8
ATOM      8  C   UNL A   1      29.997  23.744  26.791  1.00  0.00     0.325 C 
ATOM      9  O   UNL A   1      29.548  23.017  27.680  1.00  0.00    -0.250 OA
BRANCH   8  10
ATOM     10  C   UNL A   1      31.095  23.186  25.854  1.00  0.00     0.248 C 
BRANCH  10  11
ATOM     11  N   UNL A   1      32.572  23.197  25.903  1.00  0.00    -0.265 N 
ATOM     12  C   UNL A   1      32.989  22.403  23.569  1.00  0.00     0.072 C 
ATOM     13  C   UNL A   1      33.466  23.211  24.783  1.00  0.00     0.181 C 
ATOM     14  C   UNL A   1      34.850  22.732  25.362  1.00  0.00     0.161 C 
ATOM     15  C   UNL A   1      33.239  22.756  27.030  1.00  0.00     0.413 C 
ATOM     16  O   UNL A   1      34.537  22.425  26.739  1.00  0.00    -0.438 OA
ATOM     17  C   UNL A   1      35.418  21.460  24.685  1.00  0.00     0.054 C 
ATOM     18  C   UNL A   1      35.931  23.843  25.397  1.00  0.00     0.054 C 
ATOM     19  O   UNL A   1      32.750  22.599  28.127  1.00  0.00    -0.224 OA
ATOM     20  C   UNL A   1      36.805  21.032  25.163  1.00  0.00     0.004 C 
ATOM     21  C   UNL A   1      37.288  23.358  25.920  1.00  0.00     0.004 C 
ATOM     22  C   UNL A   1      37.800  22.180  25.105  1.00  0.00     0.000 C 
BRANCH  13  23
ATOM     23  O   UNL A   1      33.586  24.560  24.409  1.00  0.00    -0.367 OA
ATOM     24  H   UNL A   1      34.357  24.950  24.851  1.00  0.00     0.213 HD
ENDBRANCH  13  23
ENDBRANCH  10  11
ENDBRANCH   8  10
ENDBRANCH   7   8
ENDBRANCH   6   7
ENDBRANCH   5   6
ENDBRANCH   4   5
ENDBRANCH   3   4
ENDBRANCH   2   3
ENDBRANCH   1   2
BRANCH   1  25
ATOM     25  C   UNL A   1      31.755  29.101  25.166  1.00  0.00     0.188 C 
BRANCH  25  26
ATOM     26  C   UNL A   1      32.399  29.293  26.539  1.00  0.00     0.188 C 
BRANCH  26  27
ATOM     27  O   UNL A   1      32.266  30.570  27.172  1.00  0.00    -0.376 OA
BRANCH  27  28
ATOM     28  C   UNL A   1      31.493  31.586  26.539  1.00  0.00     0.202 C 
BRANCH  28  29
ATOM     29  C   UNL A   1      31.819  33.024  26.942  1.00  0.00     0.261 C 
BRANCH  29  30
ATOM     30  O   UNL A   1      33.139  33.143  27.493  1.00  0.00    -0.460 OA
BRANCH  30  31
ATOM     31  C   UNL A   1      33.286  34.147  28.386  1.00  0.00     0.338 C 
ATOM     32  O   UNL A   1      32.545  35.099  28.560  1.00  0.00    -0.246 OA
BRANCH  31  33
ATOM     33  C   UNL A   1      34.424  33.862  29.276  1.00  0.00     0.060 A 
ATOM     34  C   UNL A   1      35.693  34.266  28.841  1.00  0.00     0.016 A 
ATOM     35  C   UNL A   1      34.273  33.113  30.446  1.00  0.00     0.016 A 
ATOM     36  C   UNL A   1      36.824  33.850  29.528  1.00  0.00     0.010 A 
ATOM     37  C   UNL A   1      35.414  32.684  31.130  1.00  0.00     0.010 A 
ATOM     38  C   UNL A   1      36.690  33.000  30.631  1.00  0.00    -0.014 A 
BRANCH  38  39
ATOM     39  C   UNL A   1      37.890  32.256  31.074  1.00  0.00     0.031 A 
ATOM     40  C   UNL A   1      38.421  32.521  32.457  1.00  0.00     0.074 A 
ATOM     41  C   UNL A   1      38.415  31.283  30.311  1.00  0.00     0.049 A 
ATOM     42  N   UNL A   1      39.398  31.937  33.100  1.00  0.00    -0.248 NA
ATOM     43  C   UNL A   1      37.749  33.584  33.222  1.00  0.00     0.031 C 
ATOM     44  C   UNL A   1      37.935  30.898  28.986  1.00  0.00     0.029 A 
ATOM     45  N   UNL A   1      39.454  30.427  30.561  1.00  0.00    -0.354 N 
ATOM     46  C   UNL A   1      39.454  32.558  34.343  1.00  0.00     0.074 A 
ATOM     47  C   UNL A   1      38.448  33.596  34.345  1.00  0.00     0.031 C 
ATOM     48  C   UNL A   1      38.672  29.865  28.542  1.00  0.00     0.029 A 
ATOM     49  C   UNL A   1      39.687  29.540  29.541  1.00  0.00     0.049 A 
ATOM     50  H   UNL A   1      39.982  30.446  31.392  1.00  0.00     0.167 HD
ATOM     51  C   UNL A   1      40.260  32.277  35.395  1.00  0.00     0.037 A 
ATOM     52  C   UNL A   1      40.621  28.575  29.434  1.00  0.00     0.037 A 
ATOM     53  C   UNL A   1      41.270  31.252  35.377  1.00  0.00     0.049 A 
ATOM     54  C   UNL A   1      41.570  28.347  30.580  1.00  0.00     0.074 A 
ATOM     55  C   UNL A   1      42.160  30.897  36.375  1.00  0.00     0.029 A 
ATOM     56  N   UNL A   1      41.529  30.421  34.297  1.00  0.00    -0.354 N 
ATOM     57  N   UNL A   1      41.619  28.937  31.751  1.00  0.00    -0.248 NA
ATOM     58  C   UNL A   1      42.589  27.306  30.389  1.00  0.00     0.031 C 
ATOM     59  C   UNL A   1      42.991  29.886  35.878  1.00  0.00     0.029 A 
ATOM     60  C   UNL A   1      42.576  29.566  34.595  1.00  0.00     0.049 A 
ATOM     61  H   UNL A   1      41.038  30.438  33.443  1.00  0.00     0.167 HD
ATOM     62  C   UNL A   1      42.642  28.311  32.453  1.00  0.00     0.074 A 
ATOM     63  C   UNL A   1      43.179  27.290  31.576  1.00  0.00     0.031 C 
ATOM     64  C   UNL A   1      43.092  28.551  33.710  1.00  0.00     0.037 A 
BRANCH  51  65
ATOM     65  C   UNL A   1      40.096  33.124  36.626  1.00  0.00     0.057 A 
ATOM     66  C   UNL A   1      40.888  34.257  36.864  1.00  0.00     0.134 A 
ATOM     67  C   UNL A   1      39.146  32.789  37.599  1.00  0.00     0.134 A 
ATOM     68  F   UNL A   1      41.831  34.625  35.984  1.00  0.00    -0.206 F 
ATOM     69  C   UNL A   1      40.769  35.000  38.041  1.00  0.00     0.040 A 
ATOM     70  C   UNL A   1      38.995  33.544  38.765  1.00  0.00     0.040 A 
ATOM     71  F   UNL A   1      38.353  31.719  37.438  1.00  0.00    -0.206 F 
ATOM     72  C   UNL A   1      39.816  34.646  38.993  1.00  0.00     0.006 A 
ENDBRANCH  51  65
BRANCH  52  73
ATOM     73  C   UNL A   1      40.691  27.741  28.208  1.00  0.00     0.057 A 
ATOM     74  C   UNL A   1      40.048  26.499  28.139  1.00  0.00     0.134 A 
ATOM     75  C   UNL A   1      41.415  28.156  27.083  1.00  0.00     0.134 A 
ATOM     76  F   UNL A   1      39.356  26.038  29.190  1.00  0.00    -0.206 F 
ATOM     77  C   UNL A   1      40.139  25.691  27.004  1.00  0.00     0.040 A 
ATOM     78  C   UNL A   1      41.491  27.371  25.932  1.00  0.00     0.040 A 
ATOM     79  F   UNL A   1      42.051  29.336  27.085  1.00  0.00    -0.206 F 
ATOM     80  C   UNL A   1      40.858  26.130  25.894  1.00  0.00     0.006 A 
ENDBRANCH  52  73
BRANCH  64  81
ATOM     81  C   UNL A   1      44.179  27.650  34.229  1.00  0.00     0.057 A 
ATOM     82  C   UNL A   1      45.536  27.988  34.148  1.00  0.00     0.134 A 
ATOM     83  C   UNL A   1      43.854  26.424  34.826  1.00  0.00     0.134 A 
ATOM     84  F   UNL A   1      45.916  29.143  33.581  1.00  0.00    -0.206 F 
ATOM     85  C   UNL A   1      46.532  27.120  34.599  1.00  0.00     0.040 A 
ATOM     86  C   UNL A   1      44.839  25.565  35.313  1.00  0.00     0.040 A 
ATOM     87  F   UNL A   1      42.574  26.042  34.950  1.00  0.00    -0.206 F 
ATOM     88  C   UNL A   1      46.184  25.907  35.188  1.00  0.00     0.006 A 
ENDBRANCH  64  81
ENDBRANCH  38  39
ENDBRANCH  31  33
ENDBRANCH  30  31
ENDBRANCH  29  30
ENDBRANCH  28  29
ENDBRANCH  27  28
ENDBRANCH  26  27
ENDBRANCH  25  26
ENDBRANCH   1  25
TORSDOF 22
ENDMDL
MODEL 2
REMARK VINA RESULT:     -10.1      2.639      8.195
REMARK SMILES C[C@@]1(O)N(CC(=O)OCCOCCOCCOCCOC(=O)c2ccc(-c3c4nc(c(-c5c(F)cccc5F)c5ccc([nH]5)c(-c5c(F)cccc5F)c5nc(c(-c6c(F)cccc6F)c6ccc3[nH]6)C=C5)C=C4)cc2)C(=O)OC12CCCCC2
REMARK SMILES IDX 14 1 13 2 12 3 11 4 10 5 9 6 8 7 6 8 7 9 5 10 4 11 1 12 2 13
REMARK SMILES IDX 80 14 77 15 79 16 81 17 85 18 78 19 82 20 84 21 83 22 3 23
REMARK SMILES IDX 15 25 16 26 17 27 18 28 19 29 20 30 21 31 22 32 23 33 24 34
REMARK SMILES IDX 76 35 25 36 75 37 26 38 27 39 28 40 69 41 29 42 74 43 68 44
REMARK SMILES IDX 70 45 30 46 73 47 67 48 66 49 31 51 57 52 40 53 56 54 41 55
REMARK SMILES IDX 44 56 55 57 71 58 42 59 43 60 54 62 72 63 45 64 32 65 33 66
REMARK SMILES IDX 38 67 34 68 35 69 37 70 39 71 36 72 58 73 59 74 64 75 60 76
REMARK SMILES IDX 61 77 63 78 65 79 62 80 46 81 47 82 52 83 48 84 49 85 51 86
REMARK SMILES IDX 53 87 50 88
REMARK H PARENT 3 24 70 50 44 61
REMARK Flexibility Score: inf
ROOT
ATOM      1  O   UNL A   1      39.000  22.114  26.030  1.00  0.00    -0.377 OA
ENDROOT
BRANCH   1   2
ATOM      2  C   UNL A   1      38.611  20.802  25.660  1.00  0.00     0.188 C 
BRANCH   2   3
ATOM      3  C   UNL A   1      37.310  20.771  24.859  1.00  0.00     0.188 C 
BRANCH   3   4
ATOM      4  O   UNL A   1      36.302  21.674  25.286  1.00  0.00    -0.376 OA
BRANCH   4   5
ATOM      5  C   UNL A   1      35.325  22.064  24.317  1.00  0.00     0.202 C 
BRANCH   5   6
ATOM      6  C   UNL A   1      33.848  22.176  24.763  1.00  0.00     0.261 C 
BRANCH   6   7
ATOM      7  O   UNL A   1      33.604  22.267  26.207  1.00  0.00    -0.462 OA
BRANCH   7   8
ATOM      8  C   UNL A   1      32.402  22.782  26.569  1.00  0.00     0.325 C 
ATOM      9  O   UNL A   1      31.900  22.589  27.678  1.00  0.00    -0.250 OA
BRANCH   8  10
ATOM     10  C   UNL A   1      31.648  23.671  25.552  1.00  0.00     0.248 C 
BRANCH  10  11
ATOM     11  N   UNL A   1      31.458  25.131  25.427  1.00  0.00    -0.265 N 
ATOM     12  C   UNL A   1      33.860  25.798  25.619  1.00  0.00     0.072 C 
ATOM     13  C   UNL A   1      32.457  26.098  25.077  1.00  0.00     0.181 C 
ATOM     14  C   UNL A   1      31.872  27.479  25.557  1.00  0.00     0.161 C 
ATOM     15  C   UNL A   1      30.401  25.757  26.060  1.00  0.00     0.413 C 
ATOM     16  O   UNL A   1      30.635  27.100  26.201  1.00  0.00    -0.438 OA
ATOM     17  C   UNL A   1      32.760  28.225  26.584  1.00  0.00     0.054 C 
ATOM     18  C   UNL A   1      31.486  28.432  24.397  1.00  0.00     0.054 C 
ATOM     19  O   UNL A   1      29.419  25.208  26.508  1.00  0.00    -0.224 OA
ATOM     20  C   UNL A   1      32.260  29.611  26.991  1.00  0.00     0.004 C 
ATOM     21  C   UNL A   1      30.959  29.790  24.872  1.00  0.00     0.004 C 
ATOM     22  C   UNL A   1      31.964  30.481  25.780  1.00  0.00     0.000 C 
BRANCH  13  23
ATOM     23  O   UNL A   1      32.506  26.103  23.673  1.00  0.00    -0.367 OA
ATOM     24  H   UNL A   1      32.940  26.915  23.367  1.00  0.00     0.213 HD
ENDBRANCH  13  23
ENDBRANCH  10  11
ENDBRANCH   8  10
ENDBRANCH   7   8
ENDBRANCH   6   7
ENDBRANCH   5   6
ENDBRANCH   4   5
ENDBRANCH   3   4
ENDBRANCH   2   3
ENDBRANCH   1   2
BRANCH   1  25
ATOM     25  C   UNL A   1      40.069  22.312  26.952  1.00  0.00     0.188 C 
BRANCH  25  26
ATOM     26  C   UNL A   1      41.336  21.473  26.783  1.00  0.00     0.188 C 
BRANCH  26  27
ATOM     27  O   UNL A   1      42.114  21.659  25.597  1.00  0.00    -0.376 OA
BRANCH  27  28
ATOM     28  C   UNL A   1      43.511  21.385  25.628  1.00  0.00     0.202 C 
BRANCH  28  29
ATOM     29  C   UNL A   1      44.426  22.508  25.139  1.00  0.00     0.261 C 
BRANCH  29  30
ATOM     30  O   UNL A   1      43.688  23.686  24.779  1.00  0.00    -0.460 OA
BRANCH  30  31
ATOM     31  C   UNL A   1      44.279  24.848  25.130  1.00  0.00     0.338 C 
ATOM     32  O   UNL A   1      45.376  25.256  24.787  1.00  0.00    -0.246 OA
BRANCH  31  33
ATOM     33  C   UNL A   1      43.333  25.681  25.892  1.00  0.00     0.060 A 
ATOM     34  C   UNL A   1      43.716  27.000  26.163  1.00  0.00     0.016 A 
ATOM     35  C   UNL A   1      42.156  25.152  26.430  1.00  0.00     0.016 A 
ATOM     36  C   UNL A   1      42.971  27.769  27.044  1.00  0.00     0.010 A 
ATOM     37  C   UNL A   1      41.413  25.924  27.327  1.00  0.00     0.010 A 
ATOM     38  C   UNL A   1      41.859  27.209  27.682  1.00  0.00    -0.014 A 
BRANCH  38  39
ATOM     39  C   UNL A   1      41.348  27.890  28.892  1.00  0.00     0.031 A 
ATOM     40  C   UNL A   1      42.125  27.742  30.173  1.00  0.00     0.074 A 
ATOM     41  C   UNL A   1      40.292  28.717  28.821  1.00  0.00     0.049 A 
ATOM     42  N   UNL A   1      41.929  28.307  31.336  1.00  0.00    -0.248 NA
ATOM     43  C   UNL A   1      43.286  26.838  30.132  1.00  0.00     0.031 C 
ATOM     44  C   UNL A   1      39.512  28.987  27.616  1.00  0.00     0.029 A 
ATOM     45  N   UNL A   1      39.717  29.501  29.784  1.00  0.00    -0.354 N 
ATOM     46  C   UNL A   1      42.944  27.832  32.159  1.00  0.00     0.074 A 
ATOM     47  C   UNL A   1      43.720  26.895  31.380  1.00  0.00     0.031 C 
ATOM     48  C   UNL A   1      38.562  29.892  27.909  1.00  0.00     0.029 A 
ATOM     49  C   UNL A   1      38.655  30.240  29.325  1.00  0.00     0.049 A 
ATOM     50  H   UNL A   1      40.032  29.532  30.717  1.00  0.00     0.167 HD
ATOM     51  C   UNL A   1      43.215  28.161  33.445  1.00  0.00     0.037 A 
ATOM     52  C   UNL A   1      37.854  31.099  29.982  1.00  0.00     0.037 A 
ATOM     53  C   UNL A   1      42.426  29.083  34.218  1.00  0.00     0.049 A 
ATOM     54  C   UNL A   1      38.116  31.374  31.439  1.00  0.00     0.074 A 
ATOM     55  C   UNL A   1      42.592  29.472  35.535  1.00  0.00     0.029 A 
ATOM     56  N   UNL A   1      41.311  29.757  33.740  1.00  0.00    -0.354 N 
ATOM     57  N   UNL A   1      39.075  30.922  32.212  1.00  0.00    -0.248 NA
ATOM     58  C   UNL A   1      37.186  32.291  32.110  1.00  0.00     0.031 C 
ATOM     59  C   UNL A   1      41.546  30.340  35.869  1.00  0.00     0.029 A 
ATOM     60  C   UNL A   1      40.767  30.545  34.741  1.00  0.00     0.049 A 
ATOM     61  H   UNL A   1      40.959  29.685  32.824  1.00  0.00     0.167 HD
ATOM     62  C   UNL A   1      38.891  31.532  33.447  1.00  0.00     0.074 A 
ATOM     63  C   UNL A   1      37.733  32.393  33.313  1.00  0.00     0.031 C 
ATOM     64  C   UNL A   1      39.616  31.401  34.585  1.00  0.00     0.037 A 
BRANCH  51  65
ATOM     65  C   UNL A   1      44.390  27.480  34.091  1.00  0.00     0.057 A 
ATOM     66  C   UNL A   1      44.265  26.257  34.766  1.00  0.00     0.134 A 
ATOM     67  C   UNL A   1      45.661  28.068  34.055  1.00  0.00     0.134 A 
ATOM     68  F   UNL A   1      43.074  25.648  34.856  1.00  0.00    -0.206 F 
ATOM     69  C   UNL A   1      45.352  25.665  35.415  1.00  0.00     0.040 A 
ATOM     70  C   UNL A   1      46.761  27.469  34.673  1.00  0.00     0.040 A 
ATOM     71  F   UNL A   1      45.854  29.237  33.426  1.00  0.00    -0.206 F 
ATOM     72  C   UNL A   1      46.606  26.270  35.366  1.00  0.00     0.006 A 
ENDBRANCH  51  65
BRANCH  52  73
ATOM     73  C   UNL A   1      36.743  31.776  29.267  1.00  0.00     0.057 A 
ATOM     74  C   UNL A   1      35.562  31.095  28.951  1.00  0.00     0.134 A 
ATOM     75  C   UNL A   1      36.842  33.115  28.867  1.00  0.00     0.134 A 
ATOM     76  F   UNL A   1      35.415  29.806  29.290  1.00  0.00    -0.206 F 
ATOM     77  C   UNL A   1      34.527  31.712  28.247  1.00  0.00     0.040 A 
ATOM     78  C   UNL A   1      35.804  33.753  28.186  1.00  0.00     0.040 A 
ATOM     79  F   UNL A   1      37.946  33.823  29.141  1.00  0.00    -0.206 F 
ATOM     80  C   UNL A   1      34.645  33.048  27.867  1.00  0.00     0.006 A 
ENDBRANCH  52  73
BRANCH  64  81
ATOM     81  C   UNL A   1      39.212  32.256  35.755  1.00  0.00     0.057 A 
ATOM     82  C   UNL A   1      39.685  33.563  35.928  1.00  0.00     0.134 A 
ATOM     83  C   UNL A   1      38.329  31.757  36.722  1.00  0.00     0.134 A 
ATOM     84  F   UNL A   1      40.541  34.099  35.044  1.00  0.00    -0.206 F 
ATOM     85  C   UNL A   1      39.330  34.326  37.042  1.00  0.00     0.040 A 
ATOM     86  C   UNL A   1      37.938  32.523  37.820  1.00  0.00     0.040 A 
ATOM     87  F   UNL A   1      37.825  30.517  36.613  1.00  0.00    -0.206 F 
ATOM     88  C   UNL A   1      38.450  33.807  37.989  1.00  0.00     0.006 A 
ENDBRANCH  64  81
ENDBRANCH  38  39
ENDBRANCH  31  33
ENDBRANCH  30  31
ENDBRANCH  29  30
ENDBRANCH  28  29
ENDBRANCH  27  28
ENDBRANCH  26  27
ENDBRANCH  25  26
ENDBRANCH   1  25
TORSDOF 22
ENDMDL
MODEL 3
REMARK VINA RESULT:     -10.0      3.971      6.702
REMARK SMILES C[C@@]1(O)N(CC(=O)OCCOCCOCCOCCOC(=O)c2ccc(-c3c4nc(c(-c5c(F)cccc5F)c5ccc([nH]5)c(-c5c(F)cccc5F)c5nc(c(-c6c(F)cccc6F)c6ccc3[nH]6)C=C5)C=C4)cc2)C(=O)OC12CCCCC2
REMARK SMILES IDX 14 1 13 2 12 3 11 4 10 5 9 6 8 7 6 8 7 9 5 10 4 11 1 12 2 13
REMARK SMILES IDX 80 14 77 15 79 16 81 17 85 18 78 19 82 20 84 21 83 22 3 23
REMARK SMILES IDX 15 25 16 26 17 27 18 28 19 29 20 30 21 31 22 32 23 33 24 34
REMARK SMILES IDX 76 35 25 36 75 37 26 38 27 39 28 40 69 41 29 42 74 43 68 44
REMARK SMILES IDX 70 45 30 46 73 47 67 48 66 49 31 51 57 52 40 53 56 54 41 55
REMARK SMILES IDX 44 56 55 57 71 58 42 59 43 60 54 62 72 63 45 64 32 65 33 66
REMARK SMILES IDX 38 67 34 68 35 69 37 70 39 71 36 72 58 73 59 74 64 75 60 76
REMARK SMILES IDX 61 77 63 78 65 79 62 80 46 81 47 82 52 83 48 84 49 85 51 86
REMARK SMILES IDX 53 87 50 88
REMARK H PARENT 3 24 70 50 44 61
REMARK Flexibility Score: inf
ROOT
ATOM      1  O   UNL A   1      33.794  35.379  28.685  1.00  0.00    -0.377 OA
ENDROOT
BRANCH   1   2
ATOM      2  C   UNL A   1      33.418  34.022  28.524  1.00  0.00     0.188 C 
BRANCH   2   3
ATOM      3  C   UNL A   1      34.568  33.051  28.786  1.00  0.00     0.188 C 
BRANCH   3   4
ATOM      4  O   UNL A   1      34.283  31.680  28.554  1.00  0.00    -0.376 OA
BRANCH   4   5
ATOM      5  C   UNL A   1      33.743  31.336  27.275  1.00  0.00     0.202 C 
BRANCH   5   6
ATOM      6  C   UNL A   1      32.638  30.255  27.208  1.00  0.00     0.261 C 
BRANCH   6   7
ATOM      7  O   UNL A   1      32.273  29.772  25.871  1.00  0.00    -0.462 OA
BRANCH   7   8
ATOM      8  C   UNL A   1      32.736  28.539  25.545  1.00  0.00     0.325 C 
ATOM      9  O   UNL A   1      33.848  28.131  25.887  1.00  0.00    -0.250 OA
BRANCH   8  10
ATOM     10  C   UNL A   1      31.813  27.599  24.732  1.00  0.00     0.248 C 
BRANCH  10  11
ATOM     11  N   UNL A   1      31.960  26.216  24.233  1.00  0.00    -0.265 N 
ATOM     12  C   UNL A   1      31.502  25.033  26.388  1.00  0.00     0.072 C 
ATOM     13  C   UNL A   1      31.462  25.024  24.855  1.00  0.00     0.181 C 
ATOM     14  C   UNL A   1      32.289  23.852  24.204  1.00  0.00     0.161 C 
ATOM     15  C   UNL A   1      32.968  25.896  23.344  1.00  0.00     0.413 C 
ATOM     16  O   UNL A   1      33.220  24.549  23.346  1.00  0.00    -0.438 OA
ATOM     17  C   UNL A   1      33.091  22.998  25.219  1.00  0.00     0.054 C 
ATOM     18  C   UNL A   1      31.450  22.931  23.282  1.00  0.00     0.054 C 
ATOM     19  O   UNL A   1      33.612  26.686  22.689  1.00  0.00    -0.224 OA
ATOM     20  C   UNL A   1      33.824  21.797  24.623  1.00  0.00     0.004 C 
ATOM     21  C   UNL A   1      32.251  21.768  22.689  1.00  0.00     0.004 C 
ATOM     22  C   UNL A   1      32.897  20.932  23.783  1.00  0.00     0.000 C 
BRANCH  13  23
ATOM     23  O   UNL A   1      30.126  24.907  24.437  1.00  0.00    -0.367 OA
ATOM     24  H   UNL A   1      30.095  24.837  23.470  1.00  0.00     0.213 HD
ENDBRANCH  13  23
ENDBRANCH  10  11
ENDBRANCH   8  10
ENDBRANCH   7   8
ENDBRANCH   6   7
ENDBRANCH   5   6
ENDBRANCH   4   5
ENDBRANCH   3   4
ENDBRANCH   2   3
ENDBRANCH   1   2
BRANCH   1  25
ATOM     25  C   UNL A   1      33.233  36.159  29.739  1.00  0.00     0.188 C 
BRANCH  25  26
ATOM     26  C   UNL A   1      33.128  35.530  31.128  1.00  0.00     0.188 C 
BRANCH  26  27
ATOM     27  O   UNL A   1      34.102  35.899  32.110  1.00  0.00    -0.376 OA
BRANCH  27  28
ATOM     28  C   UNL A   1      35.051  34.931  32.548  1.00  0.00     0.202 C 
BRANCH  28  29
ATOM     29  C   UNL A   1      34.478  33.698  33.248  1.00  0.00     0.261 C 
BRANCH  29  30
ATOM     30  O   UNL A   1      35.072  32.482  32.768  1.00  0.00    -0.460 OA
BRANCH  30  31
ATOM     31  C   UNL A   1      36.264  32.181  33.329  1.00  0.00     0.338 C 
ATOM     32  O   UNL A   1      36.648  32.465  34.450  1.00  0.00    -0.246 OA
BRANCH  31  33
ATOM     33  C   UNL A   1      37.025  31.291  32.436  1.00  0.00     0.060 A 
ATOM     34  C   UNL A   1      38.066  30.549  33.009  1.00  0.00     0.016 A 
ATOM     35  C   UNL A   1      36.807  31.271  31.056  1.00  0.00     0.016 A 
ATOM     36  C   UNL A   1      38.948  29.853  32.195  1.00  0.00     0.010 A 
ATOM     37  C   UNL A   1      37.704  30.581  30.236  1.00  0.00     0.010 A 
ATOM     38  C   UNL A   1      38.811  29.926  30.804  1.00  0.00    -0.014 A 
BRANCH  38  39
ATOM     39  C   UNL A   1      39.974  29.533  29.979  1.00  0.00     0.031 A 
ATOM     40  C   UNL A   1      41.093  30.526  29.808  1.00  0.00     0.074 A 
ATOM     41  C   UNL A   1      40.088  28.283  29.502  1.00  0.00     0.049 A 
ATOM     42  N   UNL A   1      42.247  30.386  29.210  1.00  0.00    -0.248 NA
ATOM     43  C   UNL A   1      40.881  31.856  30.402  1.00  0.00     0.031 C 
ATOM     44  C   UNL A   1      39.096  27.223  29.671  1.00  0.00     0.029 A 
ATOM     45  N   UNL A   1      41.104  27.692  28.801  1.00  0.00    -0.354 N 
ATOM     46  C   UNL A   1      42.898  31.605  29.360  1.00  0.00     0.074 A 
ATOM     47  C   UNL A   1      41.992  32.488  30.059  1.00  0.00     0.031 C 
ATOM     48  C   UNL A   1      39.562  26.099  29.098  1.00  0.00     0.029 A 
ATOM     49  C   UNL A   1      40.869  26.373  28.504  1.00  0.00     0.049 A 
ATOM     50  H   UNL A   1      41.924  28.167  28.534  1.00  0.00     0.167 HD
ATOM     51  C   UNL A   1      44.146  31.953  28.965  1.00  0.00     0.037 A 
ATOM     52  C   UNL A   1      41.629  25.493  27.826  1.00  0.00     0.037 A 
ATOM     53  C   UNL A   1      45.035  31.072  28.255  1.00  0.00     0.049 A 
ATOM     54  C   UNL A   1      42.974  25.933  27.312  1.00  0.00     0.074 A 
ATOM     55  C   UNL A   1      46.311  31.325  27.785  1.00  0.00     0.029 A 
ATOM     56  N   UNL A   1      44.732  29.764  27.905  1.00  0.00    -0.354 N 
ATOM     57  N   UNL A   1      43.583  27.086  27.456  1.00  0.00    -0.248 NA
ATOM     58  C   UNL A   1      43.740  24.940  26.549  1.00  0.00     0.031 C 
ATOM     59  C   UNL A   1      46.758  30.187  27.104  1.00  0.00     0.029 A 
ATOM     60  C   UNL A   1      45.789  29.202  27.209  1.00  0.00     0.049 A 
ATOM     61  H   UNL A   1      43.889  29.303  28.122  1.00  0.00     0.167 HD
ATOM     62  C   UNL A   1      44.822  26.944  26.842  1.00  0.00     0.074 A 
ATOM     63  C   UNL A   1      44.876  25.588  26.333  1.00  0.00     0.031 C 
ATOM     64  C   UNL A   1      45.826  27.847  26.716  1.00  0.00     0.037 A 
BRANCH  51  65
ATOM     65  C   UNL A   1      44.591  33.358  29.266  1.00  0.00     0.057 A 
ATOM     66  C   UNL A   1      44.310  34.429  28.405  1.00  0.00     0.134 A 
ATOM     67  C   UNL A   1      45.329  33.640  30.422  1.00  0.00     0.134 A 
ATOM     68  F   UNL A   1      43.625  34.228  27.269  1.00  0.00    -0.206 F 
ATOM     69  C   UNL A   1      44.782  35.719  28.663  1.00  0.00     0.040 A 
ATOM     70  C   UNL A   1      45.777  34.931  30.707  1.00  0.00     0.040 A 
ATOM     71  F   UNL A   1      45.632  32.664  31.292  1.00  0.00    -0.206 F 
ATOM     72  C   UNL A   1      45.514  35.973  29.820  1.00  0.00     0.006 A 
ENDBRANCH  51  65
BRANCH  52  73
ATOM     73  C   UNL A   1      41.148  24.105  27.613  1.00  0.00     0.057 A 
ATOM     74  C   UNL A   1      41.698  23.031  28.322  1.00  0.00     0.134 A 
ATOM     75  C   UNL A   1      40.141  23.817  26.683  1.00  0.00     0.134 A 
ATOM     76  F   UNL A   1      42.679  23.240  29.211  1.00  0.00    -0.206 F 
ATOM     77  C   UNL A   1      41.278  21.718  28.101  1.00  0.00     0.040 A 
ATOM     78  C   UNL A   1      39.692  22.512  26.473  1.00  0.00     0.040 A 
ATOM     79  F   UNL A   1      39.572  24.802  25.974  1.00  0.00    -0.206 F 
ATOM     80  C   UNL A   1      40.268  21.456  27.178  1.00  0.00     0.006 A 
ENDBRANCH  52  73
BRANCH  64  81
ATOM     81  C   UNL A   1      47.091  27.373  26.054  1.00  0.00     0.057 A 
ATOM     82  C   UNL A   1      47.322  27.525  24.681  1.00  0.00     0.134 A 
ATOM     83  C   UNL A   1      48.097  26.759  26.813  1.00  0.00     0.134 A 
ATOM     84  F   UNL A   1      46.396  28.097  23.895  1.00  0.00    -0.206 F 
ATOM     85  C   UNL A   1      48.485  27.042  24.079  1.00  0.00     0.040 A 
ATOM     86  C   UNL A   1      49.279  26.305  26.228  1.00  0.00     0.040 A 
ATOM     87  F   UNL A   1      47.950  26.593  28.136  1.00  0.00    -0.206 F 
ATOM     88  C   UNL A   1      49.470  26.434  24.854  1.00  0.00     0.006 A 
ENDBRANCH  64  81
ENDBRANCH  38  39
ENDBRANCH  31  33
ENDBRANCH  30  31
ENDBRANCH  29  30
ENDBRANCH  28  29
ENDBRANCH  27  28
ENDBRANCH  26  27
ENDBRANCH  25  26
ENDBRANCH   1  25
TORSDOF 22
ENDMDL
