MODEL 1
REMARK VINA RESULT:     -10.0      0.000      0.000
REMARK SMILES COc1ccc2c(c1)c(CC(=O)OCCOCCOCCOCCOC(=O)c1ccc(-c3c4nc(c(-c5c(F)cccc5F)c5ccc([nH]5)c(-c5c(F)cccc5F)c5nc(c(-c6c(F)cccc6F)c6ccc3[nH]6)C=C5)C=C4)cc1)c(C)n2Cc1ccc(Br)cc1
REMARK SMILES IDX 18 1 17 2 16 3 15 4 14 5 13 6 11 7 12 8 10 9 9 10 3 11 4 12
REMARK SMILES IDX 8 13 5 14 7 15 6 16 84 17 82 18 83 19 2 20 1 21 85 22 86 23
REMARK SMILES IDX 87 24 92 25 88 26 91 27 89 28 90 29 19 30 20 31 21 32 22 33
REMARK SMILES IDX 23 34 24 35 25 36 26 37 27 38 28 39 29 40 81 41 30 42 80 43
REMARK SMILES IDX 31 44 32 45 33 46 74 47 34 48 79 49 73 50 75 51 35 52 78 53
REMARK SMILES IDX 72 54 71 55 36 57 62 58 45 59 61 60 46 61 49 62 60 63 76 64
REMARK SMILES IDX 47 65 48 66 59 68 77 69 50 70 37 71 38 72 43 73 39 74 40 75
REMARK SMILES IDX 42 76 44 77 41 78 63 79 64 80 69 81 65 82 66 83 68 84 70 85
REMARK SMILES IDX 67 86 51 87 52 88 57 89 53 90 54 91 56 92 58 93 55 94
REMARK H PARENT 75 56 49 67
REMARK Flexibility Score: inf
ROOT
ATOM      1  C   UNL A   1      33.512  32.446  27.653  1.00  0.00     0.188 C 
ENDROOT
BRANCH   1   2
ATOM      2  C   UNL A   1      33.409  30.932  27.520  1.00  0.00     0.188 C 
BRANCH   2   3
ATOM      3  O   UNL A   1      34.552  30.244  27.996  1.00  0.00    -0.376 OA
BRANCH   3   4
ATOM      4  C   UNL A   1      35.029  29.134  27.252  1.00  0.00     0.202 C 
BRANCH   4   5
ATOM      5  C   UNL A   1      34.029  28.142  26.620  1.00  0.00     0.261 C 
BRANCH   5   6
ATOM      6  O   UNL A   1      33.943  28.107  25.177  1.00  0.00    -0.463 OA
BRANCH   6   7
ATOM      7  C   UNL A   1      33.618  26.955  24.549  1.00  0.00     0.310 C 
ATOM      8  O   UNL A   1      33.612  26.849  23.324  1.00  0.00    -0.252 OA
BRANCH   7   9
ATOM      9  C   UNL A   1      33.375  25.748  25.469  1.00  0.00     0.160 C 
BRANCH   9  10
ATOM     10  C   UNL A   1      33.514  24.334  24.926  1.00  0.00    -0.008 A 
ATOM     11  C   UNL A   1      36.944  22.673  25.455  1.00  0.00     0.119 A 
ATOM     12  C   UNL A   1      36.558  21.403  25.051  1.00  0.00     0.048 A 
ATOM     13  C   UNL A   1      36.035  23.735  25.343  1.00  0.00     0.057 A 
ATOM     14  C   UNL A   1      35.266  21.170  24.548  1.00  0.00     0.031 A 
ATOM     15  C   UNL A   1      34.697  23.516  24.939  1.00  0.00     0.007 A 
ATOM     16  C   UNL A   1      34.348  22.240  24.490  1.00  0.00     0.049 A 
ATOM     17  N   UNL A   1      33.046  22.328  24.003  1.00  0.00    -0.340 N 
ATOM     18  C   UNL A   1      32.602  23.640  24.139  1.00  0.00     0.020 A 
ATOM     19  C   UNL A   1      31.380  24.191  23.499  1.00  0.00     0.065 C 
BRANCH  11  20
ATOM     20  O   UNL A   1      38.142  23.024  26.013  1.00  0.00    -0.497 OA
ATOM     21  C   UNL A   1      38.331  24.372  26.427  1.00  0.00     0.278 C 
ENDBRANCH  11  20
BRANCH  17  22
ATOM     22  C   UNL A   1      32.400  21.260  23.219  1.00  0.00     0.157 C 
BRANCH  22  23
ATOM     23  C   UNL A   1      32.533  19.862  23.788  1.00  0.00    -0.028 A 
ATOM     24  C   UNL A   1      32.830  18.768  22.960  1.00  0.00     0.007 A 
ATOM     25  C   UNL A   1      32.442  19.626  25.170  1.00  0.00     0.007 A 
ATOM     26  C   UNL A   1      32.964  17.476  23.470  1.00  0.00     0.016 A 
ATOM     27  C   UNL A   1      32.614  18.337  25.692  1.00  0.00     0.016 A 
ATOM     28  C   UNL A   1      32.853  17.264  24.837  1.00  0.00     0.017 A 
ATOM     29  Br  UNL A   1      33.049  15.516  25.528  1.00  0.00    -0.051 Br
ENDBRANCH  22  23
ENDBRANCH  17  22
ENDBRANCH   9  10
ENDBRANCH   7   9
ENDBRANCH   6   7
ENDBRANCH   5   6
ENDBRANCH   4   5
ENDBRANCH   3   4
ENDBRANCH   2   3
ENDBRANCH   1   2
BRANCH   1  30
ATOM     30  O   UNL A   1      34.737  33.127  27.648  1.00  0.00    -0.377 OA
BRANCH  30  31
ATOM     31  C   UNL A   1      34.731  34.499  27.909  1.00  0.00     0.188 C 
BRANCH  31  32
ATOM     32  C   UNL A   1      33.562  34.940  28.793  1.00  0.00     0.188 C 
BRANCH  32  33
ATOM     33  O   UNL A   1      33.411  34.478  30.138  1.00  0.00    -0.376 OA
BRANCH  33  34
ATOM     34  C   UNL A   1      33.891  35.244  31.234  1.00  0.00     0.202 C 
BRANCH  34  35
ATOM     35  C   UNL A   1      35.030  34.651  32.086  1.00  0.00     0.261 C 
BRANCH  35  36
ATOM     36  O   UNL A   1      35.852  33.715  31.385  1.00  0.00    -0.460 OA
BRANCH  36  37
ATOM     37  C   UNL A   1      35.471  32.408  31.384  1.00  0.00     0.338 C 
ATOM     38  O   UNL A   1      34.369  31.954  31.565  1.00  0.00    -0.246 OA
BRANCH  37  39
ATOM     39  C   UNL A   1      36.612  31.670  30.787  1.00  0.00     0.060 A 
ATOM     40  C   UNL A   1      36.586  30.278  30.666  1.00  0.00     0.016 A 
ATOM     41  C   UNL A   1      37.818  32.377  30.692  1.00  0.00     0.016 A 
ATOM     42  C   UNL A   1      37.797  29.590  30.620  1.00  0.00     0.010 A 
ATOM     43  C   UNL A   1      39.028  31.684  30.653  1.00  0.00     0.010 A 
ATOM     44  C   UNL A   1      39.023  30.288  30.674  1.00  0.00    -0.014 A 
BRANCH  44  45
ATOM     45  C   UNL A   1      40.249  29.513  30.446  1.00  0.00     0.031 A 
ATOM     46  C   UNL A   1      40.971  29.262  31.722  1.00  0.00     0.074 A 
ATOM     47  C   UNL A   1      40.674  28.890  29.325  1.00  0.00     0.049 A 
ATOM     48  N   UNL A   1      42.172  29.608  32.050  1.00  0.00    -0.248 NA
ATOM     49  C   UNL A   1      40.183  28.665  32.814  1.00  0.00     0.031 C 
ATOM     50  C   UNL A   1      39.980  28.737  28.049  1.00  0.00     0.029 A 
ATOM     51  N   UNL A   1      41.820  28.155  29.144  1.00  0.00    -0.354 N 
ATOM     52  C   UNL A   1      42.348  29.124  33.342  1.00  0.00     0.074 A 
ATOM     53  C   UNL A   1      41.056  28.701  33.816  1.00  0.00     0.031 C 
ATOM     54  C   UNL A   1      40.618  27.800  27.306  1.00  0.00     0.029 A 
ATOM     55  C   UNL A   1      41.814  27.353  28.008  1.00  0.00     0.049 A 
ATOM     56  H   UNL A   1      42.582  28.192  29.767  1.00  0.00     0.167 HD
ATOM     57  C   UNL A   1      43.577  28.874  33.858  1.00  0.00     0.037 A 
ATOM     58  C   UNL A   1      42.683  26.354  27.698  1.00  0.00     0.037 A 
ATOM     59  C   UNL A   1      44.619  29.589  33.175  1.00  0.00     0.049 A 
ATOM     60  C   UNL A   1      43.898  26.517  28.532  1.00  0.00     0.074 A 
ATOM     61  C   UNL A   1      44.872  30.921  32.903  1.00  0.00     0.029 A 
ATOM     62  N   UNL A   1      45.474  28.882  32.369  1.00  0.00    -0.354 N 
ATOM     63  N   UNL A   1      44.810  27.425  28.344  1.00  0.00    -0.248 NA
ATOM     64  C   UNL A   1      43.944  25.848  29.824  1.00  0.00     0.031 C 
ATOM     65  C   UNL A   1      45.509  30.929  31.627  1.00  0.00     0.029 A 
ATOM     66  C   UNL A   1      45.617  29.603  31.212  1.00  0.00     0.049 A 
ATOM     67  H   UNL A   1      45.903  28.022  32.581  1.00  0.00     0.167 HD
ATOM     68  C   UNL A   1      45.248  27.749  29.618  1.00  0.00     0.074 A 
ATOM     69  C   UNL A   1      44.779  26.664  30.470  1.00  0.00     0.031 C 
ATOM     70  C   UNL A   1      45.702  29.004  29.903  1.00  0.00     0.037 A 
BRANCH  57  71
ATOM     71  C   UNL A   1      43.836  27.684  34.741  1.00  0.00     0.057 A 
ATOM     72  C   UNL A   1      44.066  27.781  36.132  1.00  0.00     0.134 A 
ATOM     73  C   UNL A   1      43.575  26.392  34.263  1.00  0.00     0.134 A 
ATOM     74  F   UNL A   1      44.211  28.958  36.754  1.00  0.00    -0.206 F 
ATOM     75  C   UNL A   1      44.054  26.675  36.981  1.00  0.00     0.040 A 
ATOM     76  C   UNL A   1      43.501  25.284  35.114  1.00  0.00     0.040 A 
ATOM     77  F   UNL A   1      43.301  26.184  32.966  1.00  0.00    -0.206 F 
ATOM     78  C   UNL A   1      43.742  25.423  36.477  1.00  0.00     0.006 A 
ENDBRANCH  57  71
BRANCH  58  79
ATOM     79  C   UNL A   1      42.498  25.143  26.860  1.00  0.00     0.057 A 
ATOM     80  C   UNL A   1      41.863  23.993  27.356  1.00  0.00     0.134 A 
ATOM     81  C   UNL A   1      43.167  24.987  25.633  1.00  0.00     0.134 A 
ATOM     82  F   UNL A   1      41.267  23.994  28.557  1.00  0.00    -0.206 F 
ATOM     83  C   UNL A   1      41.890  22.767  26.682  1.00  0.00     0.040 A 
ATOM     84  C   UNL A   1      43.215  23.762  24.954  1.00  0.00     0.040 A 
ATOM     85  F   UNL A   1      43.846  26.007  25.089  1.00  0.00    -0.206 F 
ATOM     86  C   UNL A   1      42.580  22.643  25.483  1.00  0.00     0.006 A 
ENDBRANCH  58  79
BRANCH  70  87
ATOM     87  C   UNL A   1      46.045  29.896  28.746  1.00  0.00     0.057 A 
ATOM     88  C   UNL A   1      47.391  30.073  28.410  1.00  0.00     0.134 A 
ATOM     89  C   UNL A   1      45.104  30.637  28.015  1.00  0.00     0.134 A 
ATOM     90  F   UNL A   1      48.353  29.443  29.106  1.00  0.00    -0.206 F 
ATOM     91  C   UNL A   1      47.787  30.919  27.373  1.00  0.00     0.040 A 
ATOM     92  C   UNL A   1      45.483  31.454  26.947  1.00  0.00     0.040 A 
ATOM     93  F   UNL A   1      43.802  30.621  28.335  1.00  0.00    -0.206 F 
ATOM     94  C   UNL A   1      46.829  31.598  26.624  1.00  0.00     0.006 A 
ENDBRANCH  70  87
ENDBRANCH  44  45
ENDBRANCH  37  39
ENDBRANCH  36  37
ENDBRANCH  35  36
ENDBRANCH  34  35
ENDBRANCH  33  34
ENDBRANCH  32  33
ENDBRANCH  31  32
ENDBRANCH  30  31
ENDBRANCH   1  30
TORSDOF 24
ENDMDL
MODEL 2
REMARK VINA RESULT:      -9.8      2.662      4.155
REMARK SMILES COc1ccc2c(c1)c(CC(=O)OCCOCCOCCOCCOC(=O)c1ccc(-c3c4nc(c(-c5c(F)cccc5F)c5ccc([nH]5)c(-c5c(F)cccc5F)c5nc(c(-c6c(F)cccc6F)c6ccc3[nH]6)C=C5)C=C4)cc1)c(C)n2Cc1ccc(Br)cc1
REMARK SMILES IDX 18 1 17 2 16 3 15 4 14 5 13 6 11 7 12 8 10 9 9 10 3 11 4 12
REMARK SMILES IDX 8 13 5 14 7 15 6 16 84 17 82 18 83 19 2 20 1 21 85 22 86 23
REMARK SMILES IDX 87 24 92 25 88 26 91 27 89 28 90 29 19 30 20 31 21 32 22 33
REMARK SMILES IDX 23 34 24 35 25 36 26 37 27 38 28 39 29 40 81 41 30 42 80 43
REMARK SMILES IDX 31 44 32 45 33 46 74 47 34 48 79 49 73 50 75 51 35 52 78 53
REMARK SMILES IDX 72 54 71 55 36 57 62 58 45 59 61 60 46 61 49 62 60 63 76 64
REMARK SMILES IDX 47 65 48 66 59 68 77 69 50 70 37 71 38 72 43 73 39 74 40 75
REMARK SMILES IDX 42 76 44 77 41 78 63 79 64 80 69 81 65 82 66 83 68 84 70 85
REMARK SMILES IDX 67 86 51 87 52 88 57 89 53 90 54 91 56 92 58 93 55 94
REMARK H PARENT 75 56 49 67
REMARK Flexibility Score: inf
ROOT
ATOM      1  C   UNL A   1      30.933  26.560  26.003  1.00  0.00     0.188 C 
ENDROOT
BRANCH   1   2
ATOM      2  C   UNL A   1      30.186  26.449  24.681  1.00  0.00     0.188 C 
BRANCH   2   3
ATOM      3  O   UNL A   1      30.374  27.566  23.830  1.00  0.00    -0.376 OA
BRANCH   3   4
ATOM      4  C   UNL A   1      30.587  27.330  22.447  1.00  0.00     0.202 C 
BRANCH   4   5
ATOM      5  C   UNL A   1      32.025  27.204  21.898  1.00  0.00     0.261 C 
BRANCH   5   6
ATOM      6  O   UNL A   1      32.566  25.874  21.740  1.00  0.00    -0.463 OA
BRANCH   6   7
ATOM      7  C   UNL A   1      33.425  25.382  22.661  1.00  0.00     0.310 C 
ATOM      8  O   UNL A   1      33.965  26.091  23.507  1.00  0.00    -0.252 OA
BRANCH   7   9
ATOM      9  C   UNL A   1      33.590  23.853  22.659  1.00  0.00     0.160 C 
BRANCH   9  10
ATOM     10  C   UNL A   1      34.325  23.164  23.797  1.00  0.00    -0.008 A 
ATOM     11  C   UNL A   1      32.419  22.954  27.133  1.00  0.00     0.119 A 
ATOM     12  C   UNL A   1      33.309  22.092  27.759  1.00  0.00     0.048 A 
ATOM     13  C   UNL A   1      32.728  23.453  25.860  1.00  0.00     0.057 A 
ATOM     14  C   UNL A   1      34.503  21.706  27.124  1.00  0.00     0.031 A 
ATOM     15  C   UNL A   1      33.867  23.005  25.152  1.00  0.00     0.007 A 
ATOM     16  C   UNL A   1      34.773  22.177  25.822  1.00  0.00     0.049 A 
ATOM     17  N   UNL A   1      35.869  22.015  24.979  1.00  0.00    -0.340 N 
ATOM     18  C   UNL A   1      35.650  22.739  23.810  1.00  0.00     0.020 A 
ATOM     19  C   UNL A   1      36.687  23.035  22.789  1.00  0.00     0.065 C 
BRANCH  11  20
ATOM     20  O   UNL A   1      31.205  23.361  27.610  1.00  0.00    -0.497 OA
ATOM     21  C   UNL A   1      30.030  22.947  26.923  1.00  0.00     0.278 C 
ENDBRANCH  11  20
BRANCH  17  22
ATOM     22  C   UNL A   1      37.143  21.415  25.412  1.00  0.00     0.157 C 
BRANCH  22  23
ATOM     23  C   UNL A   1      38.113  22.361  26.091  1.00  0.00    -0.028 A 
ATOM     24  C   UNL A   1      39.414  21.950  26.422  1.00  0.00     0.007 A 
ATOM     25  C   UNL A   1      37.770  23.701  26.339  1.00  0.00     0.007 A 
ATOM     26  C   UNL A   1      40.322  22.812  27.039  1.00  0.00     0.016 A 
ATOM     27  C   UNL A   1      38.691  24.582  26.924  1.00  0.00     0.016 A 
ATOM     28  C   UNL A   1      39.955  24.127  27.290  1.00  0.00     0.017 A 
ATOM     29  Br  UNL A   1      41.190  25.297  28.113  1.00  0.00    -0.051 Br
ENDBRANCH  22  23
ENDBRANCH  17  22
ENDBRANCH   9  10
ENDBRANCH   7   9
ENDBRANCH   6   7
ENDBRANCH   5   6
ENDBRANCH   4   5
ENDBRANCH   3   4
ENDBRANCH   2   3
ENDBRANCH   1   2
BRANCH   1  30
ATOM     30  O   UNL A   1      32.159  27.229  26.128  1.00  0.00    -0.377 OA
BRANCH  30  31
ATOM     31  C   UNL A   1      32.324  28.110  27.200  1.00  0.00     0.188 C 
BRANCH  31  32
ATOM     32  C   UNL A   1      32.036  29.567  26.832  1.00  0.00     0.188 C 
BRANCH  32  33
ATOM     33  O   UNL A   1      33.077  30.543  26.724  1.00  0.00    -0.376 OA
BRANCH  33  34
ATOM     34  C   UNL A   1      34.389  30.269  27.193  1.00  0.00     0.202 C 
BRANCH  34  35
ATOM     35  C   UNL A   1      34.865  30.988  28.470  1.00  0.00     0.261 C 
BRANCH  35  36
ATOM     36  O   UNL A   1      36.038  31.784  28.285  1.00  0.00    -0.460 OA
BRANCH  36  37
ATOM     37  C   UNL A   1      36.746  32.141  29.392  1.00  0.00     0.338 C 
ATOM     38  O   UNL A   1      36.327  32.569  30.437  1.00  0.00    -0.246 OA
BRANCH  37  39
ATOM     39  C   UNL A   1      38.106  31.585  29.180  1.00  0.00     0.060 A 
ATOM     40  C   UNL A   1      38.289  30.327  28.599  1.00  0.00     0.016 A 
ATOM     41  C   UNL A   1      39.141  32.201  29.899  1.00  0.00     0.016 A 
ATOM     42  C   UNL A   1      39.454  29.621  28.889  1.00  0.00     0.010 A 
ATOM     43  C   UNL A   1      40.303  31.488  30.192  1.00  0.00     0.010 A 
ATOM     44  C   UNL A   1      40.438  30.175  29.735  1.00  0.00    -0.014 A 
BRANCH  44  45
ATOM     45  C   UNL A   1      41.710  29.449  29.854  1.00  0.00     0.031 A 
ATOM     46  C   UNL A   1      41.956  29.022  31.256  1.00  0.00     0.074 A 
ATOM     47  C   UNL A   1      42.533  28.999  28.882  1.00  0.00     0.049 A 
ATOM     48  N   UNL A   1      42.946  29.325  32.030  1.00  0.00    -0.248 NA
ATOM     49  C   UNL A   1      40.873  28.268  31.910  1.00  0.00     0.031 C 
ATOM     50  C   UNL A   1      42.337  29.027  27.435  1.00  0.00     0.029 A 
ATOM     51  N   UNL A   1      43.711  28.306  29.021  1.00  0.00    -0.354 N 
ATOM     52  C   UNL A   1      42.689  28.660  33.224  1.00  0.00     0.074 A 
ATOM     53  C   UNL A   1      41.339  28.164  33.152  1.00  0.00     0.031 C 
ATOM     54  C   UNL A   1      43.247  28.212  26.847  1.00  0.00     0.029 A 
ATOM     55  C   UNL A   1      44.147  27.677  27.859  1.00  0.00     0.049 A 
ATOM     56  H   UNL A   1      44.206  28.258  29.871  1.00  0.00     0.167 HD
ATOM     57  C   UNL A   1      43.674  28.347  34.102  1.00  0.00     0.037 A 
ATOM     58  C   UNL A   1      45.126  26.740  27.746  1.00  0.00     0.037 A 
ATOM     59  C   UNL A   1      44.845  29.160  33.932  1.00  0.00     0.049 A 
ATOM     60  C   UNL A   1      45.963  26.789  28.968  1.00  0.00     0.074 A 
ATOM     61  C   UNL A   1      45.100  30.520  33.947  1.00  0.00     0.029 A 
ATOM     62  N   UNL A   1      45.966  28.584  33.393  1.00  0.00    -0.354 N 
ATOM     63  N   UNL A   1      46.830  27.721  29.237  1.00  0.00    -0.248 NA
ATOM     64  C   UNL A   1      45.595  25.940  30.092  1.00  0.00     0.031 C 
ATOM     65  C   UNL A   1      46.140  30.717  32.991  1.00  0.00     0.029 A 
ATOM     66  C   UNL A   1      46.462  29.466  32.467  1.00  0.00     0.049 A 
ATOM     67  H   UNL A   1      46.344  27.705  33.626  1.00  0.00     0.167 HD
ATOM     68  C   UNL A   1      46.777  27.860  30.614  1.00  0.00     0.074 A 
ATOM     69  C   UNL A   1      46.105  26.659  31.093  1.00  0.00     0.031 C 
ATOM     70  C   UNL A   1      47.030  29.063  31.205  1.00  0.00     0.037 A 
BRANCH  57  71
ATOM     71  C   UNL A   1      43.678  27.043  34.853  1.00  0.00     0.057 A 
ATOM     72  C   UNL A   1      43.454  26.945  36.245  1.00  0.00     0.134 A 
ATOM     73  C   UNL A   1      43.621  25.833  34.147  1.00  0.00     0.134 A 
ATOM     74  F   UNL A   1      43.358  28.023  37.033  1.00  0.00    -0.206 F 
ATOM     75  C   UNL A   1      43.209  25.733  36.889  1.00  0.00     0.040 A 
ATOM     76  C   UNL A   1      43.316  24.619  34.774  1.00  0.00     0.040 A 
ATOM     77  F   UNL A   1      43.777  25.809  32.815  1.00  0.00    -0.206 F 
ATOM     78  C   UNL A   1      43.110  24.566  36.148  1.00  0.00     0.006 A 
ENDBRANCH  57  71
BRANCH  58  79
ATOM     79  C   UNL A   1      45.313  25.662  26.743  1.00  0.00     0.057 A 
ATOM     80  C   UNL A   1      44.894  24.344  26.989  1.00  0.00     0.134 A 
ATOM     81  C   UNL A   1      46.141  25.837  25.620  1.00  0.00     0.134 A 
ATOM     82  F   UNL A   1      44.174  24.038  28.077  1.00  0.00    -0.206 F 
ATOM     83  C   UNL A   1      45.271  23.269  26.176  1.00  0.00     0.040 A 
ATOM     84  C   UNL A   1      46.539  24.767  24.806  1.00  0.00     0.040 A 
ATOM     85  F   UNL A   1      46.637  27.045  25.316  1.00  0.00    -0.206 F 
ATOM     86  C   UNL A   1      46.109  23.475  25.088  1.00  0.00     0.006 A 
ENDBRANCH  58  79
BRANCH  70  87
ATOM     87  C   UNL A   1      47.703  30.116  30.373  1.00  0.00     0.057 A 
ATOM     88  C   UNL A   1      49.078  30.320  30.531  1.00  0.00     0.134 A 
ATOM     89  C   UNL A   1      47.028  30.975  29.492  1.00  0.00     0.134 A 
ATOM     90  F   UNL A   1      49.779  29.577  31.402  1.00  0.00    -0.206 F 
ATOM     91  C   UNL A   1      49.762  31.309  29.821  1.00  0.00     0.040 A 
ATOM     92  C   UNL A   1      47.708  31.939  28.744  1.00  0.00     0.040 A 
ATOM     93  F   UNL A   1      45.695  30.932  29.359  1.00  0.00    -0.206 F 
ATOM     94  C   UNL A   1      49.080  32.109  28.908  1.00  0.00     0.006 A 
ENDBRANCH  70  87
ENDBRANCH  44  45
ENDBRANCH  37  39
ENDBRANCH  36  37
ENDBRANCH  35  36
ENDBRANCH  34  35
ENDBRANCH  33  34
ENDBRANCH  32  33
ENDBRANCH  31  32
ENDBRANCH  30  31
ENDBRANCH   1  30
TORSDOF 24
ENDMDL
MODEL 3
REMARK VINA RESULT:      -9.6      3.500      6.484
REMARK SMILES COc1ccc2c(c1)c(CC(=O)OCCOCCOCCOCCOC(=O)c1ccc(-c3c4nc(c(-c5c(F)cccc5F)c5ccc([nH]5)c(-c5c(F)cccc5F)c5nc(c(-c6c(F)cccc6F)c6ccc3[nH]6)C=C5)C=C4)cc1)c(C)n2Cc1ccc(Br)cc1
REMARK SMILES IDX 18 1 17 2 16 3 15 4 14 5 13 6 11 7 12 8 10 9 9 10 3 11 4 12
REMARK SMILES IDX 8 13 5 14 7 15 6 16 84 17 82 18 83 19 2 20 1 21 85 22 86 23
REMARK SMILES IDX 87 24 92 25 88 26 91 27 89 28 90 29 19 30 20 31 21 32 22 33
REMARK SMILES IDX 23 34 24 35 25 36 26 37 27 38 28 39 29 40 81 41 30 42 80 43
REMARK SMILES IDX 31 44 32 45 33 46 74 47 34 48 79 49 73 50 75 51 35 52 78 53
REMARK SMILES IDX 72 54 71 55 36 57 62 58 45 59 61 60 46 61 49 62 60 63 76 64
REMARK SMILES IDX 47 65 48 66 59 68 77 69 50 70 37 71 38 72 43 73 39 74 40 75
REMARK SMILES IDX 42 76 44 77 41 78 63 79 64 80 69 81 65 82 66 83 68 84 70 85
REMARK SMILES IDX 67 86 51 87 52 88 57 89 53 90 54 91 56 92 58 93 55 94
REMARK H PARENT 75 56 49 67
REMARK Flexibility Score: inf
ROOT
ATOM      1  C   UNL A   1      32.117  27.126  25.719  1.00  0.00     0.188 C 
ENDROOT
BRANCH   1   2
ATOM      2  C   UNL A   1      30.762  26.927  25.053  1.00  0.00     0.188 C 
BRANCH   2   3
ATOM      3  O   UNL A   1      30.514  27.836  23.994  1.00  0.00    -0.376 OA
BRANCH   3   4
ATOM      4  C   UNL A   1      30.422  27.322  22.674  1.00  0.00     0.202 C 
BRANCH   4   5
ATOM      5  C   UNL A   1      31.705  26.943  21.903  1.00  0.00     0.261 C 
BRANCH   5   6
ATOM      6  O   UNL A   1      32.102  25.553  21.907  1.00  0.00    -0.463 OA
BRANCH   6   7
ATOM      7  C   UNL A   1      33.227  25.175  22.555  1.00  0.00     0.310 C 
ATOM      8  O   UNL A   1      33.936  25.971  23.167  1.00  0.00    -0.252 OA
BRANCH   7   9
ATOM      9  C   UNL A   1      33.498  23.663  22.579  1.00  0.00     0.160 C 
BRANCH   9  10
ATOM     10  C   UNL A   1      34.256  23.041  23.741  1.00  0.00    -0.008 A 
ATOM     11  C   UNL A   1      32.406  23.010  27.115  1.00  0.00     0.119 A 
ATOM     12  C   UNL A   1      33.311  22.188  27.772  1.00  0.00     0.048 A 
ATOM     13  C   UNL A   1      32.691  23.438  25.810  1.00  0.00     0.057 A 
ATOM     14  C   UNL A   1      34.496  21.773  27.140  1.00  0.00     0.031 A 
ATOM     15  C   UNL A   1      33.821  22.956  25.110  1.00  0.00     0.007 A 
ATOM     16  C   UNL A   1      34.742  22.171  25.810  1.00  0.00     0.049 A 
ATOM     17  N   UNL A   1      35.825  21.968  24.959  1.00  0.00    -0.340 N 
ATOM     18  C   UNL A   1      35.582  22.625  23.756  1.00  0.00     0.020 A 
ATOM     19  C   UNL A   1      36.602  22.867  22.702  1.00  0.00     0.065 C 
BRANCH  11  20
ATOM     20  O   UNL A   1      31.197  23.437  27.588  1.00  0.00    -0.497 OA
ATOM     21  C   UNL A   1      30.030  23.157  26.826  1.00  0.00     0.278 C 
ENDBRANCH  11  20
BRANCH  17  22
ATOM     22  C   UNL A   1      37.109  21.399  25.403  1.00  0.00     0.157 C 
BRANCH  22  23
ATOM     23  C   UNL A   1      38.098  22.391  25.982  1.00  0.00    -0.028 A 
ATOM     24  C   UNL A   1      37.729  23.724  26.226  1.00  0.00     0.007 A 
ATOM     25  C   UNL A   1      39.389  21.992  26.367  1.00  0.00     0.007 A 
ATOM     26  C   UNL A   1      38.625  24.646  26.767  1.00  0.00     0.016 A 
ATOM     27  C   UNL A   1      40.281  22.905  26.946  1.00  0.00     0.016 A 
ATOM     28  C   UNL A   1      39.901  24.234  27.124  1.00  0.00     0.017 A 
ATOM     29  Br  UNL A   1      41.109  25.481  27.869  1.00  0.00    -0.051 Br
ENDBRANCH  22  23
ENDBRANCH  17  22
ENDBRANCH   9  10
ENDBRANCH   7   9
ENDBRANCH   6   7
ENDBRANCH   5   6
ENDBRANCH   4   5
ENDBRANCH   3   4
ENDBRANCH   2   3
ENDBRANCH   1   2
BRANCH   1  30
ATOM     30  O   UNL A   1      32.848  28.317  25.612  1.00  0.00    -0.377 OA
BRANCH  30  31
ATOM     31  C   UNL A   1      33.050  29.075  26.768  1.00  0.00     0.188 C 
BRANCH  31  32
ATOM     32  C   UNL A   1      31.958  30.122  27.000  1.00  0.00     0.188 C 
BRANCH  32  33
ATOM     33  O   UNL A   1      32.200  31.521  26.827  1.00  0.00    -0.376 OA
BRANCH  33  34
ATOM     34  C   UNL A   1      33.172  32.199  27.611  1.00  0.00     0.202 C 
BRANCH  34  35
ATOM     35  C   UNL A   1      32.957  33.700  27.889  1.00  0.00     0.261 C 
BRANCH  35  36
ATOM     36  O   UNL A   1      34.084  34.346  28.485  1.00  0.00    -0.460 OA
BRANCH  36  37
ATOM     37  C   UNL A   1      34.121  34.439  29.843  1.00  0.00     0.338 C 
ATOM     38  O   UNL A   1      33.208  34.655  30.599  1.00  0.00    -0.246 OA
BRANCH  37  39
ATOM     39  C   UNL A   1      35.443  33.891  30.235  1.00  0.00     0.060 A 
ATOM     40  C   UNL A   1      35.968  34.116  31.511  1.00  0.00     0.016 A 
ATOM     41  C   UNL A   1      36.268  33.467  29.184  1.00  0.00     0.016 A 
ATOM     42  C   UNL A   1      37.350  34.076  31.681  1.00  0.00     0.010 A 
ATOM     43  C   UNL A   1      37.652  33.435  29.357  1.00  0.00     0.010 A 
ATOM     44  C   UNL A   1      38.200  33.794  30.590  1.00  0.00    -0.014 A 
BRANCH  44  45
ATOM     45  C   UNL A   1      39.626  33.600  30.882  1.00  0.00     0.031 A 
ATOM     46  C   UNL A   1      39.840  32.407  31.744  1.00  0.00     0.074 A 
ATOM     47  C   UNL A   1      40.702  34.221  30.351  1.00  0.00     0.049 A 
ATOM     48  N   UNL A   1      40.384  32.346  32.915  1.00  0.00    -0.248 NA
ATOM     49  C   UNL A   1      39.236  31.147  31.280  1.00  0.00     0.031 C 
ATOM     50  C   UNL A   1      40.748  35.198  29.266  1.00  0.00     0.029 A 
ATOM     51  N   UNL A   1      42.030  34.007  30.631  1.00  0.00    -0.354 N 
ATOM     52  C   UNL A   1      40.338  31.001  33.265  1.00  0.00     0.074 A 
ATOM     53  C   UNL A   1      39.487  30.342  32.309  1.00  0.00     0.031 C 
ATOM     54  C   UNL A   1      42.030  35.337  28.847  1.00  0.00     0.029 A 
ATOM     55  C   UNL A   1      42.907  34.534  29.689  1.00  0.00     0.049 A 
ATOM     56  H   UNL A   1      42.336  33.520  31.431  1.00  0.00     0.167 HD
ATOM     57  C   UNL A   1      41.189  30.462  34.173  1.00  0.00     0.037 A 
ATOM     58  C   UNL A   1      44.237  34.280  29.567  1.00  0.00     0.037 A 
ATOM     59  C   UNL A   1      41.760  31.447  35.048  1.00  0.00     0.049 A 
ATOM     60  C   UNL A   1      44.719  33.695  30.841  1.00  0.00     0.074 A 
ATOM     61  C   UNL A   1      41.249  32.398  35.913  1.00  0.00     0.029 A 
ATOM     62  N   UNL A   1      43.083  31.768  34.892  1.00  0.00    -0.354 N 
ATOM     63  N   UNL A   1      44.906  34.363  31.941  1.00  0.00    -0.248 NA
ATOM     64  C   UNL A   1      44.688  32.247  30.990  1.00  0.00     0.031 C 
ATOM     65  C   UNL A   1      42.160  33.493  35.846  1.00  0.00     0.029 A 
ATOM     66  C   UNL A   1      43.173  33.134  34.958  1.00  0.00     0.049 A 
ATOM     67  H   UNL A   1      43.828  31.138  34.758  1.00  0.00     0.167 HD
ATOM     68  C   UNL A   1      44.575  33.473  32.950  1.00  0.00     0.074 A 
ATOM     69  C   UNL A   1      44.576  32.160  32.317  1.00  0.00     0.031 C 
ATOM     70  C   UNL A   1      44.056  33.918  34.131  1.00  0.00     0.037 A 
BRANCH  57  71
ATOM     71  C   UNL A   1      41.767  29.084  33.994  1.00  0.00     0.057 A 
ATOM     72  C   UNL A   1      42.555  28.708  32.883  1.00  0.00     0.134 A 
ATOM     73  C   UNL A   1      41.784  28.191  35.074  1.00  0.00     0.134 A 
ATOM     74  F   UNL A   1      42.735  29.512  31.827  1.00  0.00    -0.206 F 
ATOM     75  C   UNL A   1      43.291  27.525  32.842  1.00  0.00     0.040 A 
ATOM     76  C   UNL A   1      42.566  27.030  35.068  1.00  0.00     0.040 A 
ATOM     77  F   UNL A   1      41.106  28.463  36.199  1.00  0.00    -0.206 F 
ATOM     78  C   UNL A   1      43.322  26.694  33.950  1.00  0.00     0.006 A 
ENDBRANCH  57  71
BRANCH  58  79
ATOM     79  C   UNL A   1      45.121  34.331  28.375  1.00  0.00     0.057 A 
ATOM     80  C   UNL A   1      44.968  33.436  27.304  1.00  0.00     0.134 A 
ATOM     81  C   UNL A   1      46.303  35.092  28.368  1.00  0.00     0.134 A 
ATOM     82  F   UNL A   1      43.926  32.596  27.248  1.00  0.00    -0.206 F 
ATOM     83  C   UNL A   1      45.925  33.301  26.292  1.00  0.00     0.040 A 
ATOM     84  C   UNL A   1      47.277  34.957  27.369  1.00  0.00     0.040 A 
ATOM     85  F   UNL A   1      46.575  35.946  29.366  1.00  0.00    -0.206 F 
ATOM     86  C   UNL A   1      47.093  34.053  26.329  1.00  0.00     0.006 A 
ENDBRANCH  58  79
BRANCH  70  87
ATOM     87  C   UNL A   1      44.188  35.381  34.438  1.00  0.00     0.057 A 
ATOM     88  C   UNL A   1      45.202  35.797  35.308  1.00  0.00     0.134 A 
ATOM     89  C   UNL A   1      43.307  36.368  33.970  1.00  0.00     0.134 A 
ATOM     90  F   UNL A   1      46.045  34.900  35.844  1.00  0.00    -0.206 F 
ATOM     91  C   UNL A   1      45.358  37.136  35.671  1.00  0.00     0.040 A 
ATOM     92  C   UNL A   1      43.478  37.717  34.291  1.00  0.00     0.040 A 
ATOM     93  F   UNL A   1      42.238  36.052  33.224  1.00  0.00    -0.206 F 
ATOM     94  C   UNL A   1      44.506  38.104  35.146  1.00  0.00     0.006 A 
ENDBRANCH  70  87
ENDBRANCH  44  45
ENDBRANCH  37  39
ENDBRANCH  36  37
ENDBRANCH  35  36
ENDBRANCH  34  35
ENDBRANCH  33  34
ENDBRANCH  32  33
ENDBRANCH  31  32
ENDBRANCH  30  31
ENDBRANCH   1  30
TORSDOF 24
ENDMDL
