MODEL 1
REMARK VINA RESULT:     -11.0      0.000      0.000
REMARK SMILES COc1ccc(-n2ccnc2C[N@@H+]2Cc3[nH]cnc3C[C@@H]2C(=O)OCCOCCOCCOCCOC(=O)c2ccc(-c3c4nc(c(-c5c(F)cccc5F)c5ccc([nH]5)c(-c5c(F)cccc5F)c5nc(c(-c6c(F)cccc6F)c6ccc3[nH]6)C=C5)C=C4)cc2)cc1
REMARK SMILES IDX 29 1 28 2 27 3 26 4 25 5 24 6 22 7 23 8 21 9 13 10 14 11
REMARK SMILES IDX 15 13 20 14 16 15 19 16 17 17 18 19 12 20 11 21 7 22 8 23
REMARK SMILES IDX 9 24 10 25 6 26 3 27 4 28 94 29 5 30 93 31 2 32 1 33 30 34
REMARK SMILES IDX 31 35 32 36 33 37 34 38 35 39 36 40 37 41 38 42 39 43 40 44
REMARK SMILES IDX 92 45 41 46 91 47 42 48 43 49 44 50 85 51 45 52 90 53 84 54
REMARK SMILES IDX 86 55 46 56 89 57 83 58 82 59 47 61 73 62 56 63 72 64 57 65
REMARK SMILES IDX 60 66 71 67 87 68 58 69 59 70 70 72 88 73 61 74 48 75 49 76
REMARK SMILES IDX 54 77 50 78 51 79 53 80 55 81 52 82 74 83 75 84 80 85 76 86
REMARK SMILES IDX 77 87 79 88 81 89 78 90 62 91 63 92 68 93 64 94 65 95 67 96
REMARK SMILES IDX 69 97 66 98
REMARK H PARENT 13 12 16 18 86 60 60 71
REMARK Flexibility Score: inf
ROOT
ATOM      1  C   UNL A   1      39.421  22.700  26.558  1.00  0.00     0.188 C 
ENDROOT
BRANCH   1   2
ATOM      2  C   UNL A   1      38.129  22.723  25.743  1.00  0.00     0.188 C 
BRANCH   2   3
ATOM      3  O   UNL A   1      37.056  23.503  26.242  1.00  0.00    -0.376 OA
BRANCH   3   4
ATOM      4  C   UNL A   1      35.929  23.700  25.395  1.00  0.00     0.202 C 
BRANCH   4   5
ATOM      5  C   UNL A   1      36.048  23.466  23.875  1.00  0.00     0.261 C 
BRANCH   5   6
ATOM      6  O   UNL A   1      35.106  22.542  23.260  1.00  0.00    -0.459 OA
BRANCH   6   7
ATOM      7  C   UNL A   1      33.937  23.093  22.869  1.00  0.00     0.365 C 
ATOM      8  O   UNL A   1      33.866  23.808  21.862  1.00  0.00    -0.245 OA
BRANCH   7   9
ATOM      9  C   UNL A   1      32.653  22.824  23.662  1.00  0.00     0.301 C 
ATOM     10  N   UNL A   1      31.720  23.887  24.274  1.00  0.00    -0.312 N 
ATOM     11  C   UNL A   1      30.875  23.261  25.324  1.00  0.00     0.320 C 
ATOM     12  H   UNL A   1      31.214  24.190  23.442  1.00  0.00     0.349 HD
ATOM     13  C   UNL A   1      31.776  22.627  26.307  1.00  0.00     0.093 A 
ATOM     14  C   UNL A   1      32.934  21.494  24.486  1.00  0.00     0.136 C 
ATOM     15  N   UNL A   1      32.013  22.866  27.622  1.00  0.00    -0.344 N 
ATOM     16  C   UNL A   1      32.770  21.777  25.918  1.00  0.00     0.074 A 
ATOM     17  C   UNL A   1      33.113  22.124  27.971  1.00  0.00     0.197 A 
ATOM     18  H   UNL A   1      31.494  23.458  28.213  1.00  0.00     0.167 HD
ATOM     19  N   UNL A   1      33.594  21.450  26.948  1.00  0.00    -0.241 NA
BRANCH  10  20
ATOM     20  C   UNL A   1      32.234  25.194  24.748  1.00  0.00     0.340 C 
BRANCH  20  21
ATOM     21  C   UNL A   1      31.885  26.333  23.761  1.00  0.00     0.168 A 
ATOM     22  N   UNL A   1      31.859  27.708  24.048  1.00  0.00    -0.299 N 
ATOM     23  C   UNL A   1      31.095  28.299  23.065  1.00  0.00     0.113 A 
ATOM     24  C   UNL A   1      30.846  27.317  22.142  1.00  0.00     0.132 A 
ATOM     25  N   UNL A   1      31.348  26.119  22.566  1.00  0.00    -0.236 NA
BRANCH  22  26
ATOM     26  C   UNL A   1      32.444  28.432  25.117  1.00  0.00     0.047 A 
ATOM     27  C   UNL A   1      33.631  29.890  27.205  1.00  0.00     0.119 A 
ATOM     28  C   UNL A   1      34.369  28.974  26.454  1.00  0.00     0.048 A 
ATOM     29  C   UNL A   1      32.295  30.111  26.885  1.00  0.00     0.048 A 
ATOM     30  C   UNL A   1      33.786  28.231  25.424  1.00  0.00     0.030 A 
ATOM     31  C   UNL A   1      31.706  29.403  25.820  1.00  0.00     0.030 A 
BRANCH  27  32
ATOM     32  O   UNL A   1      34.349  30.550  28.160  1.00  0.00    -0.497 OA
ATOM     33  C   UNL A   1      34.674  31.909  27.891  1.00  0.00     0.278 C 
ENDBRANCH  27  32
ENDBRANCH  22  26
ENDBRANCH  20  21
ENDBRANCH  10  20
ENDBRANCH   7   9
ENDBRANCH   6   7
ENDBRANCH   5   6
ENDBRANCH   4   5
ENDBRANCH   3   4
ENDBRANCH   2   3
ENDBRANCH   1   2
BRANCH   1  34
ATOM     34  O   UNL A   1      39.792  21.445  27.111  1.00  0.00    -0.377 OA
BRANCH  34  35
ATOM     35  C   UNL A   1      40.893  20.715  26.573  1.00  0.00     0.188 C 
BRANCH  35  36
ATOM     36  C   UNL A   1      40.653  19.288  26.070  1.00  0.00     0.188 C 
BRANCH  36  37
ATOM     37  O   UNL A   1      41.779  18.511  25.638  1.00  0.00    -0.376 OA
BRANCH  37  38
ATOM     38  C   UNL A   1      42.940  18.421  26.464  1.00  0.00     0.202 C 
BRANCH  38  39
ATOM     39  C   UNL A   1      44.224  18.578  25.689  1.00  0.00     0.261 C 
BRANCH  39  40
ATOM     40  O   UNL A   1      44.420  19.965  25.497  1.00  0.00    -0.460 OA
BRANCH  40  41
ATOM     41  C   UNL A   1      44.692  20.332  24.223  1.00  0.00     0.338 C 
ATOM     42  O   UNL A   1      44.695  19.636  23.232  1.00  0.00    -0.246 OA
BRANCH  41  43
ATOM     43  C   UNL A   1      45.254  21.689  24.303  1.00  0.00     0.060 A 
ATOM     44  C   UNL A   1      46.017  21.847  25.454  1.00  0.00     0.016 A 
ATOM     45  C   UNL A   1      44.501  22.734  23.738  1.00  0.00     0.016 A 
ATOM     46  C   UNL A   1      45.690  22.902  26.261  1.00  0.00     0.010 A 
ATOM     47  C   UNL A   1      44.150  23.773  24.559  1.00  0.00     0.010 A 
ATOM     48  C   UNL A   1      44.687  23.789  25.842  1.00  0.00    -0.014 A 
BRANCH  48  49
ATOM     49  C   UNL A   1      44.438  24.921  26.695  1.00  0.00     0.031 A 
ATOM     50  C   UNL A   1      45.552  25.880  26.563  1.00  0.00     0.074 A 
ATOM     51  C   UNL A   1      43.340  25.087  27.447  1.00  0.00     0.049 A 
ATOM     52  N   UNL A   1      46.513  26.051  27.406  1.00  0.00    -0.248 NA
ATOM     53  C   UNL A   1      45.798  26.471  25.235  1.00  0.00     0.031 C 
ATOM     54  C   UNL A   1      42.096  24.322  27.449  1.00  0.00     0.029 A 
ATOM     55  N   UNL A   1      43.094  26.085  28.335  1.00  0.00    -0.354 N 
ATOM     56  C   UNL A   1      47.357  26.969  26.801  1.00  0.00     0.074 A 
ATOM     57  C   UNL A   1      47.017  26.980  25.406  1.00  0.00     0.031 C 
ATOM     58  C   UNL A   1      41.150  25.026  28.119  1.00  0.00     0.029 A 
ATOM     59  C   UNL A   1      41.756  26.219  28.685  1.00  0.00     0.049 A 
ATOM     60  H   UNL A   1      43.802  26.664  28.699  1.00  0.00     0.167 HD
ATOM     61  C   UNL A   1      48.025  27.876  27.560  1.00  0.00     0.037 A 
ATOM     62  C   UNL A   1      41.227  27.309  29.300  1.00  0.00     0.037 A 
ATOM     63  C   UNL A   1      48.096  27.439  28.936  1.00  0.00     0.049 A 
ATOM     64  C   UNL A   1      42.356  28.050  29.936  1.00  0.00     0.074 A 
ATOM     65  C   UNL A   1      48.592  26.310  29.562  1.00  0.00     0.029 A 
ATOM     66  N   UNL A   1      47.227  28.016  29.831  1.00  0.00    -0.354 N 
ATOM     67  N   UNL A   1      43.017  27.603  30.968  1.00  0.00    -0.248 NA
ATOM     68  C   UNL A   1      43.068  29.024  29.117  1.00  0.00     0.031 C 
ATOM     69  C   UNL A   1      47.647  26.010  30.587  1.00  0.00     0.029 A 
ATOM     70  C   UNL A   1      46.678  27.012  30.587  1.00  0.00     0.049 A 
ATOM     71  H   UNL A   1      47.033  28.977  29.914  1.00  0.00     0.167 HD
ATOM     72  C   UNL A   1      44.348  27.872  30.677  1.00  0.00     0.074 A 
ATOM     73  C   UNL A   1      44.313  28.810  29.555  1.00  0.00     0.031 C 
ATOM     74  C   UNL A   1      45.353  27.083  31.161  1.00  0.00     0.037 A 
BRANCH  61  75
ATOM     75  C   UNL A   1      48.184  29.318  27.149  1.00  0.00     0.057 A 
ATOM     76  C   UNL A   1      49.447  29.913  27.283  1.00  0.00     0.134 A 
ATOM     77  C   UNL A   1      47.120  30.219  26.921  1.00  0.00     0.134 A 
ATOM     78  F   UNL A   1      50.538  29.166  27.510  1.00  0.00    -0.206 F 
ATOM     79  C   UNL A   1      49.624  31.300  27.285  1.00  0.00     0.040 A 
ATOM     80  C   UNL A   1      47.293  31.602  26.867  1.00  0.00     0.040 A 
ATOM     81  F   UNL A   1      45.840  29.839  26.838  1.00  0.00    -0.206 F 
ATOM     82  C   UNL A   1      48.542  32.150  27.087  1.00  0.00     0.006 A 
ENDBRANCH  61  75
BRANCH  62  83
ATOM     83  C   UNL A   1      39.897  27.928  29.094  1.00  0.00     0.057 A 
ATOM     84  C   UNL A   1      38.997  28.081  30.160  1.00  0.00     0.134 A 
ATOM     85  C   UNL A   1      39.578  28.631  27.919  1.00  0.00     0.134 A 
ATOM     86  F   UNL A   1      39.231  27.487  31.339  1.00  0.00    -0.206 F 
ATOM     87  C   UNL A   1      37.865  28.904  30.071  1.00  0.00     0.040 A 
ATOM     88  C   UNL A   1      38.449  29.449  27.814  1.00  0.00     0.040 A 
ATOM     89  F   UNL A   1      40.398  28.623  26.858  1.00  0.00    -0.206 F 
ATOM     90  C   UNL A   1      37.594  29.601  28.898  1.00  0.00     0.006 A 
ENDBRANCH  62  83
BRANCH  74  91
ATOM     91  C   UNL A   1      45.011  26.066  32.215  1.00  0.00     0.057 A 
ATOM     92  C   UNL A   1      44.561  24.762  31.950  1.00  0.00     0.134 A 
ATOM     93  C   UNL A   1      45.280  26.378  33.554  1.00  0.00     0.134 A 
ATOM     94  F   UNL A   1      44.385  24.331  30.694  1.00  0.00    -0.206 F 
ATOM     95  C   UNL A   1      44.334  23.838  32.973  1.00  0.00     0.040 A 
ATOM     96  C   UNL A   1      45.094  25.451  34.581  1.00  0.00     0.040 A 
ATOM     97  F   UNL A   1      45.770  27.584  33.881  1.00  0.00    -0.206 F 
ATOM     98  C   UNL A   1      44.605  24.180  34.295  1.00  0.00     0.006 A 
ENDBRANCH  74  91
ENDBRANCH  48  49
ENDBRANCH  41  43
ENDBRANCH  40  41
ENDBRANCH  39  40
ENDBRANCH  38  39
ENDBRANCH  37  38
ENDBRANCH  36  37
ENDBRANCH  35  36
ENDBRANCH  34  35
ENDBRANCH   1  34
TORSDOF 24
ENDMDL
MODEL 2
REMARK VINA RESULT:      -9.9      1.680      5.601
REMARK SMILES COc1ccc(-n2ccnc2C[N@@H+]2Cc3[nH]cnc3C[C@@H]2C(=O)OCCOCCOCCOCCOC(=O)c2ccc(-c3c4nc(c(-c5c(F)cccc5F)c5ccc([nH]5)c(-c5c(F)cccc5F)c5nc(c(-c6c(F)cccc6F)c6ccc3[nH]6)C=C5)C=C4)cc2)cc1
REMARK SMILES IDX 29 1 28 2 27 3 26 4 25 5 24 6 22 7 23 8 21 9 13 10 14 11
REMARK SMILES IDX 15 13 20 14 16 15 19 16 17 17 18 19 12 20 11 21 7 22 8 23
REMARK SMILES IDX 9 24 10 25 6 26 3 27 4 28 94 29 5 30 93 31 2 32 1 33 30 34
REMARK SMILES IDX 31 35 32 36 33 37 34 38 35 39 36 40 37 41 38 42 39 43 40 44
REMARK SMILES IDX 92 45 41 46 91 47 42 48 43 49 44 50 85 51 45 52 90 53 84 54
REMARK SMILES IDX 86 55 46 56 89 57 83 58 82 59 47 61 73 62 56 63 72 64 57 65
REMARK SMILES IDX 60 66 71 67 87 68 58 69 59 70 70 72 88 73 61 74 48 75 49 76
REMARK SMILES IDX 54 77 50 78 51 79 53 80 55 81 52 82 74 83 75 84 80 85 76 86
REMARK SMILES IDX 77 87 79 88 81 89 78 90 62 91 63 92 68 93 64 94 65 95 67 96
REMARK SMILES IDX 69 97 66 98
REMARK H PARENT 13 12 16 18 86 60 60 71
REMARK Flexibility Score: inf
ROOT
ATOM      1  C   UNL A   1      40.810  20.349  26.526  1.00  0.00     0.188 C 
ENDROOT
BRANCH   1   2
ATOM      2  C   UNL A   1      40.409  21.612  27.288  1.00  0.00     0.188 C 
BRANCH   2   3
ATOM      3  O   UNL A   1      39.311  22.354  26.788  1.00  0.00    -0.376 OA
BRANCH   3   4
ATOM      4  C   UNL A   1      38.720  21.925  25.567  1.00  0.00     0.202 C 
BRANCH   4   5
ATOM      5  C   UNL A   1      37.436  22.601  25.044  1.00  0.00     0.261 C 
BRANCH   5   6
ATOM      6  O   UNL A   1      36.579  21.827  24.158  1.00  0.00    -0.459 OA
BRANCH   6   7
ATOM      7  C   UNL A   1      35.568  22.520  23.591  1.00  0.00     0.365 C 
ATOM      8  O   UNL A   1      35.785  23.427  22.779  1.00  0.00    -0.245 OA
BRANCH   7   9
ATOM      9  C   UNL A   1      34.113  22.177  23.928  1.00  0.00     0.301 C 
ATOM     10  N   UNL A   1      32.931  23.165  23.972  1.00  0.00    -0.312 N 
ATOM     11  C   UNL A   1      31.820  22.575  24.762  1.00  0.00     0.320 C 
ATOM     12  H   UNL A   1      32.739  23.268  22.975  1.00  0.00     0.349 HD
ATOM     13  C   UNL A   1      32.352  22.228  26.095  1.00  0.00     0.093 A 
ATOM     14  C   UNL A   1      34.190  21.034  25.030  1.00  0.00     0.136 C 
ATOM     15  N   UNL A   1      32.070  22.683  27.342  1.00  0.00    -0.344 N 
ATOM     16  C   UNL A   1      33.490  21.489  26.238  1.00  0.00     0.074 A 
ATOM     17  C   UNL A   1      33.027  22.171  28.181  1.00  0.00     0.197 A 
ATOM     18  H   UNL A   1      31.321  23.269  27.597  1.00  0.00     0.167 HD
ATOM     19  N   UNL A   1      33.907  21.438  27.531  1.00  0.00    -0.241 NA
BRANCH  10  20
ATOM     20  C   UNL A   1      33.119  24.588  24.342  1.00  0.00     0.340 C 
BRANCH  20  21
ATOM     21  C   UNL A   1      32.686  25.534  23.198  1.00  0.00     0.168 A 
ATOM     22  N   UNL A   1      32.308  26.881  23.327  1.00  0.00    -0.299 N 
ATOM     23  C   UNL A   1      31.597  27.198  22.188  1.00  0.00     0.113 A 
ATOM     24  C   UNL A   1      31.725  26.120  21.354  1.00  0.00     0.132 A 
ATOM     25  N   UNL A   1      32.407  25.110  21.971  1.00  0.00    -0.236 NA
BRANCH  22  26
ATOM     26  C   UNL A   1      32.538  27.801  24.380  1.00  0.00     0.047 A 
ATOM     27  C   UNL A   1      32.965  29.598  26.497  1.00  0.00     0.119 A 
ATOM     28  C   UNL A   1      31.721  29.503  25.870  1.00  0.00     0.048 A 
ATOM     29  C   UNL A   1      33.997  28.759  26.089  1.00  0.00     0.048 A 
ATOM     30  C   UNL A   1      31.501  28.624  24.806  1.00  0.00     0.030 A 
ATOM     31  C   UNL A   1      33.777  27.836  25.049  1.00  0.00     0.030 A 
BRANCH  27  32
ATOM     32  O   UNL A   1      33.012  30.487  27.532  1.00  0.00    -0.497 OA
ATOM     33  C   UNL A   1      34.162  31.320  27.608  1.00  0.00     0.278 C 
ENDBRANCH  27  32
ENDBRANCH  22  26
ENDBRANCH  20  21
ENDBRANCH  10  20
ENDBRANCH   7   9
ENDBRANCH   6   7
ENDBRANCH   5   6
ENDBRANCH   4   5
ENDBRANCH   3   4
ENDBRANCH   2   3
ENDBRANCH   1   2
BRANCH   1  34
ATOM     34  O   UNL A   1      41.830  19.556  27.119  1.00  0.00    -0.377 OA
BRANCH  34  35
ATOM     35  C   UNL A   1      42.357  18.423  26.431  1.00  0.00     0.188 C 
BRANCH  35  36
ATOM     36  C   UNL A   1      43.877  18.282  26.305  1.00  0.00     0.188 C 
BRANCH  36  37
ATOM     37  O   UNL A   1      44.516  18.744  25.107  1.00  0.00    -0.376 OA
BRANCH  37  38
ATOM     38  C   UNL A   1      45.940  18.779  25.028  1.00  0.00     0.202 C 
BRANCH  38  39
ATOM     39  C   UNL A   1      46.474  20.142  24.669  1.00  0.00     0.261 C 
BRANCH  39  40
ATOM     40  O   UNL A   1      45.372  20.914  24.235  1.00  0.00    -0.460 OA
BRANCH  40  41
ATOM     41  C   UNL A   1      45.537  22.253  24.339  1.00  0.00     0.338 C 
ATOM     42  O   UNL A   1      46.536  22.900  24.117  1.00  0.00    -0.246 OA
BRANCH  41  43
ATOM     43  C   UNL A   1      44.343  22.755  25.037  1.00  0.00     0.060 A 
ATOM     44  C   UNL A   1      44.143  24.106  24.776  1.00  0.00     0.016 A 
ATOM     45  C   UNL A   1      44.017  22.160  26.269  1.00  0.00     0.016 A 
ATOM     46  C   UNL A   1      44.025  24.925  25.865  1.00  0.00     0.010 A 
ATOM     47  C   UNL A   1      43.931  22.982  27.362  1.00  0.00     0.010 A 
ATOM     48  C   UNL A   1      44.024  24.352  27.146  1.00  0.00    -0.014 A 
BRANCH  48  49
ATOM     49  C   UNL A   1      43.822  25.254  28.249  1.00  0.00     0.031 A 
ATOM     50  C   UNL A   1      42.499  25.894  28.113  1.00  0.00     0.074 A 
ATOM     51  C   UNL A   1      44.686  25.437  29.258  1.00  0.00     0.049 A 
ATOM     52  N   UNL A   1      42.272  27.094  27.701  1.00  0.00    -0.248 NA
ATOM     53  C   UNL A   1      41.309  25.024  28.131  1.00  0.00     0.031 C 
ATOM     54  C   UNL A   1      45.886  24.677  29.597  1.00  0.00     0.029 A 
ATOM     55  N   UNL A   1      44.590  26.336  30.272  1.00  0.00    -0.354 N 
ATOM     56  C   UNL A   1      40.891  27.197  27.646  1.00  0.00     0.074 A 
ATOM     57  C   UNL A   1      40.380  25.855  27.659  1.00  0.00     0.031 C 
ATOM     58  C   UNL A   1      46.264  24.995  30.860  1.00  0.00     0.029 A 
ATOM     59  C   UNL A   1      45.409  26.058  31.359  1.00  0.00     0.049 A 
ATOM     60  H   UNL A   1      43.990  27.116  30.239  1.00  0.00     0.167 HD
ATOM     61  C   UNL A   1      40.289  28.379  27.936  1.00  0.00     0.037 A 
ATOM     62  C   UNL A   1      45.270  26.618  32.589  1.00  0.00     0.037 A 
ATOM     63  C   UNL A   1      41.224  29.474  27.813  1.00  0.00     0.049 A 
ATOM     64  C   UNL A   1      44.466  27.864  32.420  1.00  0.00     0.074 A 
ATOM     65  C   UNL A   1      42.021  29.947  26.786  1.00  0.00     0.029 A 
ATOM     66  N   UNL A   1      41.758  29.988  28.971  1.00  0.00    -0.354 N 
ATOM     67  N   UNL A   1      44.913  28.932  31.819  1.00  0.00    -0.248 NA
ATOM     68  C   UNL A   1      43.014  27.739  32.462  1.00  0.00     0.031 C 
ATOM     69  C   UNL A   1      43.251  30.314  27.410  1.00  0.00     0.029 A 
ATOM     70  C   UNL A   1      43.110  30.127  28.784  1.00  0.00     0.049 A 
ATOM     71  H   UNL A   1      41.259  30.215  29.789  1.00  0.00     0.167 HD
ATOM     72  C   UNL A   1      43.856  29.360  31.027  1.00  0.00     0.074 A 
ATOM     73  C   UNL A   1      42.690  28.626  31.515  1.00  0.00     0.031 C 
ATOM     74  C   UNL A   1      44.074  30.030  29.856  1.00  0.00     0.037 A 
BRANCH  61  75
ATOM     75  C   UNL A   1      39.029  28.469  28.759  1.00  0.00     0.057 A 
ATOM     76  C   UNL A   1      37.970  29.250  28.272  1.00  0.00     0.134 A 
ATOM     77  C   UNL A   1      38.913  28.083  30.113  1.00  0.00     0.134 A 
ATOM     78  F   UNL A   1      37.965  29.686  27.003  1.00  0.00    -0.206 F 
ATOM     79  C   UNL A   1      36.929  29.693  29.093  1.00  0.00     0.040 A 
ATOM     80  C   UNL A   1      37.851  28.475  30.927  1.00  0.00     0.040 A 
ATOM     81  F   UNL A   1      39.859  27.398  30.765  1.00  0.00    -0.206 F 
ATOM     82  C   UNL A   1      36.873  29.314  30.429  1.00  0.00     0.006 A 
ENDBRANCH  61  75
BRANCH  62  83
ATOM     83  C   UNL A   1      45.484  25.994  33.915  1.00  0.00     0.057 A 
ATOM     84  C   UNL A   1      46.409  26.527  34.826  1.00  0.00     0.134 A 
ATOM     85  C   UNL A   1      44.600  25.031  34.434  1.00  0.00     0.134 A 
ATOM     86  F   UNL A   1      47.268  27.482  34.443  1.00  0.00    -0.206 F 
ATOM     87  C   UNL A   1      46.435  26.145  36.175  1.00  0.00     0.040 A 
ATOM     88  C   UNL A   1      44.620  24.636  35.775  1.00  0.00     0.040 A 
ATOM     89  F   UNL A   1      43.624  24.504  33.681  1.00  0.00    -0.206 F 
ATOM     90  C   UNL A   1      45.530  25.204  36.656  1.00  0.00     0.006 A 
ENDBRANCH  62  83
BRANCH  74  91
ATOM     91  C   UNL A   1      45.468  30.515  29.565  1.00  0.00     0.057 A 
ATOM     92  C   UNL A   1      46.471  29.741  28.958  1.00  0.00     0.134 A 
ATOM     93  C   UNL A   1      45.763  31.865  29.785  1.00  0.00     0.134 A 
ATOM     94  F   UNL A   1      46.247  28.469  28.603  1.00  0.00    -0.206 F 
ATOM     95  C   UNL A   1      47.725  30.273  28.644  1.00  0.00     0.040 A 
ATOM     96  C   UNL A   1      46.998  32.419  29.439  1.00  0.00     0.040 A 
ATOM     97  F   UNL A   1      44.836  32.683  30.305  1.00  0.00    -0.206 F 
ATOM     98  C   UNL A   1      47.990  31.619  28.880  1.00  0.00     0.006 A 
ENDBRANCH  74  91
ENDBRANCH  48  49
ENDBRANCH  41  43
ENDBRANCH  40  41
ENDBRANCH  39  40
ENDBRANCH  38  39
ENDBRANCH  37  38
ENDBRANCH  36  37
ENDBRANCH  35  36
ENDBRANCH  34  35
ENDBRANCH   1  34
TORSDOF 24
ENDMDL
MODEL 3
REMARK VINA RESULT:      -9.7      3.670      7.567
REMARK SMILES COc1ccc(-n2ccnc2C[N@@H+]2Cc3[nH]cnc3C[C@@H]2C(=O)OCCOCCOCCOCCOC(=O)c2ccc(-c3c4nc(c(-c5c(F)cccc5F)c5ccc([nH]5)c(-c5c(F)cccc5F)c5nc(c(-c6c(F)cccc6F)c6ccc3[nH]6)C=C5)C=C4)cc2)cc1
REMARK SMILES IDX 29 1 28 2 27 3 26 4 25 5 24 6 22 7 23 8 21 9 13 10 14 11
REMARK SMILES IDX 15 13 20 14 16 15 19 16 17 17 18 19 12 20 11 21 7 22 8 23
REMARK SMILES IDX 9 24 10 25 6 26 3 27 4 28 94 29 5 30 93 31 2 32 1 33 30 34
REMARK SMILES IDX 31 35 32 36 33 37 34 38 35 39 36 40 37 41 38 42 39 43 40 44
REMARK SMILES IDX 92 45 41 46 91 47 42 48 43 49 44 50 85 51 45 52 90 53 84 54
REMARK SMILES IDX 86 55 46 56 89 57 83 58 82 59 47 61 73 62 56 63 72 64 57 65
REMARK SMILES IDX 60 66 71 67 87 68 58 69 59 70 70 72 88 73 61 74 48 75 49 76
REMARK SMILES IDX 54 77 50 78 51 79 53 80 55 81 52 82 74 83 75 84 80 85 76 86
REMARK SMILES IDX 77 87 79 88 81 89 78 90 62 91 63 92 68 93 64 94 65 95 67 96
REMARK SMILES IDX 69 97 66 98
REMARK H PARENT 13 12 16 18 86 60 60 71
REMARK Flexibility Score: inf
ROOT
ATOM      1  C   UNL A   1      41.131  20.500  26.248  1.00  0.00     0.188 C 
ENDROOT
BRANCH   1   2
ATOM      2  C   UNL A   1      40.477  21.458  27.242  1.00  0.00     0.188 C 
BRANCH   2   3
ATOM      3  O   UNL A   1      39.295  22.121  26.828  1.00  0.00    -0.376 OA
BRANCH   3   4
ATOM      4  C   UNL A   1      38.636  21.638  25.663  1.00  0.00     0.202 C 
BRANCH   4   5
ATOM      5  C   UNL A   1      37.557  22.494  24.969  1.00  0.00     0.261 C 
BRANCH   5   6
ATOM      6  O   UNL A   1      36.633  21.816  24.072  1.00  0.00    -0.459 OA
BRANCH   6   7
ATOM      7  C   UNL A   1      35.653  22.595  23.565  1.00  0.00     0.365 C 
ATOM      8  O   UNL A   1      35.910  23.558  22.831  1.00  0.00    -0.245 OA
BRANCH   7   9
ATOM      9  C   UNL A   1      34.184  22.286  23.872  1.00  0.00     0.301 C 
ATOM     10  N   UNL A   1      33.036  23.311  23.957  1.00  0.00    -0.312 N 
ATOM     11  C   UNL A   1      31.897  22.720  24.707  1.00  0.00     0.320 C 
ATOM     12  H   UNL A   1      32.857  23.472  22.966  1.00  0.00     0.349 HD
ATOM     13  C   UNL A   1      32.404  22.287  26.024  1.00  0.00     0.093 A 
ATOM     14  C   UNL A   1      34.210  21.086  24.914  1.00  0.00     0.136 C 
ATOM     15  N   UNL A   1      32.126  22.686  27.291  1.00  0.00    -0.344 N 
ATOM     16  C   UNL A   1      33.514  21.502  26.138  1.00  0.00     0.074 A 
ATOM     17  C   UNL A   1      33.057  22.098  28.110  1.00  0.00     0.197 A 
ATOM     18  H   UNL A   1      31.394  23.284  27.570  1.00  0.00     0.167 HD
ATOM     19  N   UNL A   1      33.917  21.371  27.430  1.00  0.00    -0.241 NA
BRANCH  10  20
ATOM     20  C   UNL A   1      33.268  24.705  24.402  1.00  0.00     0.340 C 
BRANCH  20  21
ATOM     21  C   UNL A   1      32.708  25.727  23.385  1.00  0.00     0.168 A 
ATOM     22  N   UNL A   1      32.326  27.051  23.655  1.00  0.00    -0.299 N 
ATOM     23  C   UNL A   1      31.500  27.439  22.622  1.00  0.00     0.113 A 
ATOM     24  C   UNL A   1      31.558  26.430  21.697  1.00  0.00     0.132 A 
ATOM     25  N   UNL A   1      32.314  25.392  22.161  1.00  0.00    -0.236 NA
BRANCH  22  26
ATOM     26  C   UNL A   1      32.648  27.892  24.750  1.00  0.00     0.047 A 
ATOM     27  C   UNL A   1      33.322  29.578  26.894  1.00  0.00     0.119 A 
ATOM     28  C   UNL A   1      34.174  28.549  26.489  1.00  0.00     0.048 A 
ATOM     29  C   UNL A   1      32.138  29.794  26.196  1.00  0.00     0.048 A 
ATOM     30  C   UNL A   1      33.843  27.694  25.434  1.00  0.00     0.030 A 
ATOM     31  C   UNL A   1      31.812  28.970  25.102  1.00  0.00     0.030 A 
BRANCH  27  32
ATOM     32  O   UNL A   1      33.799  30.337  27.923  1.00  0.00    -0.497 OA
ATOM     33  C   UNL A   1      34.139  31.685  27.621  1.00  0.00     0.278 C 
ENDBRANCH  27  32
ENDBRANCH  22  26
ENDBRANCH  20  21
ENDBRANCH  10  20
ENDBRANCH   7   9
ENDBRANCH   6   7
ENDBRANCH   5   6
ENDBRANCH   4   5
ENDBRANCH   3   4
ENDBRANCH   2   3
ENDBRANCH   1   2
BRANCH   1  34
ATOM     34  O   UNL A   1      42.541  20.356  26.349  1.00  0.00    -0.377 OA
BRANCH  34  35
ATOM     35  C   UNL A   1      43.406  21.072  25.470  1.00  0.00     0.188 C 
BRANCH  35  36
ATOM     36  C   UNL A   1      44.088  22.344  25.983  1.00  0.00     0.188 C 
BRANCH  36  37
ATOM     37  O   UNL A   1      43.921  22.708  27.361  1.00  0.00    -0.376 OA
BRANCH  37  38
ATOM     38  C   UNL A   1      42.972  23.711  27.722  1.00  0.00     0.202 C 
BRANCH  38  39
ATOM     39  C   UNL A   1      43.067  24.944  26.860  1.00  0.00     0.261 C 
BRANCH  39  40
ATOM     40  O   UNL A   1      41.767  25.204  26.371  1.00  0.00    -0.460 OA
BRANCH  40  41
ATOM     41  C   UNL A   1      41.618  26.398  25.752  1.00  0.00     0.338 C 
ATOM     42  O   UNL A   1      42.316  26.882  24.889  1.00  0.00    -0.246 OA
BRANCH  41  43
ATOM     43  C   UNL A   1      40.594  27.126  26.517  1.00  0.00     0.060 A 
ATOM     44  C   UNL A   1      40.786  28.500  26.426  1.00  0.00     0.016 A 
ATOM     45  C   UNL A   1      40.082  26.502  27.668  1.00  0.00     0.016 A 
ATOM     46  C   UNL A   1      40.872  29.182  27.608  1.00  0.00     0.010 A 
ATOM     47  C   UNL A   1      40.199  27.177  28.854  1.00  0.00     0.010 A 
ATOM     48  C   UNL A   1      40.677  28.482  28.809  1.00  0.00    -0.014 A 
BRANCH  48  49
ATOM     49  C   UNL A   1      40.705  29.265  30.016  1.00  0.00     0.031 A 
ATOM     50  C   UNL A   1      39.458  30.048  30.114  1.00  0.00     0.074 A 
ATOM     51  C   UNL A   1      41.692  29.238  30.923  1.00  0.00     0.049 A 
ATOM     52  N   UNL A   1      39.326  31.305  29.860  1.00  0.00    -0.248 NA
ATOM     53  C   UNL A   1      38.185  29.308  30.188  1.00  0.00     0.031 C 
ATOM     54  C   UNL A   1      42.827  28.325  31.030  1.00  0.00     0.029 A 
ATOM     55  N   UNL A   1      41.814  30.018  32.029  1.00  0.00    -0.354 N 
ATOM     56  C   UNL A   1      37.969  31.554  29.988  1.00  0.00     0.074 A 
ATOM     57  C   UNL A   1      37.312  30.279  29.925  1.00  0.00     0.031 C 
ATOM     58  C   UNL A   1      43.379  28.453  32.262  1.00  0.00     0.029 A 
ATOM     59  C   UNL A   1      42.713  29.532  32.971  1.00  0.00     0.049 A 
ATOM     60  H   UNL A   1      41.310  30.854  32.153  1.00  0.00     0.167 HD
ATOM     61  C   UNL A   1      37.544  32.749  30.472  1.00  0.00     0.037 A 
ATOM     62  C   UNL A   1      42.779  29.956  34.261  1.00  0.00     0.037 A 
ATOM     63  C   UNL A   1      38.580  33.750  30.348  1.00  0.00     0.049 A 
ATOM     64  C   UNL A   1      42.109  31.289  34.324  1.00  0.00     0.074 A 
ATOM     65  C   UNL A   1      39.306  34.256  29.286  1.00  0.00     0.029 A 
ATOM     66  N   UNL A   1      39.295  34.067  31.478  1.00  0.00    -0.354 N 
ATOM     67  N   UNL A   1      42.607  32.368  33.786  1.00  0.00    -0.248 NA
ATOM     68  C   UNL A   1      40.667  31.308  34.533  1.00  0.00     0.031 C 
ATOM     69  C   UNL A   1      40.631  34.420  29.787  1.00  0.00     0.029 A 
ATOM     70  C   UNL A   1      40.624  34.088  31.140  1.00  0.00     0.049 A 
ATOM     71  H   UNL A   1      38.921  34.247  32.371  1.00  0.00     0.167 HD
ATOM     72  C   UNL A   1      41.525  32.992  33.181  1.00  0.00     0.074 A 
ATOM     73  C   UNL A   1      40.343  32.328  33.731  1.00  0.00     0.031 C 
ATOM     74  C   UNL A   1      41.685  33.768  32.068  1.00  0.00     0.037 A 
BRANCH  61  75
ATOM     75  C   UNL A   1      36.402  32.870  31.450  1.00  0.00     0.057 A 
ATOM     76  C   UNL A   1      35.342  33.732  31.132  1.00  0.00     0.134 A 
ATOM     77  C   UNL A   1      36.432  32.428  32.791  1.00  0.00     0.134 A 
ATOM     78  F   UNL A   1      35.207  34.228  29.893  1.00  0.00    -0.206 F 
ATOM     79  C   UNL A   1      34.440  34.194  32.095  1.00  0.00     0.040 A 
ATOM     80  C   UNL A   1      35.504  32.839  33.748  1.00  0.00     0.040 A 
ATOM     81  F   UNL A   1      37.406  31.659  33.290  1.00  0.00    -0.206 F 
ATOM     82  C   UNL A   1      34.526  33.755  33.411  1.00  0.00     0.006 A 
ENDBRANCH  61  75
BRANCH  62  83
ATOM     83  C   UNL A   1      43.066  29.162  35.478  1.00  0.00     0.057 A 
ATOM     84  C   UNL A   1      42.386  27.962  35.737  1.00  0.00     0.134 A 
ATOM     85  C   UNL A   1      44.198  29.407  36.275  1.00  0.00     0.134 A 
ATOM     86  F   UNL A   1      41.318  27.613  35.004  1.00  0.00    -0.206 F 
ATOM     87  C   UNL A   1      42.820  27.051  36.711  1.00  0.00     0.040 A 
ATOM     88  C   UNL A   1      44.637  28.511  37.255  1.00  0.00     0.040 A 
ATOM     89  F   UNL A   1      44.973  30.482  36.073  1.00  0.00    -0.206 F 
ATOM     90  C   UNL A   1      43.957  27.320  37.466  1.00  0.00     0.006 A 
ENDBRANCH  62  83
BRANCH  74  91
ATOM     91  C   UNL A   1      43.084  34.139  31.658  1.00  0.00     0.057 A 
ATOM     92  C   UNL A   1      43.916  33.344  30.852  1.00  0.00     0.134 A 
ATOM     93  C   UNL A   1      43.558  35.416  31.982  1.00  0.00     0.134 A 
ATOM     94  F   UNL A   1      43.506  32.154  30.393  1.00  0.00    -0.206 F 
ATOM     95  C   UNL A   1      45.179  33.779  30.441  1.00  0.00     0.040 A 
ATOM     96  C   UNL A   1      44.801  35.877  31.546  1.00  0.00     0.040 A 
ATOM     97  F   UNL A   1      42.796  36.257  32.699  1.00  0.00    -0.206 F 
ATOM     98  C   UNL A   1      45.624  35.052  30.785  1.00  0.00     0.006 A 
ENDBRANCH  74  91
ENDBRANCH  48  49
ENDBRANCH  41  43
ENDBRANCH  40  41
ENDBRANCH  39  40
ENDBRANCH  38  39
ENDBRANCH  37  38
ENDBRANCH  36  37
ENDBRANCH  35  36
ENDBRANCH  34  35
ENDBRANCH   1  34
TORSDOF 24
ENDMDL
