MODEL 1
REMARK VINA RESULT:     -10.3      0.000      0.000
REMARK SMILES N#C/C(=C\c1ccc(Oc2ccccc2)cc1Cl)C(=O)OCCOCCOCCOCCOC(=O)c1ccc(-c2c3nc(c(-c4c(F)cccc4F)c4ccc([nH]4)c(-c4c(F)cccc4F)c4nc(c(-c5c(F)cccc5F)c5ccc2[nH]5)C=C4)C=C3)cc1
REMARK SMILES IDX 26 1 25 2 24 3 23 4 22 5 21 6 19 7 20 8 3 9 4 10 2 11 1 12
REMARK SMILES IDX 5 13 6 14 17 15 7 16 16 17 18 18 8 19 9 20 10 21 11 22 15 23
REMARK SMILES IDX 12 24 14 25 13 26 27 27 28 28 29 29 30 30 31 31 32 32 33 33
REMARK SMILES IDX 34 34 35 35 36 36 37 37 89 38 38 39 88 40 39 41 40 42 41 43
REMARK SMILES IDX 82 44 42 45 87 46 81 47 83 48 43 49 86 50 80 51 79 52 44 54
REMARK SMILES IDX 70 55 53 56 69 57 54 58 57 59 68 60 84 61 55 62 56 63 67 65
REMARK SMILES IDX 85 66 58 67 45 68 46 69 51 70 47 71 48 72 50 73 52 74 49 75
REMARK SMILES IDX 71 76 72 77 77 78 73 79 74 80 76 81 78 82 75 83 59 84 60 85
REMARK SMILES IDX 65 86 61 87 62 88 64 89 66 90 63 91
REMARK H PARENT 83 53 57 64
REMARK Flexibility Score: inf
ROOT
ATOM      1  C   UNL A   1      42.313  21.272  26.815  1.00  0.00     0.188 C 
ENDROOT
BRANCH   1   2
ATOM      2  C   UNL A   1      40.830  21.036  27.169  1.00  0.00     0.188 C 
BRANCH   2   3
ATOM      3  O   UNL A   1      39.910  22.112  27.241  1.00  0.00    -0.376 OA
BRANCH   3   4
ATOM      4  C   UNL A   1      38.960  22.456  26.242  1.00  0.00     0.202 C 
BRANCH   4   5
ATOM      5  C   UNL A   1      38.050  21.482  25.473  1.00  0.00     0.261 C 
BRANCH   5   6
ATOM      6  O   UNL A   1      36.995  22.083  24.738  1.00  0.00    -0.459 OA
BRANCH   6   7
ATOM      7  C   UNL A   1      35.877  21.337  24.690  1.00  0.00     0.348 C 
ATOM      8  O   UNL A   1      35.824  20.117  24.696  1.00  0.00    -0.245 OA
BRANCH   7   9
ATOM      9  C   UNL A   1      34.677  22.194  24.768  1.00  0.00     0.138 C 
ATOM     10  C   UNL A   1      34.281  22.648  25.984  1.00  0.00     0.036 C 
BRANCH   9  11
ATOM     11  C   UNL A   1      34.386  23.012  23.520  1.00  0.00     0.107 C 
ATOM     12  N   UNL A   1      34.145  23.691  22.485  1.00  0.00    -0.192 NA
ENDBRANCH   9  11
BRANCH  10  13
ATOM     13  C   UNL A   1      33.633  23.971  26.167  1.00  0.00    -0.005 A 
ATOM     14  C   UNL A   1      34.399  25.097  25.817  1.00  0.00     0.013 A 
ATOM     15  C   UNL A   1      32.290  24.177  26.524  1.00  0.00     0.052 A 
ATOM     16  C   UNL A   1      33.822  26.373  25.758  1.00  0.00     0.048 A 
ATOM     17  C   UNL A   1      31.698  25.439  26.384  1.00  0.00     0.068 A 
ATOM     18  Cl  UNL A   1      31.300  22.905  27.157  1.00  0.00    -0.084 Cl
ATOM     19  C   UNL A   1      32.461  26.548  26.010  1.00  0.00     0.128 A 
BRANCH  19  20
ATOM     20  O   UNL A   1      32.001  27.842  25.858  1.00  0.00    -0.457 OA
BRANCH  20  21
ATOM     21  C   UNL A   1      31.206  28.150  24.781  1.00  0.00     0.127 A 
ATOM     22  C   UNL A   1      30.735  27.098  23.994  1.00  0.00     0.047 A 
ATOM     23  C   UNL A   1      30.926  29.471  24.427  1.00  0.00     0.047 A 
ATOM     24  C   UNL A   1      29.909  27.366  22.901  1.00  0.00     0.004 A 
ATOM     25  C   UNL A   1      30.073  29.736  23.356  1.00  0.00     0.004 A 
ATOM     26  C   UNL A   1      29.560  28.683  22.597  1.00  0.00     0.000 A 
ENDBRANCH  20  21
ENDBRANCH  19  20
ENDBRANCH  10  13
ENDBRANCH   7   9
ENDBRANCH   6   7
ENDBRANCH   5   6
ENDBRANCH   4   5
ENDBRANCH   3   4
ENDBRANCH   2   3
ENDBRANCH   1   2
BRANCH   1  27
ATOM     27  O   UNL A   1      42.696  20.756  25.561  1.00  0.00    -0.377 OA
BRANCH  27  28
ATOM     28  C   UNL A   1      43.897  19.998  25.530  1.00  0.00     0.188 C 
BRANCH  28  29
ATOM     29  C   UNL A   1      44.798  20.034  24.272  1.00  0.00     0.188 C 
BRANCH  29  30
ATOM     30  O   UNL A   1      45.404  21.283  23.977  1.00  0.00    -0.376 OA
BRANCH  30  31
ATOM     31  C   UNL A   1      46.303  21.882  24.899  1.00  0.00     0.202 C 
BRANCH  31  32
ATOM     32  C   UNL A   1      46.121  23.369  25.257  1.00  0.00     0.261 C 
BRANCH  32  33
ATOM     33  O   UNL A   1      44.949  23.696  26.014  1.00  0.00    -0.460 OA
BRANCH  33  34
ATOM     34  C   UNL A   1      43.884  24.164  25.332  1.00  0.00     0.338 C 
ATOM     35  O   UNL A   1      43.463  23.769  24.258  1.00  0.00    -0.246 OA
BRANCH  34  36
ATOM     36  C   UNL A   1      43.176  25.117  26.206  1.00  0.00     0.060 A 
ATOM     37  C   UNL A   1      43.646  26.435  26.291  1.00  0.00     0.016 A 
ATOM     38  C   UNL A   1      42.046  24.719  26.924  1.00  0.00     0.016 A 
ATOM     39  C   UNL A   1      43.011  27.350  27.128  1.00  0.00     0.010 A 
ATOM     40  C   UNL A   1      41.427  25.628  27.785  1.00  0.00     0.010 A 
ATOM     41  C   UNL A   1      41.932  26.934  27.917  1.00  0.00    -0.014 A 
BRANCH  41  42
ATOM     42  C   UNL A   1      41.482  27.789  29.040  1.00  0.00     0.031 A 
ATOM     43  C   UNL A   1      42.235  27.704  30.339  1.00  0.00     0.074 A 
ATOM     44  C   UNL A   1      40.449  28.637  28.907  1.00  0.00     0.049 A 
ATOM     45  N   UNL A   1      42.007  28.308  31.475  1.00  0.00    -0.248 NA
ATOM     46  C   UNL A   1      43.405  26.809  30.354  1.00  0.00     0.031 C 
ATOM     47  C   UNL A   1      39.677  28.847  27.686  1.00  0.00     0.029 A 
ATOM     48  N   UNL A   1      39.871  29.478  29.824  1.00  0.00    -0.354 N 
ATOM     49  C   UNL A   1      42.994  27.859  32.343  1.00  0.00     0.074 A 
ATOM     50  C   UNL A   1      43.803  26.909  31.613  1.00  0.00     0.031 C 
ATOM     51  C   UNL A   1      38.714  29.752  27.932  1.00  0.00     0.029 A 
ATOM     52  C   UNL A   1      38.782  30.158  29.335  1.00  0.00     0.049 A 
ATOM     53  H   UNL A   1      40.204  29.584  30.744  1.00  0.00     0.167 HD
ATOM     54  C   UNL A   1      43.211  28.212  33.632  1.00  0.00     0.037 A 
ATOM     55  C   UNL A   1      37.928  30.990  29.962  1.00  0.00     0.037 A 
ATOM     56  C   UNL A   1      42.399  29.153  34.354  1.00  0.00     0.049 A 
ATOM     57  C   UNL A   1      38.137  31.300  31.421  1.00  0.00     0.074 A 
ATOM     58  C   UNL A   1      42.545  29.595  35.658  1.00  0.00     0.029 A 
ATOM     59  N   UNL A   1      41.279  29.788  33.839  1.00  0.00    -0.354 N 
ATOM     60  N   UNL A   1      39.085  30.892  32.230  1.00  0.00    -0.248 NA
ATOM     61  C   UNL A   1      37.153  32.190  32.056  1.00  0.00     0.031 C 
ATOM     62  C   UNL A   1      41.475  30.447  35.951  1.00  0.00     0.029 A 
ATOM     63  C   UNL A   1      40.703  30.592  34.809  1.00  0.00     0.049 A 
ATOM     64  H   UNL A   1      40.942  29.684  32.920  1.00  0.00     0.167 HD
ATOM     65  C   UNL A   1      38.834  31.501  33.454  1.00  0.00     0.074 A 
ATOM     66  C   UNL A   1      37.648  32.314  33.279  1.00  0.00     0.031 C 
ATOM     67  C   UNL A   1      39.524  31.401  34.618  1.00  0.00     0.037 A 
BRANCH  54  68
ATOM     68  C   UNL A   1      44.346  27.538  34.349  1.00  0.00     0.057 A 
ATOM     69  C   UNL A   1      45.634  28.088  34.391  1.00  0.00     0.134 A 
ATOM     70  C   UNL A   1      44.141  26.323  35.016  1.00  0.00     0.134 A 
ATOM     71  F   UNL A   1      45.904  29.239  33.757  1.00  0.00    -0.206 F 
ATOM     72  C   UNL A   1      46.684  27.438  35.042  1.00  0.00     0.040 A 
ATOM     73  C   UNL A   1      45.174  25.681  35.698  1.00  0.00     0.040 A 
ATOM     74  F   UNL A   1      42.931  25.743  35.019  1.00  0.00    -0.206 F 
ATOM     75  C   UNL A   1      46.453  26.233  35.704  1.00  0.00     0.006 A 
ENDBRANCH  54  68
BRANCH  55  76
ATOM     76  C   UNL A   1      36.788  31.583  29.217  1.00  0.00     0.057 A 
ATOM     77  C   UNL A   1      35.647  30.828  28.917  1.00  0.00     0.134 A 
ATOM     78  C   UNL A   1      36.817  32.909  28.769  1.00  0.00     0.134 A 
ATOM     79  F   UNL A   1      35.569  29.544  29.297  1.00  0.00    -0.206 F 
ATOM     80  C   UNL A   1      34.586  31.364  28.186  1.00  0.00     0.040 A 
ATOM     81  C   UNL A   1      35.752  33.467  28.060  1.00  0.00     0.040 A 
ATOM     82  F   UNL A   1      37.881  33.686  29.022  1.00  0.00    -0.206 F 
ATOM     83  C   UNL A   1      34.634  32.691  27.761  1.00  0.00     0.006 A 
ENDBRANCH  55  76
BRANCH  67  84
ATOM     84  C   UNL A   1      39.045  32.221  35.783  1.00  0.00     0.057 A 
ATOM     85  C   UNL A   1      38.214  31.690  36.777  1.00  0.00     0.134 A 
ATOM     86  C   UNL A   1      39.459  33.552  35.931  1.00  0.00     0.134 A 
ATOM     87  F   UNL A   1      37.771  30.426  36.692  1.00  0.00    -0.206 F 
ATOM     88  C   UNL A   1      37.793  32.460  37.864  1.00  0.00     0.040 A 
ATOM     89  C   UNL A   1      39.071  34.322  37.030  1.00  0.00     0.040 A 
ATOM     90  F   UNL A   1      40.265  34.121  35.022  1.00  0.00    -0.206 F 
ATOM     91  C   UNL A   1      38.229  33.777  37.996  1.00  0.00     0.006 A 
ENDBRANCH  67  84
ENDBRANCH  41  42
ENDBRANCH  34  36
ENDBRANCH  33  34
ENDBRANCH  32  33
ENDBRANCH  31  32
ENDBRANCH  30  31
ENDBRANCH  29  30
ENDBRANCH  28  29
ENDBRANCH  27  28
ENDBRANCH   1  27
TORSDOF 24
ENDMDL
MODEL 2
REMARK VINA RESULT:      -9.5      1.733      2.323
REMARK SMILES N#C/C(=C\c1ccc(Oc2ccccc2)cc1Cl)C(=O)OCCOCCOCCOCCOC(=O)c1ccc(-c2c3nc(c(-c4c(F)cccc4F)c4ccc([nH]4)c(-c4c(F)cccc4F)c4nc(c(-c5c(F)cccc5F)c5ccc2[nH]5)C=C4)C=C3)cc1
REMARK SMILES IDX 26 1 25 2 24 3 23 4 22 5 21 6 19 7 20 8 3 9 4 10 2 11 1 12
REMARK SMILES IDX 5 13 6 14 17 15 7 16 16 17 18 18 8 19 9 20 10 21 11 22 15 23
REMARK SMILES IDX 12 24 14 25 13 26 27 27 28 28 29 29 30 30 31 31 32 32 33 33
REMARK SMILES IDX 34 34 35 35 36 36 37 37 89 38 38 39 88 40 39 41 40 42 41 43
REMARK SMILES IDX 82 44 42 45 87 46 81 47 83 48 43 49 86 50 80 51 79 52 44 54
REMARK SMILES IDX 70 55 53 56 69 57 54 58 57 59 68 60 84 61 55 62 56 63 67 65
REMARK SMILES IDX 85 66 58 67 45 68 46 69 51 70 47 71 48 72 50 73 52 74 49 75
REMARK SMILES IDX 71 76 72 77 77 78 73 79 74 80 76 81 78 82 75 83 59 84 60 85
REMARK SMILES IDX 65 86 61 87 62 88 64 89 66 90 63 91
REMARK H PARENT 83 53 57 64
REMARK Flexibility Score: inf
ROOT
ATOM      1  C   UNL A   1      43.098  22.426  27.454  1.00  0.00     0.188 C 
ENDROOT
BRANCH   1   2
ATOM      2  C   UNL A   1      41.703  22.052  27.996  1.00  0.00     0.188 C 
BRANCH   2   3
ATOM      3  O   UNL A   1      40.622  22.969  27.941  1.00  0.00    -0.376 OA
BRANCH   3   4
ATOM      4  C   UNL A   1      39.681  23.074  26.882  1.00  0.00     0.202 C 
BRANCH   4   5
ATOM      5  C   UNL A   1      39.007  21.908  26.139  1.00  0.00     0.261 C 
BRANCH   5   6
ATOM      6  O   UNL A   1      37.714  22.179  25.622  1.00  0.00    -0.459 OA
BRANCH   6   7
ATOM      7  C   UNL A   1      37.135  21.118  25.030  1.00  0.00     0.348 C 
ATOM      8  O   UNL A   1      37.651  20.027  24.846  1.00  0.00    -0.245 OA
BRANCH   7   9
ATOM      9  C   UNL A   1      35.714  21.396  24.740  1.00  0.00     0.138 C 
ATOM     10  C   UNL A   1      34.780  21.010  25.645  1.00  0.00     0.036 C 
BRANCH   9  11
ATOM     11  C   UNL A   1      35.460  22.606  23.856  1.00  0.00     0.107 C 
ATOM     12  N   UNL A   1      35.249  23.609  23.122  1.00  0.00    -0.192 NA
ENDBRANCH   9  11
BRANCH  10  13
ATOM     13  C   UNL A   1      33.528  21.774  25.872  1.00  0.00    -0.005 A 
ATOM     14  C   UNL A   1      33.544  22.702  26.928  1.00  0.00     0.013 A 
ATOM     15  C   UNL A   1      32.394  21.744  25.043  1.00  0.00     0.052 A 
ATOM     16  C   UNL A   1      32.495  23.614  27.103  1.00  0.00     0.048 A 
ATOM     17  C   UNL A   1      31.388  22.710  25.172  1.00  0.00     0.068 A 
ATOM     18  Cl  UNL A   1      32.169  20.524  23.834  1.00  0.00    -0.084 Cl
ATOM     19  C   UNL A   1      31.425  23.646  26.208  1.00  0.00     0.128 A 
BRANCH  19  20
ATOM     20  O   UNL A   1      30.488  24.632  26.452  1.00  0.00    -0.457 OA
BRANCH  20  21
ATOM     21  C   UNL A   1      30.558  25.813  25.755  1.00  0.00     0.127 A 
ATOM     22  C   UNL A   1      29.810  25.926  24.582  1.00  0.00     0.047 A 
ATOM     23  C   UNL A   1      31.402  26.853  26.151  1.00  0.00     0.047 A 
ATOM     24  C   UNL A   1      29.839  27.116  23.853  1.00  0.00     0.004 A 
ATOM     25  C   UNL A   1      31.404  28.053  25.441  1.00  0.00     0.004 A 
ATOM     26  C   UNL A   1      30.618  28.186  24.296  1.00  0.00     0.000 A 
ENDBRANCH  20  21
ENDBRANCH  19  20
ENDBRANCH  10  13
ENDBRANCH   7   9
ENDBRANCH   6   7
ENDBRANCH   5   6
ENDBRANCH   4   5
ENDBRANCH   3   4
ENDBRANCH   2   3
ENDBRANCH   1   2
BRANCH   1  27
ATOM     27  O   UNL A   1      43.233  22.280  26.060  1.00  0.00    -0.377 OA
BRANCH  27  28
ATOM     28  C   UNL A   1      44.386  21.585  25.606  1.00  0.00     0.188 C 
BRANCH  28  29
ATOM     29  C   UNL A   1      45.021  21.953  24.243  1.00  0.00     0.188 C 
BRANCH  29  30
ATOM     30  O   UNL A   1      45.234  23.336  24.010  1.00  0.00    -0.376 OA
BRANCH  30  31
ATOM     31  C   UNL A   1      46.080  24.088  24.868  1.00  0.00     0.202 C 
BRANCH  31  32
ATOM     32  C   UNL A   1      45.595  25.457  25.379  1.00  0.00     0.261 C 
BRANCH  32  33
ATOM     33  O   UNL A   1      44.549  25.430  26.358  1.00  0.00    -0.460 OA
BRANCH  33  34
ATOM     34  C   UNL A   1      43.297  25.690  25.931  1.00  0.00     0.338 C 
ATOM     35  O   UNL A   1      42.702  25.150  25.013  1.00  0.00    -0.246 OA
BRANCH  34  36
ATOM     36  C   UNL A   1      42.676  26.613  26.899  1.00  0.00     0.060 A 
ATOM     37  C   UNL A   1      42.771  27.994  26.674  1.00  0.00     0.016 A 
ATOM     38  C   UNL A   1      41.990  26.121  28.012  1.00  0.00     0.016 A 
ATOM     39  C   UNL A   1      42.215  28.889  27.585  1.00  0.00     0.010 A 
ATOM     40  C   UNL A   1      41.459  27.019  28.940  1.00  0.00     0.010 A 
ATOM     41  C   UNL A   1      41.604  28.404  28.747  1.00  0.00    -0.014 A 
BRANCH  41  42
ATOM     42  C   UNL A   1      41.324  29.337  29.863  1.00  0.00     0.031 A 
ATOM     43  C   UNL A   1      42.289  29.370  31.016  1.00  0.00     0.074 A 
ATOM     44  C   UNL A   1      40.257  30.152  29.846  1.00  0.00     0.049 A 
ATOM     45  N   UNL A   1      42.238  30.059  32.126  1.00  0.00    -0.248 NA
ATOM     46  C   UNL A   1      43.472  28.502  30.897  1.00  0.00     0.031 C 
ATOM     47  C   UNL A   1      39.281  30.249  28.764  1.00  0.00     0.029 A 
ATOM     48  N   UNL A   1      39.816  31.053  30.784  1.00  0.00    -0.354 N 
ATOM     49  C   UNL A   1      43.373  29.699  32.842  1.00  0.00     0.074 A 
ATOM     50  C   UNL A   1      44.076  28.709  32.057  1.00  0.00     0.031 C 
ATOM     51  C   UNL A   1      38.346  31.154  29.103  1.00  0.00     0.029 A 
ATOM     52  C   UNL A   1      38.638  31.671  30.440  1.00  0.00     0.049 A 
ATOM     53  H   UNL A   1      40.297  31.238  31.622  1.00  0.00     0.167 HD
ATOM     54  C   UNL A   1      43.794  30.157  34.045  1.00  0.00     0.037 A 
ATOM     55  C   UNL A   1      37.877  32.533  31.140  1.00  0.00     0.037 A 
ATOM     56  C   UNL A   1      43.086  31.138  34.823  1.00  0.00     0.049 A 
ATOM     57  C   UNL A   1      38.320  32.963  32.514  1.00  0.00     0.074 A 
ATOM     58  C   UNL A   1      43.438  31.684  36.045  1.00  0.00     0.029 A 
ATOM     59  N   UNL A   1      41.875  31.708  34.461  1.00  0.00    -0.354 N 
ATOM     60  N   UNL A   1      39.405  32.639  33.176  1.00  0.00    -0.248 NA
ATOM     61  C   UNL A   1      37.431  33.882  33.240  1.00  0.00     0.031 C 
ATOM     62  C   UNL A   1      42.406  32.537  36.452  1.00  0.00     0.029 A 
ATOM     63  C   UNL A   1      41.447  32.576  35.453  1.00  0.00     0.049 A 
ATOM     64  H   UNL A   1      41.391  31.525  33.624  1.00  0.00     0.167 HD
ATOM     65  C   UNL A   1      39.347  33.338  34.376  1.00  0.00     0.074 A 
ATOM     66  C   UNL A   1      38.122  34.112  34.346  1.00  0.00     0.031 C 
ATOM     67  C   UNL A   1      40.227  33.344  35.407  1.00  0.00     0.037 A 
BRANCH  54  68
ATOM     68  C   UNL A   1      45.055  29.564  34.604  1.00  0.00     0.057 A 
ATOM     69  C   UNL A   1      46.315  30.129  34.366  1.00  0.00     0.134 A 
ATOM     70  C   UNL A   1      45.004  28.414  35.402  1.00  0.00     0.134 A 
ATOM     71  F   UNL A   1      46.438  31.219  33.594  1.00  0.00    -0.206 F 
ATOM     72  C   UNL A   1      47.481  29.553  34.874  1.00  0.00     0.040 A 
ATOM     73  C   UNL A   1      46.158  27.847  35.943  1.00  0.00     0.040 A 
ATOM     74  F   UNL A   1      43.830  27.824  35.673  1.00  0.00    -0.206 F 
ATOM     75  C   UNL A   1      47.403  28.412  35.671  1.00  0.00     0.006 A 
ENDBRANCH  54  68
BRANCH  55  76
ATOM     76  C   UNL A   1      36.608  33.044  30.560  1.00  0.00     0.057 A 
ATOM     77  C   UNL A   1      35.371  32.517  30.949  1.00  0.00     0.134 A 
ATOM     78  C   UNL A   1      36.601  34.053  29.589  1.00  0.00     0.134 A 
ATOM     79  F   UNL A   1      35.311  31.531  31.855  1.00  0.00    -0.206 F 
ATOM     80  C   UNL A   1      34.175  32.964  30.383  1.00  0.00     0.040 A 
ATOM     81  C   UNL A   1      35.411  34.529  29.035  1.00  0.00     0.040 A 
ATOM     82  F   UNL A   1      37.753  34.599  29.172  1.00  0.00    -0.206 F 
ATOM     83  C   UNL A   1      34.193  33.978  29.427  1.00  0.00     0.006 A 
ENDBRANCH  55  76
BRANCH  67  84
ATOM     84  C   UNL A   1      39.927  34.246  36.572  1.00  0.00     0.057 A 
ATOM     85  C   UNL A   1      40.324  35.588  36.598  1.00  0.00     0.134 A 
ATOM     86  C   UNL A   1      39.188  33.770  37.665  1.00  0.00     0.134 A 
ATOM     87  F   UNL A   1      41.042  36.106  35.590  1.00  0.00    -0.206 F 
ATOM     88  C   UNL A   1      40.020  36.418  37.679  1.00  0.00     0.040 A 
ATOM     89  C   UNL A   1      38.850  34.599  38.736  1.00  0.00     0.040 A 
ATOM     90  F   UNL A   1      38.765  32.498  37.700  1.00  0.00    -0.206 F 
ATOM     91  C   UNL A   1      39.273  35.925  38.749  1.00  0.00     0.006 A 
ENDBRANCH  67  84
ENDBRANCH  41  42
ENDBRANCH  34  36
ENDBRANCH  33  34
ENDBRANCH  32  33
ENDBRANCH  31  32
ENDBRANCH  30  31
ENDBRANCH  29  30
ENDBRANCH  28  29
ENDBRANCH  27  28
ENDBRANCH   1  27
TORSDOF 24
ENDMDL
MODEL 3
REMARK VINA RESULT:      -8.7      4.994     11.058
REMARK SMILES N#C/C(=C\c1ccc(Oc2ccccc2)cc1Cl)C(=O)OCCOCCOCCOCCOC(=O)c1ccc(-c2c3nc(c(-c4c(F)cccc4F)c4ccc([nH]4)c(-c4c(F)cccc4F)c4nc(c(-c5c(F)cccc5F)c5ccc2[nH]5)C=C4)C=C3)cc1
REMARK SMILES IDX 26 1 25 2 24 3 23 4 22 5 21 6 19 7 20 8 3 9 4 10 2 11 1 12
REMARK SMILES IDX 5 13 6 14 17 15 7 16 16 17 18 18 8 19 9 20 10 21 11 22 15 23
REMARK SMILES IDX 12 24 14 25 13 26 27 27 28 28 29 29 30 30 31 31 32 32 33 33
REMARK SMILES IDX 34 34 35 35 36 36 37 37 89 38 38 39 88 40 39 41 40 42 41 43
REMARK SMILES IDX 82 44 42 45 87 46 81 47 83 48 43 49 86 50 80 51 79 52 44 54
REMARK SMILES IDX 70 55 53 56 69 57 54 58 57 59 68 60 84 61 55 62 56 63 67 65
REMARK SMILES IDX 85 66 58 67 45 68 46 69 51 70 47 71 48 72 50 73 52 74 49 75
REMARK SMILES IDX 71 76 72 77 77 78 73 79 74 80 76 81 78 82 75 83 59 84 60 85
REMARK SMILES IDX 65 86 61 87 62 88 64 89 66 90 63 91
REMARK H PARENT 83 53 57 64
REMARK Flexibility Score: inf
ROOT
ATOM      1  C   UNL A   1      35.641  31.622  28.443  1.00  0.00     0.188 C 
ENDROOT
BRANCH   1   2
ATOM      2  C   UNL A   1      34.206  32.021  28.040  1.00  0.00     0.188 C 
BRANCH   2   3
ATOM      3  O   UNL A   1      33.399  31.166  27.246  1.00  0.00    -0.376 OA
BRANCH   3   4
ATOM      4  C   UNL A   1      33.717  29.829  26.887  1.00  0.00     0.202 C 
BRANCH   4   5
ATOM      5  C   UNL A   1      32.832  28.866  26.076  1.00  0.00     0.261 C 
BRANCH   5   6
ATOM      6  O   UNL A   1      33.358  27.561  25.894  1.00  0.00    -0.459 OA
BRANCH   6   7
ATOM      7  C   UNL A   1      33.681  27.282  24.618  1.00  0.00     0.348 C 
ATOM      8  O   UNL A   1      33.817  28.094  23.715  1.00  0.00    -0.245 OA
BRANCH   7   9
ATOM      9  C   UNL A   1      33.991  25.846  24.462  1.00  0.00     0.138 C 
ATOM     10  C   UNL A   1      34.028  25.067  25.571  1.00  0.00     0.036 C 
BRANCH   9  11
ATOM     11  C   UNL A   1      33.602  25.244  23.122  1.00  0.00     0.107 C 
ATOM     12  N   UNL A   1      33.278  24.744  22.010  1.00  0.00    -0.192 NA
ENDBRANCH   9  11
BRANCH  10  13
ATOM     13  C   UNL A   1      33.622  23.639  25.553  1.00  0.00    -0.005 A 
ATOM     14  C   UNL A   1      32.294  23.361  25.925  1.00  0.00     0.013 A 
ATOM     15  C   UNL A   1      34.403  22.576  25.070  1.00  0.00     0.052 A 
ATOM     16  C   UNL A   1      31.749  22.082  25.752  1.00  0.00     0.048 A 
ATOM     17  C   UNL A   1      33.830  21.322  24.823  1.00  0.00     0.068 A 
ATOM     18  Cl  UNL A   1      36.099  22.746  24.763  1.00  0.00    -0.084 Cl
ATOM     19  C   UNL A   1      32.503  21.061  25.170  1.00  0.00     0.128 A 
BRANCH  19  20
ATOM     20  O   UNL A   1      31.832  19.867  24.997  1.00  0.00    -0.457 OA
BRANCH  20  21
ATOM     21  C   UNL A   1      32.528  18.760  24.576  1.00  0.00     0.127 A 
ATOM     22  C   UNL A   1      32.564  18.490  23.207  1.00  0.00     0.047 A 
ATOM     23  C   UNL A   1      33.127  17.880  25.480  1.00  0.00     0.047 A 
ATOM     24  C   UNL A   1      33.275  17.385  22.737  1.00  0.00     0.004 A 
ATOM     25  C   UNL A   1      33.866  16.796  25.007  1.00  0.00     0.004 A 
ATOM     26  C   UNL A   1      33.945  16.553  23.635  1.00  0.00     0.000 A 
ENDBRANCH  20  21
ENDBRANCH  19  20
ENDBRANCH  10  13
ENDBRANCH   7   9
ENDBRANCH   6   7
ENDBRANCH   5   6
ENDBRANCH   4   5
ENDBRANCH   3   4
ENDBRANCH   2   3
ENDBRANCH   1   2
BRANCH   1  27
ATOM     27  O   UNL A   1      35.797  31.340  29.814  1.00  0.00    -0.377 OA
BRANCH  27  28
ATOM     28  C   UNL A   1      36.414  30.102  30.137  1.00  0.00     0.188 C 
BRANCH  28  29
ATOM     29  C   UNL A   1      37.745  29.703  29.456  1.00  0.00     0.188 C 
BRANCH  29  30
ATOM     30  O   UNL A   1      38.620  28.895  30.228  1.00  0.00    -0.376 OA
BRANCH  30  31
ATOM     31  C   UNL A   1      38.870  27.547  29.855  1.00  0.00     0.202 C 
BRANCH  31  32
ATOM     32  C   UNL A   1      38.898  27.181  28.360  1.00  0.00     0.261 C 
BRANCH  32  33
ATOM     33  O   UNL A   1      40.141  27.399  27.680  1.00  0.00    -0.460 OA
BRANCH  33  34
ATOM     34  C   UNL A   1      40.798  26.311  27.232  1.00  0.00     0.338 C 
ATOM     35  O   UNL A   1      40.618  25.719  26.181  1.00  0.00    -0.246 OA
BRANCH  34  36
ATOM     36  C   UNL A   1      41.931  26.065  28.144  1.00  0.00     0.060 A 
ATOM     37  C   UNL A   1      42.358  27.102  28.987  1.00  0.00     0.016 A 
ATOM     38  C   UNL A   1      42.556  24.817  28.181  1.00  0.00     0.016 A 
ATOM     39  C   UNL A   1      43.441  26.904  29.840  1.00  0.00     0.010 A 
ATOM     40  C   UNL A   1      43.660  24.629  29.016  1.00  0.00     0.010 A 
ATOM     41  C   UNL A   1      44.128  25.684  29.818  1.00  0.00    -0.014 A 
BRANCH  41  42
ATOM     42  C   UNL A   1      45.461  25.590  30.457  1.00  0.00     0.031 A 
ATOM     43  C   UNL A   1      46.664  25.982  29.644  1.00  0.00     0.074 A 
ATOM     44  C   UNL A   1      45.603  25.193  31.732  1.00  0.00     0.049 A 
ATOM     45  N   UNL A   1      47.932  25.940  29.958  1.00  0.00    -0.248 NA
ATOM     46  C   UNL A   1      46.394  26.487  28.287  1.00  0.00     0.031 C 
ATOM     47  C   UNL A   1      44.512  24.839  32.636  1.00  0.00     0.029 A 
ATOM     48  N   UNL A   1      46.738  25.015  32.482  1.00  0.00    -0.354 N 
ATOM     49  C   UNL A   1      48.611  26.400  28.836  1.00  0.00     0.074 A 
ATOM     50  C   UNL A   1      47.618  26.685  27.825  1.00  0.00     0.031 C 
ATOM     51  C   UNL A   1      45.031  24.474  33.820  1.00  0.00     0.029 A 
ATOM     52  C   UNL A   1      46.491  24.534  33.745  1.00  0.00     0.049 A 
ATOM     53  H   UNL A   1      47.642  25.212  32.148  1.00  0.00     0.167 HD
ATOM     54  C   UNL A   1      49.943  26.575  28.667  1.00  0.00     0.037 A 
ATOM     55  C   UNL A   1      47.350  24.164  34.714  1.00  0.00     0.037 A 
ATOM     56  C   UNL A   1      50.925  26.283  29.676  1.00  0.00     0.049 A 
ATOM     57  C   UNL A   1      48.833  24.284  34.472  1.00  0.00     0.074 A 
ATOM     58  C   UNL A   1      52.298  26.443  29.613  1.00  0.00     0.029 A 
ATOM     59  N   UNL A   1      50.640  25.757  30.927  1.00  0.00    -0.354 N 
ATOM     60  N   UNL A   1      49.468  24.742  33.420  1.00  0.00    -0.248 NA
ATOM     61  C   UNL A   1      49.719  23.835  35.556  1.00  0.00     0.031 C 
ATOM     62  C   UNL A   1      52.849  25.953  30.802  1.00  0.00     0.029 A 
ATOM     63  C   UNL A   1      51.814  25.553  31.633  1.00  0.00     0.049 A 
ATOM     64  H   UNL A   1      49.737  25.558  31.265  1.00  0.00     0.167 HD
ATOM     65  C   UNL A   1      50.822  24.670  33.728  1.00  0.00     0.074 A 
ATOM     66  C   UNL A   1      50.915  24.132  35.070  1.00  0.00     0.031 C 
ATOM     67  C   UNL A   1      51.891  25.021  32.971  1.00  0.00     0.037 A 
BRANCH  54  68
ATOM     68  C   UNL A   1      50.409  27.062  27.326  1.00  0.00     0.057 A 
ATOM     69  C   UNL A   1      50.555  28.425  27.037  1.00  0.00     0.134 A 
ATOM     70  C   UNL A   1      50.724  26.150  26.310  1.00  0.00     0.134 A 
ATOM     71  F   UNL A   1      50.252  29.353  27.956  1.00  0.00    -0.206 F 
ATOM     72  C   UNL A   1      50.967  28.864  25.777  1.00  0.00     0.040 A 
ATOM     73  C   UNL A   1      51.168  26.575  25.058  1.00  0.00     0.040 A 
ATOM     74  F   UNL A   1      50.609  24.830  26.520  1.00  0.00    -0.206 F 
ATOM     75  C   UNL A   1      51.281  27.936  24.785  1.00  0.00     0.006 A 
ENDBRANCH  54  68
BRANCH  55  76
ATOM     76  C   UNL A   1      46.834  23.633  36.002  1.00  0.00     0.057 A 
ATOM     77  C   UNL A   1      46.574  22.268  36.170  1.00  0.00     0.134 A 
ATOM     78  C   UNL A   1      46.569  24.478  37.087  1.00  0.00     0.134 A 
ATOM     79  F   UNL A   1      46.783  21.411  35.161  1.00  0.00    -0.206 F 
ATOM     80  C   UNL A   1      46.053  21.764  37.364  1.00  0.00     0.040 A 
ATOM     81  C   UNL A   1      46.075  23.984  38.296  1.00  0.00     0.040 A 
ATOM     82  F   UNL A   1      46.795  25.796  36.991  1.00  0.00    -0.206 F 
ATOM     83  C   UNL A   1      45.809  22.623  38.434  1.00  0.00     0.006 A 
ENDBRANCH  55  76
BRANCH  67  84
ATOM     84  C   UNL A   1      53.255  24.878  33.588  1.00  0.00     0.057 A 
ATOM     85  C   UNL A   1      54.023  23.717  33.438  1.00  0.00     0.134 A 
ATOM     86  C   UNL A   1      53.824  25.939  34.306  1.00  0.00     0.134 A 
ATOM     87  F   UNL A   1      53.535  22.659  32.772  1.00  0.00    -0.206 F 
ATOM     88  C   UNL A   1      55.296  23.606  34.000  1.00  0.00     0.040 A 
ATOM     89  C   UNL A   1      55.109  25.853  34.845  1.00  0.00     0.040 A 
ATOM     90  F   UNL A   1      53.149  27.086  34.477  1.00  0.00    -0.206 F 
ATOM     91  C   UNL A   1      55.845  24.680  34.699  1.00  0.00     0.006 A 
ENDBRANCH  67  84
ENDBRANCH  41  42
ENDBRANCH  34  36
ENDBRANCH  33  34
ENDBRANCH  32  33
ENDBRANCH  31  32
ENDBRANCH  30  31
ENDBRANCH  29  30
ENDBRANCH  28  29
ENDBRANCH  27  28
ENDBRANCH   1  27
TORSDOF 24
ENDMDL
