MODEL 1
REMARK VINA RESULT:     -10.0      0.000      0.000
REMARK SMILES COC(=O)C1CCN(C(=O)N[C@@H]2C=C[C@H](C(=O)OCCOCCOCCOCCOC(=O)c3ccc(-c4c5nc(c(-c6c(F)cccc6F)c6ccc([nH]6)c(-c6c(F)cccc6F)c6nc(c(-c7c(F)cccc7F)c7ccc4[nH]7)C=C6)C=C5)cc3)C2)CC1
REMARK SMILES IDX 23 1 22 2 21 3 20 4 19 5 18 6 16 7 17 8 15 9 12 10 13 11
REMARK SMILES IDX 87 12 14 13 11 14 5 15 6 16 89 17 7 18 88 19 8 20 9 21 10 22
REMARK SMILES IDX 3 24 4 25 2 26 1 27 24 28 25 29 26 30 27 31 28 32 29 33
REMARK SMILES IDX 30 34 31 35 32 36 33 37 34 38 86 39 35 40 85 41 36 42 37 43
REMARK SMILES IDX 38 44 79 45 39 46 84 47 78 48 80 49 40 50 83 51 77 52 76 53
REMARK SMILES IDX 41 55 67 56 50 57 66 58 51 59 54 60 65 61 81 62 52 63 53 64
REMARK SMILES IDX 64 66 82 67 55 68 42 69 43 70 48 71 44 72 45 73 47 74 49 75
REMARK SMILES IDX 46 76 68 77 69 78 74 79 70 80 71 81 73 82 75 83 72 84 56 85
REMARK SMILES IDX 57 86 62 87 58 88 59 89 61 90 63 91 60 92
REMARK H PARENT 11 23 80 54 54 65
REMARK Flexibility Score: inf
ROOT
ATOM      1  C   UNL A   1      35.533  30.635  27.739  1.00  0.00     0.188 C 
ENDROOT
BRANCH   1   2
ATOM      2  C   UNL A   1      35.152  29.158  27.653  1.00  0.00     0.188 C 
BRANCH   2   3
ATOM      3  O   UNL A   1      34.196  28.742  26.691  1.00  0.00    -0.376 OA
BRANCH   3   4
ATOM      4  C   UNL A   1      33.490  29.712  25.925  1.00  0.00     0.202 C 
BRANCH   4   5
ATOM      5  C   UNL A   1      32.862  29.322  24.571  1.00  0.00     0.261 C 
BRANCH   5   6
ATOM      6  O   UNL A   1      31.715  28.436  24.624  1.00  0.00    -0.463 OA
BRANCH   6   7
ATOM      7  C   UNL A   1      30.618  28.782  23.890  1.00  0.00     0.312 C 
ATOM      8  O   UNL A   1      30.097  29.891  23.929  1.00  0.00    -0.252 OA
BRANCH   7   9
ATOM      9  C   UNL A   1      30.030  27.579  23.123  1.00  0.00     0.124 C 
ATOM     10  C   UNL A   1      30.311  25.230  23.941  1.00  0.00     0.107 C 
ATOM     11  C   UNL A   1      31.194  25.540  22.800  1.00  0.00    -0.006 C 
ATOM     12  C   UNL A   1      29.325  26.427  23.875  1.00  0.00     0.048 C 
ATOM     13  C   UNL A   1      31.091  26.809  22.385  1.00  0.00    -0.014 C 
BRANCH  10  14
ATOM     14  N   UNL A   1      30.897  24.948  25.273  1.00  0.00    -0.332 N 
ATOM     15  C   UNL A   1      33.586  20.693  24.795  1.00  0.00     0.102 C 
ATOM     16  C   UNL A   1      33.859  21.281  26.200  1.00  0.00     0.037 C 
ATOM     17  C   UNL A   1      32.777  21.703  23.972  1.00  0.00     0.037 C 
ATOM     18  C   UNL A   1      32.692  22.064  26.850  1.00  0.00     0.122 C 
ATOM     19  C   UNL A   1      31.516  22.016  24.758  1.00  0.00     0.122 C 
ATOM     20  N   UNL A   1      31.891  22.828  25.876  1.00  0.00    -0.325 N 
ATOM     21  C   UNL A   1      31.537  24.116  26.115  1.00  0.00     0.317 C 
ATOM     22  O   UNL A   1      31.809  24.644  27.203  1.00  0.00    -0.249 OA
ATOM     23  H   UNL A   1      30.743  25.768  25.796  1.00  0.00     0.165 HD
BRANCH  15  24
ATOM     24  C   UNL A   1      32.834  19.365  24.738  1.00  0.00     0.308 C 
ATOM     25  O   UNL A   1      32.531  18.723  25.741  1.00  0.00    -0.252 OA
BRANCH  24  26
ATOM     26  O   UNL A   1      32.511  18.980  23.479  1.00  0.00    -0.469 OA
ATOM     27  C   UNL A   1      33.067  17.706  23.132  1.00  0.00     0.282 C 
ENDBRANCH  24  26
ENDBRANCH  15  24
ENDBRANCH  10  14
ENDBRANCH   7   9
ENDBRANCH   6   7
ENDBRANCH   5   6
ENDBRANCH   4   5
ENDBRANCH   3   4
ENDBRANCH   2   3
ENDBRANCH   1   2
BRANCH   1  28
ATOM     28  O   UNL A   1      34.933  31.369  28.789  1.00  0.00    -0.377 OA
BRANCH  28  29
ATOM     29  C   UNL A   1      35.151  32.770  28.814  1.00  0.00     0.188 C 
BRANCH  29  30
ATOM     30  C   UNL A   1      33.968  33.680  28.451  1.00  0.00     0.188 C 
BRANCH  30  31
ATOM     31  O   UNL A   1      34.357  34.898  27.834  1.00  0.00    -0.376 OA
BRANCH  31  32
ATOM     32  C   UNL A   1      34.059  36.131  28.476  1.00  0.00     0.202 C 
BRANCH  32  33
ATOM     33  C   UNL A   1      32.899  36.191  29.487  1.00  0.00     0.261 C 
BRANCH  33  34
ATOM     34  O   UNL A   1      33.228  36.499  30.855  1.00  0.00    -0.460 OA
BRANCH  34  35
ATOM     35  C   UNL A   1      32.786  35.677  31.833  1.00  0.00     0.338 C 
ATOM     36  O   UNL A   1      31.638  35.445  32.135  1.00  0.00    -0.246 OA
BRANCH  35  37
ATOM     37  C   UNL A   1      33.964  34.933  32.346  1.00  0.00     0.060 A 
ATOM     38  C   UNL A   1      35.243  35.446  32.095  1.00  0.00     0.016 A 
ATOM     39  C   UNL A   1      33.812  33.759  33.086  1.00  0.00     0.016 A 
ATOM     40  C   UNL A   1      36.374  34.781  32.573  1.00  0.00     0.010 A 
ATOM     41  C   UNL A   1      34.947  33.075  33.537  1.00  0.00     0.010 A 
ATOM     42  C   UNL A   1      36.236  33.572  33.266  1.00  0.00    -0.014 A 
BRANCH  42  43
ATOM     43  C   UNL A   1      37.433  32.745  33.557  1.00  0.00     0.031 A 
ATOM     44  C   UNL A   1      38.198  33.013  34.824  1.00  0.00     0.074 A 
ATOM     45  C   UNL A   1      37.829  31.767  32.724  1.00  0.00     0.049 A 
ATOM     46  N   UNL A   1      39.307  32.472  35.258  1.00  0.00    -0.248 NA
ATOM     47  C   UNL A   1      37.631  34.032  35.724  1.00  0.00     0.031 C 
ATOM     48  C   UNL A   1      37.146  31.377  31.491  1.00  0.00     0.029 A 
ATOM     49  N   UNL A   1      38.916  30.929  32.785  1.00  0.00    -0.354 N 
ATOM     50  C   UNL A   1      39.577  33.088  36.472  1.00  0.00     0.074 A 
ATOM     51  C   UNL A   1      38.529  34.059  36.699  1.00  0.00     0.031 C 
ATOM     52  C   UNL A   1      37.844  30.391  30.900  1.00  0.00     0.029 A 
ATOM     53  C   UNL A   1      39.040  30.107  31.691  1.00  0.00     0.049 A 
ATOM     54  H   UNL A   1      39.547  30.920  33.540  1.00  0.00     0.167 HD
ATOM     55  C   UNL A   1      40.604  32.862  37.324  1.00  0.00     0.037 A 
ATOM     56  C   UNL A   1      40.025  29.249  31.355  1.00  0.00     0.037 A 
ATOM     57  C   UNL A   1      41.647  31.898  37.094  1.00  0.00     0.049 A 
ATOM     58  C   UNL A   1      41.204  29.079  32.279  1.00  0.00     0.074 A 
ATOM     59  C   UNL A   1      42.719  31.578  37.908  1.00  0.00     0.029 A 
ATOM     60  N   UNL A   1      41.756  31.108  35.959  1.00  0.00    -0.354 N 
ATOM     61  N   UNL A   1      41.435  29.641  33.442  1.00  0.00    -0.248 NA
ATOM     62  C   UNL A   1      42.263  28.155  31.844  1.00  0.00     0.031 C 
ATOM     63  C   UNL A   1      43.511  30.641  37.239  1.00  0.00     0.029 A 
ATOM     64  C   UNL A   1      42.899  30.330  36.035  1.00  0.00     0.049 A 
ATOM     65  H   UNL A   1      41.116  31.103  35.212  1.00  0.00     0.167 HD
ATOM     66  C   UNL A   1      42.645  29.121  33.886  1.00  0.00     0.074 A 
ATOM     67  C   UNL A   1      43.092  28.184  32.878  1.00  0.00     0.031 C 
ATOM     68  C   UNL A   1      43.328  29.397  35.025  1.00  0.00     0.037 A 
BRANCH  55  69
ATOM     69  C   UNL A   1      40.674  33.697  38.570  1.00  0.00     0.057 A 
ATOM     70  C   UNL A   1      41.496  34.828  38.663  1.00  0.00     0.134 A 
ATOM     71  C   UNL A   1      39.871  33.389  39.675  1.00  0.00     0.134 A 
ATOM     72  F   UNL A   1      42.301  35.169  37.647  1.00  0.00    -0.206 F 
ATOM     73  C   UNL A   1      41.527  35.613  39.818  1.00  0.00     0.040 A 
ATOM     74  C   UNL A   1      39.872  34.183  40.824  1.00  0.00     0.040 A 
ATOM     75  F   UNL A   1      39.059  32.322  39.652  1.00  0.00    -0.206 F 
ATOM     76  C   UNL A   1      40.707  35.296  40.899  1.00  0.00     0.006 A 
ENDBRANCH  55  69
BRANCH  56  77
ATOM     77  C   UNL A   1      39.968  28.509  30.065  1.00  0.00     0.057 A 
ATOM     78  C   UNL A   1      39.276  27.298  29.947  1.00  0.00     0.134 A 
ATOM     79  C   UNL A   1      40.647  28.973  28.931  1.00  0.00     0.134 A 
ATOM     80  F   UNL A   1      38.630  26.784  31.005  1.00  0.00    -0.206 F 
ATOM     81  C   UNL A   1      39.280  26.564  28.759  1.00  0.00     0.040 A 
ATOM     82  C   UNL A   1      40.633  28.266  27.727  1.00  0.00     0.040 A 
ATOM     83  F   UNL A   1      41.331  30.125  28.974  1.00  0.00    -0.206 F 
ATOM     84  C   UNL A   1      39.956  27.051  27.642  1.00  0.00     0.006 A 
ENDBRANCH  56  77
BRANCH  68  85
ATOM     85  C   UNL A   1      44.612  28.653  35.261  1.00  0.00     0.057 A 
ATOM     86  C   UNL A   1      44.640  27.404  35.895  1.00  0.00     0.134 A 
ATOM     87  C   UNL A   1      45.831  29.170  34.801  1.00  0.00     0.134 A 
ATOM     88  F   UNL A   1      43.511  26.857  36.369  1.00  0.00    -0.206 F 
ATOM     89  C   UNL A   1      45.836  26.709  36.085  1.00  0.00     0.040 A 
ATOM     90  C   UNL A   1      47.028  28.470  34.956  1.00  0.00     0.040 A 
ATOM     91  F   UNL A   1      45.875  30.356  34.173  1.00  0.00    -0.206 F 
ATOM     92  C   UNL A   1      47.034  27.239  35.607  1.00  0.00     0.006 A 
ENDBRANCH  68  85
ENDBRANCH  42  43
ENDBRANCH  35  37
ENDBRANCH  34  35
ENDBRANCH  33  34
ENDBRANCH  32  33
ENDBRANCH  31  32
ENDBRANCH  30  31
ENDBRANCH  29  30
ENDBRANCH  28  29
ENDBRANCH   1  28
TORSDOF 23
ENDMDL
MODEL 2
REMARK VINA RESULT:      -9.7      3.411      8.929
REMARK SMILES COC(=O)C1CCN(C(=O)N[C@@H]2C=C[C@H](C(=O)OCCOCCOCCOCCOC(=O)c3ccc(-c4c5nc(c(-c6c(F)cccc6F)c6ccc([nH]6)c(-c6c(F)cccc6F)c6nc(c(-c7c(F)cccc7F)c7ccc4[nH]7)C=C6)C=C5)cc3)C2)CC1
REMARK SMILES IDX 23 1 22 2 21 3 20 4 19 5 18 6 16 7 17 8 15 9 12 10 13 11
REMARK SMILES IDX 87 12 14 13 11 14 5 15 6 16 89 17 7 18 88 19 8 20 9 21 10 22
REMARK SMILES IDX 3 24 4 25 2 26 1 27 24 28 25 29 26 30 27 31 28 32 29 33
REMARK SMILES IDX 30 34 31 35 32 36 33 37 34 38 86 39 35 40 85 41 36 42 37 43
REMARK SMILES IDX 38 44 79 45 39 46 84 47 78 48 80 49 40 50 83 51 77 52 76 53
REMARK SMILES IDX 41 55 67 56 50 57 66 58 51 59 54 60 65 61 81 62 52 63 53 64
REMARK SMILES IDX 64 66 82 67 55 68 42 69 43 70 48 71 44 72 45 73 47 74 49 75
REMARK SMILES IDX 46 76 68 77 69 78 74 79 70 80 71 81 73 82 75 83 72 84 56 85
REMARK SMILES IDX 57 86 62 87 58 88 59 89 61 90 63 91 60 92
REMARK H PARENT 11 23 80 54 54 65
REMARK Flexibility Score: inf
ROOT
ATOM      1  C   UNL A   1      38.746  23.831  26.532  1.00  0.00     0.188 C 
ENDROOT
BRANCH   1   2
ATOM      2  C   UNL A   1      37.358  23.722  25.902  1.00  0.00     0.188 C 
BRANCH   2   3
ATOM      3  O   UNL A   1      36.832  22.441  25.597  1.00  0.00    -0.376 OA
BRANCH   3   4
ATOM      4  C   UNL A   1      36.706  22.030  24.239  1.00  0.00     0.202 C 
BRANCH   4   5
ATOM      5  C   UNL A   1      36.129  22.999  23.187  1.00  0.00     0.261 C 
BRANCH   5   6
ATOM      6  O   UNL A   1      34.832  23.577  23.484  1.00  0.00    -0.463 OA
BRANCH   6   7
ATOM      7  C   UNL A   1      33.792  23.242  22.667  1.00  0.00     0.312 C 
ATOM      8  O   UNL A   1      33.828  23.345  21.446  1.00  0.00    -0.252 OA
BRANCH   7   9
ATOM      9  C   UNL A   1      32.527  22.862  23.464  1.00  0.00     0.124 C 
ATOM     10  C   UNL A   1      31.842  24.111  25.524  1.00  0.00     0.107 C 
ATOM     11  C   UNL A   1      32.444  22.800  25.832  1.00  0.00    -0.006 C 
ATOM     12  C   UNL A   1      31.572  23.951  24.003  1.00  0.00     0.048 C 
ATOM     13  C   UNL A   1      32.862  22.143  24.743  1.00  0.00    -0.014 C 
BRANCH  10  14
ATOM     14  N   UNL A   1      32.535  25.357  25.929  1.00  0.00    -0.332 N 
ATOM     15  C   UNL A   1      30.028  29.173  23.758  1.00  0.00     0.102 C 
ATOM     16  C   UNL A   1      31.076  29.773  24.726  1.00  0.00     0.037 C 
ATOM     17  C   UNL A   1      29.970  27.652  23.953  1.00  0.00     0.037 C 
ATOM     18  C   UNL A   1      32.379  28.956  24.911  1.00  0.00     0.122 C 
ATOM     19  C   UNL A   1      31.375  27.118  23.739  1.00  0.00     0.122 C 
ATOM     20  N   UNL A   1      32.162  27.499  24.873  1.00  0.00    -0.325 N 
ATOM     21  C   UNL A   1      32.730  26.681  25.795  1.00  0.00     0.317 C 
ATOM     22  O   UNL A   1      33.516  27.142  26.635  1.00  0.00    -0.249 OA
ATOM     23  H   UNL A   1      33.153  25.081  26.645  1.00  0.00     0.165 HD
BRANCH  15  24
ATOM     24  C   UNL A   1      30.244  29.424  22.267  1.00  0.00     0.308 C 
ATOM     25  O   UNL A   1      31.351  29.632  21.776  1.00  0.00    -0.252 OA
BRANCH  24  26
ATOM     26  O   UNL A   1      29.102  29.366  21.538  1.00  0.00    -0.469 OA
ATOM     27  C   UNL A   1      28.273  30.520  21.722  1.00  0.00     0.282 C 
ENDBRANCH  24  26
ENDBRANCH  15  24
ENDBRANCH  10  14
ENDBRANCH   7   9
ENDBRANCH   6   7
ENDBRANCH   5   6
ENDBRANCH   4   5
ENDBRANCH   3   4
ENDBRANCH   2   3
ENDBRANCH   1   2
BRANCH   1  28
ATOM     28  O   UNL A   1      39.334  22.614  26.947  1.00  0.00    -0.377 OA
BRANCH  28  29
ATOM     29  C   UNL A   1      40.245  21.991  26.056  1.00  0.00     0.188 C 
BRANCH  29  30
ATOM     30  C   UNL A   1      40.953  20.716  26.539  1.00  0.00     0.188 C 
BRANCH  30  31
ATOM     31  O   UNL A   1      41.889  20.198  25.606  1.00  0.00    -0.376 OA
BRANCH  31  32
ATOM     32  C   UNL A   1      43.279  20.297  25.886  1.00  0.00     0.202 C 
BRANCH  32  33
ATOM     33  C   UNL A   1      44.076  21.490  25.324  1.00  0.00     0.261 C 
BRANCH  33  34
ATOM     34  O   UNL A   1      44.115  22.692  26.116  1.00  0.00    -0.460 OA
BRANCH  34  35
ATOM     35  C   UNL A   1      43.637  23.839  25.581  1.00  0.00     0.338 C 
ATOM     36  O   UNL A   1      43.342  24.044  24.427  1.00  0.00    -0.246 OA
BRANCH  35  37
ATOM     37  C   UNL A   1      43.337  24.756  26.709  1.00  0.00     0.060 A 
ATOM     38  C   UNL A   1      42.389  24.361  27.663  1.00  0.00     0.016 A 
ATOM     39  C   UNL A   1      43.996  25.980  26.842  1.00  0.00     0.016 A 
ATOM     40  C   UNL A   1      42.090  25.192  28.744  1.00  0.00     0.010 A 
ATOM     41  C   UNL A   1      43.672  26.827  27.909  1.00  0.00     0.010 A 
ATOM     42  C   UNL A   1      42.702  26.446  28.855  1.00  0.00    -0.014 A 
BRANCH  42  43
ATOM     43  C   UNL A   1      42.210  27.424  29.856  1.00  0.00     0.031 A 
ATOM     44  C   UNL A   1      42.886  27.477  31.199  1.00  0.00     0.074 A 
ATOM     45  C   UNL A   1      41.193  28.259  29.580  1.00  0.00     0.049 A 
ATOM     46  N   UNL A   1      42.591  28.194  32.252  1.00  0.00    -0.248 NA
ATOM     47  C   UNL A   1      44.055  26.599  31.375  1.00  0.00     0.031 C 
ATOM     48  C   UNL A   1      40.488  28.340  28.301  1.00  0.00     0.029 A 
ATOM     49  N   UNL A   1      40.566  29.193  30.368  1.00  0.00    -0.354 N 
ATOM     50  C   UNL A   1      43.528  27.849  33.217  1.00  0.00     0.074 A 
ATOM     51  C   UNL A   1      44.389  26.843  32.633  1.00  0.00     0.031 C 
ATOM     52  C   UNL A   1      39.510  29.257  28.400  1.00  0.00     0.029 A 
ATOM     53  C   UNL A   1      39.495  29.800  29.758  1.00  0.00     0.049 A 
ATOM     54  H   UNL A   1      40.856  29.406  31.285  1.00  0.00     0.167 HD
ATOM     55  C   UNL A   1      43.661  28.330  34.475  1.00  0.00     0.037 A 
ATOM     56  C   UNL A   1      38.589  30.668  30.252  1.00  0.00     0.037 A 
ATOM     57  C   UNL A   1      42.801  29.329  35.054  1.00  0.00     0.049 A 
ATOM     58  C   UNL A   1      38.708  31.123  31.685  1.00  0.00     0.074 A 
ATOM     59  C   UNL A   1      42.869  29.899  36.312  1.00  0.00     0.029 A 
ATOM     60  N   UNL A   1      41.708  29.894  34.415  1.00  0.00    -0.354 N 
ATOM     61  N   UNL A   1      39.616  30.817  32.580  1.00  0.00    -0.248 NA
ATOM     62  C   UNL A   1      37.672  32.045  32.178  1.00  0.00     0.031 C 
ATOM     63  C   UNL A   1      41.780  30.762  36.459  1.00  0.00     0.029 A 
ATOM     64  C   UNL A   1      41.070  30.779  35.269  1.00  0.00     0.049 A 
ATOM     65  H   UNL A   1      41.427  29.696  33.493  1.00  0.00     0.167 HD
ATOM     66  C   UNL A   1      39.278  31.526  33.728  1.00  0.00     0.074 A 
ATOM     67  C   UNL A   1      38.092  32.292  33.411  1.00  0.00     0.031 C 
ATOM     68  C   UNL A   1      39.892  31.539  34.937  1.00  0.00     0.037 A 
BRANCH  55  69
ATOM     69  C   UNL A   1      44.756  27.759  35.328  1.00  0.00     0.057 A 
ATOM     70  C   UNL A   1      46.034  28.332  35.382  1.00  0.00     0.134 A 
ATOM     71  C   UNL A   1      44.512  26.647  36.144  1.00  0.00     0.134 A 
ATOM     72  F   UNL A   1      46.338  29.389  34.614  1.00  0.00    -0.206 F 
ATOM     73  C   UNL A   1      47.034  27.808  36.204  1.00  0.00     0.040 A 
ATOM     74  C   UNL A   1      45.495  26.132  36.991  1.00  0.00     0.040 A 
ATOM     75  F   UNL A   1      43.311  26.051  36.143  1.00  0.00    -0.206 F 
ATOM     76  C   UNL A   1      46.763  26.710  37.019  1.00  0.00     0.006 A 
ENDBRANCH  55  69
BRANCH  56  77
ATOM     77  C   UNL A   1      37.461  31.140  29.405  1.00  0.00     0.057 A 
ATOM     78  C   UNL A   1      37.456  32.422  28.841  1.00  0.00     0.134 A 
ATOM     79  C   UNL A   1      36.337  30.335  29.178  1.00  0.00     0.134 A 
ATOM     80  F   UNL A   1      38.490  33.252  29.045  1.00  0.00    -0.206 F 
ATOM     81  C   UNL A   1      36.368  32.895  28.105  1.00  0.00     0.040 A 
ATOM     82  C   UNL A   1      35.255  30.783  28.418  1.00  0.00     0.040 A 
ATOM     83  F   UNL A   1      36.274  29.098  29.690  1.00  0.00    -0.206 F 
ATOM     84  C   UNL A   1      35.265  32.072  27.887  1.00  0.00     0.006 A 
ENDBRANCH  56  77
BRANCH  68  85
ATOM     85  C   UNL A   1      39.315  32.434  35.998  1.00  0.00     0.057 A 
ATOM     86  C   UNL A   1      38.341  31.982  36.897  1.00  0.00     0.134 A 
ATOM     87  C   UNL A   1      39.778  33.747  36.153  1.00  0.00     0.134 A 
ATOM     88  F   UNL A   1      37.846  30.739  36.798  1.00  0.00    -0.206 F 
ATOM     89  C   UNL A   1      37.831  32.813  37.897  1.00  0.00     0.040 A 
ATOM     90  C   UNL A   1      39.300  34.576  37.168  1.00  0.00     0.040 A 
ATOM     91  F   UNL A   1      40.720  34.239  35.333  1.00  0.00    -0.206 F 
ATOM     92  C   UNL A   1      38.317  34.113  38.039  1.00  0.00     0.006 A 
ENDBRANCH  68  85
ENDBRANCH  42  43
ENDBRANCH  35  37
ENDBRANCH  34  35
ENDBRANCH  33  34
ENDBRANCH  32  33
ENDBRANCH  31  32
ENDBRANCH  30  31
ENDBRANCH  29  30
ENDBRANCH  28  29
ENDBRANCH   1  28
TORSDOF 23
ENDMDL
MODEL 3
REMARK VINA RESULT:      -9.6      2.609      8.027
REMARK SMILES COC(=O)C1CCN(C(=O)N[C@@H]2C=C[C@H](C(=O)OCCOCCOCCOCCOC(=O)c3ccc(-c4c5nc(c(-c6c(F)cccc6F)c6ccc([nH]6)c(-c6c(F)cccc6F)c6nc(c(-c7c(F)cccc7F)c7ccc4[nH]7)C=C6)C=C5)cc3)C2)CC1
REMARK SMILES IDX 23 1 22 2 21 3 20 4 19 5 18 6 16 7 17 8 15 9 12 10 13 11
REMARK SMILES IDX 87 12 14 13 11 14 5 15 6 16 89 17 7 18 88 19 8 20 9 21 10 22
REMARK SMILES IDX 3 24 4 25 2 26 1 27 24 28 25 29 26 30 27 31 28 32 29 33
REMARK SMILES IDX 30 34 31 35 32 36 33 37 34 38 86 39 35 40 85 41 36 42 37 43
REMARK SMILES IDX 38 44 79 45 39 46 84 47 78 48 80 49 40 50 83 51 77 52 76 53
REMARK SMILES IDX 41 55 67 56 50 57 66 58 51 59 54 60 65 61 81 62 52 63 53 64
REMARK SMILES IDX 64 66 82 67 55 68 42 69 43 70 48 71 44 72 45 73 47 74 49 75
REMARK SMILES IDX 46 76 68 77 69 78 74 79 70 80 71 81 73 82 75 83 72 84 56 85
REMARK SMILES IDX 57 86 62 87 58 88 59 89 61 90 63 91 60 92
REMARK H PARENT 11 23 80 54 54 65
REMARK Flexibility Score: inf
ROOT
ATOM      1  C   UNL A   1      33.028  24.985  21.925  1.00  0.00     0.188 C 
ENDROOT
BRANCH   1   2
ATOM      2  C   UNL A   1      33.724  23.906  22.753  1.00  0.00     0.188 C 
BRANCH   2   3
ATOM      3  O   UNL A   1      33.086  22.653  22.939  1.00  0.00    -0.376 OA
BRANCH   3   4
ATOM      4  C   UNL A   1      32.090  22.219  22.019  1.00  0.00     0.202 C 
BRANCH   4   5
ATOM      5  C   UNL A   1      31.776  20.716  21.869  1.00  0.00     0.261 C 
BRANCH   5   6
ATOM      6  O   UNL A   1      32.477  19.818  22.767  1.00  0.00    -0.463 OA
BRANCH   6   7
ATOM      7  C   UNL A   1      32.452  18.486  22.472  1.00  0.00     0.312 C 
ATOM      8  O   UNL A   1      32.156  18.042  21.369  1.00  0.00    -0.252 OA
BRANCH   7   9
ATOM      9  C   UNL A   1      32.695  17.610  23.718  1.00  0.00     0.124 C 
ATOM     10  C   UNL A   1      34.744  17.873  25.133  1.00  0.00     0.107 C 
ATOM     11  C   UNL A   1      34.804  16.679  24.269  1.00  0.00    -0.006 C 
ATOM     12  C   UNL A   1      33.236  18.228  25.028  1.00  0.00     0.048 C 
ATOM     13  C   UNL A   1      33.737  16.555  23.469  1.00  0.00    -0.014 C 
BRANCH  10  14
ATOM     14  N   UNL A   1      35.688  18.994  24.913  1.00  0.00    -0.332 N 
ATOM     15  C   UNL A   1      33.846  22.953  27.462  1.00  0.00     0.102 C 
ATOM     16  C   UNL A   1      35.250  23.330  26.934  1.00  0.00     0.037 C 
ATOM     17  C   UNL A   1      33.596  21.459  27.216  1.00  0.00     0.037 C 
ATOM     18  C   UNL A   1      35.674  22.676  25.596  1.00  0.00     0.122 C 
ATOM     19  C   UNL A   1      33.775  21.213  25.729  1.00  0.00     0.122 C 
ATOM     20  N   UNL A   1      35.175  21.298  25.440  1.00  0.00    -0.325 N 
ATOM     21  C   UNL A   1      35.989  20.302  25.005  1.00  0.00     0.317 C 
ATOM     22  O   UNL A   1      37.148  20.558  24.646  1.00  0.00    -0.249 OA
ATOM     23  H   UNL A   1      36.479  18.581  24.498  1.00  0.00     0.165 HD
BRANCH  15  24
ATOM     24  C   UNL A   1      32.659  23.708  26.866  1.00  0.00     0.308 C 
ATOM     25  O   UNL A   1      31.491  23.432  27.128  1.00  0.00    -0.252 OA
BRANCH  24  26
ATOM     26  O   UNL A   1      33.022  24.726  26.047  1.00  0.00    -0.469 OA
ATOM     27  C   UNL A   1      32.303  25.935  26.320  1.00  0.00     0.282 C 
ENDBRANCH  24  26
ENDBRANCH  15  24
ENDBRANCH  10  14
ENDBRANCH   7   9
ENDBRANCH   6   7
ENDBRANCH   5   6
ENDBRANCH   4   5
ENDBRANCH   3   4
ENDBRANCH   2   3
ENDBRANCH   1   2
BRANCH   1  28
ATOM     28  O   UNL A   1      33.664  26.247  21.893  1.00  0.00    -0.377 OA
BRANCH  28  29
ATOM     29  C   UNL A   1      32.936  27.358  22.390  1.00  0.00     0.188 C 
BRANCH  29  30
ATOM     30  C   UNL A   1      33.739  28.545  22.943  1.00  0.00     0.188 C 
BRANCH  30  31
ATOM     31  O   UNL A   1      33.292  28.989  24.216  1.00  0.00    -0.376 OA
BRANCH  31  32
ATOM     32  C   UNL A   1      31.908  29.243  24.418  1.00  0.00     0.202 C 
BRANCH  32  33
ATOM     33  C   UNL A   1      31.477  30.216  25.532  1.00  0.00     0.261 C 
BRANCH  33  34
ATOM     34  O   UNL A   1      32.324  30.311  26.693  1.00  0.00    -0.460 OA
BRANCH  34  35
ATOM     35  C   UNL A   1      32.845  31.514  27.024  1.00  0.00     0.338 C 
ATOM     36  O   UNL A   1      32.293  32.588  26.987  1.00  0.00    -0.246 OA
BRANCH  35  37
ATOM     37  C   UNL A   1      34.168  31.262  27.648  1.00  0.00     0.060 A 
ATOM     38  C   UNL A   1      34.566  29.936  27.867  1.00  0.00     0.016 A 
ATOM     39  C   UNL A   1      35.018  32.315  27.992  1.00  0.00     0.016 A 
ATOM     40  C   UNL A   1      35.809  29.660  28.440  1.00  0.00     0.010 A 
ATOM     41  C   UNL A   1      36.251  32.039  28.596  1.00  0.00     0.010 A 
ATOM     42  C   UNL A   1      36.644  30.711  28.843  1.00  0.00    -0.014 A 
BRANCH  42  43
ATOM     43  C   UNL A   1      37.844  30.426  29.667  1.00  0.00     0.031 A 
ATOM     44  C   UNL A   1      38.892  29.501  29.113  1.00  0.00     0.074 A 
ATOM     45  C   UNL A   1      38.012  30.987  30.878  1.00  0.00     0.049 A 
ATOM     46  N   UNL A   1      39.986  29.050  29.672  1.00  0.00    -0.248 NA
ATOM     47  C   UNL A   1      38.674  29.017  27.739  1.00  0.00     0.031 C 
ATOM     48  C   UNL A   1      37.094  31.937  31.504  1.00  0.00     0.029 A 
ATOM     49  N   UNL A   1      39.012  30.825  31.805  1.00  0.00    -0.354 N 
ATOM     50  C   UNL A   1      40.580  28.226  28.726  1.00  0.00     0.074 A 
ATOM     51  C   UNL A   1      39.717  28.219  27.565  1.00  0.00     0.031 C 
ATOM     52  C   UNL A   1      37.563  32.257  32.723  1.00  0.00     0.029 A 
ATOM     53  C   UNL A   1      38.791  31.505  32.978  1.00  0.00     0.049 A 
ATOM     54  H   UNL A   1      39.811  30.272  31.645  1.00  0.00     0.167 HD
ATOM     55  C   UNL A   1      41.743  27.539  28.816  1.00  0.00     0.037 A 
ATOM     56  C   UNL A   1      39.486  31.494  34.135  1.00  0.00     0.037 A 
ATOM     57  C   UNL A   1      42.598  27.546  29.974  1.00  0.00     0.049 A 
ATOM     58  C   UNL A   1      40.732  30.651  34.240  1.00  0.00     0.074 A 
ATOM     59  C   UNL A   1      43.809  26.902  30.154  1.00  0.00     0.029 A 
ATOM     60  N   UNL A   1      42.323  28.220  31.154  1.00  0.00    -0.354 N 
ATOM     61  N   UNL A   1      41.305  29.901  33.329  1.00  0.00    -0.248 NA
ATOM     62  C   UNL A   1      41.429  30.653  35.535  1.00  0.00     0.031 C 
ATOM     63  C   UNL A   1      44.236  27.134  31.464  1.00  0.00     0.029 A 
ATOM     64  C   UNL A   1      43.324  27.976  32.079  1.00  0.00     0.049 A 
ATOM     65  H   UNL A   1      41.535  28.788  31.310  1.00  0.00     0.167 HD
ATOM     66  C   UNL A   1      42.437  29.365  33.931  1.00  0.00     0.074 A 
ATOM     67  C   UNL A   1      42.483  29.891  35.279  1.00  0.00     0.031 C 
ATOM     68  C   UNL A   1      43.357  28.512  33.416  1.00  0.00     0.037 A 
BRANCH  55  69
ATOM     69  C   UNL A   1      42.146  26.692  27.644  1.00  0.00     0.057 A 
ATOM     70  C   UNL A   1      41.697  25.373  27.490  1.00  0.00     0.134 A 
ATOM     71  C   UNL A   1      42.956  27.221  26.631  1.00  0.00     0.134 A 
ATOM     72  F   UNL A   1      40.931  24.801  28.431  1.00  0.00    -0.206 F 
ATOM     73  C   UNL A   1      42.054  24.607  26.378  1.00  0.00     0.040 A 
ATOM     74  C   UNL A   1      43.296  26.475  25.502  1.00  0.00     0.040 A 
ATOM     75  F   UNL A   1      43.418  28.478  26.715  1.00  0.00    -0.206 F 
ATOM     76  C   UNL A   1      42.849  25.161  25.376  1.00  0.00     0.006 A 
ENDBRANCH  55  69
BRANCH  56  77
ATOM     77  C   UNL A   1      39.004  32.272  35.307  1.00  0.00     0.057 A 
ATOM     78  C   UNL A   1      39.382  33.606  35.505  1.00  0.00     0.134 A 
ATOM     79  C   UNL A   1      38.191  31.685  36.286  1.00  0.00     0.134 A 
ATOM     80  F   UNL A   1      40.182  34.218  34.620  1.00  0.00    -0.206 F 
ATOM     81  C   UNL A   1      38.991  34.319  36.640  1.00  0.00     0.040 A 
ATOM     82  C   UNL A   1      37.767  32.395  37.410  1.00  0.00     0.040 A 
ATOM     83  F   UNL A   1      37.794  30.410  36.161  1.00  0.00    -0.206 F 
ATOM     84  C   UNL A   1      38.176  33.714  37.595  1.00  0.00     0.006 A 
ENDBRANCH  56  77
BRANCH  68  85
ATOM     85  C   UNL A   1      44.509  28.118  34.299  1.00  0.00     0.057 A 
ATOM     86  C   UNL A   1      44.465  26.976  35.109  1.00  0.00     0.134 A 
ATOM     87  C   UNL A   1      45.695  28.864  34.298  1.00  0.00     0.134 A 
ATOM     88  F   UNL A   1      43.355  26.224  35.166  1.00  0.00    -0.206 F 
ATOM     89  C   UNL A   1      45.550  26.605  35.905  1.00  0.00     0.040 A 
ATOM     90  C   UNL A   1      46.798  28.485  35.064  1.00  0.00     0.040 A 
ATOM     91  F   UNL A   1      45.809  29.962  33.535  1.00  0.00    -0.206 F 
ATOM     92  C   UNL A   1      46.725  27.356  35.877  1.00  0.00     0.006 A 
ENDBRANCH  68  85
ENDBRANCH  42  43
ENDBRANCH  35  37
ENDBRANCH  34  35
ENDBRANCH  33  34
ENDBRANCH  32  33
ENDBRANCH  31  32
ENDBRANCH  30  31
ENDBRANCH  29  30
ENDBRANCH  28  29
ENDBRANCH   1  28
TORSDOF 23
ENDMDL
