MODEL 1
REMARK VINA RESULT:     -10.7      0.000      0.000
REMARK SMILES C[C@@H]1[C@@H](C(=O)OCCOCCOCCOCCOC(=O)c2ccc(-c3c4nc(c(-c5c(F)cccc5F)c5ccc([nH]5)c(-c5c(F)cccc5F)c5nc(c(-c6c(F)cccc6F)c6ccc3[nH]6)C=C5)C=C4)cc2)CCN1C(=O)N1CCC[C@H]2CCC[C@@H]21
REMARK SMILES IDX 12 1 11 2 10 3 9 4 8 5 7 6 6 7 4 8 5 9 3 10 1 11 2 12 77 13
REMARK SMILES IDX 75 14 76 15 78 16 79 17 80 18 81 19 88 20 82 21 84 22 87 23
REMARK SMILES IDX 83 24 85 25 86 26 13 27 14 28 15 29 16 30 17 31 18 32 19 33
REMARK SMILES IDX 20 34 21 35 22 36 74 37 23 38 73 39 24 40 25 41 26 42 67 43
REMARK SMILES IDX 27 44 72 45 66 46 68 47 28 48 71 49 65 50 64 51 29 53 55 54
REMARK SMILES IDX 38 55 54 56 39 57 42 58 53 59 69 60 40 61 41 62 52 64 70 65
REMARK SMILES IDX 43 66 30 67 31 68 36 69 32 70 33 71 35 72 37 73 34 74 56 75
REMARK SMILES IDX 57 76 62 77 58 78 59 79 61 80 63 81 60 82 44 83 45 84 50 85
REMARK SMILES IDX 46 86 47 87 49 88 51 89 48 90
REMARK H PARENT 68 52 42 63
REMARK Flexibility Score: inf
ROOT
ATOM      1  O   UNL A   1      42.286  19.779  25.270  1.00  0.00    -0.377 OA
ENDROOT
BRANCH   1   2
ATOM      2  C   UNL A   1      41.667  20.657  26.189  1.00  0.00     0.188 C 
BRANCH   2   3
ATOM      3  C   UNL A   1      40.150  20.433  26.302  1.00  0.00     0.188 C 
BRANCH   3   4
ATOM      4  O   UNL A   1      39.292  21.553  26.201  1.00  0.00    -0.376 OA
BRANCH   4   5
ATOM      5  C   UNL A   1      38.140  21.622  25.375  1.00  0.00     0.202 C 
BRANCH   5   6
ATOM      6  C   UNL A   1      36.692  21.962  25.783  1.00  0.00     0.261 C 
BRANCH   6   7
ATOM      7  O   UNL A   1      35.643  21.605  24.895  1.00  0.00    -0.463 OA
BRANCH   7   8
ATOM      8  C   UNL A   1      34.441  21.417  25.486  1.00  0.00     0.311 C 
ATOM      9  O   UNL A   1      34.288  21.184  26.673  1.00  0.00    -0.252 OA
BRANCH   8  10
ATOM     10  C   UNL A   1      33.343  21.659  24.469  1.00  0.00     0.123 C 
ATOM     11  C   UNL A   1      33.022  22.741  22.226  1.00  0.00     0.032 C 
ATOM     12  C   UNL A   1      33.694  22.866  23.598  1.00  0.00     0.098 C 
ATOM     13  N   UNL A   1      33.197  23.990  24.402  1.00  0.00    -0.321 N 
ATOM     14  C   UNL A   1      32.030  22.044  25.121  1.00  0.00     0.039 C 
ATOM     15  C   UNL A   1      32.216  23.531  25.382  1.00  0.00     0.122 C 
BRANCH  13  16
ATOM     16  C   UNL A   1      33.968  25.104  24.740  1.00  0.00     0.320 C 
ATOM     17  O   UNL A   1      35.009  25.010  25.388  1.00  0.00    -0.248 OA
BRANCH  16  18
ATOM     18  N   UNL A   1      33.542  26.299  24.202  1.00  0.00    -0.321 N 
ATOM     19  C   UNL A   1      33.515  26.494  22.758  1.00  0.00     0.121 C 
ATOM     20  C   UNL A   1      32.663  27.203  24.923  1.00  0.00     0.090 C 
ATOM     21  C   UNL A   1      33.899  27.928  22.378  1.00  0.00     0.022 C 
ATOM     22  C   UNL A   1      33.179  28.625  24.674  1.00  0.00     0.012 C 
ATOM     23  C   UNL A   1      32.594  27.164  26.447  1.00  0.00     0.025 C 
ATOM     24  C   UNL A   1      33.113  28.971  23.190  1.00  0.00     0.007 C 
ATOM     25  C   UNL A   1      32.339  29.470  25.616  1.00  0.00     0.006 C 
ATOM     26  C   UNL A   1      32.149  28.579  26.849  1.00  0.00     0.002 C 
ENDBRANCH  16  18
ENDBRANCH  13  16
ENDBRANCH   8  10
ENDBRANCH   7   8
ENDBRANCH   6   7
ENDBRANCH   5   6
ENDBRANCH   4   5
ENDBRANCH   3   4
ENDBRANCH   2   3
ENDBRANCH   1   2
BRANCH   1  27
ATOM     27  C   UNL A   1      43.306  18.932  25.786  1.00  0.00     0.188 C 
BRANCH  27  28
ATOM     28  C   UNL A   1      44.692  18.878  25.098  1.00  0.00     0.188 C 
BRANCH  28  29
ATOM     29  O   UNL A   1      44.916  19.897  24.133  1.00  0.00    -0.376 OA
BRANCH  29  30
ATOM     30  C   UNL A   1      45.218  21.209  24.579  1.00  0.00     0.202 C 
BRANCH  30  31
ATOM     31  C   UNL A   1      44.380  22.349  23.982  1.00  0.00     0.261 C 
BRANCH  31  32
ATOM     32  O   UNL A   1      43.828  23.277  24.927  1.00  0.00    -0.460 OA
BRANCH  32  33
ATOM     33  C   UNL A   1      44.521  24.420  25.137  1.00  0.00     0.338 C 
ATOM     34  O   UNL A   1      45.532  24.781  24.573  1.00  0.00    -0.246 OA
BRANCH  33  35
ATOM     35  C   UNL A   1      43.720  25.268  26.046  1.00  0.00     0.060 A 
ATOM     36  C   UNL A   1      43.919  26.655  26.026  1.00  0.00     0.016 A 
ATOM     37  C   UNL A   1      42.776  24.700  26.906  1.00  0.00     0.016 A 
ATOM     38  C   UNL A   1      43.204  27.475  26.897  1.00  0.00     0.010 A 
ATOM     39  C   UNL A   1      42.078  25.519  27.795  1.00  0.00     0.010 A 
ATOM     40  C   UNL A   1      42.316  26.906  27.820  1.00  0.00    -0.014 A 
BRANCH  40  41
ATOM     41  C   UNL A   1      41.807  27.724  28.946  1.00  0.00     0.031 A 
ATOM     42  C   UNL A   1      42.515  27.630  30.269  1.00  0.00     0.074 A 
ATOM     43  C   UNL A   1      40.757  28.551  28.797  1.00  0.00     0.049 A 
ATOM     44  N   UNL A   1      42.229  28.201  31.411  1.00  0.00    -0.248 NA
ATOM     45  C   UNL A   1      43.710  26.769  30.309  1.00  0.00     0.031 C 
ATOM     46  C   UNL A   1      40.017  28.768  27.556  1.00  0.00     0.029 A 
ATOM     47  N   UNL A   1      40.129  29.358  29.712  1.00  0.00    -0.354 N 
ATOM     48  C   UNL A   1      43.201  27.763  32.302  1.00  0.00     0.074 A 
ATOM     49  C   UNL A   1      44.063  26.854  31.582  1.00  0.00     0.031 C 
ATOM     50  C   UNL A   1      39.023  29.641  27.790  1.00  0.00     0.029 A 
ATOM     51  C   UNL A   1      39.035  30.018  29.203  1.00  0.00     0.049 A 
ATOM     52  H   UNL A   1      40.431  29.456  30.643  1.00  0.00     0.167 HD
ATOM     53  C   UNL A   1      43.365  28.097  33.605  1.00  0.00     0.037 A 
ATOM     54  C   UNL A   1      38.138  30.812  29.818  1.00  0.00     0.037 A 
ATOM     55  C   UNL A   1      42.502  28.998  34.320  1.00  0.00     0.049 A 
ATOM     56  C   UNL A   1      38.291  31.100  31.291  1.00  0.00     0.074 A 
ATOM     57  C   UNL A   1      42.591  29.411  35.638  1.00  0.00     0.029 A 
ATOM     58  N   UNL A   1      41.386  29.618  33.781  1.00  0.00    -0.354 N 
ATOM     59  N   UNL A   1      39.224  30.702  32.122  1.00  0.00    -0.248 NA
ATOM     60  C   UNL A   1      37.266  31.953  31.911  1.00  0.00     0.031 C 
ATOM     61  C   UNL A   1      41.493  30.232  35.913  1.00  0.00     0.029 A 
ATOM     62  C   UNL A   1      40.759  30.387  34.748  1.00  0.00     0.049 A 
ATOM     63  H   UNL A   1      41.083  29.526  32.849  1.00  0.00     0.167 HD
ATOM     64  C   UNL A   1      38.919  31.281  33.348  1.00  0.00     0.074 A 
ATOM     65  C   UNL A   1      37.721  32.069  33.150  1.00  0.00     0.031 C 
ATOM     66  C   UNL A   1      39.572  31.175  34.533  1.00  0.00     0.037 A 
BRANCH  53  67
ATOM     67  C   UNL A   1      44.502  27.455  34.344  1.00  0.00     0.057 A 
ATOM     68  C   UNL A   1      45.766  28.055  34.434  1.00  0.00     0.134 A 
ATOM     69  C   UNL A   1      44.323  26.229  35.000  1.00  0.00     0.134 A 
ATOM     70  F   UNL A   1      46.011  29.219  33.815  1.00  0.00    -0.206 F 
ATOM     71  C   UNL A   1      46.815  27.447  35.127  1.00  0.00     0.040 A 
ATOM     72  C   UNL A   1      45.355  25.628  35.720  1.00  0.00     0.040 A 
ATOM     73  F   UNL A   1      43.139  25.601  34.956  1.00  0.00    -0.206 F 
ATOM     74  C   UNL A   1      46.608  26.233  35.779  1.00  0.00     0.006 A 
ENDBRANCH  53  67
BRANCH  54  75
ATOM     75  C   UNL A   1      36.996  31.381  29.056  1.00  0.00     0.057 A 
ATOM     76  C   UNL A   1      36.986  32.723  28.655  1.00  0.00     0.134 A 
ATOM     77  C   UNL A   1      35.872  30.608  28.740  1.00  0.00     0.134 A 
ATOM     78  F   UNL A   1      38.021  33.523  28.949  1.00  0.00    -0.206 F 
ATOM     79  C   UNL A   1      35.892  33.280  27.990  1.00  0.00     0.040 A 
ATOM     80  C   UNL A   1      34.783  31.145  28.050  1.00  0.00     0.040 A 
ATOM     81  F   UNL A   1      35.816  29.317  29.096  1.00  0.00    -0.206 F 
ATOM     82  C   UNL A   1      34.788  32.488  27.681  1.00  0.00     0.006 A 
ENDBRANCH  54  75
BRANCH  66  83
ATOM     83  C   UNL A   1      39.037  31.964  35.694  1.00  0.00     0.057 A 
ATOM     84  C   UNL A   1      39.356  33.314  35.890  1.00  0.00     0.134 A 
ATOM     85  C   UNL A   1      38.151  31.373  36.605  1.00  0.00     0.134 A 
ATOM     86  F   UNL A   1      40.204  33.939  35.061  1.00  0.00    -0.206 F 
ATOM     87  C   UNL A   1      38.834  34.038  36.965  1.00  0.00     0.040 A 
ATOM     88  C   UNL A   1      37.599  32.095  37.664  1.00  0.00     0.040 A 
ATOM     89  F   UNL A   1      37.793  30.087  36.471  1.00  0.00    -0.206 F 
ATOM     90  C   UNL A   1      37.947  33.431  37.851  1.00  0.00     0.006 A 
ENDBRANCH  66  83
ENDBRANCH  40  41
ENDBRANCH  33  35
ENDBRANCH  32  33
ENDBRANCH  31  32
ENDBRANCH  30  31
ENDBRANCH  29  30
ENDBRANCH  28  29
ENDBRANCH  27  28
ENDBRANCH   1  27
TORSDOF 22
ENDMDL
MODEL 2
REMARK VINA RESULT:     -10.7      0.993      2.032
REMARK SMILES C[C@@H]1[C@@H](C(=O)OCCOCCOCCOCCOC(=O)c2ccc(-c3c4nc(c(-c5c(F)cccc5F)c5ccc([nH]5)c(-c5c(F)cccc5F)c5nc(c(-c6c(F)cccc6F)c6ccc3[nH]6)C=C5)C=C4)cc2)CCN1C(=O)N1CCC[C@H]2CCC[C@@H]21
REMARK SMILES IDX 12 1 11 2 10 3 9 4 8 5 7 6 6 7 4 8 5 9 3 10 1 11 2 12 77 13
REMARK SMILES IDX 75 14 76 15 78 16 79 17 80 18 81 19 88 20 82 21 84 22 87 23
REMARK SMILES IDX 83 24 85 25 86 26 13 27 14 28 15 29 16 30 17 31 18 32 19 33
REMARK SMILES IDX 20 34 21 35 22 36 74 37 23 38 73 39 24 40 25 41 26 42 67 43
REMARK SMILES IDX 27 44 72 45 66 46 68 47 28 48 71 49 65 50 64 51 29 53 55 54
REMARK SMILES IDX 38 55 54 56 39 57 42 58 53 59 69 60 40 61 41 62 52 64 70 65
REMARK SMILES IDX 43 66 30 67 31 68 36 69 32 70 33 71 35 72 37 73 34 74 56 75
REMARK SMILES IDX 57 76 62 77 58 78 59 79 61 80 63 81 60 82 44 83 45 84 50 85
REMARK SMILES IDX 46 86 47 87 49 88 51 89 48 90
REMARK H PARENT 68 52 42 63
REMARK Flexibility Score: inf
ROOT
ATOM      1  O   UNL A   1      42.062  19.348  26.754  1.00  0.00    -0.377 OA
ENDROOT
BRANCH   1   2
ATOM      2  C   UNL A   1      40.815  19.770  26.239  1.00  0.00     0.188 C 
BRANCH   2   3
ATOM      3  C   UNL A   1      40.307  21.068  26.889  1.00  0.00     0.188 C 
BRANCH   3   4
ATOM      4  O   UNL A   1      39.439  21.901  26.146  1.00  0.00    -0.376 OA
BRANCH   4   5
ATOM      5  C   UNL A   1      38.363  21.442  25.342  1.00  0.00     0.202 C 
BRANCH   5   6
ATOM      6  C   UNL A   1      36.864  21.785  25.466  1.00  0.00     0.261 C 
BRANCH   6   7
ATOM      7  O   UNL A   1      36.445  23.099  25.126  1.00  0.00    -0.463 OA
BRANCH   7   8
ATOM      8  C   UNL A   1      35.671  23.176  24.020  1.00  0.00     0.311 C 
ATOM      9  O   UNL A   1      36.103  23.298  22.886  1.00  0.00    -0.252 OA
BRANCH   8  10
ATOM     10  C   UNL A   1      34.221  22.972  24.413  1.00  0.00     0.123 C 
ATOM     11  C   UNL A   1      31.950  22.874  23.348  1.00  0.00     0.032 C 
ATOM     12  C   UNL A   1      33.302  23.595  23.362  1.00  0.00     0.098 C 
ATOM     13  N   UNL A   1      33.225  24.995  23.801  1.00  0.00    -0.321 N 
ATOM     14  C   UNL A   1      33.864  23.701  25.694  1.00  0.00     0.039 C 
ATOM     15  C   UNL A   1      33.609  25.118  25.204  1.00  0.00     0.122 C 
BRANCH  13  16
ATOM     16  C   UNL A   1      33.480  26.085  22.968  1.00  0.00     0.320 C 
ATOM     17  O   UNL A   1      33.887  25.950  21.815  1.00  0.00    -0.248 OA
BRANCH  16  18
ATOM     18  N   UNL A   1      33.137  27.315  23.486  1.00  0.00    -0.321 N 
ATOM     19  C   UNL A   1      34.150  28.174  24.087  1.00  0.00     0.121 C 
ATOM     20  C   UNL A   1      31.951  28.035  23.055  1.00  0.00     0.090 C 
ATOM     21  C   UNL A   1      33.595  28.937  25.294  1.00  0.00     0.022 C 
ATOM     22  C   UNL A   1      31.310  28.638  24.310  1.00  0.00     0.012 C 
ATOM     23  C   UNL A   1      30.773  27.286  22.439  1.00  0.00     0.025 C 
ATOM     24  C   UNL A   1      32.259  29.630  24.976  1.00  0.00     0.007 C 
ATOM     25  C   UNL A   1      29.990  29.187  23.797  1.00  0.00     0.006 C 
ATOM     26  C   UNL A   1      29.556  28.178  22.728  1.00  0.00     0.002 C 
ENDBRANCH  16  18
ENDBRANCH  13  16
ENDBRANCH   8  10
ENDBRANCH   7   8
ENDBRANCH   6   7
ENDBRANCH   5   6
ENDBRANCH   4   5
ENDBRANCH   3   4
ENDBRANCH   2   3
ENDBRANCH   1   2
BRANCH   1  27
ATOM     27  C   UNL A   1      42.806  18.436  25.955  1.00  0.00     0.188 C 
BRANCH  27  28
ATOM     28  C   UNL A   1      44.186  18.847  25.387  1.00  0.00     0.188 C 
BRANCH  28  29
ATOM     29  O   UNL A   1      44.149  19.920  24.456  1.00  0.00    -0.376 OA
BRANCH  29  30
ATOM     30  C   UNL A   1      44.623  21.194  24.858  1.00  0.00     0.202 C 
BRANCH  30  31
ATOM     31  C   UNL A   1      44.202  22.390  23.993  1.00  0.00     0.261 C 
BRANCH  31  32
ATOM     32  O   UNL A   1      43.562  23.469  24.690  1.00  0.00    -0.460 OA
BRANCH  32  33
ATOM     33  C   UNL A   1      44.345  24.511  25.054  1.00  0.00     0.338 C 
ATOM     34  O   UNL A   1      45.431  24.807  24.603  1.00  0.00    -0.246 OA
BRANCH  33  35
ATOM     35  C   UNL A   1      43.559  25.361  25.973  1.00  0.00     0.060 A 
ATOM     36  C   UNL A   1      43.793  26.743  25.980  1.00  0.00     0.016 A 
ATOM     37  C   UNL A   1      42.596  24.802  26.815  1.00  0.00     0.016 A 
ATOM     38  C   UNL A   1      43.092  27.565  26.862  1.00  0.00     0.010 A 
ATOM     39  C   UNL A   1      41.911  25.622  27.715  1.00  0.00     0.010 A 
ATOM     40  C   UNL A   1      42.183  27.001  27.767  1.00  0.00    -0.014 A 
BRANCH  40  41
ATOM     41  C   UNL A   1      41.687  27.812  28.905  1.00  0.00     0.031 A 
ATOM     42  C   UNL A   1      42.421  27.722  30.214  1.00  0.00     0.074 A 
ATOM     43  C   UNL A   1      40.625  28.627  28.778  1.00  0.00     0.049 A 
ATOM     44  N   UNL A   1      42.150  28.287  31.362  1.00  0.00    -0.248 NA
ATOM     45  C   UNL A   1      43.625  26.874  30.230  1.00  0.00     0.031 C 
ATOM     46  C   UNL A   1      39.859  28.838  27.552  1.00  0.00     0.029 A 
ATOM     47  N   UNL A   1      40.005  29.425  29.706  1.00  0.00    -0.354 N 
ATOM     48  C   UNL A   1      43.143  27.858  32.235  1.00  0.00     0.074 A 
ATOM     49  C   UNL A   1      44.002  26.960  31.495  1.00  0.00     0.031 C 
ATOM     50  C   UNL A   1      38.860  29.700  27.807  1.00  0.00     0.029 A 
ATOM     51  C   UNL A   1      38.895  30.074  29.220  1.00  0.00     0.049 A 
ATOM     52  H   UNL A   1      40.324  29.523  30.632  1.00  0.00     0.167 HD
ATOM     53  C   UNL A   1      43.328  28.191  33.534  1.00  0.00     0.037 A 
ATOM     54  C   UNL A   1      38.000  30.856  29.854  1.00  0.00     0.037 A 
ATOM     55  C   UNL A   1      42.469  29.080  34.268  1.00  0.00     0.049 A 
ATOM     56  C   UNL A   1      38.179  31.142  31.324  1.00  0.00     0.074 A 
ATOM     57  C   UNL A   1      42.578  29.491  35.585  1.00  0.00     0.029 A 
ATOM     58  N   UNL A   1      41.336  29.689  33.752  1.00  0.00    -0.354 N 
ATOM     59  N   UNL A   1      39.131  30.753  32.137  1.00  0.00    -0.248 NA
ATOM     60  C   UNL A   1      37.155  31.982  31.965  1.00  0.00     0.031 C 
ATOM     61  C   UNL A   1      41.477  30.299  35.883  1.00  0.00     0.029 A 
ATOM     62  C   UNL A   1      40.719  30.448  34.732  1.00  0.00     0.049 A 
ATOM     63  H   UNL A   1      41.017  29.596  32.825  1.00  0.00     0.167 HD
ATOM     64  C   UNL A   1      38.843  31.326  33.370  1.00  0.00     0.074 A 
ATOM     65  C   UNL A   1      37.632  32.100  33.196  1.00  0.00     0.031 C 
ATOM     66  C   UNL A   1      39.520  31.224  34.542  1.00  0.00     0.037 A 
BRANCH  53  67
ATOM     67  C   UNL A   1      44.486  27.560  34.251  1.00  0.00     0.057 A 
ATOM     68  C   UNL A   1      44.389  26.303  34.864  1.00  0.00     0.134 A 
ATOM     69  C   UNL A   1      45.727  28.209  34.305  1.00  0.00     0.134 A 
ATOM     70  F   UNL A   1      43.226  25.636  34.864  1.00  0.00    -0.206 F 
ATOM     71  C   UNL A   1      45.476  25.728  35.526  1.00  0.00     0.040 A 
ATOM     72  C   UNL A   1      46.828  27.630  34.938  1.00  0.00     0.040 A 
ATOM     73  F   UNL A   1      45.891  29.414  33.738  1.00  0.00    -0.206 F 
ATOM     74  C   UNL A   1      46.702  26.388  35.556  1.00  0.00     0.006 A 
ENDBRANCH  53  67
BRANCH  54  75
ATOM     75  C   UNL A   1      36.838  31.414  29.115  1.00  0.00     0.057 A 
ATOM     76  C   UNL A   1      35.738  30.614  28.779  1.00  0.00     0.134 A 
ATOM     77  C   UNL A   1      36.814  32.749  28.694  1.00  0.00     0.134 A 
ATOM     78  F   UNL A   1      35.711  29.321  29.130  1.00  0.00    -0.206 F 
ATOM     79  C   UNL A   1      34.669  31.116  28.035  1.00  0.00     0.040 A 
ATOM     80  C   UNL A   1      35.738  33.272  27.974  1.00  0.00     0.040 A 
ATOM     81  F   UNL A   1      37.836  33.568  28.981  1.00  0.00    -0.206 F 
ATOM     82  C   UNL A   1      34.665  32.451  27.634  1.00  0.00     0.006 A 
ENDBRANCH  54  75
BRANCH  66  83
ATOM     83  C   UNL A   1      38.997  32.005  35.715  1.00  0.00     0.057 A 
ATOM     84  C   UNL A   1      38.192  31.422  36.701  1.00  0.00     0.134 A 
ATOM     85  C   UNL A   1      39.347  33.352  35.882  1.00  0.00     0.134 A 
ATOM     86  F   UNL A   1      37.814  30.139  36.600  1.00  0.00    -0.206 F 
ATOM     87  C   UNL A   1      37.730  32.158  37.795  1.00  0.00     0.040 A 
ATOM     88  C   UNL A   1      38.918  34.088  36.987  1.00  0.00     0.040 A 
ATOM     89  F   UNL A   1      40.126  33.971  34.981  1.00  0.00    -0.206 F 
ATOM     90  C   UNL A   1      38.100  33.493  37.944  1.00  0.00     0.006 A 
ENDBRANCH  66  83
ENDBRANCH  40  41
ENDBRANCH  33  35
ENDBRANCH  32  33
ENDBRANCH  31  32
ENDBRANCH  30  31
ENDBRANCH  29  30
ENDBRANCH  28  29
ENDBRANCH  27  28
ENDBRANCH   1  27
TORSDOF 22
ENDMDL
MODEL 3
REMARK VINA RESULT:     -10.6      1.078      1.947
REMARK SMILES C[C@@H]1[C@@H](C(=O)OCCOCCOCCOCCOC(=O)c2ccc(-c3c4nc(c(-c5c(F)cccc5F)c5ccc([nH]5)c(-c5c(F)cccc5F)c5nc(c(-c6c(F)cccc6F)c6ccc3[nH]6)C=C5)C=C4)cc2)CCN1C(=O)N1CCC[C@H]2CCC[C@@H]21
REMARK SMILES IDX 12 1 11 2 10 3 9 4 8 5 7 6 6 7 4 8 5 9 3 10 1 11 2 12 77 13
REMARK SMILES IDX 75 14 76 15 78 16 79 17 80 18 81 19 88 20 82 21 84 22 87 23
REMARK SMILES IDX 83 24 85 25 86 26 13 27 14 28 15 29 16 30 17 31 18 32 19 33
REMARK SMILES IDX 20 34 21 35 22 36 74 37 23 38 73 39 24 40 25 41 26 42 67 43
REMARK SMILES IDX 27 44 72 45 66 46 68 47 28 48 71 49 65 50 64 51 29 53 55 54
REMARK SMILES IDX 38 55 54 56 39 57 42 58 53 59 69 60 40 61 41 62 52 64 70 65
REMARK SMILES IDX 43 66 30 67 31 68 36 69 32 70 33 71 35 72 37 73 34 74 56 75
REMARK SMILES IDX 57 76 62 77 58 78 59 79 61 80 63 81 60 82 44 83 45 84 50 85
REMARK SMILES IDX 46 86 47 87 49 88 51 89 48 90
REMARK H PARENT 68 52 42 63
REMARK Flexibility Score: inf
ROOT
ATOM      1  O   UNL A   1      42.676  19.905  26.170  1.00  0.00    -0.377 OA
ENDROOT
BRANCH   1   2
ATOM      2  C   UNL A   1      41.282  19.671  26.171  1.00  0.00     0.188 C 
BRANCH   2   3
ATOM      3  C   UNL A   1      40.468  20.913  26.571  1.00  0.00     0.188 C 
BRANCH   3   4
ATOM      4  O   UNL A   1      39.664  21.539  25.591  1.00  0.00    -0.376 OA
BRANCH   4   5
ATOM      5  C   UNL A   1      38.314  21.936  25.779  1.00  0.00     0.202 C 
BRANCH   5   6
ATOM      6  C   UNL A   1      37.767  23.348  26.073  1.00  0.00     0.261 C 
BRANCH   6   7
ATOM      7  O   UNL A   1      36.390  23.479  26.400  1.00  0.00    -0.463 OA
BRANCH   7   8
ATOM      8  C   UNL A   1      35.556  23.493  25.335  1.00  0.00     0.311 C 
ATOM      9  O   UNL A   1      35.516  24.387  24.506  1.00  0.00    -0.252 OA
BRANCH   8  10
ATOM     10  C   UNL A   1      34.787  22.188  25.289  1.00  0.00     0.123 C 
ATOM     11  C   UNL A   1      32.786  21.189  24.148  1.00  0.00     0.032 C 
ATOM     12  C   UNL A   1      33.353  22.442  24.826  1.00  0.00     0.098 C 
ATOM     13  N   UNL A   1      32.675  22.798  26.079  1.00  0.00    -0.321 N 
ATOM     14  C   UNL A   1      34.627  21.567  26.663  1.00  0.00     0.039 C 
ATOM     15  C   UNL A   1      33.440  22.330  27.231  1.00  0.00     0.122 C 
BRANCH  13  16
ATOM     16  C   UNL A   1      31.905  23.951  26.245  1.00  0.00     0.320 C 
ATOM     17  O   UNL A   1      31.439  24.276  27.336  1.00  0.00    -0.248 OA
BRANCH  16  18
ATOM     18  N   UNL A   1      31.798  24.754  25.131  1.00  0.00    -0.321 N 
ATOM     19  C   UNL A   1      30.803  24.470  24.105  1.00  0.00     0.121 C 
ATOM     20  C   UNL A   1      32.260  26.131  25.122  1.00  0.00     0.090 C 
ATOM     21  C   UNL A   1      31.337  24.779  22.703  1.00  0.00     0.022 C 
ATOM     22  C   UNL A   1      32.955  26.363  23.775  1.00  0.00     0.012 C 
ATOM     23  C   UNL A   1      33.331  26.594  26.104  1.00  0.00     0.025 C 
ATOM     24  C   UNL A   1      31.974  26.177  22.622  1.00  0.00     0.007 C 
ATOM     25  C   UNL A   1      33.575  27.740  23.936  1.00  0.00     0.006 C 
ATOM     26  C   UNL A   1      34.002  27.789  25.408  1.00  0.00     0.002 C 
ENDBRANCH  16  18
ENDBRANCH  13  16
ENDBRANCH   8  10
ENDBRANCH   7   8
ENDBRANCH   6   7
ENDBRANCH   5   6
ENDBRANCH   4   5
ENDBRANCH   3   4
ENDBRANCH   2   3
ENDBRANCH   1   2
BRANCH   1  27
ATOM     27  C   UNL A   1      43.444  19.178  25.218  1.00  0.00     0.188 C 
BRANCH  27  28
ATOM     28  C   UNL A   1      44.761  19.775  24.664  1.00  0.00     0.188 C 
BRANCH  28  29
ATOM     29  O   UNL A   1      45.347  20.780  25.479  1.00  0.00    -0.376 OA
BRANCH  29  30
ATOM     30  C   UNL A   1      46.214  21.729  24.881  1.00  0.00     0.202 C 
BRANCH  30  31
ATOM     31  C   UNL A   1      45.548  22.895  24.136  1.00  0.00     0.261 C 
BRANCH  31  32
ATOM     32  O   UNL A   1      44.768  23.787  24.944  1.00  0.00    -0.460 OA
BRANCH  32  33
ATOM     33  C   UNL A   1      43.427  23.600  24.942  1.00  0.00     0.338 C 
ATOM     34  O   UNL A   1      42.816  22.675  24.451  1.00  0.00    -0.246 OA
BRANCH  33  35
ATOM     35  C   UNL A   1      42.831  24.627  25.823  1.00  0.00     0.060 A 
ATOM     36  C   UNL A   1      43.473  25.867  25.944  1.00  0.00     0.016 A 
ATOM     37  C   UNL A   1      41.647  24.372  26.517  1.00  0.00     0.016 A 
ATOM     38  C   UNL A   1      42.953  26.841  26.795  1.00  0.00     0.010 A 
ATOM     39  C   UNL A   1      41.140  25.339  27.387  1.00  0.00     0.010 A 
ATOM     40  C   UNL A   1      41.812  26.563  27.558  1.00  0.00    -0.014 A 
BRANCH  40  41
ATOM     41  C   UNL A   1      41.450  27.456  28.684  1.00  0.00     0.031 A 
ATOM     42  C   UNL A   1      42.255  27.364  29.951  1.00  0.00     0.074 A 
ATOM     43  C   UNL A   1      40.447  28.347  28.583  1.00  0.00     0.049 A 
ATOM     44  N   UNL A   1      42.100  27.996  31.086  1.00  0.00    -0.248 NA
ATOM     45  C   UNL A   1      43.391  26.426  29.934  1.00  0.00     0.031 C 
ATOM     46  C   UNL A   1      39.624  28.566  27.396  1.00  0.00     0.029 A 
ATOM     47  N   UNL A   1      39.948  29.228  29.508  1.00  0.00    -0.354 N 
ATOM     48  C   UNL A   1      43.111  27.527  31.916  1.00  0.00     0.074 A 
ATOM     49  C   UNL A   1      43.851  26.534  31.170  1.00  0.00     0.031 C 
ATOM     50  C   UNL A   1      38.711  29.513  27.669  1.00  0.00     0.029 A 
ATOM     51  C   UNL A   1      38.862  29.941  29.060  1.00  0.00     0.049 A 
ATOM     52  H   UNL A   1      40.331  29.340  30.408  1.00  0.00     0.167 HD
ATOM     53  C   UNL A   1      43.401  27.897  33.186  1.00  0.00     0.037 A 
ATOM     54  C   UNL A   1      38.070  30.817  29.708  1.00  0.00     0.037 A 
ATOM     55  C   UNL A   1      42.659  28.881  33.928  1.00  0.00     0.049 A 
ATOM     56  C   UNL A   1      38.361  31.149  31.151  1.00  0.00     0.074 A 
ATOM     57  C   UNL A   1      42.881  29.337  35.216  1.00  0.00     0.029 A 
ATOM     58  N   UNL A   1      41.545  29.555  33.452  1.00  0.00    -0.354 N 
ATOM     59  N   UNL A   1      39.330  30.720  31.923  1.00  0.00    -0.248 NA
ATOM     60  C   UNL A   1      37.446  32.092  31.812  1.00  0.00     0.031 C 
ATOM     61  C   UNL A   1      41.865  30.240  35.540  1.00  0.00     0.029 A 
ATOM     62  C   UNL A   1      41.050  30.400  34.431  1.00  0.00     0.049 A 
ATOM     63  H   UNL A   1      41.163  29.449  32.551  1.00  0.00     0.167 HD
ATOM     64  C   UNL A   1      39.164  31.365  33.143  1.00  0.00     0.074 A 
ATOM     65  C   UNL A   1      38.007  32.223  33.005  1.00  0.00     0.031 C 
ATOM     66  C   UNL A   1      39.903  31.258  34.276  1.00  0.00     0.037 A 
BRANCH  53  67
ATOM     67  C   UNL A   1      44.551  27.208  33.861  1.00  0.00     0.057 A 
ATOM     68  C   UNL A   1      44.370  26.086  34.681  1.00  0.00     0.134 A 
ATOM     69  C   UNL A   1      45.864  27.659  33.666  1.00  0.00     0.134 A 
ATOM     70  F   UNL A   1      43.139  25.613  34.924  1.00  0.00    -0.206 F 
ATOM     71  C   UNL A   1      45.450  25.454  35.302  1.00  0.00     0.040 A 
ATOM     72  C   UNL A   1      46.952  27.017  34.257  1.00  0.00     0.040 A 
ATOM     73  F   UNL A   1      46.109  28.727  32.893  1.00  0.00    -0.206 F 
ATOM     74  C   UNL A   1      46.746  25.915  35.083  1.00  0.00     0.006 A 
ENDBRANCH  53  67
BRANCH  54  75
ATOM     75  C   UNL A   1      36.910  31.433  29.014  1.00  0.00     0.057 A 
ATOM     76  C   UNL A   1      36.932  32.774  28.610  1.00  0.00     0.134 A 
ATOM     77  C   UNL A   1      35.737  30.708  28.770  1.00  0.00     0.134 A 
ATOM     78  F   UNL A   1      38.016  33.529  28.838  1.00  0.00    -0.206 F 
ATOM     79  C   UNL A   1      35.825  33.376  28.010  1.00  0.00     0.040 A 
ATOM     80  C   UNL A   1      34.632  31.289  28.144  1.00  0.00     0.040 A 
ATOM     81  F   UNL A   1      35.648  29.420  29.133  1.00  0.00    -0.206 F 
ATOM     82  C   UNL A   1      34.671  32.631  27.771  1.00  0.00     0.006 A 
ENDBRANCH  54  75
BRANCH  66  83
ATOM     83  C   UNL A   1      39.516  32.126  35.441  1.00  0.00     0.057 A 
ATOM     84  C   UNL A   1      38.660  31.676  36.455  1.00  0.00     0.134 A 
ATOM     85  C   UNL A   1      40.046  33.417  35.571  1.00  0.00     0.134 A 
ATOM     86  F   UNL A   1      38.111  30.455  36.389  1.00  0.00    -0.206 F 
ATOM     87  C   UNL A   1      38.325  32.489  37.540  1.00  0.00     0.040 A 
ATOM     88  C   UNL A   1      39.744  34.226  36.667  1.00  0.00     0.040 A 
ATOM     89  F   UNL A   1      40.882  33.907  34.642  1.00  0.00    -0.206 F 
ATOM     90  C   UNL A   1      38.874  33.765  37.652  1.00  0.00     0.006 A 
ENDBRANCH  66  83
ENDBRANCH  40  41
ENDBRANCH  33  35
ENDBRANCH  32  33
ENDBRANCH  31  32
ENDBRANCH  30  31
ENDBRANCH  29  30
ENDBRANCH  28  29
ENDBRANCH  27  28
ENDBRANCH   1  27
TORSDOF 22
ENDMDL
