MODEL 1
REMARK VINA RESULT:     -10.1      0.000      0.000
REMARK SMILES O=C(OCCOCCOCCOCCOC(=O)[C@H]1COCCN1C(=O)c1ccc(Br)nc1)c1ccc(-c2c3nc(c(-c4c(F)cccc4F)c4ccc([nH]4)c(-c4c(F)cccc4F)c4nc(c(-c5c(F)cccc5F)c5ccc2[nH]5)C=C4)C=C3)cc1
REMARK SMILES IDX 9 1 8 2 7 3 6 4 5 5 4 6 3 7 2 8 1 9 33 10 34 11 86 12 35 13
REMARK SMILES IDX 85 14 36 15 37 16 38 17 79 18 39 19 84 20 78 21 80 22 40 23
REMARK SMILES IDX 83 24 77 25 76 26 41 28 67 29 50 30 66 31 51 32 54 33 65 34
REMARK SMILES IDX 81 35 52 36 53 37 64 39 82 40 55 41 42 42 43 43 48 44 44 45
REMARK SMILES IDX 45 46 47 47 49 48 46 49 68 50 69 51 74 52 70 53 71 54 73 55
REMARK SMILES IDX 75 56 72 57 56 58 57 59 62 60 58 61 59 62 61 63 63 64 60 65
REMARK SMILES IDX 10 66 11 67 12 68 13 69 14 70 15 71 16 72 17 73 18 74 19 75
REMARK SMILES IDX 23 76 20 77 22 78 21 79 24 80 25 81 26 82 27 83 32 84 28 85
REMARK SMILES IDX 31 86 29 87 30 88
REMARK H PARENT 80 27 54 38
REMARK Flexibility Score: inf
ROOT
ATOM      1  O   UNL A   1      35.393  33.057  29.367  1.00  0.00    -0.377 OA
ENDROOT
BRANCH   1   2
ATOM      2  C   UNL A   1      35.420  34.409  28.934  1.00  0.00     0.188 C 
BRANCH   2   3
ATOM      3  C   UNL A   1      34.441  34.724  27.825  1.00  0.00     0.188 C 
BRANCH   3   4
ATOM      4  O   UNL A   1      33.446  35.583  28.339  1.00  0.00    -0.376 OA
BRANCH   4   5
ATOM      5  C   UNL A   1      33.797  36.896  28.737  1.00  0.00     0.202 C 
BRANCH   5   6
ATOM      6  C   UNL A   1      33.228  37.369  30.058  1.00  0.00     0.261 C 
BRANCH   6   7
ATOM      7  O   UNL A   1      32.423  36.437  30.802  1.00  0.00    -0.460 OA
BRANCH   7   8
ATOM      8  C   UNL A   1      32.517  35.858  32.013  1.00  0.00     0.338 C 
ATOM      9  O   UNL A   1      31.527  35.894  32.744  1.00  0.00    -0.246 OA
BRANCH   8  10
ATOM     10  C   UNL A   1      33.702  35.128  32.535  1.00  0.00     0.060 A 
ATOM     11  C   UNL A   1      34.992  35.637  32.666  1.00  0.00     0.016 A 
ATOM     12  C   UNL A   1      33.447  33.859  33.075  1.00  0.00     0.016 A 
ATOM     13  C   UNL A   1      36.017  34.922  33.246  1.00  0.00     0.010 A 
ATOM     14  C   UNL A   1      34.466  33.121  33.673  1.00  0.00     0.010 A 
ATOM     15  C   UNL A   1      35.757  33.653  33.724  1.00  0.00    -0.014 A 
BRANCH  15  16
ATOM     16  C   UNL A   1      36.921  32.824  34.019  1.00  0.00     0.031 A 
ATOM     17  C   UNL A   1      37.548  33.021  35.356  1.00  0.00     0.074 A 
ATOM     18  C   UNL A   1      37.278  31.842  33.180  1.00  0.00     0.049 A 
ATOM     19  N   UNL A   1      38.688  32.593  35.806  1.00  0.00    -0.248 NA
ATOM     20  C   UNL A   1      36.772  33.823  36.323  1.00  0.00     0.031 C 
ATOM     21  C   UNL A   1      36.557  31.463  31.963  1.00  0.00     0.029 A 
ATOM     22  N   UNL A   1      38.335  30.982  33.231  1.00  0.00    -0.354 N 
ATOM     23  C   UNL A   1      38.804  33.136  37.078  1.00  0.00     0.074 A 
ATOM     24  C   UNL A   1      37.612  33.904  37.340  1.00  0.00     0.031 C 
ATOM     25  C   UNL A   1      37.217  30.459  31.362  1.00  0.00     0.029 A 
ATOM     26  C   UNL A   1      38.444  30.207  32.105  1.00  0.00     0.049 A 
ATOM     27  H   UNL A   1      38.955  30.925  33.993  1.00  0.00     0.167 HD
ATOM     28  C   UNL A   1      39.851  33.015  37.921  1.00  0.00     0.037 A 
ATOM     29  C   UNL A   1      39.479  29.452  31.698  1.00  0.00     0.037 A 
ATOM     30  C   UNL A   1      41.006  32.232  37.583  1.00  0.00     0.049 A 
ATOM     31  C   UNL A   1      40.687  29.413  32.590  1.00  0.00     0.074 A 
ATOM     32  C   UNL A   1      42.178  32.057  38.286  1.00  0.00     0.029 A 
ATOM     33  N   UNL A   1      41.117  31.488  36.410  1.00  0.00    -0.354 N 
ATOM     34  N   UNL A   1      40.874  30.011  33.747  1.00  0.00    -0.248 NA
ATOM     35  C   UNL A   1      41.832  28.625  32.128  1.00  0.00     0.031 C 
ATOM     36  C   UNL A   1      43.021  31.253  37.510  1.00  0.00     0.029 A 
ATOM     37  C   UNL A   1      42.347  30.868  36.355  1.00  0.00     0.049 A 
ATOM     38  H   UNL A   1      40.418  31.415  35.721  1.00  0.00     0.167 HD
ATOM     39  C   UNL A   1      42.144  29.653  34.167  1.00  0.00     0.074 A 
ATOM     40  C   UNL A   1      42.683  28.785  33.133  1.00  0.00     0.031 C 
ATOM     41  C   UNL A   1      42.810  29.999  35.298  1.00  0.00     0.037 A 
BRANCH  28  42
ATOM     42  C   UNL A   1      39.810  33.847  39.169  1.00  0.00     0.057 A 
ATOM     43  C   UNL A   1      39.206  33.407  40.356  1.00  0.00     0.134 A 
ATOM     44  C   UNL A   1      40.286  35.164  39.142  1.00  0.00     0.134 A 
ATOM     45  F   UNL A   1      38.690  32.172  40.440  1.00  0.00    -0.206 F 
ATOM     46  C   UNL A   1      39.034  34.262  41.448  1.00  0.00     0.040 A 
ATOM     47  C   UNL A   1      40.148  36.017  40.238  1.00  0.00     0.040 A 
ATOM     48  F   UNL A   1      40.862  35.658  38.035  1.00  0.00    -0.206 F 
ATOM     49  C   UNL A   1      39.505  35.571  41.390  1.00  0.00     0.006 A 
ENDBRANCH  28  42
BRANCH  29  50
ATOM     50  C   UNL A   1      39.425  28.782  30.374  1.00  0.00     0.057 A 
ATOM     51  C   UNL A   1      39.845  29.430  29.210  1.00  0.00     0.134 A 
ATOM     52  C   UNL A   1      39.011  27.448  30.252  1.00  0.00     0.134 A 
ATOM     53  F   UNL A   1      40.246  30.709  29.256  1.00  0.00    -0.206 F 
ATOM     54  C   UNL A   1      39.857  28.777  27.974  1.00  0.00     0.040 A 
ATOM     55  C   UNL A   1      39.041  26.775  29.030  1.00  0.00     0.040 A 
ATOM     56  F   UNL A   1      38.606  26.762  31.332  1.00  0.00    -0.206 F 
ATOM     57  C   UNL A   1      39.463  27.443  27.883  1.00  0.00     0.006 A 
ENDBRANCH  29  50
BRANCH  41  58
ATOM     58  C   UNL A   1      44.161  29.389  35.500  1.00  0.00     0.057 A 
ATOM     59  C   UNL A   1      45.332  30.031  35.087  1.00  0.00     0.134 A 
ATOM     60  C   UNL A   1      44.283  28.197  36.225  1.00  0.00     0.134 A 
ATOM     61  F   UNL A   1      45.271  31.169  34.380  1.00  0.00    -0.206 F 
ATOM     62  C   UNL A   1      46.586  29.506  35.391  1.00  0.00     0.040 A 
ATOM     63  C   UNL A   1      45.531  27.678  36.559  1.00  0.00     0.040 A 
ATOM     64  F   UNL A   1      43.191  27.546  36.656  1.00  0.00    -0.206 F 
ATOM     65  C   UNL A   1      46.687  28.334  36.142  1.00  0.00     0.006 A 
ENDBRANCH  41  58
ENDBRANCH  15  16
ENDBRANCH   8  10
ENDBRANCH   7   8
ENDBRANCH   6   7
ENDBRANCH   5   6
ENDBRANCH   4   5
ENDBRANCH   3   4
ENDBRANCH   2   3
ENDBRANCH   1   2
BRANCH   1  66
ATOM     66  C   UNL A   1      34.296  32.207  29.076  1.00  0.00     0.188 C 
BRANCH  66  67
ATOM     67  C   UNL A   1      34.407  31.176  27.947  1.00  0.00     0.188 C 
BRANCH  67  68
ATOM     68  O   UNL A   1      33.189  30.865  27.314  1.00  0.00    -0.376 OA
BRANCH  68  69
ATOM     69  C   UNL A   1      32.874  29.500  27.054  1.00  0.00     0.202 C 
BRANCH  69  70
ATOM     70  C   UNL A   1      33.554  28.649  25.955  1.00  0.00     0.261 C 
BRANCH  70  71
ATOM     71  O   UNL A   1      33.253  27.239  25.942  1.00  0.00    -0.462 OA
BRANCH  71  72
ATOM     72  C   UNL A   1      33.507  26.583  24.780  1.00  0.00     0.331 C 
ATOM     73  O   UNL A   1      34.089  25.497  24.737  1.00  0.00    -0.250 OA
BRANCH  72  74
ATOM     74  C   UNL A   1      32.915  27.208  23.490  1.00  0.00     0.221 C 
ATOM     75  C   UNL A   1      33.628  27.176  22.139  1.00  0.00     0.197 C 
ATOM     76  N   UNL A   1      31.593  26.583  23.279  1.00  0.00    -0.320 N 
ATOM     77  O   UNL A   1      33.835  25.842  21.680  1.00  0.00    -0.377 OA
ATOM     78  C   UNL A   1      31.682  25.232  22.708  1.00  0.00     0.149 C 
ATOM     79  C   UNL A   1      32.572  25.206  21.453  1.00  0.00     0.181 C 
BRANCH  76  80
ATOM     80  C   UNL A   1      30.396  27.089  23.753  1.00  0.00     0.256 C 
ATOM     81  O   UNL A   1      29.825  26.643  24.757  1.00  0.00    -0.269 OA
BRANCH  80  82
ATOM     82  C   UNL A   1      29.733  28.196  23.035  1.00  0.00     0.058 A 
ATOM     83  C   UNL A   1      28.365  28.457  23.163  1.00  0.00     0.018 A 
ATOM     84  C   UNL A   1      30.490  29.043  22.241  1.00  0.00     0.126 A 
ATOM     85  C   UNL A   1      27.810  29.535  22.470  1.00  0.00     0.037 A 
ATOM     86  N   UNL A   1      29.972  30.096  21.558  1.00  0.00    -0.249 NA
ATOM     87  C   UNL A   1      28.648  30.324  21.692  1.00  0.00     0.106 A 
ATOM     88  Br  UNL A   1      27.910  31.809  20.769  1.00  0.00    -0.029 Br
ENDBRANCH  80  82
ENDBRANCH  76  80
ENDBRANCH  72  74
ENDBRANCH  71  72
ENDBRANCH  70  71
ENDBRANCH  69  70
ENDBRANCH  68  69
ENDBRANCH  67  68
ENDBRANCH  66  67
ENDBRANCH   1  66
TORSDOF 22
ENDMDL
MODEL 2
REMARK VINA RESULT:     -10.0      2.726      3.872
REMARK SMILES O=C(OCCOCCOCCOCCOC(=O)[C@H]1COCCN1C(=O)c1ccc(Br)nc1)c1ccc(-c2c3nc(c(-c4c(F)cccc4F)c4ccc([nH]4)c(-c4c(F)cccc4F)c4nc(c(-c5c(F)cccc5F)c5ccc2[nH]5)C=C4)C=C3)cc1
REMARK SMILES IDX 9 1 8 2 7 3 6 4 5 5 4 6 3 7 2 8 1 9 33 10 34 11 86 12 35 13
REMARK SMILES IDX 85 14 36 15 37 16 38 17 79 18 39 19 84 20 78 21 80 22 40 23
REMARK SMILES IDX 83 24 77 25 76 26 41 28 67 29 50 30 66 31 51 32 54 33 65 34
REMARK SMILES IDX 81 35 52 36 53 37 64 39 82 40 55 41 42 42 43 43 48 44 44 45
REMARK SMILES IDX 45 46 47 47 49 48 46 49 68 50 69 51 74 52 70 53 71 54 73 55
REMARK SMILES IDX 75 56 72 57 56 58 57 59 62 60 58 61 59 62 61 63 63 64 60 65
REMARK SMILES IDX 10 66 11 67 12 68 13 69 14 70 15 71 16 72 17 73 18 74 19 75
REMARK SMILES IDX 23 76 20 77 22 78 21 79 24 80 25 81 26 82 27 83 32 84 28 85
REMARK SMILES IDX 31 86 29 87 30 88
REMARK H PARENT 80 27 54 38
REMARK Flexibility Score: inf
ROOT
ATOM      1  O   UNL A   1      34.042  32.310  27.402  1.00  0.00    -0.377 OA
ENDROOT
BRANCH   1   2
ATOM      2  C   UNL A   1      34.985  33.016  28.194  1.00  0.00     0.188 C 
BRANCH   2   3
ATOM      3  C   UNL A   1      34.376  34.082  29.079  1.00  0.00     0.188 C 
BRANCH   3   4
ATOM      4  O   UNL A   1      34.393  35.306  28.378  1.00  0.00    -0.376 OA
BRANCH   4   5
ATOM      5  C   UNL A   1      33.667  36.411  28.888  1.00  0.00     0.202 C 
BRANCH   5   6
ATOM      6  C   UNL A   1      32.414  36.083  29.671  1.00  0.00     0.261 C 
BRANCH   6   7
ATOM      7  O   UNL A   1      32.304  36.624  31.000  1.00  0.00    -0.460 OA
BRANCH   7   8
ATOM      8  C   UNL A   1      32.747  36.254  32.215  1.00  0.00     0.338 C 
ATOM      9  O   UNL A   1      32.176  36.722  33.201  1.00  0.00    -0.246 OA
BRANCH   8  10
ATOM     10  C   UNL A   1      33.842  35.284  32.480  1.00  0.00     0.060 A 
ATOM     11  C   UNL A   1      33.692  33.958  32.880  1.00  0.00     0.016 A 
ATOM     12  C   UNL A   1      35.134  35.721  32.153  1.00  0.00     0.016 A 
ATOM     13  C   UNL A   1      34.759  33.099  33.016  1.00  0.00     0.010 A 
ATOM     14  C   UNL A   1      36.228  34.866  32.275  1.00  0.00     0.010 A 
ATOM     15  C   UNL A   1      36.030  33.563  32.739  1.00  0.00    -0.014 A 
BRANCH  15  16
ATOM     16  C   UNL A   1      37.136  32.736  33.207  1.00  0.00     0.031 A 
ATOM     17  C   UNL A   1      37.600  32.984  34.600  1.00  0.00     0.074 A 
ATOM     18  C   UNL A   1      37.577  31.715  32.459  1.00  0.00     0.049 A 
ATOM     19  N   UNL A   1      38.671  32.564  35.203  1.00  0.00    -0.248 NA
ATOM     20  C   UNL A   1      36.726  33.836  35.432  1.00  0.00     0.031 C 
ATOM     21  C   UNL A   1      37.001  31.290  31.180  1.00  0.00     0.029 A 
ATOM     22  N   UNL A   1      38.607  30.846  32.673  1.00  0.00    -0.354 N 
ATOM     23  C   UNL A   1      38.642  33.161  36.456  1.00  0.00     0.074 A 
ATOM     24  C   UNL A   1      37.438  33.952  36.538  1.00  0.00     0.031 C 
ATOM     25  C   UNL A   1      37.714  30.255  30.707  1.00  0.00     0.029 A 
ATOM     26  C   UNL A   1      38.838  30.022  31.603  1.00  0.00     0.049 A 
ATOM     27  H   UNL A   1      39.128  30.816  33.507  1.00  0.00     0.167 HD
ATOM     28  C   UNL A   1      39.577  33.066  37.424  1.00  0.00     0.037 A 
ATOM     29  C   UNL A   1      39.903  29.240  31.356  1.00  0.00     0.037 A 
ATOM     30  C   UNL A   1      40.752  32.257  37.261  1.00  0.00     0.049 A 
ATOM     31  C   UNL A   1      40.994  29.227  32.389  1.00  0.00     0.074 A 
ATOM     32  C   UNL A   1      41.828  32.101  38.107  1.00  0.00     0.029 A 
ATOM     33  N   UNL A   1      40.992  31.462  36.142  1.00  0.00    -0.354 N 
ATOM     34  N   UNL A   1      41.049  29.873  33.534  1.00  0.00    -0.248 NA
ATOM     35  C   UNL A   1      42.174  28.408  32.102  1.00  0.00     0.031 C 
ATOM     36  C   UNL A   1      42.746  31.255  37.474  1.00  0.00     0.029 A 
ATOM     37  C   UNL A   1      42.210  30.828  36.263  1.00  0.00     0.049 A 
ATOM     38  H   UNL A   1      40.380  31.366  35.377  1.00  0.00     0.167 HD
ATOM     39  C   UNL A   1      42.254  29.520  34.120  1.00  0.00     0.074 A 
ATOM     40  C   UNL A   1      42.899  28.602  33.195  1.00  0.00     0.031 C 
ATOM     41  C   UNL A   1      42.783  29.908  35.307  1.00  0.00     0.037 A 
BRANCH  28  42
ATOM     42  C   UNL A   1      39.399  33.952  38.622  1.00  0.00     0.057 A 
ATOM     43  C   UNL A   1      38.704  33.546  39.770  1.00  0.00     0.134 A 
ATOM     44  C   UNL A   1      39.835  35.282  38.573  1.00  0.00     0.134 A 
ATOM     45  F   UNL A   1      38.220  32.299  39.868  1.00  0.00    -0.206 F 
ATOM     46  C   UNL A   1      38.408  34.443  40.800  1.00  0.00     0.040 A 
ATOM     47  C   UNL A   1      39.573  36.179  39.610  1.00  0.00     0.040 A 
ATOM     48  F   UNL A   1      40.492  35.745  37.499  1.00  0.00    -0.206 F 
ATOM     49  C   UNL A   1      38.843  35.764  40.721  1.00  0.00     0.006 A 
ENDBRANCH  28  42
BRANCH  29  50
ATOM     50  C   UNL A   1      39.998  28.514  30.065  1.00  0.00     0.057 A 
ATOM     51  C   UNL A   1      39.347  27.294  29.863  1.00  0.00     0.134 A 
ATOM     52  C   UNL A   1      40.695  29.057  28.975  1.00  0.00     0.134 A 
ATOM     53  F   UNL A   1      38.671  26.716  30.867  1.00  0.00    -0.206 F 
ATOM     54  C   UNL A   1      39.382  26.642  28.627  1.00  0.00     0.040 A 
ATOM     55  C   UNL A   1      40.717  28.431  27.728  1.00  0.00     0.040 A 
ATOM     56  F   UNL A   1      41.333  30.231  29.096  1.00  0.00    -0.206 F 
ATOM     57  C   UNL A   1      40.061  27.215  27.553  1.00  0.00     0.006 A 
ENDBRANCH  29  50
BRANCH  41  58
ATOM     58  C   UNL A   1      44.090  29.293  35.697  1.00  0.00     0.057 A 
ATOM     59  C   UNL A   1      45.310  29.927  35.445  1.00  0.00     0.134 A 
ATOM     60  C   UNL A   1      44.105  28.105  36.438  1.00  0.00     0.134 A 
ATOM     61  F   UNL A   1      45.353  31.062  34.730  1.00  0.00    -0.206 F 
ATOM     62  C   UNL A   1      46.508  29.399  35.922  1.00  0.00     0.040 A 
ATOM     63  C   UNL A   1      45.293  27.584  36.944  1.00  0.00     0.040 A 
ATOM     64  F   UNL A   1      42.961  27.462  36.718  1.00  0.00    -0.206 F 
ATOM     65  C   UNL A   1      46.498  28.232  36.686  1.00  0.00     0.006 A 
ENDBRANCH  41  58
ENDBRANCH  15  16
ENDBRANCH   8  10
ENDBRANCH   7   8
ENDBRANCH   6   7
ENDBRANCH   5   6
ENDBRANCH   4   5
ENDBRANCH   3   4
ENDBRANCH   2   3
ENDBRANCH   1   2
BRANCH   1  66
ATOM     66  C   UNL A   1      34.016  30.894  27.366  1.00  0.00     0.188 C 
BRANCH  66  67
ATOM     67  C   UNL A   1      33.077  30.171  26.392  1.00  0.00     0.188 C 
BRANCH  67  68
ATOM     68  O   UNL A   1      33.448  28.846  26.093  1.00  0.00    -0.376 OA
BRANCH  68  69
ATOM     69  C   UNL A   1      32.860  27.780  26.831  1.00  0.00     0.202 C 
BRANCH  69  70
ATOM     70  C   UNL A   1      31.380  27.349  26.698  1.00  0.00     0.261 C 
BRANCH  70  71
ATOM     71  O   UNL A   1      31.051  26.474  25.599  1.00  0.00    -0.462 OA
BRANCH  71  72
ATOM     72  C   UNL A   1      31.029  25.146  25.878  1.00  0.00     0.331 C 
ATOM     73  O   UNL A   1      30.375  24.667  26.807  1.00  0.00    -0.250 OA
BRANCH  72  74
ATOM     74  C   UNL A   1      31.779  24.219  24.886  1.00  0.00     0.221 C 
ATOM     75  C   UNL A   1      32.335  24.698  23.546  1.00  0.00     0.197 C 
ATOM     76  N   UNL A   1      32.916  23.632  25.624  1.00  0.00    -0.320 N 
ATOM     77  O   UNL A   1      33.326  25.711  23.715  1.00  0.00    -0.377 OA
ATOM     78  C   UNL A   1      34.045  24.561  25.770  1.00  0.00     0.149 C 
ATOM     79  C   UNL A   1      34.452  25.174  24.420  1.00  0.00     0.181 C 
BRANCH  76  80
ATOM     80  C   UNL A   1      32.879  22.428  26.304  1.00  0.00     0.256 C 
ATOM     81  O   UNL A   1      32.621  22.343  27.512  1.00  0.00    -0.269 OA
BRANCH  80  82
ATOM     82  C   UNL A   1      33.180  21.172  25.589  1.00  0.00     0.058 A 
ATOM     83  C   UNL A   1      34.488  20.717  25.394  1.00  0.00     0.018 A 
ATOM     84  C   UNL A   1      32.137  20.383  25.130  1.00  0.00     0.126 A 
ATOM     85  C   UNL A   1      34.695  19.508  24.726  1.00  0.00     0.037 A 
ATOM     86  N   UNL A   1      32.314  19.206  24.478  1.00  0.00    -0.249 NA
ATOM     87  C   UNL A   1      33.587  18.790  24.296  1.00  0.00     0.106 A 
ATOM     88  Br  UNL A   1      33.856  17.132  23.413  1.00  0.00    -0.029 Br
ENDBRANCH  80  82
ENDBRANCH  76  80
ENDBRANCH  72  74
ENDBRANCH  71  72
ENDBRANCH  70  71
ENDBRANCH  69  70
ENDBRANCH  68  69
ENDBRANCH  67  68
ENDBRANCH  66  67
ENDBRANCH   1  66
TORSDOF 22
ENDMDL
MODEL 3
REMARK VINA RESULT:      -9.8      2.946      4.196
REMARK SMILES O=C(OCCOCCOCCOCCOC(=O)[C@H]1COCCN1C(=O)c1ccc(Br)nc1)c1ccc(-c2c3nc(c(-c4c(F)cccc4F)c4ccc([nH]4)c(-c4c(F)cccc4F)c4nc(c(-c5c(F)cccc5F)c5ccc2[nH]5)C=C4)C=C3)cc1
REMARK SMILES IDX 9 1 8 2 7 3 6 4 5 5 4 6 3 7 2 8 1 9 33 10 34 11 86 12 35 13
REMARK SMILES IDX 85 14 36 15 37 16 38 17 79 18 39 19 84 20 78 21 80 22 40 23
REMARK SMILES IDX 83 24 77 25 76 26 41 28 67 29 50 30 66 31 51 32 54 33 65 34
REMARK SMILES IDX 81 35 52 36 53 37 64 39 82 40 55 41 42 42 43 43 48 44 44 45
REMARK SMILES IDX 45 46 47 47 49 48 46 49 68 50 69 51 74 52 70 53 71 54 73 55
REMARK SMILES IDX 75 56 72 57 56 58 57 59 62 60 58 61 59 62 61 63 63 64 60 65
REMARK SMILES IDX 10 66 11 67 12 68 13 69 14 70 15 71 16 72 17 73 18 74 19 75
REMARK SMILES IDX 23 76 20 77 22 78 21 79 24 80 25 81 26 82 27 83 32 84 28 85
REMARK SMILES IDX 31 86 29 87 30 88
REMARK H PARENT 80 27 54 38
REMARK Flexibility Score: inf
ROOT
ATOM      1  O   UNL A   1      33.308  32.232  27.246  1.00  0.00    -0.377 OA
ENDROOT
BRANCH   1   2
ATOM      2  C   UNL A   1      34.216  32.520  28.298  1.00  0.00     0.188 C 
BRANCH   2   3
ATOM      3  C   UNL A   1      33.841  33.729  29.127  1.00  0.00     0.188 C 
BRANCH   3   4
ATOM      4  O   UNL A   1      34.258  34.888  28.438  1.00  0.00    -0.376 OA
BRANCH   4   5
ATOM      5  C   UNL A   1      33.749  36.151  28.827  1.00  0.00     0.202 C 
BRANCH   5   6
ATOM      6  C   UNL A   1      32.446  36.137  29.599  1.00  0.00     0.261 C 
BRANCH   6   7
ATOM      7  O   UNL A   1      32.457  36.698  30.924  1.00  0.00    -0.460 OA
BRANCH   7   8
ATOM      8  C   UNL A   1      32.847  36.263  32.136  1.00  0.00     0.338 C 
ATOM      9  O   UNL A   1      32.248  36.696  33.121  1.00  0.00    -0.246 OA
BRANCH   8  10
ATOM     10  C   UNL A   1      33.915  35.261  32.394  1.00  0.00     0.060 A 
ATOM     11  C   UNL A   1      33.737  33.981  32.914  1.00  0.00     0.016 A 
ATOM     12  C   UNL A   1      35.193  35.602  31.930  1.00  0.00     0.016 A 
ATOM     13  C   UNL A   1      34.771  33.080  33.037  1.00  0.00     0.010 A 
ATOM     14  C   UNL A   1      36.253  34.703  32.037  1.00  0.00     0.010 A 
ATOM     15  C   UNL A   1      36.034  33.453  32.623  1.00  0.00    -0.014 A 
BRANCH  15  16
ATOM     16  C   UNL A   1      37.136  32.609  33.071  1.00  0.00     0.031 A 
ATOM     17  C   UNL A   1      37.633  32.852  34.453  1.00  0.00     0.074 A 
ATOM     18  C   UNL A   1      37.545  31.580  32.316  1.00  0.00     0.049 A 
ATOM     19  N   UNL A   1      38.709  32.416  35.035  1.00  0.00    -0.248 NA
ATOM     20  C   UNL A   1      36.790  33.719  35.301  1.00  0.00     0.031 C 
ATOM     21  C   UNL A   1      36.937  31.162  31.050  1.00  0.00     0.029 A 
ATOM     22  N   UNL A   1      38.565  30.695  32.511  1.00  0.00    -0.354 N 
ATOM     23  C   UNL A   1      38.714  33.015  36.287  1.00  0.00     0.074 A 
ATOM     24  C   UNL A   1      37.526  33.826  36.392  1.00  0.00     0.031 C 
ATOM     25  C   UNL A   1      37.622  30.114  30.564  1.00  0.00     0.029 A 
ATOM     26  C   UNL A   1      38.761  29.865  31.438  1.00  0.00     0.049 A 
ATOM     27  H   UNL A   1      39.103  30.657  33.334  1.00  0.00     0.167 HD
ATOM     28  C   UNL A   1      39.667  32.907  37.236  1.00  0.00     0.037 A 
ATOM     29  C   UNL A   1      39.808  29.065  31.170  1.00  0.00     0.037 A 
ATOM     30  C   UNL A   1      40.825  32.078  37.051  1.00  0.00     0.049 A 
ATOM     31  C   UNL A   1      40.919  29.037  32.181  1.00  0.00     0.074 A 
ATOM     32  C   UNL A   1      41.916  31.906  37.876  1.00  0.00     0.029 A 
ATOM     33  N   UNL A   1      41.030  31.277  35.930  1.00  0.00    -0.354 N 
ATOM     34  N   UNL A   1      41.008  29.683  33.324  1.00  0.00    -0.248 NA
ATOM     35  C   UNL A   1      42.079  28.197  31.872  1.00  0.00     0.031 C 
ATOM     36  C   UNL A   1      42.806  31.044  37.225  1.00  0.00     0.029 A 
ATOM     37  C   UNL A   1      42.239  30.623  36.027  1.00  0.00     0.049 A 
ATOM     38  H   UNL A   1      40.401  31.190  35.177  1.00  0.00     0.167 HD
ATOM     39  C   UNL A   1      42.218  29.311  33.886  1.00  0.00     0.074 A 
ATOM     40  C   UNL A   1      42.830  28.382  32.951  1.00  0.00     0.031 C 
ATOM     41  C   UNL A   1      42.778  29.693  35.062  1.00  0.00     0.037 A 
BRANCH  28  42
ATOM     42  C   UNL A   1      39.528  33.797  38.435  1.00  0.00     0.057 A 
ATOM     43  C   UNL A   1      40.272  34.974  38.599  1.00  0.00     0.134 A 
ATOM     44  C   UNL A   1      38.713  33.401  39.504  1.00  0.00     0.134 A 
ATOM     45  F   UNL A   1      41.107  35.391  37.635  1.00  0.00    -0.206 F 
ATOM     46  C   UNL A   1      40.247  35.694  39.796  1.00  0.00     0.040 A 
ATOM     47  C   UNL A   1      38.656  34.130  40.693  1.00  0.00     0.040 A 
ATOM     48  F   UNL A   1      37.984  32.277  39.425  1.00  0.00    -0.206 F 
ATOM     49  C   UNL A   1      39.437  35.271  40.847  1.00  0.00     0.006 A 
ENDBRANCH  28  42
BRANCH  29  50
ATOM     50  C   UNL A   1      39.865  28.335  29.880  1.00  0.00     0.057 A 
ATOM     51  C   UNL A   1      40.540  28.858  28.774  1.00  0.00     0.134 A 
ATOM     52  C   UNL A   1      39.299  27.059  29.741  1.00  0.00     0.134 A 
ATOM     53  F   UNL A   1      41.097  30.077  28.837  1.00  0.00    -0.206 F 
ATOM     54  C   UNL A   1      40.650  28.142  27.578  1.00  0.00     0.040 A 
ATOM     55  C   UNL A   1      39.423  26.322  28.563  1.00  0.00     0.040 A 
ATOM     56  F   UNL A   1      38.647  26.492  30.766  1.00  0.00    -0.206 F 
ATOM     57  C   UNL A   1      40.099  26.866  27.474  1.00  0.00     0.006 A 
ENDBRANCH  29  50
BRANCH  41  58
ATOM     58  C   UNL A   1      44.083  29.057  35.426  1.00  0.00     0.057 A 
ATOM     59  C   UNL A   1      44.147  27.846  36.121  1.00  0.00     0.134 A 
ATOM     60  C   UNL A   1      45.280  29.617  34.964  1.00  0.00     0.134 A 
ATOM     61  F   UNL A   1      43.030  27.273  36.594  1.00  0.00    -0.206 F 
ATOM     62  C   UNL A   1      45.365  27.208  36.345  1.00  0.00     0.040 A 
ATOM     63  C   UNL A   1      46.500  28.975  35.157  1.00  0.00     0.040 A 
ATOM     64  F   UNL A   1      45.275  30.773  34.282  1.00  0.00    -0.206 F 
ATOM     65  C   UNL A   1      46.544  27.766  35.849  1.00  0.00     0.006 A 
ENDBRANCH  41  58
ENDBRANCH  15  16
ENDBRANCH   8  10
ENDBRANCH   7   8
ENDBRANCH   6   7
ENDBRANCH   5   6
ENDBRANCH   4   5
ENDBRANCH   3   4
ENDBRANCH   2   3
ENDBRANCH   1   2
BRANCH   1  66
ATOM     66  C   UNL A   1      32.538  31.042  27.235  1.00  0.00     0.188 C 
BRANCH  66  67
ATOM     67  C   UNL A   1      33.238  29.679  27.182  1.00  0.00     0.188 C 
BRANCH  67  68
ATOM     68  O   UNL A   1      32.442  28.594  27.595  1.00  0.00    -0.376 OA
BRANCH  68  69
ATOM     69  C   UNL A   1      32.517  27.368  26.872  1.00  0.00     0.202 C 
BRANCH  69  70
ATOM     70  C   UNL A   1      33.579  27.066  25.789  1.00  0.00     0.261 C 
BRANCH  70  71
ATOM     71  O   UNL A   1      34.161  25.746  25.796  1.00  0.00    -0.462 OA
BRANCH  71  72
ATOM     72  C   UNL A   1      33.545  24.816  25.022  1.00  0.00     0.331 C 
ATOM     73  O   UNL A   1      33.336  24.979  23.818  1.00  0.00    -0.250 OA
BRANCH  72  74
ATOM     74  C   UNL A   1      33.215  23.461  25.699  1.00  0.00     0.221 C 
ATOM     75  C   UNL A   1      32.708  23.341  27.135  1.00  0.00     0.197 C 
ATOM     76  N   UNL A   1      32.213  22.788  24.846  1.00  0.00    -0.320 N 
ATOM     77  O   UNL A   1      31.457  24.003  27.314  1.00  0.00    -0.377 OA
ATOM     78  C   UNL A   1      30.857  23.325  25.024  1.00  0.00     0.149 C 
ATOM     79  C   UNL A   1      30.456  23.370  26.508  1.00  0.00     0.181 C 
BRANCH  76  80
ATOM     80  C   UNL A   1      32.511  21.903  23.827  1.00  0.00     0.256 C 
ATOM     81  O   UNL A   1      32.758  22.263  22.669  1.00  0.00    -0.269 OA
BRANCH  80  82
ATOM     82  C   UNL A   1      32.520  20.451  24.097  1.00  0.00     0.058 A 
ATOM     83  C   UNL A   1      32.394  19.499  23.079  1.00  0.00     0.018 A 
ATOM     84  C   UNL A   1      32.707  20.000  25.394  1.00  0.00     0.126 A 
ATOM     85  C   UNL A   1      32.432  18.143  23.407  1.00  0.00     0.037 A 
ATOM     86  N   UNL A   1      32.746  18.687  25.737  1.00  0.00    -0.249 NA
ATOM     87  C   UNL A   1      32.616  17.787  24.738  1.00  0.00     0.106 A 
ATOM     88  Br  UNL A   1      32.699  15.947  25.190  1.00  0.00    -0.029 Br
ENDBRANCH  80  82
ENDBRANCH  76  80
ENDBRANCH  72  74
ENDBRANCH  71  72
ENDBRANCH  70  71
ENDBRANCH  69  70
ENDBRANCH  68  69
ENDBRANCH  67  68
ENDBRANCH  66  67
ENDBRANCH   1  66
TORSDOF 22
ENDMDL
