MODEL 1
REMARK VINA RESULT:      -9.3      0.000      0.000
REMARK SMILES CC(C)n1cncc1[C@@H](NC(=O)OC(C)(C)C)C(=O)OCCOCCOCCOCCOC(=O)c1ccc(-c2c3nc(c(-c4c(F)cccc4F)c4ccc([nH]4)c(-c4c(F)cccc4F)c4nc(c(-c5c(F)cccc5F)c5ccc2[nH]5)C=C4)C=C3)cc1
REMARK SMILES IDX 25 1 24 2 23 3 22 4 21 5 20 6 18 7 19 8 9 9 8 10 4 11 5 12
REMARK SMILES IDX 6 13 7 14 2 15 1 16 3 17 10 18 11 19 12 21 13 22 14 23 15 24
REMARK SMILES IDX 16 25 17 26 26 27 27 28 28 29 29 30 30 31 31 32 32 33 33 34
REMARK SMILES IDX 34 35 35 36 36 37 88 38 37 39 87 40 38 41 39 42 40 43 81 44
REMARK SMILES IDX 41 45 86 46 80 47 82 48 42 49 85 50 79 51 78 52 43 54 69 55
REMARK SMILES IDX 52 56 68 57 53 58 56 59 67 60 83 61 54 62 55 63 66 65 84 66
REMARK SMILES IDX 57 67 44 68 45 69 50 70 46 71 47 72 49 73 51 74 48 75 70 76
REMARK SMILES IDX 71 77 76 78 72 79 73 80 75 81 77 82 74 83 58 84 59 85 64 86
REMARK SMILES IDX 60 87 61 88 63 89 65 90 62 91
REMARK H PARENT 10 20 82 53 56 64
REMARK Flexibility Score: inf
ROOT
ATOM      1  C   UNL A   1      35.177  33.044  29.077  1.00  0.00     0.188 C 
ENDROOT
BRANCH   1   2
ATOM      2  C   UNL A   1      34.569  32.299  27.864  1.00  0.00     0.188 C 
BRANCH   2   3
ATOM      3  O   UNL A   1      33.426  31.468  28.010  1.00  0.00    -0.376 OA
BRANCH   3   4
ATOM      4  C   UNL A   1      33.274  30.339  27.173  1.00  0.00     0.202 C 
BRANCH   4   5
ATOM      5  C   UNL A   1      34.332  29.245  27.197  1.00  0.00     0.261 C 
BRANCH   5   6
ATOM      6  O   UNL A   1      33.994  27.956  26.679  1.00  0.00    -0.461 OA
BRANCH   6   7
ATOM      7  C   UNL A   1      33.830  27.879  25.334  1.00  0.00     0.335 C 
ATOM      8  O   UNL A   1      33.871  28.843  24.572  1.00  0.00    -0.249 OA
BRANCH   7   9
ATOM      9  C   UNL A   1      33.407  26.488  24.864  1.00  0.00     0.244 C 
BRANCH   9  10
ATOM     10  C   UNL A   1      32.788  26.339  23.496  1.00  0.00     0.072 A 
ATOM     11  N   UNL A   1      31.466  26.621  23.129  1.00  0.00    -0.330 N 
ATOM     12  C   UNL A   1      31.342  26.287  21.801  1.00  0.00     0.199 A 
ATOM     13  N   UNL A   1      32.464  25.846  21.293  1.00  0.00    -0.245 NA
ATOM     14  C   UNL A   1      33.363  25.881  22.321  1.00  0.00     0.137 A 
BRANCH  11  15
ATOM     15  C   UNL A   1      30.413  27.277  23.917  1.00  0.00     0.082 C 
ATOM     16  C   UNL A   1      30.211  28.775  23.599  1.00  0.00     0.031 C 
ATOM     17  C   UNL A   1      29.055  26.586  23.777  1.00  0.00     0.031 C 
ENDBRANCH  11  15
ENDBRANCH   9  10
BRANCH   9  18
ATOM     18  N   UNL A   1      34.433  25.475  25.057  1.00  0.00    -0.302 N 
ATOM     19  C   UNL A   1      34.365  24.253  25.667  1.00  0.00     0.408 C 
ATOM     20  H   UNL A   1      35.316  25.706  24.690  1.00  0.00     0.168 HD
ATOM     21  O   UNL A   1      35.387  23.584  25.755  1.00  0.00    -0.225 OA
BRANCH  19  22
ATOM     22  O   UNL A   1      33.130  23.858  26.091  1.00  0.00    -0.444 OA
BRANCH  22  23
ATOM     23  C   UNL A   1      32.524  22.650  25.534  1.00  0.00     0.106 C 
ATOM     24  C   UNL A   1      32.631  22.667  24.007  1.00  0.00     0.056 C 
ATOM     25  C   UNL A   1      33.114  21.402  26.195  1.00  0.00     0.056 C 
ATOM     26  C   UNL A   1      31.015  22.632  25.854  1.00  0.00     0.056 C 
ENDBRANCH  22  23
ENDBRANCH  19  22
ENDBRANCH   9  18
ENDBRANCH   7   9
ENDBRANCH   6   7
ENDBRANCH   5   6
ENDBRANCH   4   5
ENDBRANCH   3   4
ENDBRANCH   2   3
ENDBRANCH   1   2
BRANCH   1  27
ATOM     27  O   UNL A   1      35.363  34.440  28.928  1.00  0.00    -0.377 OA
BRANCH  27  28
ATOM     28  C   UNL A   1      34.329  35.154  28.265  1.00  0.00     0.188 C 
BRANCH  28  29
ATOM     29  C   UNL A   1      33.042  35.457  29.070  1.00  0.00     0.188 C 
BRANCH  29  30
ATOM     30  O   UNL A   1      33.063  36.684  29.787  1.00  0.00    -0.376 OA
BRANCH  30  31
ATOM     31  C   UNL A   1      32.962  36.768  31.197  1.00  0.00     0.202 C 
BRANCH  31  32
ATOM     32  C   UNL A   1      32.489  35.555  31.997  1.00  0.00     0.261 C 
BRANCH  32  33
ATOM     33  O   UNL A   1      33.511  34.638  32.325  1.00  0.00    -0.460 OA
BRANCH  33  34
ATOM     34  C   UNL A   1      34.488  35.154  33.092  1.00  0.00     0.338 C 
ATOM     35  O   UNL A   1      34.729  36.327  33.297  1.00  0.00    -0.246 OA
BRANCH  34  36
ATOM     36  C   UNL A   1      35.332  34.050  33.546  1.00  0.00     0.060 A 
ATOM     37  C   UNL A   1      36.529  34.435  34.141  1.00  0.00     0.016 A 
ATOM     38  C   UNL A   1      35.130  32.786  32.971  1.00  0.00     0.016 A 
ATOM     39  C   UNL A   1      37.631  33.677  33.858  1.00  0.00     0.010 A 
ATOM     40  C   UNL A   1      36.235  32.039  32.675  1.00  0.00     0.010 A 
ATOM     41  C   UNL A   1      37.474  32.559  33.029  1.00  0.00    -0.014 A 
BRANCH  41  42
ATOM     42  C   UNL A   1      38.671  31.866  32.635  1.00  0.00     0.031 A 
ATOM     43  C   UNL A   1      39.524  31.569  33.797  1.00  0.00     0.074 A 
ATOM     44  C   UNL A   1      38.912  31.502  31.364  1.00  0.00     0.049 A 
ATOM     45  N   UNL A   1      40.670  32.094  34.065  1.00  0.00    -0.248 NA
ATOM     46  C   UNL A   1      38.942  30.778  34.895  1.00  0.00     0.031 C 
ATOM     47  C   UNL A   1      38.012  31.553  30.211  1.00  0.00     0.029 A 
ATOM     48  N   UNL A   1      40.017  30.897  30.860  1.00  0.00    -0.354 N 
ATOM     49  C   UNL A   1      41.064  31.502  35.254  1.00  0.00     0.074 A 
ATOM     50  C   UNL A   1      39.896  30.882  35.819  1.00  0.00     0.031 C 
ATOM     51  C   UNL A   1      38.520  30.782  29.222  1.00  0.00     0.029 A 
ATOM     52  C   UNL A   1      39.821  30.281  29.633  1.00  0.00     0.049 A 
ATOM     53  H   UNL A   1      40.884  30.895  31.326  1.00  0.00     0.167 HD
ATOM     54  C   UNL A   1      42.384  31.298  35.500  1.00  0.00     0.037 A 
ATOM     55  C   UNL A   1      40.639  29.345  29.086  1.00  0.00     0.037 A 
ATOM     56  C   UNL A   1      43.207  32.187  34.716  1.00  0.00     0.049 A 
ATOM     57  C   UNL A   1      41.965  29.475  29.756  1.00  0.00     0.074 A 
ATOM     58  C   UNL A   1      43.243  33.561  34.548  1.00  0.00     0.029 A 
ATOM     59  N   UNL A   1      43.891  31.666  33.643  1.00  0.00    -0.354 N 
ATOM     60  N   UNL A   1      42.766  30.490  29.582  1.00  0.00    -0.248 NA
ATOM     61  C   UNL A   1      42.174  28.723  30.989  1.00  0.00     0.031 C 
ATOM     62  C   UNL A   1      43.488  33.757  33.158  1.00  0.00     0.029 A 
ATOM     63  C   UNL A   1      43.670  32.502  32.578  1.00  0.00     0.049 A 
ATOM     64  H   UNL A   1      44.436  30.847  33.640  1.00  0.00     0.167 HD
ATOM     65  C   UNL A   1      43.252  30.777  30.850  1.00  0.00     0.074 A 
ATOM     66  C   UNL A   1      42.914  29.609  31.663  1.00  0.00     0.031 C 
ATOM     67  C   UNL A   1      43.606  32.047  31.209  1.00  0.00     0.037 A 
BRANCH  54  68
ATOM     68  C   UNL A   1      42.892  30.011  36.093  1.00  0.00     0.057 A 
ATOM     69  C   UNL A   1      43.869  30.069  37.096  1.00  0.00     0.134 A 
ATOM     70  C   UNL A   1      42.690  28.735  35.520  1.00  0.00     0.134 A 
ATOM     71  F   UNL A   1      44.170  31.232  37.695  1.00  0.00    -0.206 F 
ATOM     72  C   UNL A   1      44.639  28.956  37.450  1.00  0.00     0.040 A 
ATOM     73  C   UNL A   1      43.412  27.608  35.906  1.00  0.00     0.040 A 
ATOM     74  F   UNL A   1      41.869  28.526  34.484  1.00  0.00    -0.206 F 
ATOM     75  C   UNL A   1      44.415  27.723  36.852  1.00  0.00     0.006 A 
ENDBRANCH  54  68
BRANCH  55  76
ATOM     76  C   UNL A   1      40.263  28.150  28.291  1.00  0.00     0.057 A 
ATOM     77  C   UNL A   1      40.777  27.952  26.999  1.00  0.00     0.134 A 
ATOM     78  C   UNL A   1      39.608  27.042  28.859  1.00  0.00     0.134 A 
ATOM     79  F   UNL A   1      41.456  28.929  26.379  1.00  0.00    -0.206 F 
ATOM     80  C   UNL A   1      40.671  26.725  26.329  1.00  0.00     0.040 A 
ATOM     81  C   UNL A   1      39.485  25.815  28.198  1.00  0.00     0.040 A 
ATOM     82  F   UNL A   1      39.136  27.074  30.113  1.00  0.00    -0.206 F 
ATOM     83  C   UNL A   1      40.033  25.647  26.934  1.00  0.00     0.006 A 
ENDBRANCH  55  76
BRANCH  67  84
ATOM     84  C   UNL A   1      43.699  33.099  30.138  1.00  0.00     0.057 A 
ATOM     85  C   UNL A   1      44.813  33.285  29.302  1.00  0.00     0.134 A 
ATOM     86  C   UNL A   1      42.554  33.847  29.836  1.00  0.00     0.134 A 
ATOM     87  F   UNL A   1      45.917  32.538  29.436  1.00  0.00    -0.206 F 
ATOM     88  C   UNL A   1      44.799  34.208  28.251  1.00  0.00     0.040 A 
ATOM     89  C   UNL A   1      42.517  34.743  28.766  1.00  0.00     0.040 A 
ATOM     90  F   UNL A   1      41.431  33.682  30.551  1.00  0.00    -0.206 F 
ATOM     91  C   UNL A   1      43.646  34.936  27.976  1.00  0.00     0.006 A 
ENDBRANCH  67  84
ENDBRANCH  41  42
ENDBRANCH  34  36
ENDBRANCH  33  34
ENDBRANCH  32  33
ENDBRANCH  31  32
ENDBRANCH  30  31
ENDBRANCH  29  30
ENDBRANCH  28  29
ENDBRANCH  27  28
ENDBRANCH   1  27
TORSDOF 25
ENDMDL
MODEL 2
REMARK VINA RESULT:      -9.0      4.290      9.453
REMARK SMILES CC(C)n1cncc1[C@@H](NC(=O)OC(C)(C)C)C(=O)OCCOCCOCCOCCOC(=O)c1ccc(-c2c3nc(c(-c4c(F)cccc4F)c4ccc([nH]4)c(-c4c(F)cccc4F)c4nc(c(-c5c(F)cccc5F)c5ccc2[nH]5)C=C4)C=C3)cc1
REMARK SMILES IDX 25 1 24 2 23 3 22 4 21 5 20 6 18 7 19 8 9 9 8 10 4 11 5 12
REMARK SMILES IDX 6 13 7 14 2 15 1 16 3 17 10 18 11 19 12 21 13 22 14 23 15 24
REMARK SMILES IDX 16 25 17 26 26 27 27 28 28 29 29 30 30 31 31 32 32 33 33 34
REMARK SMILES IDX 34 35 35 36 36 37 88 38 37 39 87 40 38 41 39 42 40 43 81 44
REMARK SMILES IDX 41 45 86 46 80 47 82 48 42 49 85 50 79 51 78 52 43 54 69 55
REMARK SMILES IDX 52 56 68 57 53 58 56 59 67 60 83 61 54 62 55 63 66 65 84 66
REMARK SMILES IDX 57 67 44 68 45 69 50 70 46 71 47 72 49 73 51 74 48 75 70 76
REMARK SMILES IDX 71 77 76 78 72 79 73 80 75 81 77 82 74 83 58 84 59 85 64 86
REMARK SMILES IDX 60 87 61 88 63 89 65 90 62 91
REMARK H PARENT 10 20 82 53 56 64
REMARK Flexibility Score: inf
ROOT
ATOM      1  C   UNL A   1      33.612  22.892  23.359  1.00  0.00     0.188 C 
ENDROOT
BRANCH   1   2
ATOM      2  C   UNL A   1      33.080  23.511  22.043  1.00  0.00     0.188 C 
BRANCH   2   3
ATOM      3  O   UNL A   1      32.084  24.524  22.057  1.00  0.00    -0.376 OA
BRANCH   3   4
ATOM      4  C   UNL A   1      32.269  25.693  21.284  1.00  0.00     0.202 C 
BRANCH   4   5
ATOM      5  C   UNL A   1      33.310  26.715  21.714  1.00  0.00     0.261 C 
BRANCH   5   6
ATOM      6  O   UNL A   1      33.247  27.237  23.044  1.00  0.00    -0.461 OA
BRANCH   6   7
ATOM      7  C   UNL A   1      32.758  28.496  23.168  1.00  0.00     0.335 C 
ATOM      8  O   UNL A   1      33.446  29.515  23.148  1.00  0.00    -0.249 OA
BRANCH   7   9
ATOM      9  C   UNL A   1      31.270  28.527  23.516  1.00  0.00     0.244 C 
BRANCH   9  10
ATOM     10  C   UNL A   1      30.644  27.306  24.144  1.00  0.00     0.072 A 
ATOM     11  N   UNL A   1      31.088  26.615  25.277  1.00  0.00    -0.330 N 
ATOM     12  C   UNL A   1      30.242  25.544  25.448  1.00  0.00     0.199 A 
ATOM     13  N   UNL A   1      29.296  25.511  24.544  1.00  0.00    -0.245 NA
ATOM     14  C   UNL A   1      29.526  26.593  23.742  1.00  0.00     0.137 A 
BRANCH  11  15
ATOM     15  C   UNL A   1      32.150  26.985  26.224  1.00  0.00     0.082 C 
ATOM     16  C   UNL A   1      31.647  27.640  27.529  1.00  0.00     0.031 C 
ATOM     17  C   UNL A   1      33.034  25.799  26.612  1.00  0.00     0.031 C 
ENDBRANCH  11  15
ENDBRANCH   9  10
BRANCH   9  18
ATOM     18  N   UNL A   1      30.872  29.720  24.246  1.00  0.00    -0.302 N 
ATOM     19  C   UNL A   1      30.147  30.806  23.838  1.00  0.00     0.408 C 
ATOM     20  H   UNL A   1      31.171  29.750  25.183  1.00  0.00     0.168 HD
ATOM     21  O   UNL A   1      29.977  31.727  24.626  1.00  0.00    -0.225 OA
BRANCH  19  22
ATOM     22  O   UNL A   1      29.627  30.745  22.578  1.00  0.00    -0.444 OA
BRANCH  22  23
ATOM     23  C   UNL A   1      28.178  30.728  22.391  1.00  0.00     0.106 C 
ATOM     24  C   UNL A   1      27.819  31.328  21.029  1.00  0.00     0.056 C 
ATOM     25  C   UNL A   1      27.626  29.320  22.627  1.00  0.00     0.056 C 
ATOM     26  C   UNL A   1      27.508  31.635  23.444  1.00  0.00     0.056 C 
ENDBRANCH  22  23
ENDBRANCH  19  22
ENDBRANCH   9  18
ENDBRANCH   7   9
ENDBRANCH   6   7
ENDBRANCH   5   6
ENDBRANCH   4   5
ENDBRANCH   3   4
ENDBRANCH   2   3
ENDBRANCH   1   2
BRANCH   1  27
ATOM     27  O   UNL A   1      33.264  21.541  23.603  1.00  0.00    -0.377 OA
BRANCH  27  28
ATOM     28  C   UNL A   1      33.627  21.007  24.869  1.00  0.00     0.188 C 
BRANCH  28  29
ATOM     29  C   UNL A   1      35.133  20.981  25.226  1.00  0.00     0.188 C 
BRANCH  29  30
ATOM     30  O   UNL A   1      35.945  21.848  24.447  1.00  0.00    -0.376 OA
BRANCH  30  31
ATOM     31  C   UNL A   1      37.353  21.726  24.351  1.00  0.00     0.202 C 
BRANCH  31  32
ATOM     32  C   UNL A   1      38.058  20.544  25.015  1.00  0.00     0.261 C 
BRANCH  32  33
ATOM     33  O   UNL A   1      39.067  20.906  25.932  1.00  0.00    -0.460 OA
BRANCH  33  34
ATOM     34  C   UNL A   1      40.170  20.138  25.870  1.00  0.00     0.338 C 
ATOM     35  O   UNL A   1      40.248  18.980  25.510  1.00  0.00    -0.246 OA
BRANCH  34  36
ATOM     36  C   UNL A   1      41.276  20.894  26.454  1.00  0.00     0.060 A 
ATOM     37  C   UNL A   1      41.374  20.811  27.840  1.00  0.00     0.016 A 
ATOM     38  C   UNL A   1      41.824  21.948  25.706  1.00  0.00     0.016 A 
ATOM     39  C   UNL A   1      41.723  21.954  28.503  1.00  0.00     0.010 A 
ATOM     40  C   UNL A   1      42.156  23.094  26.371  1.00  0.00     0.010 A 
ATOM     41  C   UNL A   1      41.991  23.105  27.751  1.00  0.00    -0.014 A 
BRANCH  41  42
ATOM     42  C   UNL A   1      42.215  24.323  28.481  1.00  0.00     0.031 A 
ATOM     43  C   UNL A   1      41.115  25.280  28.276  1.00  0.00     0.074 A 
ATOM     44  C   UNL A   1      43.279  24.501  29.284  1.00  0.00     0.049 A 
ATOM     45  N   UNL A   1      41.175  26.394  27.633  1.00  0.00    -0.248 NA
ATOM     46  C   UNL A   1      39.751  24.846  28.624  1.00  0.00     0.031 C 
ATOM     47  C   UNL A   1      44.274  23.519  29.715  1.00  0.00     0.029 A 
ATOM     48  N   UNL A   1      43.628  25.614  29.979  1.00  0.00    -0.354 N 
ATOM     49  C   UNL A   1      39.896  26.921  27.713  1.00  0.00     0.074 A 
ATOM     50  C   UNL A   1      39.030  25.852  28.132  1.00  0.00     0.031 C 
ATOM     51  C   UNL A   1      44.952  24.016  30.776  1.00  0.00     0.029 A 
ATOM     52  C   UNL A   1      44.514  25.381  31.020  1.00  0.00     0.049 A 
ATOM     53  H   UNL A   1      43.282  26.509  29.761  1.00  0.00     0.167 HD
ATOM     54  C   UNL A   1      39.723  28.268  27.743  1.00  0.00     0.037 A 
ATOM     55  C   UNL A   1      44.753  26.232  32.051  1.00  0.00     0.037 A 
ATOM     56  C   UNL A   1      40.857  28.956  27.175  1.00  0.00     0.049 A 
ATOM     57  C   UNL A   1      44.312  27.588  31.613  1.00  0.00     0.074 A 
ATOM     58  C   UNL A   1      41.524  28.865  25.965  1.00  0.00     0.029 A 
ATOM     59  N   UNL A   1      41.722  29.601  28.027  1.00  0.00    -0.354 N 
ATOM     60  N   UNL A   1      44.927  28.287  30.699  1.00  0.00    -0.248 NA
ATOM     61  C   UNL A   1      42.915  27.947  31.834  1.00  0.00     0.031 C 
ATOM     62  C   UNL A   1      42.905  28.993  26.295  1.00  0.00     0.029 A 
ATOM     63  C   UNL A   1      42.994  29.236  27.666  1.00  0.00     0.049 A 
ATOM     64  H   UNL A   1      41.474  30.211  28.759  1.00  0.00     0.167 HD
ATOM     65  C   UNL A   1      43.909  28.838  29.932  1.00  0.00     0.074 A 
ATOM     66  C   UNL A   1      42.693  28.657  30.724  1.00  0.00     0.031 C 
ATOM     67  C   UNL A   1      44.083  29.111  28.605  1.00  0.00     0.037 A 
BRANCH  54  68
ATOM     68  C   UNL A   1      38.748  28.922  28.686  1.00  0.00     0.057 A 
ATOM     69  C   UNL A   1      38.794  28.585  30.046  1.00  0.00     0.134 A 
ATOM     70  C   UNL A   1      37.592  29.624  28.277  1.00  0.00     0.134 A 
ATOM     71  F   UNL A   1      39.829  27.893  30.547  1.00  0.00    -0.206 F 
ATOM     72  C   UNL A   1      37.736  28.861  30.917  1.00  0.00     0.040 A 
ATOM     73  C   UNL A   1      36.558  29.954  29.149  1.00  0.00     0.040 A 
ATOM     74  F   UNL A   1      37.344  29.933  26.999  1.00  0.00    -0.206 F 
ATOM     75  C   UNL A   1      36.611  29.543  30.469  1.00  0.00     0.006 A 
ENDBRANCH  54  68
BRANCH  55  76
ATOM     76  C   UNL A   1      45.008  25.900  33.475  1.00  0.00     0.057 A 
ATOM     77  C   UNL A   1      44.069  25.176  34.225  1.00  0.00     0.134 A 
ATOM     78  C   UNL A   1      46.276  26.047  34.068  1.00  0.00     0.134 A 
ATOM     79  F   UNL A   1      42.841  24.941  33.737  1.00  0.00    -0.206 F 
ATOM     80  C   UNL A   1      44.379  24.610  35.471  1.00  0.00     0.040 A 
ATOM     81  C   UNL A   1      46.595  25.497  35.314  1.00  0.00     0.040 A 
ATOM     82  F   UNL A   1      47.284  26.652  33.426  1.00  0.00    -0.206 F 
ATOM     83  C   UNL A   1      45.650  24.761  36.014  1.00  0.00     0.006 A 
ENDBRANCH  55  76
BRANCH  67  84
ATOM     84  C   UNL A   1      45.471  29.039  28.030  1.00  0.00     0.057 A 
ATOM     85  C   UNL A   1      46.083  27.859  27.578  1.00  0.00     0.134 A 
ATOM     86  C   UNL A   1      46.152  30.237  27.778  1.00  0.00     0.134 A 
ATOM     87  F   UNL A   1      45.464  26.674  27.669  1.00  0.00    -0.206 F 
ATOM     88  C   UNL A   1      47.335  27.870  26.952  1.00  0.00     0.040 A 
ATOM     89  C   UNL A   1      47.383  30.264  27.120  1.00  0.00     0.040 A 
ATOM     90  F   UNL A   1      45.605  31.411  28.126  1.00  0.00    -0.206 F 
ATOM     91  C   UNL A   1      47.986  29.076  26.715  1.00  0.00     0.006 A 
ENDBRANCH  67  84
ENDBRANCH  41  42
ENDBRANCH  34  36
ENDBRANCH  33  34
ENDBRANCH  32  33
ENDBRANCH  31  32
ENDBRANCH  30  31
ENDBRANCH  29  30
ENDBRANCH  28  29
ENDBRANCH  27  28
ENDBRANCH   1  27
TORSDOF 25
ENDMDL
MODEL 3
REMARK VINA RESULT:      -8.9      3.649      7.791
REMARK SMILES CC(C)n1cncc1[C@@H](NC(=O)OC(C)(C)C)C(=O)OCCOCCOCCOCCOC(=O)c1ccc(-c2c3nc(c(-c4c(F)cccc4F)c4ccc([nH]4)c(-c4c(F)cccc4F)c4nc(c(-c5c(F)cccc5F)c5ccc2[nH]5)C=C4)C=C3)cc1
REMARK SMILES IDX 25 1 24 2 23 3 22 4 21 5 20 6 18 7 19 8 9 9 8 10 4 11 5 12
REMARK SMILES IDX 6 13 7 14 2 15 1 16 3 17 10 18 11 19 12 21 13 22 14 23 15 24
REMARK SMILES IDX 16 25 17 26 26 27 27 28 28 29 29 30 30 31 31 32 32 33 33 34
REMARK SMILES IDX 34 35 35 36 36 37 88 38 37 39 87 40 38 41 39 42 40 43 81 44
REMARK SMILES IDX 41 45 86 46 80 47 82 48 42 49 85 50 79 51 78 52 43 54 69 55
REMARK SMILES IDX 52 56 68 57 53 58 56 59 67 60 83 61 54 62 55 63 66 65 84 66
REMARK SMILES IDX 57 67 44 68 45 69 50 70 46 71 47 72 49 73 51 74 48 75 70 76
REMARK SMILES IDX 71 77 76 78 72 79 73 80 75 81 77 82 74 83 58 84 59 85 64 86
REMARK SMILES IDX 60 87 61 88 63 89 65 90 62 91
REMARK H PARENT 10 20 82 53 56 64
REMARK Flexibility Score: inf
ROOT
ATOM      1  C   UNL A   1      33.853  29.588  26.381  1.00  0.00     0.188 C 
ENDROOT
BRANCH   1   2
ATOM      2  C   UNL A   1      33.485  28.187  26.926  1.00  0.00     0.188 C 
BRANCH   2   3
ATOM      3  O   UNL A   1      33.804  27.008  26.200  1.00  0.00    -0.376 OA
BRANCH   3   4
ATOM      4  C   UNL A   1      32.898  25.922  26.203  1.00  0.00     0.202 C 
BRANCH   4   5
ATOM      5  C   UNL A   1      33.438  24.501  26.128  1.00  0.00     0.261 C 
BRANCH   5   6
ATOM      6  O   UNL A   1      32.506  23.419  26.049  1.00  0.00    -0.461 OA
BRANCH   6   7
ATOM      7  C   UNL A   1      32.236  22.954  24.804  1.00  0.00     0.335 C 
ATOM      8  O   UNL A   1      31.105  22.755  24.365  1.00  0.00    -0.249 OA
BRANCH   7   9
ATOM      9  C   UNL A   1      33.490  22.526  24.042  1.00  0.00     0.244 C 
BRANCH   9  10
ATOM     10  C   UNL A   1      34.183  21.247  24.441  1.00  0.00     0.072 A 
ATOM     11  N   UNL A   1      35.544  21.072  24.717  1.00  0.00    -0.330 N 
ATOM     12  C   UNL A   1      35.728  19.735  24.984  1.00  0.00     0.199 A 
ATOM     13  N   UNL A   1      34.608  19.059  24.924  1.00  0.00    -0.245 NA
ATOM     14  C   UNL A   1      33.650  19.977  24.601  1.00  0.00     0.137 A 
BRANCH  11  15
ATOM     15  C   UNL A   1      36.594  22.092  24.854  1.00  0.00     0.082 C 
ATOM     16  C   UNL A   1      37.978  21.539  25.259  1.00  0.00     0.031 C 
ATOM     17  C   UNL A   1      36.780  22.920  23.581  1.00  0.00     0.031 C 
ENDBRANCH  11  15
ENDBRANCH   9  10
BRANCH   9  18
ATOM     18  N   UNL A   1      33.334  22.577  22.597  1.00  0.00    -0.302 N 
ATOM     19  C   UNL A   1      33.342  23.645  21.743  1.00  0.00     0.408 C 
ATOM     20  H   UNL A   1      33.202  21.703  22.165  1.00  0.00     0.168 HD
ATOM     21  O   UNL A   1      33.138  23.446  20.552  1.00  0.00    -0.225 OA
BRANCH  19  22
ATOM     22  O   UNL A   1      33.630  24.858  22.297  1.00  0.00    -0.444 OA
BRANCH  22  23
ATOM     23  C   UNL A   1      32.790  26.014  21.991  1.00  0.00     0.106 C 
ATOM     24  C   UNL A   1      32.551  26.101  20.481  1.00  0.00     0.056 C 
ATOM     25  C   UNL A   1      31.512  25.984  22.832  1.00  0.00     0.056 C 
ATOM     26  C   UNL A   1      33.529  27.311  22.378  1.00  0.00     0.056 C 
ENDBRANCH  22  23
ENDBRANCH  19  22
ENDBRANCH   9  18
ENDBRANCH   7   9
ENDBRANCH   6   7
ENDBRANCH   5   6
ENDBRANCH   4   5
ENDBRANCH   3   4
ENDBRANCH   2   3
ENDBRANCH   1   2
BRANCH   1  27
ATOM     27  O   UNL A   1      34.324  30.528  27.329  1.00  0.00    -0.377 OA
BRANCH  27  28
ATOM     28  C   UNL A   1      33.578  31.730  27.461  1.00  0.00     0.188 C 
BRANCH  28  29
ATOM     29  C   UNL A   1      34.096  32.784  28.469  1.00  0.00     0.188 C 
BRANCH  29  30
ATOM     30  O   UNL A   1      34.257  32.308  29.798  1.00  0.00    -0.376 OA
BRANCH  30  31
ATOM     31  C   UNL A   1      35.169  32.868  30.726  1.00  0.00     0.202 C 
BRANCH  31  32
ATOM     32  C   UNL A   1      36.366  32.045  31.203  1.00  0.00     0.261 C 
BRANCH  32  33
ATOM     33  O   UNL A   1      36.714  30.975  30.352  1.00  0.00    -0.460 OA
BRANCH  33  34
ATOM     34  C   UNL A   1      36.846  29.793  30.980  1.00  0.00     0.338 C 
ATOM     35  O   UNL A   1      36.477  29.503  32.101  1.00  0.00    -0.246 OA
BRANCH  34  36
ATOM     36  C   UNL A   1      37.655  28.921  30.130  1.00  0.00     0.060 A 
ATOM     37  C   UNL A   1      38.252  27.852  30.790  1.00  0.00     0.016 A 
ATOM     38  C   UNL A   1      38.131  29.440  28.917  1.00  0.00     0.016 A 
ATOM     39  C   UNL A   1      39.524  27.524  30.408  1.00  0.00     0.010 A 
ATOM     40  C   UNL A   1      39.408  29.124  28.548  1.00  0.00     0.010 A 
ATOM     41  C   UNL A   1      40.115  28.253  29.369  1.00  0.00    -0.014 A 
BRANCH  41  42
ATOM     42  C   UNL A   1      41.499  27.981  29.087  1.00  0.00     0.031 A 
ATOM     43  C   UNL A   1      41.656  26.709  28.364  1.00  0.00     0.074 A 
ATOM     44  C   UNL A   1      42.485  28.836  29.408  1.00  0.00     0.049 A 
ATOM     45  N   UNL A   1      42.189  25.627  28.817  1.00  0.00    -0.248 NA
ATOM     46  C   UNL A   1      40.945  26.551  27.083  1.00  0.00     0.031 C 
ATOM     47  C   UNL A   1      42.381  30.207  29.909  1.00  0.00     0.029 A 
ATOM     48  N   UNL A   1      43.823  28.673  29.245  1.00  0.00    -0.354 N 
ATOM     49  C   UNL A   1      42.096  24.719  27.774  1.00  0.00     0.074 A 
ATOM     50  C   UNL A   1      41.149  25.259  26.835  1.00  0.00     0.031 C 
ATOM     51  C   UNL A   1      43.580  30.819  29.769  1.00  0.00     0.029 A 
ATOM     52  C   UNL A   1      44.549  29.853  29.278  1.00  0.00     0.049 A 
ATOM     53  H   UNL A   1      44.241  27.791  29.115  1.00  0.00     0.167 HD
ATOM     54  C   UNL A   1      43.052  23.767  27.623  1.00  0.00     0.037 A 
ATOM     55  C   UNL A   1      45.817  30.006  28.817  1.00  0.00     0.037 A 
ATOM     56  C   UNL A   1      43.746  23.519  28.863  1.00  0.00     0.049 A 
ATOM     57  C   UNL A   1      46.429  28.647  28.752  1.00  0.00     0.074 A 
ATOM     58  C   UNL A   1      43.333  23.190  30.143  1.00  0.00     0.029 A 
ATOM     59  N   UNL A   1      45.027  24.000  29.001  1.00  0.00    -0.354 N 
ATOM     60  N   UNL A   1      46.739  27.944  29.807  1.00  0.00    -0.248 NA
ATOM     61  C   UNL A   1      46.234  27.877  27.529  1.00  0.00     0.031 C 
ATOM     62  C   UNL A   1      44.170  23.953  31.009  1.00  0.00     0.029 A 
ATOM     63  C   UNL A   1      45.093  24.634  30.216  1.00  0.00     0.049 A 
ATOM     64  H   UNL A   1      45.759  23.907  28.349  1.00  0.00     0.167 HD
ATOM     65  C   UNL A   1      46.338  26.651  29.500  1.00  0.00     0.074 A 
ATOM     66  C   UNL A   1      46.105  26.656  28.056  1.00  0.00     0.031 C 
ATOM     67  C   UNL A   1      45.933  25.780  30.471  1.00  0.00     0.037 A 
BRANCH  54  68
ATOM     68  C   UNL A   1      43.624  23.423  26.274  1.00  0.00     0.057 A 
ATOM     69  C   UNL A   1      43.736  22.073  25.912  1.00  0.00     0.134 A 
ATOM     70  C   UNL A   1      44.338  24.328  25.456  1.00  0.00     0.134 A 
ATOM     71  F   UNL A   1      43.126  21.117  26.630  1.00  0.00    -0.206 F 
ATOM     72  C   UNL A   1      44.555  21.650  24.860  1.00  0.00     0.040 A 
ATOM     73  C   UNL A   1      45.111  23.921  24.371  1.00  0.00     0.040 A 
ATOM     74  F   UNL A   1      44.420  25.637  25.721  1.00  0.00    -0.206 F 
ATOM     75  C   UNL A   1      45.250  22.574  24.090  1.00  0.00     0.006 A 
ENDBRANCH  54  68
BRANCH  55  76
ATOM     76  C   UNL A   1      46.405  31.176  28.118  1.00  0.00     0.057 A 
ATOM     77  C   UNL A   1      45.871  31.633  26.903  1.00  0.00     0.134 A 
ATOM     78  C   UNL A   1      47.329  32.038  28.738  1.00  0.00     0.134 A 
ATOM     79  F   UNL A   1      44.951  30.909  26.248  1.00  0.00    -0.206 F 
ATOM     80  C   UNL A   1      46.211  32.879  26.355  1.00  0.00     0.040 A 
ATOM     81  C   UNL A   1      47.685  33.278  28.197  1.00  0.00     0.040 A 
ATOM     82  F   UNL A   1      47.856  31.755  29.936  1.00  0.00    -0.206 F 
ATOM     83  C   UNL A   1      47.114  33.711  27.009  1.00  0.00     0.006 A 
ENDBRANCH  55  76
BRANCH  67  84
ATOM     84  C   UNL A   1      46.158  26.150  31.911  1.00  0.00     0.057 A 
ATOM     85  C   UNL A   1      47.351  25.916  32.614  1.00  0.00     0.134 A 
ATOM     86  C   UNL A   1      45.185  26.918  32.563  1.00  0.00     0.134 A 
ATOM     87  F   UNL A   1      48.387  25.290  32.039  1.00  0.00    -0.206 F 
ATOM     88  C   UNL A   1      47.541  26.381  33.920  1.00  0.00     0.040 A 
ATOM     89  C   UNL A   1      45.379  27.420  33.851  1.00  0.00     0.040 A 
ATOM     90  F   UNL A   1      44.042  27.235  31.936  1.00  0.00    -0.206 F 
ATOM     91  C   UNL A   1      46.556  27.142  34.540  1.00  0.00     0.006 A 
ENDBRANCH  67  84
ENDBRANCH  41  42
ENDBRANCH  34  36
ENDBRANCH  33  34
ENDBRANCH  32  33
ENDBRANCH  31  32
ENDBRANCH  30  31
ENDBRANCH  29  30
ENDBRANCH  28  29
ENDBRANCH  27  28
ENDBRANCH   1  27
TORSDOF 25
ENDMDL
