MODEL 1
REMARK VINA RESULT:     -10.3      0.000      0.000
REMARK SMILES O=C(OCCOCCOCCOCCOC(=O)c1ccc(-c2c3nc(c(-c4c(F)cccc4F)c4ccc([nH]4)c(-c4c(F)cccc4F)c4nc(c(-c5c(F)cccc5F)c5ccc2[nH]5)C=C4)C=C3)cc1)C1=NN(c2ccc(S(=O)(=O)[O-])cc2)C(=O)/C1=C/Nc1ccccc1
REMARK SMILES IDX 9 1 8 2 7 3 6 4 5 5 4 6 3 7 2 8 1 9 72 10 73 11 87 12 74 13
REMARK SMILES IDX 85 14 88 15 86 16 75 17 76 18 84 19 77 20 83 21 78 22 79 23
REMARK SMILES IDX 80 24 81 25 82 26 89 27 90 29 91 30 95 31 92 32 94 33 93 34
REMARK SMILES IDX 10 35 11 36 12 37 13 38 14 39 15 40 16 41 17 42 18 43 19 44
REMARK SMILES IDX 71 45 20 46 70 47 21 48 22 49 23 50 64 51 24 52 69 53 63 54
REMARK SMILES IDX 65 55 25 56 68 57 62 58 61 59 26 61 52 62 35 63 51 64 36 65
REMARK SMILES IDX 39 66 50 67 66 68 37 69 38 70 49 72 67 73 40 74 27 75 28 76
REMARK SMILES IDX 33 77 29 78 30 79 32 80 34 81 31 82 53 83 54 84 59 85 55 86
REMARK SMILES IDX 56 87 58 88 60 89 57 90 41 91 42 92 47 93 43 94 44 95 46 96
REMARK SMILES IDX 48 97 45 98
REMARK H PARENT 89 28 65 60 39 71
REMARK Flexibility Score: inf
ROOT
ATOM      1  O   UNL A   1      35.147  32.515  29.225  1.00  0.00    -0.377 OA
ENDROOT
BRANCH   1   2
ATOM      2  C   UNL A   1      35.635  32.008  27.980  1.00  0.00     0.188 C 
BRANCH   2   3
ATOM      3  C   UNL A   1      36.202  30.617  27.874  1.00  0.00     0.188 C 
BRANCH   3   4
ATOM      4  O   UNL A   1      35.180  29.647  27.863  1.00  0.00    -0.376 OA
BRANCH   4   5
ATOM      5  C   UNL A   1      34.834  28.976  26.677  1.00  0.00     0.202 C 
BRANCH   5   6
ATOM      6  C   UNL A   1      33.447  28.386  26.743  1.00  0.00     0.261 C 
BRANCH   6   7
ATOM      7  O   UNL A   1      33.408  26.939  26.821  1.00  0.00    -0.458 OA
BRANCH   7   8
ATOM      8  C   UNL A   1      33.795  26.168  25.768  1.00  0.00     0.359 C 
ATOM      9  O   UNL A   1      34.798  25.474  25.748  1.00  0.00    -0.244 OA
BRANCH   8  10
ATOM     10  C   UNL A   1      32.665  25.897  24.807  1.00  0.00     0.183 C 
ATOM     11  N   UNL A   1      32.193  26.983  24.249  1.00  0.00    -0.157 NA
ATOM     12  C   UNL A   1      32.013  24.584  24.351  1.00  0.00     0.093 C 
ATOM     13  N   UNL A   1      31.199  26.625  23.404  1.00  0.00    -0.196 N 
ATOM     14  C   UNL A   1      31.044  25.229  23.287  1.00  0.00     0.282 C 
ATOM     15  C   UNL A   1      31.991  23.194  24.419  1.00  0.00     0.099 C 
ATOM     16  O   UNL A   1      30.316  24.617  22.522  1.00  0.00    -0.267 OA
BRANCH  13  17
ATOM     17  C   UNL A   1      30.350  27.685  22.939  1.00  0.00     0.069 A 
ATOM     18  C   UNL A   1      30.878  28.779  22.210  1.00  0.00     0.030 A 
ATOM     19  C   UNL A   1      29.005  27.760  23.318  1.00  0.00     0.030 A 
ATOM     20  C   UNL A   1      30.121  29.939  21.959  1.00  0.00     0.021 A 
ATOM     21  C   UNL A   1      28.245  28.922  23.088  1.00  0.00     0.021 A 
ATOM     22  C   UNL A   1      28.814  30.015  22.433  1.00  0.00     0.054 A 
BRANCH  22  23
ATOM     23  S   UNL A   1      27.912  31.533  22.258  1.00  0.00     0.124 S 
ATOM     24  O   UNL A   1      27.441  31.618  20.893  1.00  0.00    -0.237 OA
ATOM     25  O   UNL A   1      27.010  31.653  23.380  1.00  0.00    -0.237 OA
ATOM     26  O   UNL A   1      28.999  32.714  22.442  1.00  0.00    -0.744 OA
ENDBRANCH  22  23
ENDBRANCH  13  17
BRANCH  15  27
ATOM     27  N   UNL A   1      32.462  21.906  24.985  1.00  0.00    -0.361 N 
ATOM     28  H   UNL A   1      32.644  22.044  25.942  1.00  0.00     0.166 HD
BRANCH  27  29
ATOM     29  C   UNL A   1      32.805  20.309  24.621  1.00  0.00     0.038 A 
ATOM     30  C   UNL A   1      32.022  19.826  23.049  1.00  0.00     0.026 A 
ATOM     31  C   UNL A   1      34.147  19.183  25.239  1.00  0.00     0.026 A 
ATOM     32  C   UNL A   1      32.531  18.316  22.146  1.00  0.00     0.002 A 
ATOM     33  C   UNL A   1      34.574  17.582  24.408  1.00  0.00     0.002 A 
ATOM     34  C   UNL A   1      33.704  17.133  22.876  1.00  0.00     0.000 A 
ENDBRANCH  27  29
ENDBRANCH  15  27
ENDBRANCH   8  10
ENDBRANCH   7   8
ENDBRANCH   6   7
ENDBRANCH   5   6
ENDBRANCH   4   5
ENDBRANCH   3   4
ENDBRANCH   2   3
ENDBRANCH   1   2
BRANCH   1  35
ATOM     35  C   UNL A   1      35.824  33.206  30.302  1.00  0.00     0.188 C 
BRANCH  35  36
ATOM     36  C   UNL A   1      36.598  32.657  31.771  1.00  0.00     0.188 C 
BRANCH  36  37
ATOM     37  O   UNL A   1      36.851  31.303  32.389  1.00  0.00    -0.376 OA
BRANCH  37  38
ATOM     38  C   UNL A   1      36.791  29.890  31.981  1.00  0.00     0.202 C 
BRANCH  38  39
ATOM     39  C   UNL A   1      37.885  28.748  32.201  1.00  0.00     0.261 C 
BRANCH  39  40
ATOM     40  O   UNL A   1      38.594  28.694  33.448  1.00  0.00    -0.460 OA
BRANCH  40  41
ATOM     41  C   UNL A   1      39.588  29.763  33.685  1.00  0.00     0.338 C 
ATOM     42  O   UNL A   1      39.322  30.034  34.890  1.00  0.00    -0.246 OA
BRANCH  41  43
ATOM     43  C   UNL A   1      41.082  30.495  32.298  1.00  0.00     0.060 A 
ATOM     44  C   UNL A   1      41.147  30.312  30.756  1.00  0.00     0.016 A 
ATOM     45  C   UNL A   1      42.512  30.918  32.499  1.00  0.00     0.016 A 
ATOM     46  C   UNL A   1      42.249  30.144  29.865  1.00  0.00     0.010 A 
ATOM     47  C   UNL A   1      43.660  30.703  31.619  1.00  0.00     0.010 A 
ATOM     48  C   UNL A   1      43.536  30.195  30.334  1.00  0.00    -0.014 A 
BRANCH  48  49
ATOM     49  C   UNL A   1      44.656  29.772  29.439  1.00  0.00     0.031 A 
ATOM     50  C   UNL A   1      45.942  30.569  29.354  1.00  0.00     0.074 A 
ATOM     51  C   UNL A   1      44.585  28.585  28.808  1.00  0.00     0.049 A 
ATOM     52  N   UNL A   1      47.032  30.329  28.660  1.00  0.00    -0.248 NA
ATOM     53  C   UNL A   1      46.017  31.790  30.168  1.00  0.00     0.031 C 
ATOM     54  C   UNL A   1      43.453  27.665  28.902  1.00  0.00     0.029 A 
ATOM     55  N   UNL A   1      45.478  27.937  27.989  1.00  0.00    -0.354 N 
ATOM     56  C   UNL A   1      47.912  31.377  28.934  1.00  0.00     0.074 A 
ATOM     57  C   UNL A   1      47.225  32.253  29.862  1.00  0.00     0.031 C 
ATOM     58  C   UNL A   1      43.718  26.571  28.172  1.00  0.00     0.029 A 
ATOM     59  C   UNL A   1      45.013  26.734  27.517  1.00  0.00     0.049 A 
ATOM     60  H   UNL A   1      46.365  28.301  27.762  1.00  0.00     0.167 HD
ATOM     61  C   UNL A   1      49.164  31.592  28.449  1.00  0.00     0.037 A 
ATOM     62  C   UNL A   1      45.551  25.869  26.636  1.00  0.00     0.037 A 
ATOM     63  C   UNL A   1      49.840  30.709  27.522  1.00  0.00     0.049 A 
ATOM     64  C   UNL A   1      46.900  26.172  26.043  1.00  0.00     0.074 A 
ATOM     65  C   UNL A   1      51.104  30.832  26.968  1.00  0.00     0.029 A 
ATOM     66  N   UNL A   1      49.297  29.541  27.003  1.00  0.00    -0.354 N 
ATOM     67  N   UNL A   1      47.706  27.175  26.292  1.00  0.00    -0.248 NA
ATOM     68  C   UNL A   1      47.410  25.224  25.044  1.00  0.00     0.031 C 
ATOM     69  C   UNL A   1      51.296  29.781  26.063  1.00  0.00     0.029 A 
ATOM     70  C   UNL A   1      50.184  28.957  26.109  1.00  0.00     0.049 A 
ATOM     71  H   UNL A   1      48.412  29.179  27.236  1.00  0.00     0.167 HD
ATOM     72  C   UNL A   1      48.831  26.965  25.506  1.00  0.00     0.074 A 
ATOM     73  C   UNL A   1      48.608  25.729  24.784  1.00  0.00     0.031 C 
ATOM     74  C   UNL A   1      49.948  27.726  25.393  1.00  0.00     0.037 A 
BRANCH  61  75
ATOM     75  C   UNL A   1      49.876  32.862  28.851  1.00  0.00     0.057 A 
ATOM     76  C   UNL A   1      49.738  34.065  28.145  1.00  0.00     0.134 A 
ATOM     77  C   UNL A   1      50.685  32.891  29.999  1.00  0.00     0.134 A 
ATOM     78  F   UNL A   1      48.977  34.121  27.041  1.00  0.00    -0.206 F 
ATOM     79  C   UNL A   1      50.404  35.231  28.540  1.00  0.00     0.040 A 
ATOM     80  C   UNL A   1      51.331  34.057  30.421  1.00  0.00     0.040 A 
ATOM     81  F   UNL A   1      50.850  31.788  30.744  1.00  0.00    -0.206 F 
ATOM     82  C   UNL A   1      51.200  35.230  29.683  1.00  0.00     0.006 A 
ENDBRANCH  61  75
BRANCH  62  83
ATOM     83  C   UNL A   1      44.797  24.648  26.245  1.00  0.00     0.057 A 
ATOM     84  C   UNL A   1      43.777  24.693  25.289  1.00  0.00     0.134 A 
ATOM     85  C   UNL A   1      45.090  23.401  26.813  1.00  0.00     0.134 A 
ATOM     86  F   UNL A   1      43.432  25.859  24.724  1.00  0.00    -0.206 F 
ATOM     87  C   UNL A   1      43.071  23.547  24.916  1.00  0.00     0.040 A 
ATOM     88  C   UNL A   1      44.417  22.241  26.426  1.00  0.00     0.040 A 
ATOM     89  F   UNL A   1      46.058  23.285  27.735  1.00  0.00    -0.206 F 
ATOM     90  C   UNL A   1      43.399  22.314  25.479  1.00  0.00     0.006 A 
ENDBRANCH  62  83
BRANCH  74  91
ATOM     91  C   UNL A   1      51.030  27.213  24.482  1.00  0.00     0.057 A 
ATOM     92  C   UNL A   1      52.066  26.391  24.943  1.00  0.00     0.134 A 
ATOM     93  C   UNL A   1      51.034  27.552  23.122  1.00  0.00     0.134 A 
ATOM     94  F   UNL A   1      52.132  26.039  26.237  1.00  0.00    -0.206 F 
ATOM     95  C   UNL A   1      53.088  25.958  24.095  1.00  0.00     0.040 A 
ATOM     96  C   UNL A   1      52.031  27.098  22.258  1.00  0.00     0.040 A 
ATOM     97  F   UNL A   1      50.068  28.330  22.610  1.00  0.00    -0.206 F 
ATOM     98  C   UNL A   1      53.069  26.308  22.746  1.00  0.00     0.006 A 
ENDBRANCH  74  91
ENDBRANCH  48  49
ENDBRANCH  41  43
ENDBRANCH  40  41
ENDBRANCH  39  40
ENDBRANCH  38  39
ENDBRANCH  37  38
ENDBRANCH  36  37
ENDBRANCH  35  36
ENDBRANCH   1  35
TORSDOF 24
ENDMDL
MODEL 2
REMARK VINA RESULT:     -10.3      7.450     13.631
REMARK SMILES O=C(OCCOCCOCCOCCOC(=O)c1ccc(-c2c3nc(c(-c4c(F)cccc4F)c4ccc([nH]4)c(-c4c(F)cccc4F)c4nc(c(-c5c(F)cccc5F)c5ccc2[nH]5)C=C4)C=C3)cc1)C1=NN(c2ccc(S(=O)(=O)[O-])cc2)C(=O)/C1=C/Nc1ccccc1
REMARK SMILES IDX 9 1 8 2 7 3 6 4 5 5 4 6 3 7 2 8 1 9 72 10 73 11 87 12 74 13
REMARK SMILES IDX 85 14 88 15 86 16 75 17 76 18 84 19 77 20 83 21 78 22 79 23
REMARK SMILES IDX 80 24 81 25 82 26 89 27 90 29 91 30 95 31 92 32 94 33 93 34
REMARK SMILES IDX 10 35 11 36 12 37 13 38 14 39 15 40 16 41 17 42 18 43 19 44
REMARK SMILES IDX 71 45 20 46 70 47 21 48 22 49 23 50 64 51 24 52 69 53 63 54
REMARK SMILES IDX 65 55 25 56 68 57 62 58 61 59 26 61 52 62 35 63 51 64 36 65
REMARK SMILES IDX 39 66 50 67 66 68 37 69 38 70 49 72 67 73 40 74 27 75 28 76
REMARK SMILES IDX 33 77 29 78 30 79 32 80 34 81 31 82 53 83 54 84 59 85 55 86
REMARK SMILES IDX 56 87 58 88 60 89 57 90 41 91 42 92 47 93 43 94 44 95 46 96
REMARK SMILES IDX 48 97 45 98
REMARK H PARENT 89 28 65 60 39 71
REMARK Flexibility Score: inf
ROOT
ATOM      1  O   UNL A   1      49.136  25.774  31.739  1.00  0.00    -0.377 OA
ENDROOT
BRANCH   1   2
ATOM      2  C   UNL A   1      48.127  25.819  30.728  1.00  0.00     0.188 C 
BRANCH   2   3
ATOM      3  C   UNL A   1      47.349  27.080  30.458  1.00  0.00     0.188 C 
BRANCH   3   4
ATOM      4  O   UNL A   1      46.168  26.810  29.741  1.00  0.00    -0.376 OA
BRANCH   4   5
ATOM      5  C   UNL A   1      44.980  27.513  30.014  1.00  0.00     0.202 C 
BRANCH   5   6
ATOM      6  C   UNL A   1      43.752  26.712  29.656  1.00  0.00     0.261 C 
BRANCH   6   7
ATOM      7  O   UNL A   1      42.828  27.388  28.768  1.00  0.00    -0.458 OA
BRANCH   7   8
ATOM      8  C   UNL A   1      42.399  26.797  27.618  1.00  0.00     0.359 C 
ATOM      9  O   UNL A   1      41.273  26.903  27.163  1.00  0.00    -0.244 OA
BRANCH   8  10
ATOM     10  C   UNL A   1      43.541  26.369  26.730  1.00  0.00     0.183 C 
ATOM     11  N   UNL A   1      43.393  25.160  26.251  1.00  0.00    -0.157 NA
ATOM     12  C   UNL A   1      44.803  27.112  26.270  1.00  0.00     0.093 C 
ATOM     13  N   UNL A   1      44.460  24.885  25.466  1.00  0.00    -0.196 N 
ATOM     14  C   UNL A   1      45.330  25.982  25.305  1.00  0.00     0.282 C 
ATOM     15  C   UNL A   1      45.549  28.288  26.285  1.00  0.00     0.099 C 
ATOM     16  O   UNL A   1      46.301  26.068  24.570  1.00  0.00    -0.267 OA
BRANCH  13  17
ATOM     17  C   UNL A   1      44.644  23.508  25.105  1.00  0.00     0.069 A 
ATOM     18  C   UNL A   1      43.676  22.528  25.439  1.00  0.00     0.030 A 
ATOM     19  C   UNL A   1      45.848  23.053  24.554  1.00  0.00     0.030 A 
ATOM     20  C   UNL A   1      43.941  21.151  25.320  1.00  0.00     0.021 A 
ATOM     21  C   UNL A   1      46.129  21.679  24.448  1.00  0.00     0.021 A 
ATOM     22  C   UNL A   1      45.186  20.735  24.854  1.00  0.00     0.054 A 
BRANCH  22  23
ATOM     23  S   UNL A   1      45.578  19.004  24.852  1.00  0.00     0.124 S 
ATOM     24  O   UNL A   1      46.854  18.834  25.511  1.00  0.00    -0.237 OA
ATOM     25  O   UNL A   1      44.403  18.276  25.276  1.00  0.00    -0.237 OA
ATOM     26  O   UNL A   1      45.805  18.607  23.303  1.00  0.00    -0.744 OA
ENDBRANCH  22  23
ENDBRANCH  13  17
BRANCH  15  27
ATOM     27  N   UNL A   1      45.802  29.669  26.763  1.00  0.00    -0.361 N 
ATOM     28  H   UNL A   1      46.710  29.925  26.482  1.00  0.00     0.166 HD
BRANCH  27  29
ATOM     29  C   UNL A   1      45.140  30.958  27.599  1.00  0.00     0.038 A 
ATOM     30  C   UNL A   1      45.232  32.482  26.605  1.00  0.00     0.026 A 
ATOM     31  C   UNL A   1      43.970  30.999  29.041  1.00  0.00     0.026 A 
ATOM     32  C   UNL A   1      44.234  33.961  27.020  1.00  0.00     0.002 A 
ATOM     33  C   UNL A   1      43.061  32.533  29.551  1.00  0.00     0.002 A 
ATOM     34  C   UNL A   1      43.253  34.037  28.550  1.00  0.00     0.000 A 
ENDBRANCH  27  29
ENDBRANCH  15  27
ENDBRANCH   8  10
ENDBRANCH   7   8
ENDBRANCH   6   7
ENDBRANCH   5   6
ENDBRANCH   4   5
ENDBRANCH   3   4
ENDBRANCH   2   3
ENDBRANCH   1   2
BRANCH   1  35
ATOM     35  C   UNL A   1      50.033  24.712  32.142  1.00  0.00     0.188 C 
BRANCH  35  36
ATOM     36  C   UNL A   1      50.189  23.774  33.609  1.00  0.00     0.188 C 
BRANCH  36  37
ATOM     37  O   UNL A   1      49.458  22.585  34.185  1.00  0.00    -0.376 OA
BRANCH  37  38
ATOM     38  C   UNL A   1      48.094  22.255  34.629  1.00  0.00     0.202 C 
BRANCH  38  39
ATOM     39  C   UNL A   1      47.646  21.332  35.852  1.00  0.00     0.261 C 
BRANCH  39  40
ATOM     40  O   UNL A   1      46.296  21.418  36.332  1.00  0.00    -0.460 OA
BRANCH  40  41
ATOM     41  C   UNL A   1      45.231  21.392  35.307  1.00  0.00     0.338 C 
ATOM     42  O   UNL A   1      45.201  20.152  35.067  1.00  0.00    -0.246 OA
BRANCH  41  43
ATOM     43  C   UNL A   1      44.069  23.070  34.581  1.00  0.00     0.060 A 
ATOM     44  C   UNL A   1      44.341  23.977  33.349  1.00  0.00     0.016 A 
ATOM     45  C   UNL A   1      43.077  23.971  35.264  1.00  0.00     0.016 A 
ATOM     46  C   UNL A   1      44.114  25.369  33.126  1.00  0.00     0.010 A 
ATOM     47  C   UNL A   1      42.873  25.407  35.084  1.00  0.00     0.010 A 
ATOM     48  C   UNL A   1      43.496  26.134  34.079  1.00  0.00    -0.014 A 
BRANCH  48  49
ATOM     49  C   UNL A   1      43.492  27.621  33.933  1.00  0.00     0.031 A 
ATOM     50  C   UNL A   1      42.293  28.357  33.369  1.00  0.00     0.074 A 
ATOM     51  C   UNL A   1      44.510  28.338  34.446  1.00  0.00     0.049 A 
ATOM     52  N   UNL A   1      42.102  29.647  33.205  1.00  0.00    -0.248 NA
ATOM     53  C   UNL A   1      41.153  27.532  32.945  1.00  0.00     0.031 C 
ATOM     54  C   UNL A   1      45.669  27.759  35.123  1.00  0.00     0.029 A 
ATOM     55  N   UNL A   1      44.729  29.693  34.503  1.00  0.00    -0.354 N 
ATOM     56  C   UNL A   1      40.834  29.789  32.641  1.00  0.00     0.074 A 
ATOM     57  C   UNL A   1      40.302  28.448  32.494  1.00  0.00     0.031 C 
ATOM     58  C   UNL A   1      46.476  28.750  35.531  1.00  0.00     0.029 A 
ATOM     59  C   UNL A   1      45.921  30.029  35.098  1.00  0.00     0.049 A 
ATOM     60  H   UNL A   1      44.093  30.357  34.152  1.00  0.00     0.167 HD
ATOM     61  C   UNL A   1      40.184  30.925  32.272  1.00  0.00     0.037 A 
ATOM     62  C   UNL A   1      46.517  31.226  35.254  1.00  0.00     0.037 A 
ATOM     63  C   UNL A   1      40.726  32.258  32.425  1.00  0.00     0.049 A 
ATOM     64  C   UNL A   1      45.819  32.462  34.756  1.00  0.00     0.074 A 
ATOM     65  C   UNL A   1      40.155  33.474  32.083  1.00  0.00     0.029 A 
ATOM     66  N   UNL A   1      41.976  32.548  32.955  1.00  0.00    -0.354 N 
ATOM     67  N   UNL A   1      44.636  32.578  34.205  1.00  0.00    -0.248 NA
ATOM     68  C   UNL A   1      46.542  33.733  34.901  1.00  0.00     0.031 C 
ATOM     69  C   UNL A   1      41.085  34.488  32.341  1.00  0.00     0.029 A 
ATOM     70  C   UNL A   1      42.207  33.916  32.916  1.00  0.00     0.049 A 
ATOM     71  H   UNL A   1      42.606  31.880  33.310  1.00  0.00     0.167 HD
ATOM     72  C   UNL A   1      44.457  33.934  33.963  1.00  0.00     0.074 A 
ATOM     73  C   UNL A   1      45.650  34.601  34.444  1.00  0.00     0.031 C 
ATOM     74  C   UNL A   1      43.402  34.569  33.395  1.00  0.00     0.037 A 
BRANCH  61  75
ATOM     75  C   UNL A   1      38.836  30.789  31.602  1.00  0.00     0.057 A 
ATOM     76  C   UNL A   1      38.689  30.652  30.215  1.00  0.00     0.134 A 
ATOM     77  C   UNL A   1      37.661  30.751  32.370  1.00  0.00     0.134 A 
ATOM     78  F   UNL A   1      39.765  30.671  29.413  1.00  0.00    -0.206 F 
ATOM     79  C   UNL A   1      37.431  30.523  29.617  1.00  0.00     0.040 A 
ATOM     80  C   UNL A   1      36.400  30.593  31.788  1.00  0.00     0.040 A 
ATOM     81  F   UNL A   1      37.718  30.853  33.707  1.00  0.00    -0.206 F 
ATOM     82  C   UNL A   1      36.281  30.490  30.404  1.00  0.00     0.006 A 
ENDBRANCH  61  75
BRANCH  62  83
ATOM     83  C   UNL A   1      47.859  31.306  35.889  1.00  0.00     0.057 A 
ATOM     84  C   UNL A   1      49.033  31.240  35.130  1.00  0.00     0.134 A 
ATOM     85  C   UNL A   1      47.999  31.463  37.275  1.00  0.00     0.134 A 
ATOM     86  F   UNL A   1      48.969  31.067  33.802  1.00  0.00    -0.206 F 
ATOM     87  C   UNL A   1      50.295  31.320  35.724  1.00  0.00     0.040 A 
ATOM     88  C   UNL A   1      49.252  31.578  37.878  1.00  0.00     0.040 A 
ATOM     89  F   UNL A   1      46.916  31.535  38.062  1.00  0.00    -0.206 F 
ATOM     90  C   UNL A   1      50.406  31.500  37.102  1.00  0.00     0.006 A 
ENDBRANCH  62  83
BRANCH  74  91
ATOM     91  C   UNL A   1      43.479  36.068  33.306  1.00  0.00     0.057 A 
ATOM     92  C   UNL A   1      43.081  36.901  34.360  1.00  0.00     0.134 A 
ATOM     93  C   UNL A   1      43.959  36.687  32.143  1.00  0.00     0.134 A 
ATOM     94  F   UNL A   1      42.598  36.376  35.496  1.00  0.00    -0.206 F 
ATOM     95  C   UNL A   1      43.117  38.292  34.246  1.00  0.00     0.040 A 
ATOM     96  C   UNL A   1      44.033  38.076  32.030  1.00  0.00     0.040 A 
ATOM     97  F   UNL A   1      44.367  35.952  31.098  1.00  0.00    -0.206 F 
ATOM     98  C   UNL A   1      43.600  38.884  33.079  1.00  0.00     0.006 A 
ENDBRANCH  74  91
ENDBRANCH  48  49
ENDBRANCH  41  43
ENDBRANCH  40  41
ENDBRANCH  39  40
ENDBRANCH  38  39
ENDBRANCH  37  38
ENDBRANCH  36  37
ENDBRANCH  35  36
ENDBRANCH   1  35
TORSDOF 24
ENDMDL
MODEL 3
REMARK VINA RESULT:     -10.3      3.205      6.300
REMARK SMILES O=C(OCCOCCOCCOCCOC(=O)c1ccc(-c2c3nc(c(-c4c(F)cccc4F)c4ccc([nH]4)c(-c4c(F)cccc4F)c4nc(c(-c5c(F)cccc5F)c5ccc2[nH]5)C=C4)C=C3)cc1)C1=NN(c2ccc(S(=O)(=O)[O-])cc2)C(=O)/C1=C/Nc1ccccc1
REMARK SMILES IDX 9 1 8 2 7 3 6 4 5 5 4 6 3 7 2 8 1 9 72 10 73 11 87 12 74 13
REMARK SMILES IDX 85 14 88 15 86 16 75 17 76 18 84 19 77 20 83 21 78 22 79 23
REMARK SMILES IDX 80 24 81 25 82 26 89 27 90 29 91 30 95 31 92 32 94 33 93 34
REMARK SMILES IDX 10 35 11 36 12 37 13 38 14 39 15 40 16 41 17 42 18 43 19 44
REMARK SMILES IDX 71 45 20 46 70 47 21 48 22 49 23 50 64 51 24 52 69 53 63 54
REMARK SMILES IDX 65 55 25 56 68 57 62 58 61 59 26 61 52 62 35 63 51 64 36 65
REMARK SMILES IDX 39 66 50 67 66 68 37 69 38 70 49 72 67 73 40 74 27 75 28 76
REMARK SMILES IDX 33 77 29 78 30 79 32 80 34 81 31 82 53 83 54 84 59 85 55 86
REMARK SMILES IDX 56 87 58 88 60 89 57 90 41 91 42 92 47 93 43 94 44 95 46 96
REMARK SMILES IDX 48 97 45 98
REMARK H PARENT 89 28 65 60 39 71
REMARK Flexibility Score: inf
ROOT
ATOM      1  O   UNL A   1      33.777  33.134  29.157  1.00  0.00    -0.377 OA
ENDROOT
BRANCH   1   2
ATOM      2  C   UNL A   1      33.863  32.482  27.889  1.00  0.00     0.188 C 
BRANCH   2   3
ATOM      3  C   UNL A   1      34.893  31.415  27.628  1.00  0.00     0.188 C 
BRANCH   3   4
ATOM      4  O   UNL A   1      34.378  30.131  27.890  1.00  0.00    -0.376 OA
BRANCH   4   5
ATOM      5  C   UNL A   1      35.004  28.982  27.372  1.00  0.00     0.202 C 
BRANCH   5   6
ATOM      6  C   UNL A   1      34.232  28.386  26.221  1.00  0.00     0.261 C 
BRANCH   6   7
ATOM      7  O   UNL A   1      33.768  27.031  26.440  1.00  0.00    -0.458 OA
BRANCH   7   8
ATOM      8  C   UNL A   1      33.941  26.067  25.494  1.00  0.00     0.359 C 
ATOM      9  O   UNL A   1      34.826  25.228  25.514  1.00  0.00    -0.244 OA
BRANCH   8  10
ATOM     10  C   UNL A   1      32.701  25.845  24.664  1.00  0.00     0.183 C 
ATOM     11  N   UNL A   1      32.254  26.942  24.107  1.00  0.00    -0.157 NA
ATOM     12  C   UNL A   1      31.914  24.569  24.337  1.00  0.00     0.093 C 
ATOM     13  N   UNL A   1      31.154  26.628  23.383  1.00  0.00    -0.196 N 
ATOM     14  C   UNL A   1      30.889  25.244  23.347  1.00  0.00     0.282 C 
ATOM     15  C   UNL A   1      31.801  23.188  24.471  1.00  0.00     0.099 C 
ATOM     16  O   UNL A   1      30.044  24.660  22.687  1.00  0.00    -0.267 OA
BRANCH  13  17
ATOM     17  C   UNL A   1      30.339  27.730  22.957  1.00  0.00     0.069 A 
ATOM     18  C   UNL A   1      30.897  28.821  22.246  1.00  0.00     0.030 A 
ATOM     19  C   UNL A   1      29.004  27.847  23.360  1.00  0.00     0.030 A 
ATOM     20  C   UNL A   1      30.182  30.015  22.036  1.00  0.00     0.021 A 
ATOM     21  C   UNL A   1      28.286  29.042  23.171  1.00  0.00     0.021 A 
ATOM     22  C   UNL A   1      28.886  30.128  22.533  1.00  0.00     0.054 A 
BRANCH  22  23
ATOM     23  S   UNL A   1      28.041  31.683  22.408  1.00  0.00     0.124 S 
ATOM     24  O   UNL A   1      26.957  31.682  23.366  1.00  0.00    -0.237 OA
ATOM     25  O   UNL A   1      29.033  32.734  22.387  1.00  0.00    -0.237 OA
ATOM     26  O   UNL A   1      27.358  31.697  20.944  1.00  0.00    -0.744 OA
ENDBRANCH  22  23
ENDBRANCH  13  17
BRANCH  15  27
ATOM     27  N   UNL A   1      32.235  21.891  25.045  1.00  0.00    -0.361 N 
ATOM     28  H   UNL A   1      31.998  21.888  26.000  1.00  0.00     0.166 HD
BRANCH  27  29
ATOM     29  C   UNL A   1      32.973  20.431  24.694  1.00  0.00     0.038 A 
ATOM     30  C   UNL A   1      34.785  20.591  24.783  1.00  0.00     0.026 A 
ATOM     31  C   UNL A   1      32.309  18.696  24.720  1.00  0.00     0.026 A 
ATOM     32  C   UNL A   1      35.876  19.123  24.881  1.00  0.00     0.002 A 
ATOM     33  C   UNL A   1      33.407  17.202  24.679  1.00  0.00     0.002 A 
ATOM     34  C   UNL A   1      35.209  17.440  24.702  1.00  0.00     0.000 A 
ENDBRANCH  27  29
ENDBRANCH  15  27
ENDBRANCH   8  10
ENDBRANCH   7   8
ENDBRANCH   6   7
ENDBRANCH   5   6
ENDBRANCH   4   5
ENDBRANCH   3   4
ENDBRANCH   2   3
ENDBRANCH   1   2
BRANCH   1  35
ATOM     35  C   UNL A   1      34.802  33.706  30.005  1.00  0.00     0.188 C 
BRANCH  35  36
ATOM     36  C   UNL A   1      36.070  33.004  30.984  1.00  0.00     0.188 C 
BRANCH  36  37
ATOM     37  O   UNL A   1      36.448  31.594  31.370  1.00  0.00    -0.376 OA
BRANCH  37  38
ATOM     38  C   UNL A   1      36.384  30.248  30.778  1.00  0.00     0.202 C 
BRANCH  38  39
ATOM     39  C   UNL A   1      37.329  28.994  31.065  1.00  0.00     0.261 C 
BRANCH  39  40
ATOM     40  O   UNL A   1      37.617  28.635  32.425  1.00  0.00    -0.460 OA
BRANCH  40  41
ATOM     41  C   UNL A   1      38.803  29.273  33.035  1.00  0.00     0.338 C 
ATOM     42  O   UNL A   1      38.267  29.775  34.063  1.00  0.00    -0.246 OA
BRANCH  41  43
ATOM     43  C   UNL A   1      40.844  29.206  32.313  1.00  0.00     0.060 A 
ATOM     44  C   UNL A   1      42.113  29.858  32.930  1.00  0.00     0.016 A 
ATOM     45  C   UNL A   1      41.414  28.938  30.946  1.00  0.00     0.016 A 
ATOM     46  C   UNL A   1      43.272  30.436  32.329  1.00  0.00     0.010 A 
ATOM     47  C   UNL A   1      42.567  29.563  30.300  1.00  0.00     0.010 A 
ATOM     48  C   UNL A   1      43.432  30.418  30.968  1.00  0.00    -0.014 A 
BRANCH  48  49
ATOM     49  C   UNL A   1      44.515  31.240  30.349  1.00  0.00     0.031 A 
ATOM     50  C   UNL A   1      45.903  30.675  30.122  1.00  0.00     0.074 A 
ATOM     51  C   UNL A   1      44.219  32.454  29.848  1.00  0.00     0.049 A 
ATOM     52  N   UNL A   1      46.954  31.233  29.564  1.00  0.00    -0.248 NA
ATOM     53  C   UNL A   1      46.135  29.294  30.570  1.00  0.00     0.031 C 
ATOM     54  C   UNL A   1      42.893  33.065  29.893  1.00  0.00     0.029 A 
ATOM     55  N   UNL A   1      44.993  33.377  29.188  1.00  0.00    -0.354 N 
ATOM     56  C   UNL A   1      47.976  30.284  29.613  1.00  0.00     0.074 A 
ATOM     57  C   UNL A   1      47.413  29.113  30.255  1.00  0.00     0.031 C 
ATOM     58  C   UNL A   1      42.942  34.261  29.286  1.00  0.00     0.029 A 
ATOM     59  C   UNL A   1      44.313  34.523  28.856  1.00  0.00     0.049 A 
ATOM     60  H   UNL A   1      45.943  33.231  28.974  1.00  0.00     0.167 HD
ATOM     61  C   UNL A   1      49.260  30.386  29.176  1.00  0.00     0.037 A 
ATOM     62  C   UNL A   1      44.743  35.669  28.295  1.00  0.00     0.037 A 
ATOM     63  C   UNL A   1      49.810  31.562  28.536  1.00  0.00     0.049 A 
ATOM     64  C   UNL A   1      46.190  35.793  27.901  1.00  0.00     0.074 A 
ATOM     65  C   UNL A   1      51.094  31.771  28.058  1.00  0.00     0.029 A 
ATOM     66  N   UNL A   1      49.106  32.734  28.295  1.00  0.00    -0.354 N 
ATOM     67  N   UNL A   1      47.146  34.900  27.976  1.00  0.00    -0.248 NA
ATOM     68  C   UNL A   1      46.616  37.085  27.348  1.00  0.00     0.031 C 
ATOM     69  C   UNL A   1      51.185  33.090  27.595  1.00  0.00     0.029 A 
ATOM     70  C   UNL A   1      49.937  33.680  27.712  1.00  0.00     0.049 A 
ATOM     71  H   UNL A   1      48.155  32.874  28.507  1.00  0.00     0.167 HD
ATOM     72  C   UNL A   1      48.280  35.509  27.453  1.00  0.00     0.074 A 
ATOM     73  C   UNL A   1      47.885  36.843  27.050  1.00  0.00     0.031 C 
ATOM     74  C   UNL A   1      49.533  35.009  27.318  1.00  0.00     0.037 A 
BRANCH  61  75
ATOM     75  C   UNL A   1      50.193  29.224  29.428  1.00  0.00     0.057 A 
ATOM     76  C   UNL A   1      50.358  28.173  28.516  1.00  0.00     0.134 A 
ATOM     77  C   UNL A   1      50.976  29.181  30.593  1.00  0.00     0.134 A 
ATOM     78  F   UNL A   1      49.651  28.145  27.376  1.00  0.00    -0.206 F 
ATOM     79  C   UNL A   1      51.232  27.109  28.768  1.00  0.00     0.040 A 
ATOM     80  C   UNL A   1      51.874  28.139  30.843  1.00  0.00     0.040 A 
ATOM     81  F   UNL A   1      50.894  30.161  31.506  1.00  0.00    -0.206 F 
ATOM     82  C   UNL A   1      51.996  27.092  29.934  1.00  0.00     0.006 A 
ENDBRANCH  61  75
BRANCH  62  83
ATOM     83  C   UNL A   1      43.795  36.798  28.098  1.00  0.00     0.057 A 
ATOM     84  C   UNL A   1      42.981  36.880  26.963  1.00  0.00     0.134 A 
ATOM     85  C   UNL A   1      43.673  37.817  29.051  1.00  0.00     0.134 A 
ATOM     86  F   UNL A   1      43.066  35.948  26.002  1.00  0.00    -0.206 F 
ATOM     87  C   UNL A   1      42.086  37.936  26.779  1.00  0.00     0.040 A 
ATOM     88  C   UNL A   1      42.758  38.861  28.897  1.00  0.00     0.040 A 
ATOM     89  F   UNL A   1      44.421  37.801  30.164  1.00  0.00    -0.206 F 
ATOM     90  C   UNL A   1      41.966  38.925  27.754  1.00  0.00     0.006 A 
ENDBRANCH  62  83
BRANCH  74  91
ATOM     91  C   UNL A   1      50.554  35.901  26.668  1.00  0.00     0.057 A 
ATOM     92  C   UNL A   1      51.445  36.685  27.414  1.00  0.00     0.134 A 
ATOM     93  C   UNL A   1      50.645  35.978  25.272  1.00  0.00     0.134 A 
ATOM     94  F   UNL A   1      51.404  36.671  28.755  1.00  0.00    -0.206 F 
ATOM     95  C   UNL A   1      52.358  37.541  26.796  1.00  0.00     0.040 A 
ATOM     96  C   UNL A   1      51.576  36.805  24.642  1.00  0.00     0.040 A 
ATOM     97  F   UNL A   1      49.829  35.249  24.494  1.00  0.00    -0.206 F 
ATOM     98  C   UNL A   1      52.429  37.599  25.405  1.00  0.00     0.006 A 
ENDBRANCH  74  91
ENDBRANCH  48  49
ENDBRANCH  41  43
ENDBRANCH  40  41
ENDBRANCH  39  40
ENDBRANCH  38  39
ENDBRANCH  37  38
ENDBRANCH  36  37
ENDBRANCH  35  36
ENDBRANCH   1  35
TORSDOF 24
ENDMDL
