MODEL 1
REMARK VINA RESULT:     -10.5      0.000      0.000
REMARK SMILES C[C@@H](C(=O)OCCOCCOCCOCCOC(=O)c1ccc(-c2c3nc(c(-c4c(F)cccc4F)c4ccc([nH]4)c(-c4c(F)cccc4F)c4nc(c(-c5c(F)cccc5F)c5ccc2[nH]5)C=C4)C=C3)cc1)c1cccc(C(=O)c2ccccc2)c1
REMARK SMILES IDX 10 1 9 2 8 3 7 4 6 5 5 6 3 7 4 8 2 9 1 10 74 11 75 12 87 13
REMARK SMILES IDX 76 14 78 15 77 16 79 17 80 18 81 19 82 20 86 21 83 22 85 23
REMARK SMILES IDX 84 24 11 25 12 26 13 27 14 28 15 29 16 30 17 31 18 32 19 33
REMARK SMILES IDX 20 34 21 35 73 36 22 37 72 38 23 39 24 40 25 41 66 42 26 43
REMARK SMILES IDX 71 44 65 45 67 46 27 47 70 48 64 49 63 50 28 52 54 53 37 54
REMARK SMILES IDX 53 55 38 56 41 57 52 58 68 59 39 60 40 61 51 63 69 64 42 65
REMARK SMILES IDX 29 66 30 67 35 68 31 69 32 70 34 71 36 72 33 73 55 74 56 75
REMARK SMILES IDX 61 76 57 77 58 78 60 79 62 80 59 81 43 82 44 83 49 84 45 85
REMARK SMILES IDX 46 86 48 87 50 88 47 89
REMARK H PARENT 67 51 41 62
REMARK Flexibility Score: inf
ROOT
ATOM      1  C   UNL A   1      33.154  35.423  28.755  1.00  0.00     0.188 C 
ENDROOT
BRANCH   1   2
ATOM      2  C   UNL A   1      33.929  34.247  28.132  1.00  0.00     0.188 C 
BRANCH   2   3
ATOM      3  O   UNL A   1      33.476  32.913  28.313  1.00  0.00    -0.376 OA
BRANCH   3   4
ATOM      4  C   UNL A   1      34.080  31.840  27.608  1.00  0.00     0.202 C 
BRANCH   4   5
ATOM      5  C   UNL A   1      33.358  30.502  27.353  1.00  0.00     0.261 C 
BRANCH   5   6
ATOM      6  O   UNL A   1      32.738  30.330  26.067  1.00  0.00    -0.463 OA
BRANCH   6   7
ATOM      7  C   UNL A   1      31.933  29.250  25.919  1.00  0.00     0.313 C 
ATOM      8  O   UNL A   1      31.613  28.510  26.845  1.00  0.00    -0.252 OA
BRANCH   7   9
ATOM      9  C   UNL A   1      31.424  29.043  24.477  1.00  0.00     0.126 C 
ATOM     10  C   UNL A   1      30.230  29.895  24.016  1.00  0.00     0.025 C 
BRANCH   9  11
ATOM     11  C   UNL A   1      31.360  27.552  24.116  1.00  0.00    -0.033 A 
ATOM     12  C   UNL A   1      30.085  26.961  24.072  1.00  0.00     0.004 A 
ATOM     13  C   UNL A   1      32.470  26.753  23.758  1.00  0.00     0.016 A 
ATOM     14  C   UNL A   1      29.915  25.628  23.711  1.00  0.00     0.001 A 
ATOM     15  C   UNL A   1      32.312  25.399  23.400  1.00  0.00     0.023 A 
ATOM     16  C   UNL A   1      31.022  24.851  23.385  1.00  0.00     0.012 A 
BRANCH  15  17
ATOM     17  C   UNL A   1      33.425  24.500  22.956  1.00  0.00     0.193 C 
ATOM     18  O   UNL A   1      33.465  24.122  21.785  1.00  0.00    -0.289 OA
BRANCH  17  19
ATOM     19  C   UNL A   1      34.530  24.054  23.835  1.00  0.00     0.022 A 
ATOM     20  C   UNL A   1      35.595  23.359  23.244  1.00  0.00     0.012 A 
ATOM     21  C   UNL A   1      34.490  24.211  25.223  1.00  0.00     0.012 A 
ATOM     22  C   UNL A   1      36.637  22.864  24.030  1.00  0.00     0.001 A 
ATOM     23  C   UNL A   1      35.540  23.722  26.007  1.00  0.00     0.001 A 
ATOM     24  C   UNL A   1      36.611  23.053  25.411  1.00  0.00     0.000 A 
ENDBRANCH  17  19
ENDBRANCH  15  17
ENDBRANCH   9  11
ENDBRANCH   7   9
ENDBRANCH   6   7
ENDBRANCH   5   6
ENDBRANCH   4   5
ENDBRANCH   3   4
ENDBRANCH   2   3
ENDBRANCH   1   2
BRANCH   1  25
ATOM     25  O   UNL A   1      32.528  35.139  29.991  1.00  0.00    -0.377 OA
BRANCH  25  26
ATOM     26  C   UNL A   1      33.016  35.841  31.123  1.00  0.00     0.188 C 
BRANCH  26  27
ATOM     27  C   UNL A   1      34.311  35.332  31.787  1.00  0.00     0.188 C 
BRANCH  27  28
ATOM     28  O   UNL A   1      34.503  35.806  33.114  1.00  0.00    -0.376 OA
BRANCH  28  29
ATOM     29  C   UNL A   1      35.203  34.987  34.039  1.00  0.00     0.202 C 
BRANCH  29  30
ATOM     30  C   UNL A   1      34.960  33.470  33.960  1.00  0.00     0.261 C 
BRANCH  30  31
ATOM     31  O   UNL A   1      35.876  32.716  33.152  1.00  0.00    -0.460 OA
BRANCH  31  32
ATOM     32  C   UNL A   1      35.392  32.088  32.063  1.00  0.00     0.338 C 
ATOM     33  O   UNL A   1      34.293  32.232  31.555  1.00  0.00    -0.246 OA
BRANCH  32  34
ATOM     34  C   UNL A   1      36.502  31.325  31.454  1.00  0.00     0.060 A 
ATOM     35  C   UNL A   1      37.442  30.712  32.293  1.00  0.00     0.016 A 
ATOM     36  C   UNL A   1      36.605  31.201  30.066  1.00  0.00     0.016 A 
ATOM     37  C   UNL A   1      38.511  30.003  31.745  1.00  0.00     0.010 A 
ATOM     38  C   UNL A   1      37.692  30.512  29.518  1.00  0.00     0.010 A 
ATOM     39  C   UNL A   1      38.668  29.942  30.354  1.00  0.00    -0.014 A 
BRANCH  39  40
ATOM     40  C   UNL A   1      39.954  29.476  29.782  1.00  0.00     0.031 A 
ATOM     41  C   UNL A   1      41.071  30.474  29.647  1.00  0.00     0.074 A 
ATOM     42  C   UNL A   1      40.141  28.197  29.414  1.00  0.00     0.049 A 
ATOM     43  N   UNL A   1      42.263  30.326  29.129  1.00  0.00    -0.248 NA
ATOM     44  C   UNL A   1      40.802  31.826  30.165  1.00  0.00     0.031 C 
ATOM     45  C   UNL A   1      39.155  27.126  29.539  1.00  0.00     0.029 A 
ATOM     46  N   UNL A   1      41.233  27.587  28.848  1.00  0.00    -0.354 N 
ATOM     47  C   UNL A   1      42.882  31.564  29.254  1.00  0.00     0.074 A 
ATOM     48  C   UNL A   1      41.923  32.460  29.861  1.00  0.00     0.031 C 
ATOM     49  C   UNL A   1      39.682  25.991  29.049  1.00  0.00     0.029 A 
ATOM     50  C   UNL A   1      41.028  26.263  28.544  1.00  0.00     0.049 A 
ATOM     51  H   UNL A   1      42.082  28.054  28.676  1.00  0.00     0.167 HD
ATOM     52  C   UNL A   1      44.140  31.920  28.902  1.00  0.00     0.037 A 
ATOM     53  C   UNL A   1      41.827  25.384  27.907  1.00  0.00     0.037 A 
ATOM     54  C   UNL A   1      45.089  31.028  28.292  1.00  0.00     0.049 A 
ATOM     55  C   UNL A   1      43.193  25.827  27.446  1.00  0.00     0.074 A 
ATOM     56  C   UNL A   1      46.392  31.288  27.905  1.00  0.00     0.029 A 
ATOM     57  N   UNL A   1      44.832  29.704  27.968  1.00  0.00    -0.354 N 
ATOM     58  N   UNL A   1      43.778  26.993  27.585  1.00  0.00    -0.248 NA
ATOM     59  C   UNL A   1      44.011  24.829  26.740  1.00  0.00     0.031 C 
ATOM     60  C   UNL A   1      46.903  30.139  27.293  1.00  0.00     0.029 A 
ATOM     61  C   UNL A   1      45.942  29.142  27.360  1.00  0.00     0.049 A 
ATOM     62  H   UNL A   1      43.986  29.233  28.145  1.00  0.00     0.167 HD
ATOM     63  C   UNL A   1      45.041  26.858  27.017  1.00  0.00     0.074 A 
ATOM     64  C   UNL A   1      45.140  25.494  26.543  1.00  0.00     0.031 C 
ATOM     65  C   UNL A   1      46.029  27.779  26.901  1.00  0.00     0.037 A 
BRANCH  52  66
ATOM     66  C   UNL A   1      44.547  33.346  29.140  1.00  0.00     0.057 A 
ATOM     67  C   UNL A   1      44.379  34.341  28.167  1.00  0.00     0.134 A 
ATOM     68  C   UNL A   1      45.095  33.733  30.369  1.00  0.00     0.134 A 
ATOM     69  F   UNL A   1      43.877  34.035  26.961  1.00  0.00    -0.206 F 
ATOM     70  C   UNL A   1      44.765  35.662  28.398  1.00  0.00     0.040 A 
ATOM     71  C   UNL A   1      45.456  35.057  30.624  1.00  0.00     0.040 A 
ATOM     72  F   UNL A   1      45.282  32.833  31.346  1.00  0.00    -0.206 F 
ATOM     73  C   UNL A   1      45.299  36.025  29.634  1.00  0.00     0.006 A 
ENDBRANCH  52  66
BRANCH  53  74
ATOM     74  C   UNL A   1      41.355  23.999  27.644  1.00  0.00     0.057 A 
ATOM     75  C   UNL A   1      40.363  23.736  26.691  1.00  0.00     0.134 A 
ATOM     76  C   UNL A   1      41.860  22.909  28.363  1.00  0.00     0.134 A 
ATOM     77  F   UNL A   1      39.820  24.741  25.989  1.00  0.00    -0.206 F 
ATOM     78  C   UNL A   1      39.876  22.446  26.479  1.00  0.00     0.040 A 
ATOM     79  C   UNL A   1      41.404  21.609  28.140  1.00  0.00     0.040 A 
ATOM     80  F   UNL A   1      42.811  23.092  29.291  1.00  0.00    -0.206 F 
ATOM     81  C   UNL A   1      40.401  21.375  27.200  1.00  0.00     0.006 A 
ENDBRANCH  53  74
BRANCH  65  82
ATOM     82  C   UNL A   1      47.324  27.333  26.279  1.00  0.00     0.057 A 
ATOM     83  C   UNL A   1      48.389  26.843  27.045  1.00  0.00     0.134 A 
ATOM     84  C   UNL A   1      47.486  27.352  24.887  1.00  0.00     0.134 A 
ATOM     85  F   UNL A   1      48.304  26.806  28.384  1.00  0.00    -0.206 F 
ATOM     86  C   UNL A   1      49.578  26.413  26.450  1.00  0.00     0.040 A 
ATOM     87  C   UNL A   1      48.657  26.896  24.280  1.00  0.00     0.040 A 
ATOM     88  F   UNL A   1      46.501  27.797  24.092  1.00  0.00    -0.206 F 
ATOM     89  C   UNL A   1      49.710  26.432  25.064  1.00  0.00     0.006 A 
ENDBRANCH  65  82
ENDBRANCH  39  40
ENDBRANCH  32  34
ENDBRANCH  31  32
ENDBRANCH  30  31
ENDBRANCH  29  30
ENDBRANCH  28  29
ENDBRANCH  27  28
ENDBRANCH  26  27
ENDBRANCH  25  26
ENDBRANCH   1  25
TORSDOF 23
ENDMDL
MODEL 2
REMARK VINA RESULT:      -9.8      1.297      6.275
REMARK SMILES C[C@@H](C(=O)OCCOCCOCCOCCOC(=O)c1ccc(-c2c3nc(c(-c4c(F)cccc4F)c4ccc([nH]4)c(-c4c(F)cccc4F)c4nc(c(-c5c(F)cccc5F)c5ccc2[nH]5)C=C4)C=C3)cc1)c1cccc(C(=O)c2ccccc2)c1
REMARK SMILES IDX 10 1 9 2 8 3 7 4 6 5 5 6 3 7 4 8 2 9 1 10 74 11 75 12 87 13
REMARK SMILES IDX 76 14 78 15 77 16 79 17 80 18 81 19 82 20 86 21 83 22 85 23
REMARK SMILES IDX 84 24 11 25 12 26 13 27 14 28 15 29 16 30 17 31 18 32 19 33
REMARK SMILES IDX 20 34 21 35 73 36 22 37 72 38 23 39 24 40 25 41 66 42 26 43
REMARK SMILES IDX 71 44 65 45 67 46 27 47 70 48 64 49 63 50 28 52 54 53 37 54
REMARK SMILES IDX 53 55 38 56 41 57 52 58 68 59 39 60 40 61 51 63 69 64 42 65
REMARK SMILES IDX 29 66 30 67 35 68 31 69 32 70 34 71 36 72 33 73 55 74 56 75
REMARK SMILES IDX 61 76 57 77 58 78 60 79 62 80 59 81 43 82 44 83 49 84 45 85
REMARK SMILES IDX 46 86 48 87 50 88 47 89
REMARK H PARENT 67 51 41 62
REMARK Flexibility Score: inf
ROOT
ATOM      1  C   UNL A   1      33.241  35.253  28.928  1.00  0.00     0.188 C 
ENDROOT
BRANCH   1   2
ATOM      2  C   UNL A   1      33.886  34.113  28.119  1.00  0.00     0.188 C 
BRANCH   2   3
ATOM      3  O   UNL A   1      33.490  32.766  28.335  1.00  0.00    -0.376 OA
BRANCH   3   4
ATOM      4  C   UNL A   1      34.111  31.705  27.628  1.00  0.00     0.202 C 
BRANCH   4   5
ATOM      5  C   UNL A   1      33.406  30.360  27.361  1.00  0.00     0.261 C 
BRANCH   5   6
ATOM      6  O   UNL A   1      32.824  30.176  26.059  1.00  0.00    -0.463 OA
BRANCH   6   7
ATOM      7  C   UNL A   1      32.077  29.060  25.879  1.00  0.00     0.313 C 
ATOM      8  O   UNL A   1      31.788  28.283  26.784  1.00  0.00    -0.252 OA
BRANCH   7   9
ATOM      9  C   UNL A   1      31.591  28.861  24.428  1.00  0.00     0.126 C 
ATOM     10  C   UNL A   1      30.413  29.725  23.949  1.00  0.00     0.025 C 
BRANCH   9  11
ATOM     11  C   UNL A   1      31.520  27.371  24.061  1.00  0.00    -0.033 A 
ATOM     12  C   UNL A   1      30.239  26.802  23.953  1.00  0.00     0.004 A 
ATOM     13  C   UNL A   1      32.633  26.553  23.758  1.00  0.00     0.016 A 
ATOM     14  C   UNL A   1      30.064  25.473  23.582  1.00  0.00     0.001 A 
ATOM     15  C   UNL A   1      32.469  25.203  23.392  1.00  0.00     0.023 A 
ATOM     16  C   UNL A   1      31.173  24.677  23.311  1.00  0.00     0.012 A 
BRANCH  15  17
ATOM     17  C   UNL A   1      33.588  24.284  23.003  1.00  0.00     0.193 C 
ATOM     18  O   UNL A   1      33.653  23.869  21.846  1.00  0.00    -0.289 OA
BRANCH  17  19
ATOM     19  C   UNL A   1      34.670  23.862  23.921  1.00  0.00     0.022 A 
ATOM     20  C   UNL A   1      35.818  23.287  23.357  1.00  0.00     0.012 A 
ATOM     21  C   UNL A   1      34.537  23.923  25.310  1.00  0.00     0.012 A 
ATOM     22  C   UNL A   1      36.847  22.818  24.176  1.00  0.00     0.001 A 
ATOM     23  C   UNL A   1      35.572  23.461  26.128  1.00  0.00     0.001 A 
ATOM     24  C   UNL A   1      36.725  22.912  25.561  1.00  0.00     0.000 A 
ENDBRANCH  17  19
ENDBRANCH  15  17
ENDBRANCH   9  11
ENDBRANCH   7   9
ENDBRANCH   6   7
ENDBRANCH   5   6
ENDBRANCH   4   5
ENDBRANCH   3   4
ENDBRANCH   2   3
ENDBRANCH   1   2
BRANCH   1  25
ATOM     25  O   UNL A   1      32.852  34.908  30.244  1.00  0.00    -0.377 OA
BRANCH  25  26
ATOM     26  C   UNL A   1      33.685  35.377  31.292  1.00  0.00     0.188 C 
BRANCH  26  27
ATOM     27  C   UNL A   1      34.935  34.549  31.649  1.00  0.00     0.188 C 
BRANCH  27  28
ATOM     28  O   UNL A   1      35.502  34.876  32.912  1.00  0.00    -0.376 OA
BRANCH  28  29
ATOM     29  C   UNL A   1      36.347  33.929  33.549  1.00  0.00     0.202 C 
BRANCH  29  30
ATOM     30  C   UNL A   1      36.136  32.447  33.196  1.00  0.00     0.261 C 
BRANCH  30  31
ATOM     31  O   UNL A   1      37.140  31.835  32.372  1.00  0.00    -0.460 OA
BRANCH  31  32
ATOM     32  C   UNL A   1      36.742  31.215  31.244  1.00  0.00     0.338 C 
ATOM     33  O   UNL A   1      35.658  31.305  30.695  1.00  0.00    -0.246 OA
BRANCH  32  34
ATOM     34  C   UNL A   1      37.925  30.548  30.659  1.00  0.00     0.060 A 
ATOM     35  C   UNL A   1      38.831  29.905  31.514  1.00  0.00     0.016 A 
ATOM     36  C   UNL A   1      38.128  30.539  29.277  1.00  0.00     0.016 A 
ATOM     37  C   UNL A   1      39.965  29.284  30.990  1.00  0.00     0.010 A 
ATOM     38  C   UNL A   1      39.279  29.939  28.757  1.00  0.00     0.010 A 
ATOM     39  C   UNL A   1      40.220  29.341  29.615  1.00  0.00    -0.014 A 
BRANCH  39  40
ATOM     40  C   UNL A   1      41.561  28.973  29.102  1.00  0.00     0.031 A 
ATOM     41  C   UNL A   1      41.779  27.557  28.641  1.00  0.00     0.074 A 
ATOM     42  C   UNL A   1      42.557  29.872  29.019  1.00  0.00     0.049 A 
ATOM     43  N   UNL A   1      42.869  26.980  28.206  1.00  0.00    -0.248 NA
ATOM     44  C   UNL A   1      40.603  26.672  28.680  1.00  0.00     0.031 C 
ATOM     45  C   UNL A   1      42.458  31.282  29.388  1.00  0.00     0.029 A 
ATOM     46  N   UNL A   1      43.857  29.721  28.604  1.00  0.00    -0.354 N 
ATOM     47  C   UNL A   1      42.512  25.666  27.927  1.00  0.00     0.074 A 
ATOM     48  C   UNL A   1      41.116  25.522  28.275  1.00  0.00     0.031 C 
ATOM     49  C   UNL A   1      43.654  31.866  29.197  1.00  0.00     0.029 A 
ATOM     50  C   UNL A   1      44.610  30.863  28.726  1.00  0.00     0.049 A 
ATOM     51  H   UNL A   1      44.215  28.875  28.253  1.00  0.00     0.167 HD
ATOM     52  C   UNL A   1      43.277  24.672  27.418  1.00  0.00     0.037 A 
ATOM     53  C   UNL A   1      45.925  31.065  28.508  1.00  0.00     0.037 A 
ATOM     54  C   UNL A   1      44.667  24.819  27.079  1.00  0.00     0.049 A 
ATOM     55  C   UNL A   1      46.777  29.919  28.023  1.00  0.00     0.074 A 
ATOM     56  C   UNL A   1      45.529  23.874  26.548  1.00  0.00     0.029 A 
ATOM     57  N   UNL A   1      45.403  25.982  27.250  1.00  0.00    -0.354 N 
ATOM     58  N   UNL A   1      46.428  28.686  27.742  1.00  0.00    -0.248 NA
ATOM     59  C   UNL A   1      48.208  30.195  27.822  1.00  0.00     0.031 C 
ATOM     60  C   UNL A   1      46.800  24.449  26.454  1.00  0.00     0.029 A 
ATOM     61  C   UNL A   1      46.716  25.772  26.862  1.00  0.00     0.049 A 
ATOM     62  H   UNL A   1      45.045  26.831  27.594  1.00  0.00     0.167 HD
ATOM     63  C   UNL A   1      47.585  28.052  27.301  1.00  0.00     0.074 A 
ATOM     64  C   UNL A   1      48.642  29.040  27.339  1.00  0.00     0.031 C 
ATOM     65  C   UNL A   1      47.756  26.768  26.897  1.00  0.00     0.037 A 
BRANCH  52  66
ATOM     66  C   UNL A   1      42.630  23.331  27.228  1.00  0.00     0.057 A 
ATOM     67  C   UNL A   1      42.335  22.488  28.309  1.00  0.00     0.134 A 
ATOM     68  C   UNL A   1      42.278  22.885  25.949  1.00  0.00     0.134 A 
ATOM     69  F   UNL A   1      42.662  22.845  29.560  1.00  0.00    -0.206 F 
ATOM     70  C   UNL A   1      41.737  21.240  28.120  1.00  0.00     0.040 A 
ATOM     71  C   UNL A   1      41.651  21.654  25.750  1.00  0.00     0.040 A 
ATOM     72  F   UNL A   1      42.529  23.641  24.870  1.00  0.00    -0.206 F 
ATOM     73  C   UNL A   1      41.386  20.823  26.837  1.00  0.00     0.006 A 
ENDBRANCH  52  66
BRANCH  53  74
ATOM     74  C   UNL A   1      46.529  32.398  28.765  1.00  0.00     0.057 A 
ATOM     75  C   UNL A   1      47.082  32.719  30.011  1.00  0.00     0.134 A 
ATOM     76  C   UNL A   1      46.540  33.395  27.782  1.00  0.00     0.134 A 
ATOM     77  F   UNL A   1      47.079  31.817  31.003  1.00  0.00    -0.206 F 
ATOM     78  C   UNL A   1      47.601  33.987  30.277  1.00  0.00     0.040 A 
ATOM     79  C   UNL A   1      47.083  34.657  28.024  1.00  0.00     0.040 A 
ATOM     80  F   UNL A   1      46.025  33.153  26.567  1.00  0.00    -0.206 F 
ATOM     81  C   UNL A   1      47.608  34.960  29.279  1.00  0.00     0.006 A 
ENDBRANCH  53  74
BRANCH  65  82
ATOM     82  C   UNL A   1      49.124  26.367  26.418  1.00  0.00     0.057 A 
ATOM     83  C   UNL A   1      49.579  26.666  25.128  1.00  0.00     0.134 A 
ATOM     84  C   UNL A   1      50.015  25.714  27.281  1.00  0.00     0.134 A 
ATOM     85  F   UNL A   1      48.774  27.281  24.247  1.00  0.00    -0.206 F 
ATOM     86  C   UNL A   1      50.860  26.305  24.705  1.00  0.00     0.040 A 
ATOM     87  C   UNL A   1      51.308  25.377  26.880  1.00  0.00     0.040 A 
ATOM     88  F   UNL A   1      49.649  25.410  28.536  1.00  0.00    -0.206 F 
ATOM     89  C   UNL A   1      51.731  25.666  25.585  1.00  0.00     0.006 A 
ENDBRANCH  65  82
ENDBRANCH  39  40
ENDBRANCH  32  34
ENDBRANCH  31  32
ENDBRANCH  30  31
ENDBRANCH  29  30
ENDBRANCH  28  29
ENDBRANCH  27  28
ENDBRANCH  26  27
ENDBRANCH  25  26
ENDBRANCH   1  25
TORSDOF 23
ENDMDL
MODEL 3
REMARK VINA RESULT:      -9.7      3.743      9.698
REMARK SMILES C[C@@H](C(=O)OCCOCCOCCOCCOC(=O)c1ccc(-c2c3nc(c(-c4c(F)cccc4F)c4ccc([nH]4)c(-c4c(F)cccc4F)c4nc(c(-c5c(F)cccc5F)c5ccc2[nH]5)C=C4)C=C3)cc1)c1cccc(C(=O)c2ccccc2)c1
REMARK SMILES IDX 10 1 9 2 8 3 7 4 6 5 5 6 3 7 4 8 2 9 1 10 74 11 75 12 87 13
REMARK SMILES IDX 76 14 78 15 77 16 79 17 80 18 81 19 82 20 86 21 83 22 85 23
REMARK SMILES IDX 84 24 11 25 12 26 13 27 14 28 15 29 16 30 17 31 18 32 19 33
REMARK SMILES IDX 20 34 21 35 73 36 22 37 72 38 23 39 24 40 25 41 66 42 26 43
REMARK SMILES IDX 71 44 65 45 67 46 27 47 70 48 64 49 63 50 28 52 54 53 37 54
REMARK SMILES IDX 53 55 38 56 41 57 52 58 68 59 39 60 40 61 51 63 69 64 42 65
REMARK SMILES IDX 29 66 30 67 35 68 31 69 32 70 34 71 36 72 33 73 55 74 56 75
REMARK SMILES IDX 61 76 57 77 58 78 60 79 62 80 59 81 43 82 44 83 49 84 45 85
REMARK SMILES IDX 46 86 48 87 50 88 47 89
REMARK H PARENT 67 51 41 62
REMARK Flexibility Score: inf
ROOT
ATOM      1  C   UNL A   1      39.051  22.140  25.734  1.00  0.00     0.188 C 
ENDROOT
BRANCH   1   2
ATOM      2  C   UNL A   1      37.587  22.600  25.604  1.00  0.00     0.188 C 
BRANCH   2   3
ATOM      3  O   UNL A   1      36.542  21.645  25.495  1.00  0.00    -0.376 OA
BRANCH   3   4
ATOM      4  C   UNL A   1      35.304  21.845  26.160  1.00  0.00     0.202 C 
BRANCH   4   5
ATOM      5  C   UNL A   1      34.049  22.374  25.438  1.00  0.00     0.261 C 
BRANCH   5   6
ATOM      6  O   UNL A   1      33.084  23.077  26.239  1.00  0.00    -0.463 OA
BRANCH   6   7
ATOM      7  C   UNL A   1      33.016  24.420  26.071  1.00  0.00     0.313 C 
ATOM      8  O   UNL A   1      33.911  25.086  25.559  1.00  0.00    -0.252 OA
BRANCH   7   9
ATOM      9  C   UNL A   1      31.691  25.045  26.556  1.00  0.00     0.126 C 
ATOM     10  C   UNL A   1      30.397  24.259  26.289  1.00  0.00     0.025 C 
BRANCH   9  11
ATOM     11  C   UNL A   1      31.636  26.548  26.250  1.00  0.00    -0.033 A 
ATOM     12  C   UNL A   1      32.002  27.423  27.289  1.00  0.00     0.004 A 
ATOM     13  C   UNL A   1      31.317  27.113  24.994  1.00  0.00     0.016 A 
ATOM     14  C   UNL A   1      32.031  28.801  27.100  1.00  0.00     0.001 A 
ATOM     15  C   UNL A   1      31.332  28.507  24.794  1.00  0.00     0.023 A 
ATOM     16  C   UNL A   1      31.690  29.340  25.863  1.00  0.00     0.012 A 
BRANCH  15  17
ATOM     17  C   UNL A   1      31.060  29.182  23.484  1.00  0.00     0.193 C 
ATOM     18  O   UNL A   1      31.893  29.105  22.581  1.00  0.00    -0.289 OA
BRANCH  17  19
ATOM     19  C   UNL A   1      29.813  29.919  23.174  1.00  0.00     0.022 A 
ATOM     20  C   UNL A   1      29.088  29.529  22.040  1.00  0.00     0.012 A 
ATOM     21  C   UNL A   1      29.405  31.037  23.907  1.00  0.00     0.012 A 
ATOM     22  C   UNL A   1      27.936  30.223  21.666  1.00  0.00     0.001 A 
ATOM     23  C   UNL A   1      28.246  31.724  23.535  1.00  0.00     0.001 A 
ATOM     24  C   UNL A   1      27.512  31.316  22.419  1.00  0.00     0.000 A 
ENDBRANCH  17  19
ENDBRANCH  15  17
ENDBRANCH   9  11
ENDBRANCH   7   9
ENDBRANCH   6   7
ENDBRANCH   5   6
ENDBRANCH   4   5
ENDBRANCH   3   4
ENDBRANCH   2   3
ENDBRANCH   1   2
BRANCH   1  25
ATOM     25  O   UNL A   1      39.404  21.619  27.001  1.00  0.00    -0.377 OA
BRANCH  25  26
ATOM     26  C   UNL A   1      40.790  21.556  27.294  1.00  0.00     0.188 C 
BRANCH  26  27
ATOM     27  C   UNL A   1      41.369  20.208  27.769  1.00  0.00     0.188 C 
BRANCH  27  28
ATOM     28  O   UNL A   1      42.535  19.801  27.065  1.00  0.00    -0.376 OA
BRANCH  28  29
ATOM     29  C   UNL A   1      42.386  19.111  25.833  1.00  0.00     0.202 C 
BRANCH  29  30
ATOM     30  C   UNL A   1      43.652  18.501  25.209  1.00  0.00     0.261 C 
BRANCH  30  31
ATOM     31  O   UNL A   1      44.197  19.182  24.069  1.00  0.00    -0.460 OA
BRANCH  31  32
ATOM     32  C   UNL A   1      45.410  19.756  24.191  1.00  0.00     0.338 C 
ATOM     33  O   UNL A   1      46.474  19.327  23.780  1.00  0.00    -0.246 OA
BRANCH  32  34
ATOM     34  C   UNL A   1      45.210  21.112  24.743  1.00  0.00     0.060 A 
ATOM     35  C   UNL A   1      44.832  22.147  23.877  1.00  0.00     0.016 A 
ATOM     36  C   UNL A   1      45.377  21.359  26.109  1.00  0.00     0.016 A 
ATOM     37  C   UNL A   1      44.656  23.441  24.368  1.00  0.00     0.010 A 
ATOM     38  C   UNL A   1      45.225  22.661  26.595  1.00  0.00     0.010 A 
ATOM     39  C   UNL A   1      44.900  23.713  25.720  1.00  0.00    -0.014 A 
BRANCH  39  40
ATOM     40  C   UNL A   1      45.029  25.119  26.173  1.00  0.00     0.031 A 
ATOM     41  C   UNL A   1      46.386  25.764  26.103  1.00  0.00     0.074 A 
ATOM     42  C   UNL A   1      43.969  25.820  26.610  1.00  0.00     0.049 A 
ATOM     43  N   UNL A   1      46.764  26.955  26.488  1.00  0.00    -0.248 NA
ATOM     44  C   UNL A   1      47.465  24.948  25.521  1.00  0.00     0.031 C 
ATOM     45  C   UNL A   1      42.596  25.325  26.680  1.00  0.00     0.029 A 
ATOM     46  N   UNL A   1      43.890  27.104  27.090  1.00  0.00    -0.354 N 
ATOM     47  C   UNL A   1      48.122  27.029  26.201  1.00  0.00     0.074 A 
ATOM     48  C   UNL A   1      48.509  25.751  25.644  1.00  0.00     0.031 C 
ATOM     49  C   UNL A   1      41.811  26.291  27.189  1.00  0.00     0.029 A 
ATOM     50  C   UNL A   1      42.632  27.458  27.512  1.00  0.00     0.049 A 
ATOM     51  H   UNL A   1      44.662  27.713  27.126  1.00  0.00     0.167 HD
ATOM     52  C   UNL A   1      48.969  28.070  26.377  1.00  0.00     0.037 A 
ATOM     53  C   UNL A   1      42.203  28.584  28.116  1.00  0.00     0.037 A 
ATOM     54  C   UNL A   1      48.581  29.337  26.938  1.00  0.00     0.049 A 
ATOM     55  C   UNL A   1      43.183  29.699  28.382  1.00  0.00     0.074 A 
ATOM     56  C   UNL A   1      49.362  30.460  27.150  1.00  0.00     0.029 A 
ATOM     57  N   UNL A   1      47.305  29.645  27.387  1.00  0.00    -0.354 N 
ATOM     58  N   UNL A   1      44.460  29.769  28.089  1.00  0.00    -0.248 NA
ATOM     59  C   UNL A   1      42.660  30.895  29.060  1.00  0.00     0.031 C 
ATOM     60  C   UNL A   1      48.572  31.426  27.783  1.00  0.00     0.029 A 
ATOM     61  C   UNL A   1      47.283  30.930  27.902  1.00  0.00     0.049 A 
ATOM     62  H   UNL A   1      46.531  29.039  27.344  1.00  0.00     0.167 HD
ATOM     63  C   UNL A   1      44.883  31.024  28.516  1.00  0.00     0.074 A 
ATOM     64  C   UNL A   1      43.723  31.686  29.075  1.00  0.00     0.031 C 
ATOM     65  C   UNL A   1      46.118  31.579  28.447  1.00  0.00     0.037 A 
BRANCH  52  66
ATOM     66  C   UNL A   1      50.405  27.867  25.988  1.00  0.00     0.057 A 
ATOM     67  C   UNL A   1      51.392  27.543  26.929  1.00  0.00     0.134 A 
ATOM     68  C   UNL A   1      50.801  27.977  24.650  1.00  0.00     0.134 A 
ATOM     69  F   UNL A   1      51.084  27.440  28.231  1.00  0.00    -0.206 F 
ATOM     70  C   UNL A   1      52.725  27.361  26.556  1.00  0.00     0.040 A 
ATOM     71  C   UNL A   1      52.124  27.766  24.259  1.00  0.00     0.040 A 
ATOM     72  F   UNL A   1      49.908  28.283  23.697  1.00  0.00    -0.206 F 
ATOM     73  C   UNL A   1      53.093  27.465  25.215  1.00  0.00     0.006 A 
ENDBRANCH  52  66
BRANCH  53  74
ATOM     74  C   UNL A   1      40.782  28.713  28.534  1.00  0.00     0.057 A 
ATOM     75  C   UNL A   1      40.378  28.422  29.843  1.00  0.00     0.134 A 
ATOM     76  C   UNL A   1      39.789  29.100  27.626  1.00  0.00     0.134 A 
ATOM     77  F   UNL A   1      41.278  28.021  30.752  1.00  0.00    -0.206 F 
ATOM     78  C   UNL A   1      39.038  28.488  30.227  1.00  0.00     0.040 A 
ATOM     79  C   UNL A   1      38.449  29.200  28.004  1.00  0.00     0.040 A 
ATOM     80  F   UNL A   1      40.108  29.392  26.357  1.00  0.00    -0.206 F 
ATOM     81  C   UNL A   1      38.069  28.884  29.308  1.00  0.00     0.006 A 
ENDBRANCH  53  74
BRANCH  65  82
ATOM     82  C   UNL A   1      46.274  32.989  28.947  1.00  0.00     0.057 A 
ATOM     83  C   UNL A   1      46.067  34.100  28.119  1.00  0.00     0.134 A 
ATOM     84  C   UNL A   1      46.589  33.236  30.290  1.00  0.00     0.134 A 
ATOM     85  F   UNL A   1      45.772  33.936  26.820  1.00  0.00    -0.206 F 
ATOM     86  C   UNL A   1      46.196  35.404  28.603  1.00  0.00     0.040 A 
ATOM     87  C   UNL A   1      46.689  34.534  30.792  1.00  0.00     0.040 A 
ATOM     88  F   UNL A   1      46.788  32.218  31.142  1.00  0.00    -0.206 F 
ATOM     89  C   UNL A   1      46.500  35.623  29.945  1.00  0.00     0.006 A 
ENDBRANCH  65  82
ENDBRANCH  39  40
ENDBRANCH  32  34
ENDBRANCH  31  32
ENDBRANCH  30  31
ENDBRANCH  29  30
ENDBRANCH  28  29
ENDBRANCH  27  28
ENDBRANCH  26  27
ENDBRANCH  25  26
ENDBRANCH   1  25
TORSDOF 23
ENDMDL
