MODEL 1
REMARK VINA RESULT:     -10.1      0.000      0.000
REMARK SMILES [NH3+][C@@H](CNc1ccc(C(=O)OCCOCCOCCOCCOC(=O)c2ccc(-c3c4nc(c(-c5c(F)cccc5F)c5ccc([nH]5)c(-c5c(F)cccc5F)c5nc(c(-c6c(F)cccc6F)c6ccc3[nH]6)C=C5)C=C4)cc2)c(F)c1F)c1ccccc1
REMARK SMILES IDX 16 1 15 2 14 3 13 4 12 5 11 6 9 7 10 8 8 9 5 10 6 11 82 12
REMARK SMILES IDX 7 13 80 14 83 15 81 16 4 17 3 19 2 20 1 21 84 25 85 26 89 27
REMARK SMILES IDX 86 28 88 29 87 30 17 31 18 32 19 33 20 34 21 35 22 36 23 37
REMARK SMILES IDX 24 38 25 39 26 40 27 41 79 42 28 43 78 44 29 45 30 46 31 47
REMARK SMILES IDX 72 48 32 49 77 50 71 51 73 52 33 53 76 54 70 55 69 56 34 58
REMARK SMILES IDX 60 59 43 60 59 61 44 62 47 63 58 64 74 65 45 66 46 67 57 69
REMARK SMILES IDX 75 70 48 71 35 72 36 73 41 74 37 75 38 76 40 77 42 78 39 79
REMARK SMILES IDX 61 80 62 81 67 82 63 83 64 84 66 85 68 86 65 87 49 88 50 89
REMARK SMILES IDX 55 90 51 91 52 92 54 93 56 94 53 95
REMARK H PARENT 4 18 1 22 1 23 1 24 73 57 47 68
REMARK Flexibility Score: inf
ROOT
ATOM      1  C   UNL A   1      38.138  21.245  25.524  1.00  0.00     0.188 C 
ENDROOT
BRANCH   1   2
ATOM      2  C   UNL A   1      37.782  22.725  25.784  1.00  0.00     0.188 C 
BRANCH   2   3
ATOM      3  O   UNL A   1      36.424  23.044  25.541  1.00  0.00    -0.376 OA
BRANCH   3   4
ATOM      4  C   UNL A   1      35.708  22.299  24.575  1.00  0.00     0.202 C 
BRANCH   4   5
ATOM      5  C   UNL A   1      34.475  21.503  25.024  1.00  0.00     0.261 C 
BRANCH   5   6
ATOM      6  O   UNL A   1      33.426  22.263  25.639  1.00  0.00    -0.460 OA
BRANCH   6   7
ATOM      7  C   UNL A   1      32.162  21.989  25.255  1.00  0.00     0.341 C 
ATOM      8  O   UNL A   1      31.580  20.924  25.363  1.00  0.00    -0.246 OA
BRANCH   7   9
ATOM      9  C   UNL A   1      31.500  23.253  24.884  1.00  0.00     0.099 A 
ATOM     10  C   UNL A   1      30.284  25.676  24.104  1.00  0.00     0.074 A 
ATOM     11  C   UNL A   1      30.707  24.753  23.143  1.00  0.00     0.030 A 
ATOM     12  C   UNL A   1      30.443  25.328  25.460  1.00  0.00     0.182 A 
ATOM     13  C   UNL A   1      31.337  23.561  23.525  1.00  0.00     0.021 A 
ATOM     14  C   UNL A   1      31.024  24.126  25.851  1.00  0.00     0.175 A 
ATOM     15  F   UNL A   1      30.024  26.187  26.406  1.00  0.00    -0.201 F 
ATOM     16  F   UNL A   1      31.144  23.845  27.157  1.00  0.00    -0.203 F 
BRANCH  10  17
ATOM     17  N   UNL A   1      29.719  26.900  23.770  1.00  0.00    -0.376 N 
ATOM     18  H   UNL A   1      28.990  27.248  24.331  1.00  0.00     0.160 HD
BRANCH  17  19
ATOM     19  C   UNL A   1      30.156  27.696  22.621  1.00  0.00     0.183 C 
BRANCH  19  20
ATOM     20  C   UNL A   1      30.792  29.062  23.058  1.00  0.00     0.231 C 
BRANCH  20  21
ATOM     21  N   UNL A   1      31.365  29.829  21.938  1.00  0.00    -0.350 N 
ATOM     22  H   UNL A   1      31.071  30.803  22.006  1.00  0.00     0.345 HD
ATOM     23  H   UNL A   1      31.039  29.435  21.055  1.00  0.00     0.345 HD
ATOM     24  H   UNL A   1      32.383  29.777  21.977  1.00  0.00     0.345 HD
ENDBRANCH  20  21
BRANCH  20  25
ATOM     25  C   UNL A   1      31.790  28.863  24.192  1.00  0.00     0.011 A 
ATOM     26  C   UNL A   1      32.968  28.116  24.027  1.00  0.00     0.010 A 
ATOM     27  C   UNL A   1      31.493  29.352  25.475  1.00  0.00     0.010 A 
ATOM     28  C   UNL A   1      33.788  27.812  25.114  1.00  0.00     0.001 A 
ATOM     29  C   UNL A   1      32.325  29.063  26.560  1.00  0.00     0.001 A 
ATOM     30  C   UNL A   1      33.462  28.279  26.382  1.00  0.00     0.000 A 
ENDBRANCH  20  25
ENDBRANCH  19  20
ENDBRANCH  17  19
ENDBRANCH  10  17
ENDBRANCH   7   9
ENDBRANCH   6   7
ENDBRANCH   5   6
ENDBRANCH   4   5
ENDBRANCH   3   4
ENDBRANCH   2   3
ENDBRANCH   1   2
BRANCH   1  31
ATOM     31  O   UNL A   1      39.473  20.802  25.728  1.00  0.00    -0.377 OA
BRANCH  31  32
ATOM     32  C   UNL A   1      40.250  21.333  26.797  1.00  0.00     0.188 C 
BRANCH  32  33
ATOM     33  C   UNL A   1      41.667  20.797  27.113  1.00  0.00     0.188 C 
BRANCH  33  34
ATOM     34  O   UNL A   1      42.357  20.263  25.997  1.00  0.00    -0.376 OA
BRANCH  34  35
ATOM     35  C   UNL A   1      43.594  20.857  25.645  1.00  0.00     0.202 C 
BRANCH  35  36
ATOM     36  C   UNL A   1      44.165  21.894  26.622  1.00  0.00     0.261 C 
BRANCH  36  37
ATOM     37  O   UNL A   1      44.622  23.125  26.043  1.00  0.00    -0.460 OA
BRANCH  37  38
ATOM     38  C   UNL A   1      43.730  23.855  25.343  1.00  0.00     0.338 C 
ATOM     39  O   UNL A   1      43.347  23.661  24.200  1.00  0.00    -0.246 OA
BRANCH  38  40
ATOM     40  C   UNL A   1      43.143  24.844  26.270  1.00  0.00     0.060 A 
ATOM     41  C   UNL A   1      43.730  26.111  26.387  1.00  0.00     0.016 A 
ATOM     42  C   UNL A   1      41.999  24.523  27.003  1.00  0.00     0.016 A 
ATOM     43  C   UNL A   1      43.184  27.055  27.258  1.00  0.00     0.010 A 
ATOM     44  C   UNL A   1      41.467  25.460  27.890  1.00  0.00     0.010 A 
ATOM     45  C   UNL A   1      42.073  26.720  28.043  1.00  0.00    -0.014 A 
BRANCH  45  46
ATOM     46  C   UNL A   1      41.650  27.611  29.150  1.00  0.00     0.031 A 
ATOM     47  C   UNL A   1      42.395  27.534  30.454  1.00  0.00     0.074 A 
ATOM     48  C   UNL A   1      40.631  28.477  29.004  1.00  0.00     0.049 A 
ATOM     49  N   UNL A   1      42.170  28.160  31.581  1.00  0.00    -0.248 NA
ATOM     50  C   UNL A   1      43.550  26.623  30.491  1.00  0.00     0.031 C 
ATOM     51  C   UNL A   1      39.857  28.674  27.781  1.00  0.00     0.029 A 
ATOM     52  N   UNL A   1      40.066  29.344  29.906  1.00  0.00    -0.354 N 
ATOM     53  C   UNL A   1      43.148  27.714  32.460  1.00  0.00     0.074 A 
ATOM     54  C   UNL A   1      43.949  26.741  31.747  1.00  0.00     0.031 C 
ATOM     55  C   UNL A   1      38.907  29.597  28.013  1.00  0.00     0.029 A 
ATOM     56  C   UNL A   1      38.982  30.025  29.409  1.00  0.00     0.049 A 
ATOM     57  H   UNL A   1      40.405  29.465  30.823  1.00  0.00     0.167 HD
ATOM     58  C   UNL A   1      43.367  28.086  33.743  1.00  0.00     0.037 A 
ATOM     59  C   UNL A   1      38.135  30.875  30.021  1.00  0.00     0.037 A 
ATOM     60  C   UNL A   1      42.563  29.048  34.451  1.00  0.00     0.049 A 
ATOM     61  C   UNL A   1      38.343  31.208  31.477  1.00  0.00     0.074 A 
ATOM     62  C   UNL A   1      42.712  29.505  35.748  1.00  0.00     0.029 A 
ATOM     63  N   UNL A   1      41.452  29.690  33.924  1.00  0.00    -0.354 N 
ATOM     64  N   UNL A   1      39.287  30.804  32.293  1.00  0.00    -0.248 NA
ATOM     65  C   UNL A   1      37.366  32.115  32.097  1.00  0.00     0.031 C 
ATOM     66  C   UNL A   1      41.655  30.378  36.027  1.00  0.00     0.029 A 
ATOM     67  C   UNL A   1      40.886  30.515  34.882  1.00  0.00     0.049 A 
ATOM     68  H   UNL A   1      41.116  29.576  33.007  1.00  0.00     0.167 HD
ATOM     69  C   UNL A   1      39.036  31.431  33.510  1.00  0.00     0.074 A 
ATOM     70  C   UNL A   1      37.860  32.254  33.319  1.00  0.00     0.031 C 
ATOM     71  C   UNL A   1      39.719  31.335  34.678  1.00  0.00     0.037 A 
BRANCH  58  72
ATOM     72  C   UNL A   1      44.501  27.427  34.471  1.00  0.00     0.057 A 
ATOM     73  C   UNL A   1      45.790  27.978  34.496  1.00  0.00     0.134 A 
ATOM     74  C   UNL A   1      44.296  26.237  35.181  1.00  0.00     0.134 A 
ATOM     75  F   UNL A   1      46.059  29.108  33.825  1.00  0.00    -0.206 F 
ATOM     76  C   UNL A   1      46.837  27.356  35.178  1.00  0.00     0.040 A 
ATOM     77  C   UNL A   1      45.328  25.621  35.891  1.00  0.00     0.040 A 
ATOM     78  F   UNL A   1      43.086  25.657  35.202  1.00  0.00    -0.206 F 
ATOM     79  C   UNL A   1      46.604  26.178  35.885  1.00  0.00     0.006 A 
ENDBRANCH  58  72
BRANCH  59  80
ATOM     80  C   UNL A   1      36.993  31.462  29.273  1.00  0.00     0.057 A 
ATOM     81  C   UNL A   1      35.813  30.739  29.062  1.00  0.00     0.134 A 
ATOM     82  C   UNL A   1      37.065  32.749  28.723  1.00  0.00     0.134 A 
ATOM     83  F   UNL A   1      35.691  29.491  29.538  1.00  0.00    -0.206 F 
ATOM     84  C   UNL A   1      34.756  31.264  28.315  1.00  0.00     0.040 A 
ATOM     85  C   UNL A   1      36.004  33.298  28.000  1.00  0.00     0.040 A 
ATOM     86  F   UNL A   1      38.167  33.494  28.885  1.00  0.00    -0.206 F 
ATOM     87  C   UNL A   1      34.849  32.549  27.787  1.00  0.00     0.006 A 
ENDBRANCH  59  80
BRANCH  71  88
ATOM     88  C   UNL A   1      39.238  32.170  35.831  1.00  0.00     0.057 A 
ATOM     89  C   UNL A   1      39.674  33.486  36.030  1.00  0.00     0.134 A 
ATOM     90  C   UNL A   1      38.292  31.661  36.732  1.00  0.00     0.134 A 
ATOM     91  F   UNL A   1      40.587  34.031  35.211  1.00  0.00    -0.206 F 
ATOM     92  C   UNL A   1      39.205  34.257  37.096  1.00  0.00     0.040 A 
ATOM     93  C   UNL A   1      37.793  32.434  37.782  1.00  0.00     0.040 A 
ATOM     94  F   UNL A   1      37.822  30.413  36.595  1.00  0.00    -0.206 F 
ATOM     95  C   UNL A   1      38.255  33.734  37.971  1.00  0.00     0.006 A 
ENDBRANCH  71  88
ENDBRANCH  45  46
ENDBRANCH  38  40
ENDBRANCH  37  38
ENDBRANCH  36  37
ENDBRANCH  35  36
ENDBRANCH  34  35
ENDBRANCH  33  34
ENDBRANCH  32  33
ENDBRANCH  31  32
ENDBRANCH   1  31
TORSDOF 25
ENDMDL
MODEL 2
REMARK VINA RESULT:     -10.0      2.682      7.621
REMARK SMILES [NH3+][C@@H](CNc1ccc(C(=O)OCCOCCOCCOCCOC(=O)c2ccc(-c3c4nc(c(-c5c(F)cccc5F)c5ccc([nH]5)c(-c5c(F)cccc5F)c5nc(c(-c6c(F)cccc6F)c6ccc3[nH]6)C=C5)C=C4)cc2)c(F)c1F)c1ccccc1
REMARK SMILES IDX 16 1 15 2 14 3 13 4 12 5 11 6 9 7 10 8 8 9 5 10 6 11 82 12
REMARK SMILES IDX 7 13 80 14 83 15 81 16 4 17 3 19 2 20 1 21 84 25 85 26 89 27
REMARK SMILES IDX 86 28 88 29 87 30 17 31 18 32 19 33 20 34 21 35 22 36 23 37
REMARK SMILES IDX 24 38 25 39 26 40 27 41 79 42 28 43 78 44 29 45 30 46 31 47
REMARK SMILES IDX 72 48 32 49 77 50 71 51 73 52 33 53 76 54 70 55 69 56 34 58
REMARK SMILES IDX 60 59 43 60 59 61 44 62 47 63 58 64 74 65 45 66 46 67 57 69
REMARK SMILES IDX 75 70 48 71 35 72 36 73 41 74 37 75 38 76 40 77 42 78 39 79
REMARK SMILES IDX 61 80 62 81 67 82 63 83 64 84 66 85 68 86 65 87 49 88 50 89
REMARK SMILES IDX 55 90 51 91 52 92 54 93 56 94 53 95
REMARK H PARENT 4 18 1 22 1 23 1 24 73 57 47 68
REMARK Flexibility Score: inf
ROOT
ATOM      1  C   UNL A   1      33.762  26.710  23.453  1.00  0.00     0.188 C 
ENDROOT
BRANCH   1   2
ATOM      2  C   UNL A   1      34.021  25.189  23.392  1.00  0.00     0.188 C 
BRANCH   2   3
ATOM      3  O   UNL A   1      34.923  24.715  24.375  1.00  0.00    -0.376 OA
BRANCH   3   4
ATOM      4  C   UNL A   1      35.016  23.322  24.604  1.00  0.00     0.202 C 
BRANCH   4   5
ATOM      5  C   UNL A   1      34.504  22.758  25.937  1.00  0.00     0.261 C 
BRANCH   5   6
ATOM      6  O   UNL A   1      33.708  23.648  26.730  1.00  0.00    -0.460 OA
BRANCH   6   7
ATOM      7  C   UNL A   1      32.422  23.300  26.944  1.00  0.00     0.341 C 
ATOM      8  O   UNL A   1      32.002  22.557  27.813  1.00  0.00    -0.246 OA
BRANCH   7   9
ATOM      9  C   UNL A   1      31.560  24.142  26.094  1.00  0.00     0.099 A 
ATOM     10  C   UNL A   1      29.871  25.782  24.540  1.00  0.00     0.074 A 
ATOM     11  C   UNL A   1      30.329  26.216  25.788  1.00  0.00     0.030 A 
ATOM     12  C   UNL A   1      30.323  24.531  24.076  1.00  0.00     0.182 A 
ATOM     13  C   UNL A   1      31.145  25.392  26.575  1.00  0.00     0.021 A 
ATOM     14  C   UNL A   1      31.171  23.726  24.830  1.00  0.00     0.175 A 
ATOM     15  F   UNL A   1      29.918  24.099  22.869  1.00  0.00    -0.201 F 
ATOM     16  F   UNL A   1      31.573  22.546  24.335  1.00  0.00    -0.203 F 
BRANCH  10  17
ATOM     17  N   UNL A   1      29.006  26.535  23.757  1.00  0.00    -0.376 N 
ATOM     18  H   UNL A   1      28.165  26.121  23.458  1.00  0.00     0.160 HD
BRANCH  17  19
ATOM     19  C   UNL A   1      29.286  27.915  23.354  1.00  0.00     0.183 C 
BRANCH  19  20
ATOM     20  C   UNL A   1      28.028  28.840  23.505  1.00  0.00     0.231 C 
BRANCH  20  21
ATOM     21  N   UNL A   1      26.773  28.201  23.071  1.00  0.00    -0.350 N 
ATOM     22  H   UNL A   1      26.960  27.585  22.280  1.00  0.00     0.345 HD
ATOM     23  H   UNL A   1      26.105  28.920  22.793  1.00  0.00     0.345 HD
ATOM     24  H   UNL A   1      26.385  27.657  23.842  1.00  0.00     0.345 HD
ENDBRANCH  20  21
BRANCH  20  25
ATOM     25  C   UNL A   1      28.255  30.186  22.827  1.00  0.00     0.011 A 
ATOM     26  C   UNL A   1      28.666  31.323  23.544  1.00  0.00     0.010 A 
ATOM     27  C   UNL A   1      27.958  30.338  21.463  1.00  0.00     0.010 A 
ATOM     28  C   UNL A   1      28.715  32.579  22.940  1.00  0.00     0.001 A 
ATOM     29  C   UNL A   1      28.025  31.594  20.853  1.00  0.00     0.001 A 
ATOM     30  C   UNL A   1      28.386  32.715  21.595  1.00  0.00     0.000 A 
ENDBRANCH  20  25
ENDBRANCH  19  20
ENDBRANCH  17  19
ENDBRANCH  10  17
ENDBRANCH   7   9
ENDBRANCH   6   7
ENDBRANCH   5   6
ENDBRANCH   4   5
ENDBRANCH   3   4
ENDBRANCH   2   3
ENDBRANCH   1   2
BRANCH   1  31
ATOM     31  O   UNL A   1      33.029  27.250  24.544  1.00  0.00    -0.377 OA
BRANCH  31  32
ATOM     32  C   UNL A   1      33.712  27.749  25.691  1.00  0.00     0.188 C 
BRANCH  32  33
ATOM     33  C   UNL A   1      33.859  29.266  25.950  1.00  0.00     0.188 C 
BRANCH  33  34
ATOM     34  O   UNL A   1      32.796  30.057  25.445  1.00  0.00    -0.376 OA
BRANCH  34  35
ATOM     35  C   UNL A   1      31.735  30.370  26.330  1.00  0.00     0.202 C 
BRANCH  35  36
ATOM     36  C   UNL A   1      31.587  31.842  26.737  1.00  0.00     0.261 C 
BRANCH  36  37
ATOM     37  O   UNL A   1      32.755  32.663  26.579  1.00  0.00    -0.460 OA
BRANCH  37  38
ATOM     38  C   UNL A   1      33.133  33.419  27.631  1.00  0.00     0.338 C 
ATOM     39  O   UNL A   1      32.515  34.338  28.143  1.00  0.00    -0.246 OA
BRANCH  38  40
ATOM     40  C   UNL A   1      34.365  32.820  28.185  1.00  0.00     0.060 A 
ATOM     41  C   UNL A   1      34.334  31.505  28.666  1.00  0.00     0.016 A 
ATOM     42  C   UNL A   1      35.552  33.555  28.203  1.00  0.00     0.016 A 
ATOM     43  C   UNL A   1      35.492  30.928  29.191  1.00  0.00     0.010 A 
ATOM     44  C   UNL A   1      36.703  32.984  28.748  1.00  0.00     0.010 A 
ATOM     45  C   UNL A   1      36.673  31.679  29.270  1.00  0.00    -0.014 A 
BRANCH  45  46
ATOM     46  C   UNL A   1      37.823  31.172  30.056  1.00  0.00     0.031 A 
ATOM     47  C   UNL A   1      38.760  30.194  29.402  1.00  0.00     0.074 A 
ATOM     48  C   UNL A   1      38.040  31.573  31.321  1.00  0.00     0.049 A 
ATOM     49  N   UNL A   1      39.791  29.564  29.904  1.00  0.00    -0.248 NA
ATOM     50  C   UNL A   1      38.493  29.883  27.988  1.00  0.00     0.031 C 
ATOM     51  C   UNL A   1      37.230  32.545  32.051  1.00  0.00     0.029 A 
ATOM     52  N   UNL A   1      39.009  31.197  32.218  1.00  0.00    -0.354 N 
ATOM     53  C   UNL A   1      40.290  28.779  28.873  1.00  0.00     0.074 A 
ATOM     54  C   UNL A   1      39.430  28.986  27.727  1.00  0.00     0.031 C 
ATOM     55  C   UNL A   1      37.729  32.679  33.293  1.00  0.00     0.029 A 
ATOM     56  C   UNL A   1      38.867  31.776  33.455  1.00  0.00     0.049 A 
ATOM     57  H   UNL A   1      39.736  30.570  31.996  1.00  0.00     0.167 HD
ATOM     58  C   UNL A   1      41.372  27.964  28.876  1.00  0.00     0.037 A 
ATOM     59  C   UNL A   1      39.561  31.576  34.593  1.00  0.00     0.037 A 
ATOM     60  C   UNL A   1      42.219  27.755  30.020  1.00  0.00     0.049 A 
ATOM     61  C   UNL A   1      40.707  30.597  34.598  1.00  0.00     0.074 A 
ATOM     62  C   UNL A   1      43.349  26.962  30.122  1.00  0.00     0.029 A 
ATOM     63  N   UNL A   1      42.022  28.332  31.266  1.00  0.00    -0.354 N 
ATOM     64  N   UNL A   1      41.191  29.880  33.612  1.00  0.00    -0.248 NA
ATOM     65  C   UNL A   1      41.405  30.398  35.877  1.00  0.00     0.031 C 
ATOM     66  C   UNL A   1      43.799  27.011  31.444  1.00  0.00     0.029 A 
ATOM     67  C   UNL A   1      42.990  27.886  32.151  1.00  0.00     0.049 A 
ATOM     68  H   UNL A   1      41.301  28.964  31.488  1.00  0.00     0.167 HD
ATOM     69  C   UNL A   1      42.264  29.172  34.143  1.00  0.00     0.074 A 
ATOM     70  C   UNL A   1      42.371  29.558  35.534  1.00  0.00     0.031 C 
ATOM     71  C   UNL A   1      43.088  28.284  33.533  1.00  0.00     0.037 A 
BRANCH  58  72
ATOM     72  C   UNL A   1      41.679  27.217  27.612  1.00  0.00     0.057 A 
ATOM     73  C   UNL A   1      42.457  27.774  26.588  1.00  0.00     0.134 A 
ATOM     74  C   UNL A   1      41.212  25.910  27.427  1.00  0.00     0.134 A 
ATOM     75  F   UNL A   1      42.923  29.028  26.694  1.00  0.00    -0.206 F 
ATOM     76  C   UNL A   1      42.736  27.068  25.416  1.00  0.00     0.040 A 
ATOM     77  C   UNL A   1      41.510  25.183  26.273  1.00  0.00     0.040 A 
ATOM     78  F   UNL A   1      40.464  25.313  28.368  1.00  0.00    -0.206 F 
ATOM     79  C   UNL A   1      42.269  25.765  25.261  1.00  0.00     0.006 A 
ENDBRANCH  58  72
BRANCH  59  80
ATOM     80  C   UNL A   1      39.186  32.301  35.835  1.00  0.00     0.057 A 
ATOM     81  C   UNL A   1      38.317  31.732  36.774  1.00  0.00     0.134 A 
ATOM     82  C   UNL A   1      39.662  33.592  36.099  1.00  0.00     0.134 A 
ATOM     83  F   UNL A   1      37.804  30.510  36.566  1.00  0.00    -0.206 F 
ATOM     84  C   UNL A   1      37.918  32.427  37.918  1.00  0.00     0.040 A 
ATOM     85  C   UNL A   1      39.296  34.286  37.254  1.00  0.00     0.040 A 
ATOM     86  F   UNL A   1      40.495  34.195  35.240  1.00  0.00    -0.206 F 
ATOM     87  C   UNL A   1      38.413  33.705  38.162  1.00  0.00     0.006 A 
ENDBRANCH  59  80
BRANCH  71  88
ATOM     88  C   UNL A   1      44.204  27.698  34.352  1.00  0.00     0.057 A 
ATOM     89  C   UNL A   1      45.418  28.370  34.545  1.00  0.00     0.134 A 
ATOM     90  C   UNL A   1      44.043  26.462  34.993  1.00  0.00     0.134 A 
ATOM     91  F   UNL A   1      45.642  29.553  33.952  1.00  0.00    -0.206 F 
ATOM     92  C   UNL A   1      46.439  27.823  35.325  1.00  0.00     0.040 A 
ATOM     93  C   UNL A   1      45.045  25.920  35.800  1.00  0.00     0.040 A 
ATOM     94  F   UNL A   1      42.902  25.769  34.862  1.00  0.00    -0.206 F 
ATOM     95  C   UNL A   1      46.251  26.598  35.961  1.00  0.00     0.006 A 
ENDBRANCH  71  88
ENDBRANCH  45  46
ENDBRANCH  38  40
ENDBRANCH  37  38
ENDBRANCH  36  37
ENDBRANCH  35  36
ENDBRANCH  34  35
ENDBRANCH  33  34
ENDBRANCH  32  33
ENDBRANCH  31  32
ENDBRANCH   1  31
TORSDOF 25
ENDMDL
MODEL 3
REMARK VINA RESULT:      -9.9      3.905      6.895
REMARK SMILES [NH3+][C@@H](CNc1ccc(C(=O)OCCOCCOCCOCCOC(=O)c2ccc(-c3c4nc(c(-c5c(F)cccc5F)c5ccc([nH]5)c(-c5c(F)cccc5F)c5nc(c(-c6c(F)cccc6F)c6ccc3[nH]6)C=C5)C=C4)cc2)c(F)c1F)c1ccccc1
REMARK SMILES IDX 16 1 15 2 14 3 13 4 12 5 11 6 9 7 10 8 8 9 5 10 6 11 82 12
REMARK SMILES IDX 7 13 80 14 83 15 81 16 4 17 3 19 2 20 1 21 84 25 85 26 89 27
REMARK SMILES IDX 86 28 88 29 87 30 17 31 18 32 19 33 20 34 21 35 22 36 23 37
REMARK SMILES IDX 24 38 25 39 26 40 27 41 79 42 28 43 78 44 29 45 30 46 31 47
REMARK SMILES IDX 72 48 32 49 77 50 71 51 73 52 33 53 76 54 70 55 69 56 34 58
REMARK SMILES IDX 60 59 43 60 59 61 44 62 47 63 58 64 74 65 45 66 46 67 57 69
REMARK SMILES IDX 75 70 48 71 35 72 36 73 41 74 37 75 38 76 40 77 42 78 39 79
REMARK SMILES IDX 61 80 62 81 67 82 63 83 64 84 66 85 68 86 65 87 49 88 50 89
REMARK SMILES IDX 55 90 51 91 52 92 54 93 56 94 53 95
REMARK H PARENT 4 18 1 22 1 23 1 24 73 57 47 68
REMARK Flexibility Score: inf
ROOT
ATOM      1  C   UNL A   1      34.495  23.830  24.344  1.00  0.00     0.188 C 
ENDROOT
BRANCH   1   2
ATOM      2  C   UNL A   1      34.102  24.820  25.462  1.00  0.00     0.188 C 
BRANCH   2   3
ATOM      3  O   UNL A   1      32.773  24.670  25.927  1.00  0.00    -0.376 OA
BRANCH   3   4
ATOM      4  C   UNL A   1      31.706  25.084  25.096  1.00  0.00     0.202 C 
BRANCH   4   5
ATOM      5  C   UNL A   1      30.839  26.269  25.546  1.00  0.00     0.261 C 
BRANCH   5   6
ATOM      6  O   UNL A   1      31.011  27.488  24.811  1.00  0.00    -0.460 OA
BRANCH   6   7
ATOM      7  C   UNL A   1      32.277  27.879  24.555  1.00  0.00     0.341 C 
ATOM      8  O   UNL A   1      32.923  27.649  23.549  1.00  0.00    -0.246 OA
BRANCH   7   9
ATOM      9  C   UNL A   1      32.693  28.834  25.598  1.00  0.00     0.099 A 
ATOM     10  C   UNL A   1      33.459  30.727  27.545  1.00  0.00     0.074 A 
ATOM     11  C   UNL A   1      32.296  30.915  26.792  1.00  0.00     0.030 A 
ATOM     12  C   UNL A   1      34.194  29.545  27.329  1.00  0.00     0.182 A 
ATOM     13  C   UNL A   1      31.927  29.992  25.804  1.00  0.00     0.021 A 
ATOM     14  C   UNL A   1      33.811  28.599  26.384  1.00  0.00     0.175 A 
ATOM     15  F   UNL A   1      35.305  29.327  28.055  1.00  0.00    -0.201 F 
ATOM     16  F   UNL A   1      34.547  27.489  26.225  1.00  0.00    -0.203 F 
BRANCH  10  17
ATOM     17  N   UNL A   1      33.900  31.650  28.484  1.00  0.00    -0.376 N 
ATOM     18  H   UNL A   1      33.610  31.542  29.419  1.00  0.00     0.160 HD
BRANCH  17  19
ATOM     19  C   UNL A   1      34.776  32.775  28.151  1.00  0.00     0.183 C 
BRANCH  19  20
ATOM     20  C   UNL A   1      34.023  34.150  28.223  1.00  0.00     0.231 C 
BRANCH  20  21
ATOM     21  N   UNL A   1      34.596  35.181  27.340  1.00  0.00    -0.350 N 
ATOM     22  H   UNL A   1      35.614  35.144  27.389  1.00  0.00     0.345 HD
ATOM     23  H   UNL A   1      34.274  36.101  27.639  1.00  0.00     0.345 HD
ATOM     24  H   UNL A   1      34.295  35.011  26.380  1.00  0.00     0.345 HD
ENDBRANCH  20  21
BRANCH  20  25
ATOM     25  C   UNL A   1      33.897  34.630  29.665  1.00  0.00     0.011 A 
ATOM     26  C   UNL A   1      34.569  33.996  30.723  1.00  0.00     0.010 A 
ATOM     27  C   UNL A   1      33.013  35.675  29.976  1.00  0.00     0.010 A 
ATOM     28  C   UNL A   1      34.319  34.347  32.050  1.00  0.00     0.001 A 
ATOM     29  C   UNL A   1      32.777  36.039  31.304  1.00  0.00     0.001 A 
ATOM     30  C   UNL A   1      33.416  35.364  32.341  1.00  0.00     0.000 A 
ENDBRANCH  20  25
ENDBRANCH  19  20
ENDBRANCH  17  19
ENDBRANCH  10  17
ENDBRANCH   7   9
ENDBRANCH   6   7
ENDBRANCH   5   6
ENDBRANCH   4   5
ENDBRANCH   3   4
ENDBRANCH   2   3
ENDBRANCH   1   2
BRANCH   1  31
ATOM     31  O   UNL A   1      35.685  23.064  24.477  1.00  0.00    -0.377 OA
BRANCH  31  32
ATOM     32  C   UNL A   1      35.772  22.038  25.461  1.00  0.00     0.188 C 
BRANCH  32  33
ATOM     33  C   UNL A   1      35.301  20.594  25.169  1.00  0.00     0.188 C 
BRANCH  33  34
ATOM     34  O   UNL A   1      36.345  19.679  24.882  1.00  0.00    -0.376 OA
BRANCH  34  35
ATOM     35  C   UNL A   1      37.672  20.174  24.895  1.00  0.00     0.202 C 
BRANCH  35  36
ATOM     36  C   UNL A   1      38.762  19.214  25.390  1.00  0.00     0.261 C 
BRANCH  36  37
ATOM     37  O   UNL A   1      39.508  19.643  26.540  1.00  0.00    -0.460 OA
BRANCH  37  38
ATOM     38  C   UNL A   1      40.819  19.910  26.370  1.00  0.00     0.338 C 
ATOM     39  O   UNL A   1      41.659  19.196  25.846  1.00  0.00    -0.246 OA
BRANCH  38  40
ATOM     40  C   UNL A   1      41.039  21.316  26.767  1.00  0.00     0.060 A 
ATOM     41  C   UNL A   1      40.280  22.328  26.166  1.00  0.00     0.016 A 
ATOM     42  C   UNL A   1      41.980  21.625  27.752  1.00  0.00     0.016 A 
ATOM     43  C   UNL A   1      40.478  23.660  26.535  1.00  0.00     0.010 A 
ATOM     44  C   UNL A   1      42.192  22.959  28.104  1.00  0.00     0.010 A 
ATOM     45  C   UNL A   1      41.462  23.986  27.477  1.00  0.00    -0.014 A 
BRANCH  45  46
ATOM     46  C   UNL A   1      41.857  25.400  27.680  1.00  0.00     0.031 A 
ATOM     47  C   UNL A   1      43.195  25.849  27.161  1.00  0.00     0.074 A 
ATOM     48  C   UNL A   1      41.048  26.272  28.307  1.00  0.00     0.049 A 
ATOM     49  N   UNL A   1      43.786  27.011  27.275  1.00  0.00    -0.248 NA
ATOM     50  C   UNL A   1      43.972  24.849  26.411  1.00  0.00     0.031 C 
ATOM     51  C   UNL A   1      39.714  25.969  28.821  1.00  0.00     0.029 A 
ATOM     52  N   UNL A   1      41.243  27.593  28.628  1.00  0.00    -0.354 N 
ATOM     53  C   UNL A   1      45.003  26.879  26.621  1.00  0.00     0.074 A 
ATOM     54  C   UNL A   1      45.082  25.516  26.140  1.00  0.00     0.031 C 
ATOM     55  C   UNL A   1      39.214  27.073  29.404  1.00  0.00     0.029 A 
ATOM     56  C   UNL A   1      40.206  28.144  29.340  1.00  0.00     0.049 A 
ATOM     57  H   UNL A   1      42.050  28.096  28.372  1.00  0.00     0.167 HD
ATOM     58  C   UNL A   1      45.968  27.811  26.430  1.00  0.00     0.037 A 
ATOM     59  C   UNL A   1      40.088  29.365  29.897  1.00  0.00     0.037 A 
ATOM     60  C   UNL A   1      45.889  29.163  26.917  1.00  0.00     0.049 A 
ATOM     61  C   UNL A   1      41.212  30.359  29.749  1.00  0.00     0.074 A 
ATOM     62  C   UNL A   1      46.806  30.188  26.763  1.00  0.00     0.029 A 
ATOM     63  N   UNL A   1      44.839  29.674  27.665  1.00  0.00    -0.354 N 
ATOM     64  N   UNL A   1      42.348  30.236  29.105  1.00  0.00    -0.248 NA
ATOM     65  C   UNL A   1      41.038  31.662  30.406  1.00  0.00     0.031 C 
ATOM     66  C   UNL A   1      46.339  31.300  27.470  1.00  0.00     0.029 A 
ATOM     67  C   UNL A   1      45.100  30.990  28.008  1.00  0.00     0.049 A 
ATOM     68  H   UNL A   1      44.029  29.175  27.916  1.00  0.00     0.167 HD
ATOM     69  C   UNL A   1      43.007  31.453  29.253  1.00  0.00     0.074 A 
ATOM     70  C   UNL A   1      42.136  32.304  30.035  1.00  0.00     0.031 C 
ATOM     71  C   UNL A   1      44.222  31.830  28.782  1.00  0.00     0.037 A 
BRANCH  58  72
ATOM     72  C   UNL A   1      47.202  27.388  25.688  1.00  0.00     0.057 A 
ATOM     73  C   UNL A   1      47.344  27.584  24.308  1.00  0.00     0.134 A 
ATOM     74  C   UNL A   1      48.274  26.799  26.370  1.00  0.00     0.134 A 
ATOM     75  F   UNL A   1      46.348  28.128  23.592  1.00  0.00    -0.206 F 
ATOM     76  C   UNL A   1      48.498  27.186  23.630  1.00  0.00     0.040 A 
ATOM     77  C   UNL A   1      49.445  26.425  25.707  1.00  0.00     0.040 A 
ATOM     78  F   UNL A   1      48.207  26.585  27.693  1.00  0.00    -0.206 F 
ATOM     79  C   UNL A   1      49.556  26.613  24.332  1.00  0.00     0.006 A 
ENDBRANCH  58  72
BRANCH  59  80
ATOM     80  C   UNL A   1      38.868  29.721  30.668  1.00  0.00     0.057 A 
ATOM     81  C   UNL A   1      38.726  29.358  32.013  1.00  0.00     0.134 A 
ATOM     82  C   UNL A   1      37.802  30.406  30.071  1.00  0.00     0.134 A 
ATOM     83  F   UNL A   1      39.700  28.676  32.634  1.00  0.00    -0.206 F 
ATOM     84  C   UNL A   1      37.562  29.642  32.729  1.00  0.00     0.040 A 
ATOM     85  C   UNL A   1      36.644  30.723  30.785  1.00  0.00     0.040 A 
ATOM     86  F   UNL A   1      37.871  30.781  28.787  1.00  0.00    -0.206 F 
ATOM     87  C   UNL A   1      36.519  30.332  32.116  1.00  0.00     0.006 A 
ENDBRANCH  59  80
BRANCH  71  88
ATOM     88  C   UNL A   1      44.667  33.238  29.064  1.00  0.00     0.057 A 
ATOM     89  C   UNL A   1      44.342  34.305  28.216  1.00  0.00     0.134 A 
ATOM     90  C   UNL A   1      45.394  33.535  30.225  1.00  0.00     0.134 A 
ATOM     91  F   UNL A   1      43.656  34.089  27.083  1.00  0.00    -0.206 F 
ATOM     92  C   UNL A   1      44.746  35.611  28.500  1.00  0.00     0.040 A 
ATOM     93  C   UNL A   1      45.776  34.842  30.534  1.00  0.00     0.040 A 
ATOM     94  F   UNL A   1      45.729  32.565  31.087  1.00  0.00    -0.206 F 
ATOM     95  C   UNL A   1      45.458  35.884  29.666  1.00  0.00     0.006 A 
ENDBRANCH  71  88
ENDBRANCH  45  46
ENDBRANCH  38  40
ENDBRANCH  37  38
ENDBRANCH  36  37
ENDBRANCH  35  36
ENDBRANCH  34  35
ENDBRANCH  33  34
ENDBRANCH  32  33
ENDBRANCH  31  32
ENDBRANCH   1  31
TORSDOF 25
ENDMDL
