MODEL 1
REMARK VINA RESULT:     -10.3      0.000      0.000
REMARK SMILES C=C(C)COc1ccc2nc(C)n(-c3cccc(C(=O)OCCOCCOCCOCCOC(=O)c4ccc(-c5c6nc(c(-c7c(F)cccc7F)c7ccc([nH]7)c(-c7c(F)cccc7F)c7nc(c(-c8c(F)cccc8F)c8ccc5[nH]8)C=C7)C=C6)cc4)c3)c(=O)c2c1
REMARK SMILES IDX 26 1 25 2 24 3 23 4 22 5 21 6 19 7 20 8 18 9 14 10 15 11
REMARK SMILES IDX 90 12 16 13 17 14 13 15 6 16 7 17 94 18 8 19 93 20 9 21
REMARK SMILES IDX 91 22 10 23 92 24 11 25 12 26 5 27 4 28 2 29 1 30 3 31 27 32
REMARK SMILES IDX 28 33 29 34 30 35 31 36 32 37 33 38 34 39 35 40 36 41 37 42
REMARK SMILES IDX 89 43 38 44 88 45 39 46 40 47 41 48 82 49 42 50 87 51 81 52
REMARK SMILES IDX 83 53 43 54 86 55 80 56 79 57 44 59 70 60 53 61 69 62 54 63
REMARK SMILES IDX 57 64 68 65 84 66 55 67 56 68 67 70 85 71 58 72 45 73 46 74
REMARK SMILES IDX 51 75 47 76 48 77 50 78 52 79 49 80 71 81 72 82 77 83 73 84
REMARK SMILES IDX 74 85 76 86 78 87 75 88 59 89 60 90 65 91 61 92 62 93 64 94
REMARK SMILES IDX 66 95 63 96
REMARK H PARENT 83 58 57 69
REMARK Flexibility Score: inf
ROOT
ATOM      1  C   UNL A   1      38.113  23.679  26.131  1.00  0.00     0.188 C 
ENDROOT
BRANCH   1   2
ATOM      2  C   UNL A   1      37.470  22.660  25.172  1.00  0.00     0.188 C 
BRANCH   2   3
ATOM      3  O   UNL A   1      37.281  21.378  25.755  1.00  0.00    -0.376 OA
BRANCH   3   4
ATOM      4  C   UNL A   1      36.586  20.400  25.000  1.00  0.00     0.202 C 
BRANCH   4   5
ATOM      5  C   UNL A   1      35.115  20.675  24.654  1.00  0.00     0.261 C 
BRANCH   5   6
ATOM      6  O   UNL A   1      34.243  19.539  24.703  1.00  0.00    -0.460 OA
BRANCH   6   7
ATOM      7  C   UNL A   1      33.002  19.717  25.211  1.00  0.00     0.338 C 
ATOM      8  O   UNL A   1      32.153  18.861  25.372  1.00  0.00    -0.246 OA
BRANCH   7   9
ATOM      9  C   UNL A   1      32.948  21.093  25.772  1.00  0.00     0.062 A 
ATOM     10  C   UNL A   1      32.778  23.506  25.457  1.00  0.00     0.051 A 
ATOM     11  C   UNL A   1      33.129  23.681  26.804  1.00  0.00     0.027 A 
ATOM     12  C   UNL A   1      32.684  22.199  24.954  1.00  0.00     0.042 A 
ATOM     13  C   UNL A   1      33.394  22.579  27.625  1.00  0.00     0.003 A 
ATOM     14  C   UNL A   1      33.298  21.285  27.112  1.00  0.00     0.016 A 
BRANCH  10  15
ATOM     15  N   UNL A   1      32.482  24.625  24.607  1.00  0.00    -0.264 N 
ATOM     16  C   UNL A   1      29.432  28.100  23.122  1.00  0.00     0.120 A 
ATOM     17  C   UNL A   1      30.479  28.646  22.382  1.00  0.00     0.049 A 
ATOM     18  C   UNL A   1      29.645  26.969  23.903  1.00  0.00     0.062 A 
ATOM     19  C   UNL A   1      31.723  28.019  22.361  1.00  0.00     0.033 A 
ATOM     20  C   UNL A   1      30.905  26.357  23.884  1.00  0.00     0.070 A 
ATOM     21  C   UNL A   1      31.943  26.867  23.112  1.00  0.00     0.078 A 
ATOM     22  C   UNL A   1      31.189  25.171  24.706  1.00  0.00     0.266 A 
ATOM     23  N   UNL A   1      33.193  26.257  23.046  1.00  0.00    -0.234 NA
ATOM     24  O   UNL A   1      30.295  24.770  25.451  1.00  0.00    -0.268 OA
ATOM     25  C   UNL A   1      33.413  25.187  23.745  1.00  0.00     0.113 A 
ATOM     26  C   UNL A   1      34.764  24.544  23.504  1.00  0.00     0.088 C 
BRANCH  16  27
ATOM     27  O   UNL A   1      28.211  28.718  23.166  1.00  0.00    -0.489 OA
BRANCH  27  28
ATOM     28  C   UNL A   1      28.033  29.644  22.079  1.00  0.00     0.260 C 
BRANCH  28  29
ATOM     29  C   UNL A   1      27.884  31.071  22.562  1.00  0.00    -0.043 C 
ATOM     30  C   UNL A   1      27.648  31.372  23.852  1.00  0.00     0.011 C 
ATOM     31  C   UNL A   1      28.083  32.138  21.524  1.00  0.00     0.042 C 
ENDBRANCH  28  29
ENDBRANCH  27  28
ENDBRANCH  16  27
ENDBRANCH  10  15
ENDBRANCH   7   9
ENDBRANCH   6   7
ENDBRANCH   5   6
ENDBRANCH   4   5
ENDBRANCH   3   4
ENDBRANCH   2   3
ENDBRANCH   1   2
BRANCH   1  32
ATOM     32  O   UNL A   1      39.164  23.221  26.967  1.00  0.00    -0.377 OA
BRANCH  32  33
ATOM     33  C   UNL A   1      40.517  23.365  26.537  1.00  0.00     0.188 C 
BRANCH  33  34
ATOM     34  C   UNL A   1      41.395  22.156  26.126  1.00  0.00     0.188 C 
BRANCH  34  35
ATOM     35  O   UNL A   1      42.773  22.285  26.436  1.00  0.00    -0.376 OA
BRANCH  35  36
ATOM     36  C   UNL A   1      43.657  22.577  25.369  1.00  0.00     0.202 C 
BRANCH  36  37
ATOM     37  C   UNL A   1      43.616  24.022  24.861  1.00  0.00     0.261 C 
BRANCH  37  38
ATOM     38  O   UNL A   1      43.601  25.034  25.879  1.00  0.00    -0.460 OA
BRANCH  38  39
ATOM     39  C   UNL A   1      42.833  26.130  25.656  1.00  0.00     0.338 C 
ATOM     40  O   UNL A   1      42.295  26.453  24.626  1.00  0.00    -0.246 OA
BRANCH  39  41
ATOM     41  C   UNL A   1      42.606  26.768  26.976  1.00  0.00     0.060 A 
ATOM     42  C   UNL A   1      43.281  27.942  27.318  1.00  0.00     0.016 A 
ATOM     43  C   UNL A   1      41.740  26.155  27.892  1.00  0.00     0.016 A 
ATOM     44  C   UNL A   1      43.062  28.521  28.569  1.00  0.00     0.010 A 
ATOM     45  C   UNL A   1      41.525  26.735  29.145  1.00  0.00     0.010 A 
ATOM     46  C   UNL A   1      42.163  27.938  29.480  1.00  0.00    -0.014 A 
BRANCH  46  47
ATOM     47  C   UNL A   1      41.748  28.706  30.681  1.00  0.00     0.031 A 
ATOM     48  C   UNL A   1      42.473  28.619  31.989  1.00  0.00     0.074 A 
ATOM     49  C   UNL A   1      40.670  29.505  30.562  1.00  0.00     0.049 A 
ATOM     50  N   UNL A   1      42.292  29.330  33.075  1.00  0.00    -0.248 NA
ATOM     51  C   UNL A   1      43.524  27.599  32.101  1.00  0.00     0.031 C 
ATOM     52  C   UNL A   1      39.851  29.630  29.355  1.00  0.00     0.029 A 
ATOM     53  N   UNL A   1      40.088  30.367  31.453  1.00  0.00    -0.354 N 
ATOM     54  C   UNL A   1      43.222  28.865  33.995  1.00  0.00     0.074 A 
ATOM     55  C   UNL A   1      43.927  27.772  33.355  1.00  0.00     0.031 C 
ATOM     56  C   UNL A   1      38.895  30.545  29.568  1.00  0.00     0.029 A 
ATOM     57  C   UNL A   1      39.020  31.053  30.930  1.00  0.00     0.049 A 
ATOM     58  H   UNL A   1      40.404  30.484  32.378  1.00  0.00     0.167 HD
ATOM     59  C   UNL A   1      43.473  29.322  35.248  1.00  0.00     0.037 A 
ATOM     60  C   UNL A   1      38.234  31.996  31.481  1.00  0.00     0.037 A 
ATOM     61  C   UNL A   1      42.739  30.387  35.892  1.00  0.00     0.049 A 
ATOM     62  C   UNL A   1      38.511  32.455  32.883  1.00  0.00     0.074 A 
ATOM     63  C   UNL A   1      42.943  30.944  37.144  1.00  0.00     0.029 A 
ATOM     64  N   UNL A   1      41.643  31.039  35.345  1.00  0.00    -0.354 N 
ATOM     65  N   UNL A   1      39.462  32.081  33.705  1.00  0.00    -0.248 NA
ATOM     66  C   UNL A   1      37.611  33.479  33.427  1.00  0.00     0.031 C 
ATOM     67  C   UNL A   1      41.939  31.892  37.376  1.00  0.00     0.029 A 
ATOM     68  C   UNL A   1      41.144  31.973  36.244  1.00  0.00     0.049 A 
ATOM     69  H   UNL A   1      41.273  30.865  34.450  1.00  0.00     0.167 HD
ATOM     70  C   UNL A   1      39.295  32.850  34.850  1.00  0.00     0.074 A 
ATOM     71  C   UNL A   1      38.164  33.721  34.607  1.00  0.00     0.031 C 
ATOM     72  C   UNL A   1      40.016  32.835  35.998  1.00  0.00     0.037 A 
BRANCH  59  73
ATOM     73  C   UNL A   1      44.593  28.670  36.012  1.00  0.00     0.057 A 
ATOM     74  C   UNL A   1      45.909  29.139  35.907  1.00  0.00     0.134 A 
ATOM     75  C   UNL A   1      44.374  27.544  36.818  1.00  0.00     0.134 A 
ATOM     76  F   UNL A   1      46.195  30.202  35.140  1.00  0.00    -0.206 F 
ATOM     77  C   UNL A   1      46.963  28.516  36.577  1.00  0.00     0.040 A 
ATOM     78  C   UNL A   1      45.416  26.929  37.516  1.00  0.00     0.040 A 
ATOM     79  F   UNL A   1      43.139  27.041  36.962  1.00  0.00    -0.206 F 
ATOM     80  C   UNL A   1      46.717  27.413  37.392  1.00  0.00     0.006 A 
ENDBRANCH  59  73
BRANCH  60  81
ATOM     81  C   UNL A   1      37.132  32.597  30.691  1.00  0.00     0.057 A 
ATOM     82  C   UNL A   1      37.371  33.617  29.761  1.00  0.00     0.134 A 
ATOM     83  C   UNL A   1      35.814  32.149  30.833  1.00  0.00     0.134 A 
ATOM     84  F   UNL A   1      38.610  34.098  29.589  1.00  0.00    -0.206 F 
ATOM     85  C   UNL A   1      36.340  34.166  29.000  1.00  0.00     0.040 A 
ATOM     86  C   UNL A   1      34.778  32.668  30.056  1.00  0.00     0.040 A 
ATOM     87  F   UNL A   1      35.525  31.166  31.699  1.00  0.00    -0.206 F 
ATOM     88  C   UNL A   1      35.040  33.682  29.137  1.00  0.00     0.006 A 
ENDBRANCH  60  81
BRANCH  72  89
ATOM     89  C   UNL A   1      39.623  33.825  37.059  1.00  0.00     0.057 A 
ATOM     90  C   UNL A   1      38.742  33.457  38.084  1.00  0.00     0.134 A 
ATOM     91  C   UNL A   1      40.118  35.136  37.078  1.00  0.00     0.134 A 
ATOM     92  F   UNL A   1      38.223  32.220  38.127  1.00  0.00    -0.206 F 
ATOM     93  C   UNL A   1      38.373  34.353  39.090  1.00  0.00     0.040 A 
ATOM     94  C   UNL A   1      39.783  36.031  38.096  1.00  0.00     0.040 A 
ATOM     95  F   UNL A   1      40.980  35.551  36.136  1.00  0.00    -0.206 F 
ATOM     96  C   UNL A   1      38.903  35.640  39.104  1.00  0.00     0.006 A 
ENDBRANCH  72  89
ENDBRANCH  46  47
ENDBRANCH  39  41
ENDBRANCH  38  39
ENDBRANCH  37  38
ENDBRANCH  36  37
ENDBRANCH  35  36
ENDBRANCH  34  35
ENDBRANCH  33  34
ENDBRANCH  32  33
ENDBRANCH   1  32
TORSDOF 24
ENDMDL
MODEL 2
REMARK VINA RESULT:      -9.8      6.306     11.399
REMARK SMILES C=C(C)COc1ccc2nc(C)n(-c3cccc(C(=O)OCCOCCOCCOCCOC(=O)c4ccc(-c5c6nc(c(-c7c(F)cccc7F)c7ccc([nH]7)c(-c7c(F)cccc7F)c7nc(c(-c8c(F)cccc8F)c8ccc5[nH]8)C=C7)C=C6)cc4)c3)c(=O)c2c1
REMARK SMILES IDX 26 1 25 2 24 3 23 4 22 5 21 6 19 7 20 8 18 9 14 10 15 11
REMARK SMILES IDX 90 12 16 13 17 14 13 15 6 16 7 17 94 18 8 19 93 20 9 21
REMARK SMILES IDX 91 22 10 23 92 24 11 25 12 26 5 27 4 28 2 29 1 30 3 31 27 32
REMARK SMILES IDX 28 33 29 34 30 35 31 36 32 37 33 38 34 39 35 40 36 41 37 42
REMARK SMILES IDX 89 43 38 44 88 45 39 46 40 47 41 48 82 49 42 50 87 51 81 52
REMARK SMILES IDX 83 53 43 54 86 55 80 56 79 57 44 59 70 60 53 61 69 62 54 63
REMARK SMILES IDX 57 64 68 65 84 66 55 67 56 68 67 70 85 71 58 72 45 73 46 74
REMARK SMILES IDX 51 75 47 76 48 77 50 78 52 79 49 80 71 81 72 82 77 83 73 84
REMARK SMILES IDX 74 85 76 86 78 87 75 88 59 89 60 90 65 91 61 92 62 93 64 94
REMARK SMILES IDX 66 95 63 96
REMARK H PARENT 83 58 57 69
REMARK Flexibility Score: inf
ROOT
ATOM      1  C   UNL A   1      47.059  25.696  24.819  1.00  0.00     0.188 C 
ENDROOT
BRANCH   1   2
ATOM      2  C   UNL A   1      46.371  24.341  25.074  1.00  0.00     0.188 C 
BRANCH   2   3
ATOM      3  O   UNL A   1      46.071  23.628  23.882  1.00  0.00    -0.376 OA
BRANCH   3   4
ATOM      4  C   UNL A   1      45.081  22.615  23.945  1.00  0.00     0.202 C 
BRANCH   4   5
ATOM      5  C   UNL A   1      45.532  21.195  24.321  1.00  0.00     0.261 C 
BRANCH   5   6
ATOM      6  O   UNL A   1      44.617  20.145  23.987  1.00  0.00    -0.460 OA
BRANCH   6   7
ATOM      7  C   UNL A   1      44.676  19.003  24.708  1.00  0.00     0.338 C 
ATOM      8  O   UNL A   1      45.591  18.201  24.727  1.00  0.00    -0.246 OA
BRANCH   7   9
ATOM      9  C   UNL A   1      43.540  19.025  25.666  1.00  0.00     0.062 A 
ATOM     10  C   UNL A   1      41.474  20.037  26.481  1.00  0.00     0.051 A 
ATOM     11  C   UNL A   1      41.565  19.236  27.630  1.00  0.00     0.027 A 
ATOM     12  C   UNL A   1      42.470  19.914  25.499  1.00  0.00     0.042 A 
ATOM     13  C   UNL A   1      42.633  18.347  27.800  1.00  0.00     0.003 A 
ATOM     14  C   UNL A   1      43.617  18.237  26.817  1.00  0.00     0.016 A 
BRANCH  10  15
ATOM     15  N   UNL A   1      40.375  20.938  26.279  1.00  0.00    -0.264 N 
ATOM     16  C   UNL A   1      35.813  21.766  24.833  1.00  0.00     0.120 A 
ATOM     17  C   UNL A   1      35.916  23.044  25.377  1.00  0.00     0.049 A 
ATOM     18  C   UNL A   1      36.879  20.878  24.931  1.00  0.00     0.062 A 
ATOM     19  C   UNL A   1      37.111  23.465  25.955  1.00  0.00     0.033 A 
ATOM     20  C   UNL A   1      38.070  21.309  25.529  1.00  0.00     0.070 A 
ATOM     21  C   UNL A   1      38.199  22.598  26.033  1.00  0.00     0.078 A 
ATOM     22  C   UNL A   1      39.221  20.404  25.676  1.00  0.00     0.266 A 
ATOM     23  N   UNL A   1      39.383  23.065  26.597  1.00  0.00    -0.234 NA
ATOM     24  O   UNL A   1      39.077  19.240  25.304  1.00  0.00    -0.268 OA
ATOM     25  C   UNL A   1      40.402  22.266  26.682  1.00  0.00     0.113 A 
ATOM     26  C   UNL A   1      41.670  22.913  27.201  1.00  0.00     0.088 C 
BRANCH  16  27
ATOM     27  O   UNL A   1      34.637  21.334  24.280  1.00  0.00    -0.489 OA
BRANCH  27  28
ATOM     28  C   UNL A   1      33.652  22.382  24.216  1.00  0.00     0.260 C 
BRANCH  28  29
ATOM     29  C   UNL A   1      32.943  22.419  22.879  1.00  0.00    -0.043 C 
ATOM     30  C   UNL A   1      31.987  21.533  22.548  1.00  0.00     0.011 C 
ATOM     31  C   UNL A   1      33.323  23.550  21.968  1.00  0.00     0.042 C 
ENDBRANCH  28  29
ENDBRANCH  27  28
ENDBRANCH  16  27
ENDBRANCH  10  15
ENDBRANCH   7   9
ENDBRANCH   6   7
ENDBRANCH   5   6
ENDBRANCH   4   5
ENDBRANCH   3   4
ENDBRANCH   2   3
ENDBRANCH   1   2
BRANCH   1  32
ATOM     32  O   UNL A   1      46.474  26.849  25.401  1.00  0.00    -0.377 OA
BRANCH  32  33
ATOM     33  C   UNL A   1      45.210  27.311  24.928  1.00  0.00     0.188 C 
BRANCH  33  34
ATOM     34  C   UNL A   1      43.891  27.078  25.706  1.00  0.00     0.188 C 
BRANCH  34  35
ATOM     35  O   UNL A   1      42.708  27.378  24.983  1.00  0.00    -0.376 OA
BRANCH  35  36
ATOM     36  C   UNL A   1      41.815  28.317  25.555  1.00  0.00     0.202 C 
BRANCH  36  37
ATOM     37  C   UNL A   1      42.275  28.934  26.880  1.00  0.00     0.261 C 
BRANCH  37  38
ATOM     38  O   UNL A   1      41.304  28.921  27.937  1.00  0.00    -0.460 OA
BRANCH  38  39
ATOM     39  C   UNL A   1      41.006  27.720  28.494  1.00  0.00     0.338 C 
ATOM     40  O   UNL A   1      40.002  27.069  28.342  1.00  0.00    -0.246 OA
BRANCH  39  41
ATOM     41  C   UNL A   1      42.236  27.247  29.175  1.00  0.00     0.060 A 
ATOM     42  C   UNL A   1      42.723  25.960  28.939  1.00  0.00     0.016 A 
ATOM     43  C   UNL A   1      42.878  28.092  30.091  1.00  0.00     0.016 A 
ATOM     44  C   UNL A   1      43.876  25.529  29.598  1.00  0.00     0.010 A 
ATOM     45  C   UNL A   1      44.030  27.657  30.753  1.00  0.00     0.010 A 
ATOM     46  C   UNL A   1      44.553  26.383  30.487  1.00  0.00    -0.014 A 
BRANCH  46  47
ATOM     47  C   UNL A   1      45.907  26.006  30.965  1.00  0.00     0.031 A 
ATOM     48  C   UNL A   1      47.149  26.265  30.167  1.00  0.00     0.074 A 
ATOM     49  C   UNL A   1      45.994  25.406  32.167  1.00  0.00     0.049 A 
ATOM     50  N   UNL A   1      48.399  26.101  30.522  1.00  0.00    -0.248 NA
ATOM     51  C   UNL A   1      46.968  26.756  28.794  1.00  0.00     0.031 C 
ATOM     52  C   UNL A   1      44.851  25.053  33.011  1.00  0.00     0.029 A 
ATOM     53  N   UNL A   1      47.083  25.001  32.892  1.00  0.00    -0.354 N 
ATOM     54  C   UNL A   1      49.160  26.493  29.429  1.00  0.00     0.074 A 
ATOM     55  C   UNL A   1      48.226  26.849  28.379  1.00  0.00     0.031 C 
ATOM     56  C   UNL A   1      45.299  24.519  34.155  1.00  0.00     0.029 A 
ATOM     57  C   UNL A   1      46.756  24.471  34.116  1.00  0.00     0.049 A 
ATOM     58  H   UNL A   1      48.009  25.081  32.569  1.00  0.00     0.167 HD
ATOM     59  C   UNL A   1      50.512  26.565  29.321  1.00  0.00     0.037 A 
ATOM     60  C   UNL A   1      47.543  24.008  35.104  1.00  0.00     0.037 A 
ATOM     61  C   UNL A   1      51.436  26.171  30.360  1.00  0.00     0.049 A 
ATOM     62  C   UNL A   1      49.035  24.064  34.943  1.00  0.00     0.074 A 
ATOM     63  C   UNL A   1      52.820  26.242  30.358  1.00  0.00     0.029 A 
ATOM     64  N   UNL A   1      51.072  25.609  31.576  1.00  0.00    -0.354 N 
ATOM     65  N   UNL A   1      49.743  24.536  33.946  1.00  0.00    -0.248 NA
ATOM     66  C   UNL A   1      49.835  23.535  36.054  1.00  0.00     0.031 C 
ATOM     67  C   UNL A   1      53.293  25.673  31.547  1.00  0.00     0.029 A 
ATOM     68  C   UNL A   1      52.204  25.304  32.319  1.00  0.00     0.049 A 
ATOM     69  H   UNL A   1      50.146  25.451  31.868  1.00  0.00     0.167 HD
ATOM     70  C   UNL A   1      51.072  24.392  34.324  1.00  0.00     0.074 A 
ATOM     71  C   UNL A   1      51.067  23.806  35.649  1.00  0.00     0.031 C 
ATOM     72  C   UNL A   1      52.194  24.718  33.636  1.00  0.00     0.037 A 
BRANCH  59  73
ATOM     73  C   UNL A   1      51.077  27.090  28.031  1.00  0.00     0.057 A 
ATOM     74  C   UNL A   1      51.355  26.231  26.960  1.00  0.00     0.134 A 
ATOM     75  C   UNL A   1      51.391  28.447  27.864  1.00  0.00     0.134 A 
ATOM     76  F   UNL A   1      51.097  24.917  27.055  1.00  0.00    -0.206 F 
ATOM     77  C   UNL A   1      51.919  26.700  25.772  1.00  0.00     0.040 A 
ATOM     78  C   UNL A   1      51.928  28.933  26.671  1.00  0.00     0.040 A 
ATOM     79  F   UNL A   1      51.152  29.326  28.849  1.00  0.00    -0.206 F 
ATOM     80  C   UNL A   1      52.199  28.057  25.621  1.00  0.00     0.006 A 
ENDBRANCH  59  73
BRANCH  60  81
ATOM     81  C   UNL A   1      46.936  23.485  36.353  1.00  0.00     0.057 A 
ATOM     82  C   UNL A   1      46.572  22.140  36.481  1.00  0.00     0.134 A 
ATOM     83  C   UNL A   1      46.727  24.319  37.458  1.00  0.00     0.134 A 
ATOM     84  F   UNL A   1      46.734  21.294  35.453  1.00  0.00    -0.206 F 
ATOM     85  C   UNL A   1      46.025  21.642  37.663  1.00  0.00     0.040 A 
ATOM     86  C   UNL A   1      46.209  23.827  38.656  1.00  0.00     0.040 A 
ATOM     87  F   UNL A   1      47.068  25.615  37.399  1.00  0.00    -0.206 F 
ATOM     88  C   UNL A   1      45.854  22.484  38.759  1.00  0.00     0.006 A 
ENDBRANCH  60  81
BRANCH  72  89
ATOM     89  C   UNL A   1      53.507  24.485  34.329  1.00  0.00     0.057 A 
ATOM     90  C   UNL A   1      54.185  23.268  34.180  1.00  0.00     0.134 A 
ATOM     91  C   UNL A   1      54.109  25.460  35.137  1.00  0.00     0.134 A 
ATOM     92  F   UNL A   1      53.666  22.286  33.427  1.00  0.00    -0.206 F 
ATOM     93  C   UNL A   1      55.413  23.032  34.801  1.00  0.00     0.040 A 
ATOM     94  C   UNL A   1      55.353  25.249  35.736  1.00  0.00     0.040 A 
ATOM     95  F   UNL A   1      53.524  26.655  35.310  1.00  0.00    -0.206 F 
ATOM     96  C   UNL A   1      56.006  24.029  35.572  1.00  0.00     0.006 A 
ENDBRANCH  72  89
ENDBRANCH  46  47
ENDBRANCH  39  41
ENDBRANCH  38  39
ENDBRANCH  37  38
ENDBRANCH  36  37
ENDBRANCH  35  36
ENDBRANCH  34  35
ENDBRANCH  33  34
ENDBRANCH  32  33
ENDBRANCH   1  32
TORSDOF 24
ENDMDL
MODEL 3
REMARK VINA RESULT:      -9.7      3.666      8.262
REMARK SMILES C=C(C)COc1ccc2nc(C)n(-c3cccc(C(=O)OCCOCCOCCOCCOC(=O)c4ccc(-c5c6nc(c(-c7c(F)cccc7F)c7ccc([nH]7)c(-c7c(F)cccc7F)c7nc(c(-c8c(F)cccc8F)c8ccc5[nH]8)C=C7)C=C6)cc4)c3)c(=O)c2c1
REMARK SMILES IDX 26 1 25 2 24 3 23 4 22 5 21 6 19 7 20 8 18 9 14 10 15 11
REMARK SMILES IDX 90 12 16 13 17 14 13 15 6 16 7 17 94 18 8 19 93 20 9 21
REMARK SMILES IDX 91 22 10 23 92 24 11 25 12 26 5 27 4 28 2 29 1 30 3 31 27 32
REMARK SMILES IDX 28 33 29 34 30 35 31 36 32 37 33 38 34 39 35 40 36 41 37 42
REMARK SMILES IDX 89 43 38 44 88 45 39 46 40 47 41 48 82 49 42 50 87 51 81 52
REMARK SMILES IDX 83 53 43 54 86 55 80 56 79 57 44 59 70 60 53 61 69 62 54 63
REMARK SMILES IDX 57 64 68 65 84 66 55 67 56 68 67 70 85 71 58 72 45 73 46 74
REMARK SMILES IDX 51 75 47 76 48 77 50 78 52 79 49 80 71 81 72 82 77 83 73 84
REMARK SMILES IDX 74 85 76 86 78 87 75 88 59 89 60 90 65 91 61 92 62 93 64 94
REMARK SMILES IDX 66 95 63 96
REMARK H PARENT 83 58 57 69
REMARK Flexibility Score: inf
ROOT
ATOM      1  C   UNL A   1      46.694  25.820  26.038  1.00  0.00     0.188 C 
ENDROOT
BRANCH   1   2
ATOM      2  C   UNL A   1      46.491  24.528  25.223  1.00  0.00     0.188 C 
BRANCH   2   3
ATOM      3  O   UNL A   1      46.617  23.346  26.001  1.00  0.00    -0.376 OA
BRANCH   3   4
ATOM      4  C   UNL A   1      45.755  22.260  25.704  1.00  0.00     0.202 C 
BRANCH   4   5
ATOM      5  C   UNL A   1      46.197  21.272  24.614  1.00  0.00     0.261 C 
BRANCH   5   6
ATOM      6  O   UNL A   1      45.175  20.400  24.117  1.00  0.00    -0.460 OA
BRANCH   6   7
ATOM      7  C   UNL A   1      45.143  19.132  24.587  1.00  0.00     0.338 C 
ATOM      8  O   UNL A   1      46.020  18.295  24.481  1.00  0.00    -0.246 OA
BRANCH   7   9
ATOM      9  C   UNL A   1      43.956  19.020  25.475  1.00  0.00     0.062 A 
ATOM     10  C   UNL A   1      41.845  19.909  26.315  1.00  0.00     0.051 A 
ATOM     11  C   UNL A   1      41.878  18.950  27.339  1.00  0.00     0.027 A 
ATOM     12  C   UNL A   1      42.894  19.927  25.381  1.00  0.00     0.042 A 
ATOM     13  C   UNL A   1      42.939  18.041  27.436  1.00  0.00     0.003 A 
ATOM     14  C   UNL A   1      43.975  18.072  26.502  1.00  0.00     0.016 A 
BRANCH  10  15
ATOM     15  N   UNL A   1      40.755  20.834  26.188  1.00  0.00    -0.264 N 
ATOM     16  C   UNL A   1      36.114  21.754  25.091  1.00  0.00     0.120 A 
ATOM     17  C   UNL A   1      36.288  23.036  25.607  1.00  0.00     0.049 A 
ATOM     18  C   UNL A   1      37.163  20.841  25.118  1.00  0.00     0.062 A 
ATOM     19  C   UNL A   1      37.535  23.435  26.084  1.00  0.00     0.033 A 
ATOM     20  C   UNL A   1      38.408  21.251  25.615  1.00  0.00     0.070 A 
ATOM     21  C   UNL A   1      38.605  22.543  26.089  1.00  0.00     0.078 A 
ATOM     22  C   UNL A   1      39.545  20.321  25.684  1.00  0.00     0.266 A 
ATOM     23  N   UNL A   1      39.840  22.988  26.552  1.00  0.00    -0.234 NA
ATOM     24  O   UNL A   1      39.346  19.155  25.341  1.00  0.00    -0.268 OA
ATOM     25  C   UNL A   1      40.844  22.165  26.568  1.00  0.00     0.113 A 
ATOM     26  C   UNL A   1      42.163  22.789  26.978  1.00  0.00     0.088 C 
BRANCH  16  27
ATOM     27  O   UNL A   1      34.889  21.344  24.637  1.00  0.00    -0.489 OA
BRANCH  27  28
ATOM     28  C   UNL A   1      34.065  22.450  24.228  1.00  0.00     0.260 C 
BRANCH  28  29
ATOM     29  C   UNL A   1      32.817  22.578  25.076  1.00  0.00    -0.043 C 
ATOM     30  C   UNL A   1      31.901  21.596  25.159  1.00  0.00     0.011 C 
ATOM     31  C   UNL A   1      32.695  23.843  25.875  1.00  0.00     0.042 C 
ENDBRANCH  28  29
ENDBRANCH  27  28
ENDBRANCH  16  27
ENDBRANCH  10  15
ENDBRANCH   7   9
ENDBRANCH   6   7
ENDBRANCH   5   6
ENDBRANCH   4   5
ENDBRANCH   3   4
ENDBRANCH   2   3
ENDBRANCH   1   2
BRANCH   1  32
ATOM     32  O   UNL A   1      47.931  26.500  25.893  1.00  0.00    -0.377 OA
BRANCH  32  33
ATOM     33  C   UNL A   1      48.546  27.091  27.037  1.00  0.00     0.188 C 
BRANCH  33  34
ATOM     34  C   UNL A   1      49.705  26.410  27.808  1.00  0.00     0.188 C 
BRANCH  34  35
ATOM     35  O   UNL A   1      49.306  25.642  28.932  1.00  0.00    -0.376 OA
BRANCH  35  36
ATOM     36  C   UNL A   1      49.078  26.335  30.146  1.00  0.00     0.202 C 
BRANCH  36  37
ATOM     37  C   UNL A   1      50.341  26.742  30.915  1.00  0.00     0.261 C 
BRANCH  37  38
ATOM     38  O   UNL A   1      50.379  28.106  31.360  1.00  0.00    -0.460 OA
BRANCH  38  39
ATOM     39  C   UNL A   1      50.062  28.346  32.658  1.00  0.00     0.338 C 
ATOM     40  O   UNL A   1      50.790  28.281  33.616  1.00  0.00    -0.246 OA
BRANCH  39  41
ATOM     41  C   UNL A   1      48.688  28.906  32.665  1.00  0.00     0.060 A 
ATOM     42  C   UNL A   1      48.391  30.056  31.930  1.00  0.00     0.016 A 
ATOM     43  C   UNL A   1      47.704  28.294  33.453  1.00  0.00     0.016 A 
ATOM     44  C   UNL A   1      47.095  30.575  31.959  1.00  0.00     0.010 A 
ATOM     45  C   UNL A   1      46.408  28.817  33.483  1.00  0.00     0.010 A 
ATOM     46  C   UNL A   1      46.088  29.944  32.712  1.00  0.00    -0.014 A 
BRANCH  46  47
ATOM     47  C   UNL A   1      44.674  30.352  32.517  1.00  0.00     0.031 A 
ATOM     48  C   UNL A   1      44.005  31.389  33.366  1.00  0.00     0.074 A 
ATOM     49  C   UNL A   1      43.988  29.747  31.529  1.00  0.00     0.049 A 
ATOM     50  N   UNL A   1      42.819  31.926  33.220  1.00  0.00    -0.248 NA
ATOM     51  C   UNL A   1      44.751  31.876  34.533  1.00  0.00     0.031 C 
ATOM     52  C   UNL A   1      44.516  28.683  30.672  1.00  0.00     0.029 A 
ATOM     53  N   UNL A   1      42.712  29.943  31.071  1.00  0.00    -0.354 N 
ATOM     54  C   UNL A   1      42.681  32.836  34.260  1.00  0.00     0.074 A 
ATOM     55  C   UNL A   1      43.885  32.735  35.061  1.00  0.00     0.031 C 
ATOM     56  C   UNL A   1      43.586  28.348  29.767  1.00  0.00     0.029 A 
ATOM     57  C   UNL A   1      42.392  29.153  29.994  1.00  0.00     0.049 A 
ATOM     58  H   UNL A   1      42.085  30.587  31.473  1.00  0.00     0.167 HD
ATOM     59  C   UNL A   1      41.653  33.687  34.509  1.00  0.00     0.037 A 
ATOM     60  C   UNL A   1      41.265  29.092  29.262  1.00  0.00     0.037 A 
ATOM     61  C   UNL A   1      40.440  33.753  33.727  1.00  0.00     0.049 A 
ATOM     62  C   UNL A   1      40.128  30.018  29.584  1.00  0.00     0.074 A 
ATOM     63  C   UNL A   1      39.359  34.606  33.879  1.00  0.00     0.029 A 
ATOM     64  N   UNL A   1      40.135  32.917  32.662  1.00  0.00    -0.354 N 
ATOM     65  N   UNL A   1      40.053  30.949  30.504  1.00  0.00    -0.248 NA
ATOM     66  C   UNL A   1      38.925  29.894  28.752  1.00  0.00     0.031 C 
ATOM     67  C   UNL A   1      38.379  34.250  32.943  1.00  0.00     0.029 A 
ATOM     68  C   UNL A   1      38.873  33.216  32.165  1.00  0.00     0.049 A 
ATOM     69  H   UNL A   1      40.727  32.214  32.309  1.00  0.00     0.167 HD
ATOM     70  C   UNL A   1      38.808  31.543  30.340  1.00  0.00     0.074 A 
ATOM     71  C   UNL A   1      38.173  30.879  29.220  1.00  0.00     0.031 C 
ATOM     72  C   UNL A   1      38.244  32.550  31.053  1.00  0.00     0.037 A 
BRANCH  59  73
ATOM     73  C   UNL A   1      41.794  34.619  35.679  1.00  0.00     0.057 A 
ATOM     74  C   UNL A   1      42.403  35.873  35.536  1.00  0.00     0.134 A 
ATOM     75  C   UNL A   1      41.367  34.256  36.965  1.00  0.00     0.134 A 
ATOM     76  F   UNL A   1      42.851  36.281  34.339  1.00  0.00    -0.206 F 
ATOM     77  C   UNL A   1      42.578  36.730  36.624  1.00  0.00     0.040 A 
ATOM     78  C   UNL A   1      41.511  35.116  38.055  1.00  0.00     0.040 A 
ATOM     79  F   UNL A   1      40.777  33.069  37.175  1.00  0.00    -0.206 F 
ATOM     80  C   UNL A   1      42.123  36.356  37.887  1.00  0.00     0.006 A 
ENDBRANCH  59  73
BRANCH  60  81
ATOM     81  C   UNL A   1      41.169  28.143  28.125  1.00  0.00     0.057 A 
ATOM     82  C   UNL A   1      40.472  26.934  28.239  1.00  0.00     0.134 A 
ATOM     83  C   UNL A   1      41.757  28.436  26.889  1.00  0.00     0.134 A 
ATOM     84  F   UNL A   1      39.899  26.591  29.402  1.00  0.00    -0.206 F 
ATOM     85  C   UNL A   1      40.360  26.053  27.164  1.00  0.00     0.040 A 
ATOM     86  C   UNL A   1      41.626  27.578  25.797  1.00  0.00     0.040 A 
ATOM     87  F   UNL A   1      42.427  29.585  26.716  1.00  0.00    -0.206 F 
ATOM     88  C   UNL A   1      40.927  26.380  25.934  1.00  0.00     0.006 A 
ENDBRANCH  60  81
BRANCH  72  89
ATOM     89  C   UNL A   1      36.887  33.019  30.608  1.00  0.00     0.057 A 
ATOM     90  C   UNL A   1      35.733  32.598  31.281  1.00  0.00     0.134 A 
ATOM     91  C   UNL A   1      36.716  33.889  29.523  1.00  0.00     0.134 A 
ATOM     92  F   UNL A   1      35.819  31.760  32.325  1.00  0.00    -0.206 F 
ATOM     93  C   UNL A   1      34.461  33.031  30.898  1.00  0.00     0.040 A 
ATOM     94  C   UNL A   1      35.453  34.356  29.150  1.00  0.00     0.040 A 
ATOM     95  F   UNL A   1      37.779  34.345  28.843  1.00  0.00    -0.206 F 
ATOM     96  C   UNL A   1      34.321  33.922  29.836  1.00  0.00     0.006 A 
ENDBRANCH  72  89
ENDBRANCH  46  47
ENDBRANCH  39  41
ENDBRANCH  38  39
ENDBRANCH  37  38
ENDBRANCH  36  37
ENDBRANCH  35  36
ENDBRANCH  34  35
ENDBRANCH  33  34
ENDBRANCH  32  33
ENDBRANCH   1  32
TORSDOF 24
ENDMDL
