MODEL 1
REMARK VINA RESULT:     -11.9      0.000      0.000
REMARK SMILES Cc1cccc(O[C@H](C)C(=O)NNC(=O)[C@H]2[C@@H]3CC[C@@H](C3)[C@@H]2C(=O)OCCOCCOCCOCCOC(=O)c2ccc(-c3c4nc(c(-c5c(F)cccc5F)c5ccc([nH]5)c(-c5c(F)cccc5F)c5nc(c(-c6c(F)cccc6F)c6ccc3[nH]6)C=C5)C=C4)cc2)c1
REMARK SMILES IDX 29 1 28 2 27 3 26 4 25 5 23 6 24 7 22 8 16 9 17 10 18 11
REMARK SMILES IDX 21 12 20 13 19 14 14 15 13 16 15 18 12 19 10 20 11 21 8 23
REMARK SMILES IDX 9 24 7 25 6 26 1 27 2 28 3 29 94 30 4 31 5 32 30 33 31 34
REMARK SMILES IDX 32 35 33 36 34 37 35 38 36 39 37 40 38 41 39 42 40 43 41 44
REMARK SMILES IDX 93 45 42 46 92 47 43 48 44 49 45 50 86 51 46 52 91 53 85 54
REMARK SMILES IDX 87 55 47 56 90 57 84 58 83 59 48 61 74 62 57 63 73 64 58 65
REMARK SMILES IDX 61 66 72 67 88 68 59 69 60 70 71 72 89 73 62 74 49 75 50 76
REMARK SMILES IDX 55 77 51 78 52 79 54 80 56 81 53 82 75 83 76 84 81 85 77 86
REMARK SMILES IDX 78 87 80 88 82 89 79 90 63 91 64 92 69 93 65 94 66 95 68 96
REMARK SMILES IDX 70 97 67 98
REMARK H PARENT 13 17 12 22 87 60 61 71
REMARK Flexibility Score: inf
ROOT
ATOM      1  C   UNL A   1      33.920  33.335  28.091  1.00  0.00     0.188 C 
ENDROOT
BRANCH   1   2
ATOM      2  O   UNL A   1      34.849  31.830  28.231  1.00  0.00    -0.376 OA
BRANCH   2   3
ATOM      3  C   UNL A   1      34.737  30.185  27.561  1.00  0.00     0.202 C 
BRANCH   3   4
ATOM      4  C   UNL A   1      33.578  29.446  26.234  1.00  0.00     0.261 C 
BRANCH   4   5
ATOM      5  O   UNL A   1      32.733  27.868  26.271  1.00  0.00    -0.463 OA
BRANCH   5   6
ATOM      6  C   UNL A   1      31.449  27.234  26.231  1.00  0.00     0.310 C 
ATOM      7  O   UNL A   1      30.692  26.973  27.171  1.00  0.00    -0.252 OA
BRANCH   6   8
ATOM      8  C   UNL A   1      30.691  27.005  24.881  1.00  0.00     0.115 C 
ATOM      9  C   UNL A   1      31.639  26.465  23.730  1.00  0.00     0.098 C 
ATOM     10  C   UNL A   1      31.394  27.467  22.574  1.00  0.00     0.003 C 
ATOM     11  C   UNL A   1      32.060  28.811  22.933  1.00  0.00     0.005 C 
ATOM     12  C   UNL A   1      29.922  27.822  22.750  1.00  0.00     0.009 C 
ATOM     13  C   UNL A   1      30.094  28.272  24.210  1.00  0.00     0.004 C 
ATOM     14  C   UNL A   1      31.116  29.387  23.996  1.00  0.00     0.005 C 
BRANCH   9  15
ATOM     15  C   UNL A   1      31.637  25.007  23.221  1.00  0.00     0.242 C 
ATOM     16  N   UNL A   1      31.239  23.892  23.902  1.00  0.00    -0.267 N 
ATOM     17  H   UNL A   1      31.313  23.042  23.410  1.00  0.00     0.191 HD
ATOM     18  O   UNL A   1      31.987  24.802  22.046  1.00  0.00    -0.273 OA
BRANCH  16  19
ATOM     19  N   UNL A   1      30.749  23.798  25.182  1.00  0.00    -0.264 N 
ATOM     20  C   UNL A   1      31.450  23.512  26.315  1.00  0.00     0.279 C 
ATOM     21  O   UNL A   1      30.915  23.886  27.372  1.00  0.00    -0.269 OA
ATOM     22  H   UNL A   1      29.784  23.955  25.293  1.00  0.00     0.191 HD
BRANCH  20  23
ATOM     23  C   UNL A   1      32.755  22.664  26.394  1.00  0.00     0.260 C 
ATOM     24  C   UNL A   1      33.048  22.244  27.841  1.00  0.00     0.064 C 
BRANCH  23  25
ATOM     25  O   UNL A   1      33.262  21.803  25.394  1.00  0.00    -0.481 OA
BRANCH  25  26
ATOM     26  C   UNL A   1      34.396  21.999  24.677  1.00  0.00     0.120 A 
ATOM     27  C   UNL A   1      37.988  20.798  25.212  1.00  0.00     0.044 C 
ATOM     28  C   UNL A   1      36.790  21.496  24.642  1.00  0.00    -0.047 A 
ATOM     29  C   UNL A   1      36.952  22.418  23.608  1.00  0.00     0.003 A 
ATOM     30  C   UNL A   1      35.504  21.289  25.158  1.00  0.00     0.049 A 
ATOM     31  C   UNL A   1      35.843  23.072  23.073  1.00  0.00     0.004 A 
ATOM     32  C   UNL A   1      34.567  22.851  23.595  1.00  0.00     0.046 A 
ENDBRANCH  25  26
ENDBRANCH  23  25
ENDBRANCH  20  23
ENDBRANCH  16  19
ENDBRANCH   9  15
ENDBRANCH   6   8
ENDBRANCH   5   6
ENDBRANCH   4   5
ENDBRANCH   3   4
ENDBRANCH   2   3
ENDBRANCH   1   2
BRANCH   1  33
ATOM     33  C   UNL A   1      34.162  34.983  28.455  1.00  0.00     0.188 C 
BRANCH  33  34
ATOM     34  O   UNL A   1      33.834  35.851  29.566  1.00  0.00    -0.377 OA
BRANCH  34  35
ATOM     35  C   UNL A   1      33.239  35.540  30.823  1.00  0.00     0.188 C 
BRANCH  35  36
ATOM     36  C   UNL A   1      33.850  34.415  31.600  1.00  0.00     0.188 C 
BRANCH  36  37
ATOM     37  O   UNL A   1      35.078  34.913  32.087  1.00  0.00    -0.376 OA
BRANCH  37  38
ATOM     38  C   UNL A   1      36.151  34.006  32.000  1.00  0.00     0.202 C 
BRANCH  38  39
ATOM     39  C   UNL A   1      35.724  32.625  32.482  1.00  0.00     0.261 C 
BRANCH  39  40
ATOM     40  O   UNL A   1      36.900  31.902  32.917  1.00  0.00    -0.460 OA
BRANCH  40  41
ATOM     41  C   UNL A   1      37.149  30.735  32.237  1.00  0.00     0.338 C 
ATOM     42  O   UNL A   1      36.479  29.730  32.307  1.00  0.00    -0.246 OA
BRANCH  41  43
ATOM     43  C   UNL A   1      38.534  30.777  31.666  1.00  0.00     0.060 A 
ATOM     44  C   UNL A   1      39.514  29.887  32.082  1.00  0.00     0.016 A 
ATOM     45  C   UNL A   1      38.971  31.848  30.942  1.00  0.00     0.016 A 
ATOM     46  C   UNL A   1      40.878  30.307  32.169  1.00  0.00     0.010 A 
ATOM     47  C   UNL A   1      40.341  32.179  31.001  1.00  0.00     0.010 A 
ATOM     48  C   UNL A   1      41.301  31.629  31.942  1.00  0.00    -0.014 A 
BRANCH  48  49
ATOM     49  C   UNL A   1      42.669  32.451  32.884  1.00  0.00     0.031 A 
ATOM     50  C   UNL A   1      42.668  33.187  34.719  1.00  0.00     0.074 A 
ATOM     51  C   UNL A   1      43.672  32.665  31.960  1.00  0.00     0.049 A 
ATOM     52  N   UNL A   1      42.460  34.523  34.947  1.00  0.00    -0.248 NA
ATOM     53  C   UNL A   1      42.206  32.723  36.162  1.00  0.00     0.031 C 
ATOM     54  C   UNL A   1      45.080  32.833  32.150  1.00  0.00     0.029 A 
ATOM     55  N   UNL A   1      43.573  33.082  30.626  1.00  0.00    -0.354 N 
ATOM     56  C   UNL A   1      42.066  35.001  36.169  1.00  0.00     0.074 A 
ATOM     57  C   UNL A   1      41.754  33.799  36.848  1.00  0.00     0.031 C 
ATOM     58  C   UNL A   1      45.583  33.761  31.316  1.00  0.00     0.029 A 
ATOM     59  C   UNL A   1      44.513  34.098  30.425  1.00  0.00     0.049 A 
ATOM     60  H   UNL A   1      42.952  32.724  29.950  1.00  0.00     0.167 HD
ATOM     61  C   UNL A   1      42.072  36.331  36.540  1.00  0.00     0.037 A 
ATOM     62  C   UNL A   1      44.587  35.032  29.462  1.00  0.00     0.037 A 
ATOM     63  C   UNL A   1      42.899  37.214  35.696  1.00  0.00     0.049 A 
ATOM     64  C   UNL A   1      44.534  36.424  30.046  1.00  0.00     0.074 A 
ATOM     65  C   UNL A   1      44.213  37.620  35.885  1.00  0.00     0.029 A 
ATOM     66  N   UNL A   1      42.566  37.671  34.425  1.00  0.00    -0.354 N 
ATOM     67  N   UNL A   1      44.178  36.749  31.269  1.00  0.00    -0.248 NA
ATOM     68  C   UNL A   1      44.942  37.578  29.254  1.00  0.00     0.031 C 
ATOM     69  C   UNL A   1      44.743  38.075  34.662  1.00  0.00     0.029 A 
ATOM     70  C   UNL A   1      43.704  38.135  33.753  1.00  0.00     0.049 A 
ATOM     71  H   UNL A   1      41.656  37.669  34.049  1.00  0.00     0.167 HD
ATOM     72  C   UNL A   1      44.174  38.135  31.388  1.00  0.00     0.074 A 
ATOM     73  C   UNL A   1      44.753  38.576  30.130  1.00  0.00     0.031 C 
ATOM     74  C   UNL A   1      43.689  38.838  32.472  1.00  0.00     0.037 A 
BRANCH  61  75
ATOM     75  C   UNL A   1      41.680  36.716  37.965  1.00  0.00     0.057 A 
ATOM     76  C   UNL A   1      40.345  36.920  38.372  1.00  0.00     0.134 A 
ATOM     77  C   UNL A   1      42.632  36.960  38.970  1.00  0.00     0.134 A 
ATOM     78  F   UNL A   1      39.302  36.570  37.613  1.00  0.00    -0.206 F 
ATOM     79  C   UNL A   1      39.998  37.501  39.600  1.00  0.00     0.040 A 
ATOM     80  C   UNL A   1      42.302  37.552  40.203  1.00  0.00     0.040 A 
ATOM     81  F   UNL A   1      43.923  36.644  38.779  1.00  0.00    -0.206 F 
ATOM     82  C   UNL A   1      40.982  37.865  40.504  1.00  0.00     0.006 A 
ENDBRANCH  61  75
BRANCH  62  83
ATOM     83  C   UNL A   1      44.073  34.473  28.182  1.00  0.00     0.057 A 
ATOM     84  C   UNL A   1      42.861  35.073  27.758  1.00  0.00     0.134 A 
ATOM     85  C   UNL A   1      44.942  34.027  27.183  1.00  0.00     0.134 A 
ATOM     86  F   UNL A   1      41.986  35.526  28.673  1.00  0.00    -0.206 F 
ATOM     87  C   UNL A   1      42.645  35.439  26.428  1.00  0.00     0.040 A 
ATOM     88  C   UNL A   1      44.713  34.358  25.838  1.00  0.00     0.040 A 
ATOM     89  F   UNL A   1      46.110  33.457  27.506  1.00  0.00    -0.206 F 
ATOM     90  C   UNL A   1      43.599  35.120  25.469  1.00  0.00     0.006 A 
ENDBRANCH  62  83
BRANCH  74  91
ATOM     91  C   UNL A   1      43.373  40.346  32.560  1.00  0.00     0.057 A 
ATOM     92  C   UNL A   1      43.934  41.266  33.458  1.00  0.00     0.134 A 
ATOM     93  C   UNL A   1      42.492  40.955  31.619  1.00  0.00     0.134 A 
ATOM     94  F   UNL A   1      44.888  40.929  34.329  1.00  0.00    -0.206 F 
ATOM     95  C   UNL A   1      43.591  42.631  33.475  1.00  0.00     0.040 A 
ATOM     96  C   UNL A   1      42.176  42.318  31.600  1.00  0.00     0.040 A 
ATOM     97  F   UNL A   1      41.910  40.277  30.623  1.00  0.00    -0.206 F 
ATOM     98  C   UNL A   1      42.714  43.164  32.543  1.00  0.00     0.006 A 
ENDBRANCH  74  91
ENDBRANCH  48  49
ENDBRANCH  41  43
ENDBRANCH  40  41
ENDBRANCH  39  40
ENDBRANCH  38  39
ENDBRANCH  37  38
ENDBRANCH  36  37
ENDBRANCH  35  36
ENDBRANCH  34  35
ENDBRANCH  33  34
ENDBRANCH   1  33
TORSDOF 25
ENDMDL
MODEL 2
REMARK VINA RESULT:     -11.7      1.638      2.235
REMARK SMILES Cc1cccc(O[C@H](C)C(=O)NNC(=O)[C@H]2[C@@H]3CC[C@@H](C3)[C@@H]2C(=O)OCCOCCOCCOCCOC(=O)c2ccc(-c3c4nc(c(-c5c(F)cccc5F)c5ccc([nH]5)c(-c5c(F)cccc5F)c5nc(c(-c6c(F)cccc6F)c6ccc3[nH]6)C=C5)C=C4)cc2)c1
REMARK SMILES IDX 29 1 28 2 27 3 26 4 25 5 23 6 24 7 22 8 16 9 17 10 18 11
REMARK SMILES IDX 21 12 20 13 19 14 14 15 13 16 15 18 12 19 10 20 11 21 8 23
REMARK SMILES IDX 9 24 7 25 6 26 1 27 2 28 3 29 94 30 4 31 5 32 30 33 31 34
REMARK SMILES IDX 32 35 33 36 34 37 35 38 36 39 37 40 38 41 39 42 40 43 41 44
REMARK SMILES IDX 93 45 42 46 92 47 43 48 44 49 45 50 86 51 46 52 91 53 85 54
REMARK SMILES IDX 87 55 47 56 90 57 84 58 83 59 48 61 74 62 57 63 73 64 58 65
REMARK SMILES IDX 61 66 72 67 88 68 59 69 60 70 71 72 89 73 62 74 49 75 50 76
REMARK SMILES IDX 55 77 51 78 52 79 54 80 56 81 53 82 75 83 76 84 81 85 77 86
REMARK SMILES IDX 78 87 80 88 82 89 79 90 63 91 64 92 69 93 65 94 66 95 68 96
REMARK SMILES IDX 70 97 67 98
REMARK H PARENT 13 17 12 22 87 60 61 71
REMARK Flexibility Score: inf
ROOT
ATOM      1  C   UNL A   1      34.340  33.015  28.720  1.00  0.00     0.188 C 
ENDROOT
BRANCH   1   2
ATOM      2  O   UNL A   1      34.815  31.306  28.771  1.00  0.00    -0.376 OA
BRANCH   2   3
ATOM      3  C   UNL A   1      34.867  29.953  27.615  1.00  0.00     0.202 C 
BRANCH   3   4
ATOM      4  C   UNL A   1      33.545  29.277  26.413  1.00  0.00     0.261 C 
BRANCH   4   5
ATOM      5  O   UNL A   1      33.148  27.566  26.069  1.00  0.00    -0.463 OA
BRANCH   5   6
ATOM      6  C   UNL A   1      32.075  26.634  25.885  1.00  0.00     0.310 C 
ATOM      7  O   UNL A   1      31.457  25.996  26.743  1.00  0.00    -0.252 OA
BRANCH   6   8
ATOM      8  C   UNL A   1      31.344  26.488  24.509  1.00  0.00     0.115 C 
ATOM      9  C   UNL A   1      32.339  26.566  23.276  1.00  0.00     0.098 C 
ATOM     10  C   UNL A   1      31.714  27.671  22.389  1.00  0.00     0.003 C 
ATOM     11  C   UNL A   1      31.939  29.038  23.067  1.00  0.00     0.005 C 
ATOM     12  C   UNL A   1      30.220  27.478  22.624  1.00  0.00     0.009 C 
ATOM     13  C   UNL A   1      30.333  27.611  24.151  1.00  0.00     0.004 C 
ATOM     14  C   UNL A   1      30.931  29.015  24.224  1.00  0.00     0.005 C 
BRANCH   9  15
ATOM     15  C   UNL A   1      32.768  25.344  22.434  1.00  0.00     0.242 C 
ATOM     16  N   UNL A   1      32.273  24.073  22.505  1.00  0.00    -0.267 N 
ATOM     17  H   UNL A   1      32.677  23.423  21.885  1.00  0.00     0.191 HD
ATOM     18  O   UNL A   1      33.626  25.519  21.552  1.00  0.00    -0.273 OA
BRANCH  16  19
ATOM     19  N   UNL A   1      31.287  23.581  23.325  1.00  0.00    -0.264 N 
ATOM     20  C   UNL A   1      31.445  22.990  24.543  1.00  0.00     0.279 C 
ATOM     21  O   UNL A   1      30.439  23.010  25.271  1.00  0.00    -0.269 OA
ATOM     22  H   UNL A   1      30.363  23.664  22.996  1.00  0.00     0.191 HD
BRANCH  20  23
ATOM     23  C   UNL A   1      32.702  22.203  25.022  1.00  0.00     0.260 C 
ATOM     24  C   UNL A   1      33.872  23.156  25.301  1.00  0.00     0.064 C 
BRANCH  23  25
ATOM     25  O   UNL A   1      32.709  20.995  25.756  1.00  0.00    -0.481 OA
BRANCH  25  26
ATOM     26  C   UNL A   1      32.778  19.747  25.232  1.00  0.00     0.120 A 
ATOM     27  C   UNL A   1      32.259  18.446  21.673  1.00  0.00     0.044 C 
ATOM     28  C   UNL A   1      32.506  18.490  23.151  1.00  0.00    -0.047 A 
ATOM     29  C   UNL A   1      32.569  17.302  23.878  1.00  0.00     0.003 A 
ATOM     30  C   UNL A   1      32.625  19.704  23.840  1.00  0.00     0.049 A 
ATOM     31  C   UNL A   1      32.798  17.335  25.253  1.00  0.00     0.004 A 
ATOM     32  C   UNL A   1      32.919  18.553  25.925  1.00  0.00     0.046 A 
ENDBRANCH  25  26
ENDBRANCH  23  25
ENDBRANCH  20  23
ENDBRANCH  16  19
ENDBRANCH   9  15
ENDBRANCH   6   8
ENDBRANCH   5   6
ENDBRANCH   4   5
ENDBRANCH   3   4
ENDBRANCH   2   3
ENDBRANCH   1   2
BRANCH   1  33
ATOM     33  C   UNL A   1      34.807  34.458  29.499  1.00  0.00     0.188 C 
BRANCH  33  34
ATOM     34  O   UNL A   1      34.412  35.150  30.708  1.00  0.00    -0.377 OA
BRANCH  34  35
ATOM     35  C   UNL A   1      33.664  34.679  31.826  1.00  0.00     0.188 C 
BRANCH  35  36
ATOM     36  C   UNL A   1      34.055  33.346  32.388  1.00  0.00     0.188 C 
BRANCH  36  37
ATOM     37  O   UNL A   1      34.940  33.627  33.451  1.00  0.00    -0.376 OA
BRANCH  37  38
ATOM     38  C   UNL A   1      36.267  33.211  33.231  1.00  0.00     0.202 C 
BRANCH  38  39
ATOM     39  C   UNL A   1      36.302  32.014  32.290  1.00  0.00     0.261 C 
BRANCH  39  40
ATOM     40  O   UNL A   1      37.684  31.685  32.009  1.00  0.00    -0.460 OA
BRANCH  40  41
ATOM     41  C   UNL A   1      37.904  31.097  30.788  1.00  0.00     0.338 C 
ATOM     42  O   UNL A   1      37.368  30.087  30.393  1.00  0.00    -0.246 OA
BRANCH  41  43
ATOM     43  C   UNL A   1      39.130  31.690  30.163  1.00  0.00     0.060 A 
ATOM     44  C   UNL A   1      40.298  30.953  30.025  1.00  0.00     0.016 A 
ATOM     45  C   UNL A   1      39.249  33.036  29.971  1.00  0.00     0.016 A 
ATOM     46  C   UNL A   1      41.572  31.591  30.156  1.00  0.00     0.010 A 
ATOM     47  C   UNL A   1      40.536  33.609  30.037  1.00  0.00     0.010 A 
ATOM     48  C   UNL A   1      41.732  32.941  30.519  1.00  0.00    -0.014 A 
BRANCH  48  49
ATOM     49  C   UNL A   1      43.110  33.565  31.590  1.00  0.00     0.031 A 
ATOM     50  C   UNL A   1      43.154  33.849  33.546  1.00  0.00     0.074 A 
ATOM     51  C   UNL A   1      44.074  34.024  30.716  1.00  0.00     0.049 A 
ATOM     52  N   UNL A   1      42.918  35.085  34.089  1.00  0.00    -0.248 NA
ATOM     53  C   UNL A   1      42.755  33.042  34.852  1.00  0.00     0.031 C 
ATOM     54  C   UNL A   1      45.483  34.190  30.900  1.00  0.00     0.029 A 
ATOM     55  N   UNL A   1      43.917  34.738  29.521  1.00  0.00    -0.354 N 
ATOM     56  C   UNL A   1      42.555  35.249  35.399  1.00  0.00     0.074 A 
ATOM     57  C   UNL A   1      42.299  33.911  35.784  1.00  0.00     0.031 C 
ATOM     58  C   UNL A   1      45.931  35.305  30.295  1.00  0.00     0.029 A 
ATOM     59  C   UNL A   1      44.822  35.805  29.539  1.00  0.00     0.049 A 
ATOM     60  H   UNL A   1      43.283  34.529  28.797  1.00  0.00     0.167 HD
ATOM     61  C   UNL A   1      42.539  36.454  36.074  1.00  0.00     0.037 A 
ATOM     62  C   UNL A   1      44.837  36.941  28.822  1.00  0.00     0.037 A 
ATOM     63  C   UNL A   1      43.312  37.539  35.439  1.00  0.00     0.049 A 
ATOM     64  C   UNL A   1      44.767  38.154  29.719  1.00  0.00     0.074 A 
ATOM     65  C   UNL A   1      44.620  37.933  35.682  1.00  0.00     0.029 A 
ATOM     66  N   UNL A   1      42.922  38.270  34.321  1.00  0.00    -0.354 N 
ATOM     67  N   UNL A   1      44.446  38.171  30.993  1.00  0.00    -0.248 NA
ATOM     68  C   UNL A   1      45.117  39.475  29.211  1.00  0.00     0.031 C 
ATOM     69  C   UNL A   1      45.094  38.681  34.587  1.00  0.00     0.029 A 
ATOM     70  C   UNL A   1      44.023  38.917  33.747  1.00  0.00     0.049 A 
ATOM     71  H   UNL A   1      42.000  38.325  33.981  1.00  0.00     0.167 HD
ATOM     72  C   UNL A   1      44.409  39.489  31.436  1.00  0.00     0.074 A 
ATOM     73  C   UNL A   1      44.931  40.233  30.303  1.00  0.00     0.031 C 
ATOM     74  C   UNL A   1      43.944  39.901  32.669  1.00  0.00     0.037 A 
BRANCH  61  75
ATOM     75  C   UNL A   1      42.186  36.480  37.560  1.00  0.00     0.057 A 
ATOM     76  C   UNL A   1      40.876  36.681  38.041  1.00  0.00     0.134 A 
ATOM     77  C   UNL A   1      43.160  36.368  38.568  1.00  0.00     0.134 A 
ATOM     78  F   UNL A   1      39.803  36.633  37.245  1.00  0.00    -0.206 F 
ATOM     79  C   UNL A   1      40.586  36.943  39.388  1.00  0.00     0.040 A 
ATOM     80  C   UNL A   1      42.886  36.638  39.921  1.00  0.00     0.040 A 
ATOM     81  F   UNL A   1      44.416  36.006  38.266  1.00  0.00    -0.206 F 
ATOM     82  C   UNL A   1      41.601  36.970  40.329  1.00  0.00     0.006 A 
ENDBRANCH  61  75
BRANCH  62  83
ATOM     83  C   UNL A   1      44.294  36.681  27.461  1.00  0.00     0.057 A 
ATOM     84  C   UNL A   1      45.156  35.894  26.658  1.00  0.00     0.134 A 
ATOM     85  C   UNL A   1      42.922  36.543  27.240  1.00  0.00     0.134 A 
ATOM     86  F   UNL A   1      46.487  35.980  26.827  1.00  0.00    -0.206 F 
ATOM     87  C   UNL A   1      44.677  34.849  25.866  1.00  0.00     0.040 A 
ATOM     88  C   UNL A   1      42.431  35.517  26.415  1.00  0.00     0.040 A 
ATOM     89  F   UNL A   1      42.044  37.248  27.965  1.00  0.00    -0.206 F 
ATOM     90  C   UNL A   1      43.307  34.630  25.781  1.00  0.00     0.006 A 
ENDBRANCH  62  83
BRANCH  74  91
ATOM     91  C   UNL A   1      43.591  41.334  33.119  1.00  0.00     0.057 A 
ATOM     92  C   UNL A   1      44.315  42.128  34.020  1.00  0.00     0.134 A 
ATOM     93  C   UNL A   1      42.477  42.016  32.547  1.00  0.00     0.134 A 
ATOM     94  F   UNL A   1      45.469  41.731  34.560  1.00  0.00    -0.206 F 
ATOM     95  C   UNL A   1      43.925  43.432  34.381  1.00  0.00     0.040 A 
ATOM     96  C   UNL A   1      42.104  43.326  32.867  1.00  0.00     0.040 A 
ATOM     97  F   UNL A   1      41.697  41.474  31.604  1.00  0.00    -0.206 F 
ATOM     98  C   UNL A   1      42.821  44.038  33.802  1.00  0.00     0.006 A 
ENDBRANCH  74  91
ENDBRANCH  48  49
ENDBRANCH  41  43
ENDBRANCH  40  41
ENDBRANCH  39  40
ENDBRANCH  38  39
ENDBRANCH  37  38
ENDBRANCH  36  37
ENDBRANCH  35  36
ENDBRANCH  34  35
ENDBRANCH  33  34
ENDBRANCH   1  33
TORSDOF 25
ENDMDL
MODEL 3
REMARK VINA RESULT:     -11.6      7.422     12.508
REMARK SMILES Cc1cccc(O[C@H](C)C(=O)NNC(=O)[C@H]2[C@@H]3CC[C@@H](C3)[C@@H]2C(=O)OCCOCCOCCOCCOC(=O)c2ccc(-c3c4nc(c(-c5c(F)cccc5F)c5ccc([nH]5)c(-c5c(F)cccc5F)c5nc(c(-c6c(F)cccc6F)c6ccc3[nH]6)C=C5)C=C4)cc2)c1
REMARK SMILES IDX 29 1 28 2 27 3 26 4 25 5 23 6 24 7 22 8 16 9 17 10 18 11
REMARK SMILES IDX 21 12 20 13 19 14 14 15 13 16 15 18 12 19 10 20 11 21 8 23
REMARK SMILES IDX 9 24 7 25 6 26 1 27 2 28 3 29 94 30 4 31 5 32 30 33 31 34
REMARK SMILES IDX 32 35 33 36 34 37 35 38 36 39 37 40 38 41 39 42 40 43 41 44
REMARK SMILES IDX 93 45 42 46 92 47 43 48 44 49 45 50 86 51 46 52 91 53 85 54
REMARK SMILES IDX 87 55 47 56 90 57 84 58 83 59 48 61 74 62 57 63 73 64 58 65
REMARK SMILES IDX 61 66 72 67 88 68 59 69 60 70 71 72 89 73 62 74 49 75 50 76
REMARK SMILES IDX 55 77 51 78 52 79 54 80 56 81 53 82 75 83 76 84 81 85 77 86
REMARK SMILES IDX 78 87 80 88 82 89 79 90 63 91 64 92 69 93 65 94 66 95 68 96
REMARK SMILES IDX 70 97 67 98
REMARK H PARENT 13 17 12 22 87 60 61 71
REMARK Flexibility Score: inf
ROOT
ATOM      1  C   UNL A   1      40.360  20.267  26.541  1.00  0.00     0.188 C 
ENDROOT
BRANCH   1   2
ATOM      2  O   UNL A   1      39.334  21.596  25.968  1.00  0.00    -0.376 OA
BRANCH   2   3
ATOM      3  C   UNL A   1      37.780  21.742  25.110  1.00  0.00     0.202 C 
BRANCH   3   4
ATOM      4  C   UNL A   1      37.096  23.119  23.977  1.00  0.00     0.261 C 
BRANCH   4   5
ATOM      5  O   UNL A   1      35.385  23.576  23.717  1.00  0.00    -0.463 OA
BRANCH   5   6
ATOM      6  C   UNL A   1      34.182  23.235  23.018  1.00  0.00     0.310 C 
ATOM      7  O   UNL A   1      33.993  23.176  21.800  1.00  0.00    -0.252 OA
BRANCH   6   8
ATOM      8  C   UNL A   1      32.953  22.612  23.761  1.00  0.00     0.115 C 
ATOM      9  C   UNL A   1      32.705  23.263  25.186  1.00  0.00     0.098 C 
ATOM     10  C   UNL A   1      32.662  22.036  26.131  1.00  0.00     0.003 C 
ATOM     11  C   UNL A   1      34.091  21.476  26.280  1.00  0.00     0.005 C 
ATOM     12  C   UNL A   1      32.026  20.964  25.252  1.00  0.00     0.009 C 
ATOM     13  C   UNL A   1      33.069  21.109  24.133  1.00  0.00     0.004 C 
ATOM     14  C   UNL A   1      34.326  20.775  24.935  1.00  0.00     0.005 C 
BRANCH   9  15
ATOM     15  C   UNL A   1      31.560  24.252  25.496  1.00  0.00     0.242 C 
ATOM     16  N   UNL A   1      30.822  24.974  24.601  1.00  0.00    -0.267 N 
ATOM     17  H   UNL A   1      30.132  25.558  24.991  1.00  0.00     0.191 HD
ATOM     18  O   UNL A   1      31.217  24.390  26.683  1.00  0.00    -0.273 OA
BRANCH  16  19
ATOM     19  N   UNL A   1      30.915  24.993  23.231  1.00  0.00    -0.264 N 
ATOM     20  C   UNL A   1      31.392  26.003  22.450  1.00  0.00     0.279 C 
ATOM     21  O   UNL A   1      31.770  25.658  21.319  1.00  0.00    -0.269 OA
ATOM     22  H   UNL A   1      30.601  24.188  22.760  1.00  0.00     0.191 HD
BRANCH  20  23
ATOM     23  C   UNL A   1      31.375  27.520  22.805  1.00  0.00     0.260 C 
ATOM     24  C   UNL A   1      29.936  28.029  22.965  1.00  0.00     0.064 C 
BRANCH  23  25
ATOM     25  O   UNL A   1      32.357  28.225  23.538  1.00  0.00    -0.481 OA
BRANCH  25  26
ATOM     26  C   UNL A   1      32.275  28.572  24.846  1.00  0.00     0.120 A 
ATOM     27  C   UNL A   1      31.386  31.877  26.554  1.00  0.00     0.044 C 
ATOM     28  C   UNL A   1      31.810  30.456  26.336  1.00  0.00    -0.047 A 
ATOM     29  C   UNL A   1      32.275  29.700  27.411  1.00  0.00     0.003 A 
ATOM     30  C   UNL A   1      31.805  29.875  25.062  1.00  0.00     0.049 A 
ATOM     31  C   UNL A   1      32.673  28.378  27.217  1.00  0.00     0.004 A 
ATOM     32  C   UNL A   1      32.657  27.811  25.941  1.00  0.00     0.046 A 
ENDBRANCH  25  26
ENDBRANCH  23  25
ENDBRANCH  20  23
ENDBRANCH  16  19
ENDBRANCH   9  15
ENDBRANCH   6   8
ENDBRANCH   5   6
ENDBRANCH   4   5
ENDBRANCH   3   4
ENDBRANCH   2   3
ENDBRANCH   1   2
BRANCH   1  33
ATOM     33  C   UNL A   1      41.644  19.333  25.922  1.00  0.00     0.188 C 
BRANCH  33  34
ATOM     34  O   UNL A   1      43.089  19.425  25.944  1.00  0.00    -0.377 OA
BRANCH  34  35
ATOM     35  C   UNL A   1      43.957  20.323  25.258  1.00  0.00     0.188 C 
BRANCH  35  36
ATOM     36  C   UNL A   1      45.407  19.949  25.200  1.00  0.00     0.188 C 
BRANCH  36  37
ATOM     37  O   UNL A   1      46.116  21.142  25.462  1.00  0.00    -0.376 OA
BRANCH  37  38
ATOM     38  C   UNL A   1      45.933  22.153  24.500  1.00  0.00     0.202 C 
BRANCH  38  39
ATOM     39  C   UNL A   1      46.423  23.493  25.032  1.00  0.00     0.261 C 
BRANCH  39  40
ATOM     40  O   UNL A   1      45.276  24.339  25.286  1.00  0.00    -0.460 OA
BRANCH  40  41
ATOM     41  C   UNL A   1      44.790  24.289  26.569  1.00  0.00     0.338 C 
ATOM     42  O   UNL A   1      44.152  23.374  27.038  1.00  0.00    -0.246 OA
BRANCH  41  43
ATOM     43  C   UNL A   1      44.873  25.651  27.187  1.00  0.00     0.060 A 
ATOM     44  C   UNL A   1      45.849  26.560  26.802  1.00  0.00     0.016 A 
ATOM     45  C   UNL A   1      44.197  25.954  28.334  1.00  0.00     0.016 A 
ATOM     46  C   UNL A   1      46.421  27.452  27.763  1.00  0.00     0.010 A 
ATOM     47  C   UNL A   1      44.766  26.896  29.215  1.00  0.00     0.010 A 
ATOM     48  C   UNL A   1      46.121  27.412  29.137  1.00  0.00    -0.014 A 
BRANCH  48  49
ATOM     49  C   UNL A   1      47.359  27.751  30.474  1.00  0.00     0.031 A 
ATOM     50  C   UNL A   1      49.010  26.766  30.938  1.00  0.00     0.074 A 
ATOM     51  C   UNL A   1      46.788  28.728  31.263  1.00  0.00     0.049 A 
ATOM     52  N   UNL A   1      49.018  25.827  31.937  1.00  0.00    -0.248 NA
ATOM     53  C   UNL A   1      50.269  26.176  30.178  1.00  0.00     0.031 C 
ATOM     54  C   UNL A   1      47.400  29.686  32.132  1.00  0.00     0.029 A 
ATOM     55  N   UNL A   1      45.456  28.866  31.676  1.00  0.00    -0.354 N 
ATOM     56  C   UNL A   1      49.992  24.869  32.029  1.00  0.00     0.074 A 
ATOM     57  C   UNL A   1      50.657  25.032  30.790  1.00  0.00     0.031 C 
ATOM     58  C   UNL A   1      46.678  29.866  33.253  1.00  0.00     0.029 A 
ATOM     59  C   UNL A   1      45.462  29.138  33.049  1.00  0.00     0.049 A 
ATOM     60  H   UNL A   1      44.659  28.786  31.104  1.00  0.00     0.167 HD
ATOM     61  C   UNL A   1      50.204  24.055  33.124  1.00  0.00     0.037 A 
ATOM     62  C   UNL A   1      44.480  29.019  33.959  1.00  0.00     0.037 A 
ATOM     63  C   UNL A   1      49.581  24.517  34.379  1.00  0.00     0.049 A 
ATOM     64  C   UNL A   1      44.867  28.057  35.057  1.00  0.00     0.074 A 
ATOM     65  C   UNL A   1      50.137  25.275  35.400  1.00  0.00     0.029 A 
ATOM     66  N   UNL A   1      48.230  24.429  34.697  1.00  0.00    -0.354 N 
ATOM     67  N   UNL A   1      45.870  27.208  35.040  1.00  0.00    -0.248 NA
ATOM     68  C   UNL A   1      44.131  28.031  36.316  1.00  0.00     0.031 C 
ATOM     69  C   UNL A   1      49.107  25.852  36.169  1.00  0.00     0.029 A 
ATOM     70  C   UNL A   1      47.913  25.300  35.748  1.00  0.00     0.049 A 
ATOM     71  H   UNL A   1      47.585  23.837  34.247  1.00  0.00     0.167 HD
ATOM     72  C   UNL A   1      45.836  26.439  36.198  1.00  0.00     0.074 A 
ATOM     73  C   UNL A   1      44.791  27.073  36.984  1.00  0.00     0.031 C 
ATOM     74  C   UNL A   1      46.628  25.336  36.444  1.00  0.00     0.037 A 
BRANCH  61  75
ATOM     75  C   UNL A   1      51.380  23.079  33.120  1.00  0.00     0.057 A 
ATOM     76  C   UNL A   1      52.726  23.490  33.032  1.00  0.00     0.134 A 
ATOM     77  C   UNL A   1      51.203  21.685  33.139  1.00  0.00     0.134 A 
ATOM     78  F   UNL A   1      53.098  24.766  33.180  1.00  0.00    -0.206 F 
ATOM     79  C   UNL A   1      53.783  22.603  32.787  1.00  0.00     0.040 A 
ATOM     80  C   UNL A   1      52.252  20.782  32.885  1.00  0.00     0.040 A 
ATOM     81  F   UNL A   1      49.996  21.153  33.391  1.00  0.00    -0.206 F 
ATOM     82  C   UNL A   1      53.543  21.245  32.665  1.00  0.00     0.006 A 
ENDBRANCH  61  75
BRANCH  62  83
ATOM     83  C   UNL A   1      43.169  29.326  33.325  1.00  0.00     0.057 A 
ATOM     84  C   UNL A   1      42.349  28.182  33.159  1.00  0.00     0.134 A 
ATOM     85  C   UNL A   1      42.521  30.543  33.548  1.00  0.00     0.134 A 
ATOM     86  F   UNL A   1      42.915  26.982  32.946  1.00  0.00    -0.206 F 
ATOM     87  C   UNL A   1      40.985  28.204  33.454  1.00  0.00     0.040 A 
ATOM     88  C   UNL A   1      41.141  30.579  33.808  1.00  0.00     0.040 A 
ATOM     89  F   UNL A   1      43.229  31.666  33.722  1.00  0.00    -0.206 F 
ATOM     90  C   UNL A   1      40.386  29.402  33.825  1.00  0.00     0.006 A 
ENDBRANCH  62  83
BRANCH  74  91
ATOM     91  C   UNL A   1      46.451  24.267  37.543  1.00  0.00     0.057 A 
ATOM     92  C   UNL A   1      46.463  24.485  38.928  1.00  0.00     0.134 A 
ATOM     93  C   UNL A   1      46.164  22.915  37.195  1.00  0.00     0.134 A 
ATOM     94  F   UNL A   1      46.574  25.703  39.463  1.00  0.00    -0.206 F 
ATOM     95  C   UNL A   1      46.294  23.453  39.870  1.00  0.00     0.040 A 
ATOM     96  C   UNL A   1      45.953  21.889  38.123  1.00  0.00     0.040 A 
ATOM     97  F   UNL A   1      46.025  22.503  35.929  1.00  0.00    -0.206 F 
ATOM     98  C   UNL A   1      46.033  22.151  39.472  1.00  0.00     0.006 A 
ENDBRANCH  74  91
ENDBRANCH  48  49
ENDBRANCH  41  43
ENDBRANCH  40  41
ENDBRANCH  39  40
ENDBRANCH  38  39
ENDBRANCH  37  38
ENDBRANCH  36  37
ENDBRANCH  35  36
ENDBRANCH  34  35
ENDBRANCH  33  34
ENDBRANCH   1  33
TORSDOF 25
ENDMDL
