MODEL 1
REMARK VINA RESULT:     -10.5      0.000      0.000
REMARK SMILES CCc1cc(/C=C/C(=O)OCCOCCOCCOCCOC(=O)c2ccc(-c3c4nc(c(-c5c(F)cccc5F)c5ccc([nH]5)c(-c5c(F)cccc5F)c5nc(c(-c6c(F)cccc6F)c6ccc3[nH]6)C=C5)C=C4)cc2)cc(C(=O)c2ccccc2)c1
REMARK SMILES IDX 15 1 14 2 13 3 12 4 11 5 10 6 8 7 9 8 7 9 6 10 5 11 3 12
REMARK SMILES IDX 4 13 89 14 80 15 79 16 2 17 1 18 81 19 82 20 83 21 84 22
REMARK SMILES IDX 88 23 85 24 87 25 86 26 16 27 17 28 18 29 19 30 20 31 21 32
REMARK SMILES IDX 22 33 23 34 24 35 25 36 26 37 78 38 27 39 77 40 28 41 29 42
REMARK SMILES IDX 30 43 71 44 31 45 76 46 70 47 72 48 32 49 75 50 69 51 68 52
REMARK SMILES IDX 33 54 59 55 42 56 58 57 43 58 46 59 57 60 73 61 44 62 45 63
REMARK SMILES IDX 56 65 74 66 47 67 34 68 35 69 40 70 36 71 37 72 39 73 41 74
REMARK SMILES IDX 38 75 60 76 61 77 66 78 62 79 63 80 65 81 67 82 64 83 48 84
REMARK SMILES IDX 49 85 54 86 50 87 51 88 53 89 55 90 52 91
REMARK H PARENT 72 53 46 64
REMARK Flexibility Score: inf
ROOT
ATOM      1  C   UNL A   1      35.553  18.674  24.606  1.00  0.00     0.188 C 
ENDROOT
BRANCH   1   2
ATOM      2  C   UNL A   1      34.055  18.309  24.660  1.00  0.00     0.188 C 
BRANCH   2   3
ATOM      3  O   UNL A   1      33.249  19.310  25.255  1.00  0.00    -0.376 OA
BRANCH   3   4
ATOM      4  C   UNL A   1      32.450  20.141  24.434  1.00  0.00     0.202 C 
BRANCH   4   5
ATOM      5  C   UNL A   1      32.095  21.561  24.900  1.00  0.00     0.261 C 
BRANCH   5   6
ATOM      6  O   UNL A   1      30.979  21.676  25.791  1.00  0.00    -0.460 OA
BRANCH   6   7
ATOM      7  C   UNL A   1      30.758  22.887  26.343  1.00  0.00     0.330 C 
ATOM      8  O   UNL A   1      30.650  23.127  27.535  1.00  0.00    -0.247 OA
BRANCH   7   9
ATOM      9  C   UNL A   1      30.840  23.956  25.318  1.00  0.00     0.094 C 
ATOM     10  C   UNL A   1      30.817  25.273  25.589  1.00  0.00     0.015 C 
BRANCH  10  11
ATOM     11  C   UNL A   1      30.826  26.327  24.560  1.00  0.00    -0.024 A 
ATOM     12  C   UNL A   1      31.982  27.688  22.882  1.00  0.00    -0.047 A 
ATOM     13  C   UNL A   1      31.985  26.664  23.842  1.00  0.00     0.011 A 
ATOM     14  C   UNL A   1      30.779  28.356  22.621  1.00  0.00     0.016 A 
ATOM     15  C   UNL A   1      29.593  27.993  23.271  1.00  0.00     0.023 A 
ATOM     16  C   UNL A   1      29.626  26.979  24.239  1.00  0.00     0.020 A 
BRANCH  12  17
ATOM     17  C   UNL A   1      33.236  28.006  22.100  1.00  0.00     0.032 C 
ATOM     18  C   UNL A   1      34.336  28.680  22.913  1.00  0.00     0.009 C 
ENDBRANCH  12  17
BRANCH  15  19
ATOM     19  C   UNL A   1      28.296  28.688  23.004  1.00  0.00     0.193 C 
ATOM     20  O   UNL A   1      27.233  28.108  23.207  1.00  0.00    -0.289 OA
BRANCH  19  21
ATOM     21  C   UNL A   1      28.249  30.100  22.559  1.00  0.00     0.022 A 
ATOM     22  C   UNL A   1      28.371  31.101  23.527  1.00  0.00     0.012 A 
ATOM     23  C   UNL A   1      28.099  30.440  21.209  1.00  0.00     0.012 A 
ATOM     24  C   UNL A   1      28.401  32.442  23.139  1.00  0.00     0.001 A 
ATOM     25  C   UNL A   1      28.140  31.782  20.826  1.00  0.00     0.001 A 
ATOM     26  C   UNL A   1      28.299  32.779  21.789  1.00  0.00     0.000 A 
ENDBRANCH  19  21
ENDBRANCH  15  19
ENDBRANCH  10  11
ENDBRANCH   7   9
ENDBRANCH   6   7
ENDBRANCH   5   6
ENDBRANCH   4   5
ENDBRANCH   3   4
ENDBRANCH   2   3
ENDBRANCH   1   2
BRANCH   1  27
ATOM     27  O   UNL A   1      35.939  20.005  24.917  1.00  0.00    -0.377 OA
BRANCH  27  28
ATOM     28  C   UNL A   1      37.321  20.339  25.039  1.00  0.00     0.188 C 
BRANCH  28  29
ATOM     29  C   UNL A   1      37.800  21.720  25.552  1.00  0.00     0.188 C 
BRANCH  29  30
ATOM     30  O   UNL A   1      39.206  21.891  25.568  1.00  0.00    -0.376 OA
BRANCH  30  31
ATOM     31  C   UNL A   1      39.812  22.261  26.792  1.00  0.00     0.202 C 
BRANCH  31  32
ATOM     32  C   UNL A   1      41.347  22.262  26.832  1.00  0.00     0.261 C 
BRANCH  32  33
ATOM     33  O   UNL A   1      41.965  23.436  27.381  1.00  0.00    -0.460 OA
BRANCH  33  34
ATOM     34  C   UNL A   1      41.875  24.575  26.665  1.00  0.00     0.338 C 
ATOM     35  O   UNL A   1      41.938  24.692  25.450  1.00  0.00    -0.246 OA
BRANCH  34  36
ATOM     36  C   UNL A   1      41.505  25.660  27.595  1.00  0.00     0.060 A 
ATOM     37  C   UNL A   1      42.305  26.809  27.661  1.00  0.00     0.016 A 
ATOM     38  C   UNL A   1      40.365  25.544  28.394  1.00  0.00     0.016 A 
ATOM     39  C   UNL A   1      41.985  27.831  28.555  1.00  0.00     0.010 A 
ATOM     40  C   UNL A   1      40.057  26.560  29.301  1.00  0.00     0.010 A 
ATOM     41  C   UNL A   1      40.883  27.691  29.412  1.00  0.00    -0.014 A 
BRANCH  41  42
ATOM     42  C   UNL A   1      40.711  28.626  30.551  1.00  0.00     0.031 A 
ATOM     43  C   UNL A   1      39.653  29.689  30.446  1.00  0.00     0.074 A 
ATOM     44  C   UNL A   1      41.461  28.526  31.662  1.00  0.00     0.049 A 
ATOM     45  N   UNL A   1      39.346  30.646  31.285  1.00  0.00    -0.248 NA
ATOM     46  C   UNL A   1      38.832  29.673  29.224  1.00  0.00     0.031 C 
ATOM     47  C   UNL A   1      42.491  27.519  31.901  1.00  0.00     0.029 A 
ATOM     48  N   UNL A   1      41.473  29.298  32.797  1.00  0.00    -0.354 N 
ATOM     49  C   UNL A   1      38.305  31.348  30.689  1.00  0.00     0.074 A 
ATOM     50  C   UNL A   1      38.056  30.731  29.406  1.00  0.00     0.031 C 
ATOM     51  C   UNL A   1      43.045  27.740  33.106  1.00  0.00     0.029 A 
ATOM     52  C   UNL A   1      42.432  28.924  33.707  1.00  0.00     0.049 A 
ATOM     53  H   UNL A   1      40.853  30.047  32.946  1.00  0.00     0.167 HD
ATOM     54  C   UNL A   1      37.610  32.404  31.174  1.00  0.00     0.037 A 
ATOM     55  C   UNL A   1      42.788  29.491  34.877  1.00  0.00     0.037 A 
ATOM     56  C   UNL A   1      37.864  33.019  32.450  1.00  0.00     0.049 A 
ATOM     57  C   UNL A   1      42.053  30.716  35.359  1.00  0.00     0.074 A 
ATOM     58  C   UNL A   1      37.206  34.084  33.039  1.00  0.00     0.029 A 
ATOM     59  N   UNL A   1      38.864  32.630  33.329  1.00  0.00    -0.354 N 
ATOM     60  N   UNL A   1      41.050  31.354  34.807  1.00  0.00    -0.248 NA
ATOM     61  C   UNL A   1      42.500  31.298  36.636  1.00  0.00     0.031 C 
ATOM     62  C   UNL A   1      37.846  34.380  34.246  1.00  0.00     0.029 A 
ATOM     63  C   UNL A   1      38.859  33.454  34.442  1.00  0.00     0.049 A 
ATOM     64  H   UNL A   1      39.486  31.881  33.183  1.00  0.00     0.167 HD
ATOM     65  C   UNL A   1      40.723  32.386  35.680  1.00  0.00     0.074 A 
ATOM     66  C   UNL A   1      41.628  32.281  36.806  1.00  0.00     0.031 C 
ATOM     67  C   UNL A   1      39.757  33.331  35.564  1.00  0.00     0.037 A 
BRANCH  54  68
ATOM     68  C   UNL A   1      36.531  32.982  30.304  1.00  0.00     0.057 A 
ATOM     69  C   UNL A   1      36.818  33.839  29.233  1.00  0.00     0.134 A 
ATOM     70  C   UNL A   1      35.188  32.656  30.527  1.00  0.00     0.134 A 
ATOM     71  F   UNL A   1      38.083  34.204  28.973  1.00  0.00    -0.206 F 
ATOM     72  C   UNL A   1      35.806  34.371  28.432  1.00  0.00     0.040 A 
ATOM     73  C   UNL A   1      34.169  33.157  29.715  1.00  0.00     0.040 A 
ATOM     74  F   UNL A   1      34.842  31.838  31.533  1.00  0.00    -0.206 F 
ATOM     75  C   UNL A   1      34.477  34.023  28.667  1.00  0.00     0.006 A 
ENDBRANCH  54  68
BRANCH  55  76
ATOM     76  C   UNL A   1      43.903  28.918  35.676  1.00  0.00     0.057 A 
ATOM     77  C   UNL A   1      43.676  27.917  36.628  1.00  0.00     0.134 A 
ATOM     78  C   UNL A   1      45.216  29.381  35.531  1.00  0.00     0.134 A 
ATOM     79  F   UNL A   1      42.436  27.448  36.834  1.00  0.00    -0.206 F 
ATOM     80  C   UNL A   1      44.710  27.412  37.420  1.00  0.00     0.040 A 
ATOM     81  C   UNL A   1      46.264  28.864  36.295  1.00  0.00     0.040 A 
ATOM     82  F   UNL A   1      45.501  30.341  34.638  1.00  0.00    -0.206 F 
ATOM     83  C   UNL A   1      46.011  27.882  37.249  1.00  0.00     0.006 A 
ENDBRANCH  55  76
BRANCH  67  84
ATOM     84  C   UNL A   1      39.588  34.297  36.703  1.00  0.00     0.057 A 
ATOM     85  C   UNL A   1      38.871  33.970  37.861  1.00  0.00     0.134 A 
ATOM     86  C   UNL A   1      40.194  35.560  36.656  1.00  0.00     0.134 A 
ATOM     87  F   UNL A   1      38.257  32.781  37.967  1.00  0.00    -0.206 F 
ATOM     88  C   UNL A   1      38.740  34.872  38.918  1.00  0.00     0.040 A 
ATOM     89  C   UNL A   1      40.099  36.458  37.721  1.00  0.00     0.040 A 
ATOM     90  F   UNL A   1      40.907  35.935  35.583  1.00  0.00    -0.206 F 
ATOM     91  C   UNL A   1      39.363  36.118  38.853  1.00  0.00     0.006 A 
ENDBRANCH  67  84
ENDBRANCH  41  42
ENDBRANCH  34  36
ENDBRANCH  33  34
ENDBRANCH  32  33
ENDBRANCH  31  32
ENDBRANCH  30  31
ENDBRANCH  29  30
ENDBRANCH  28  29
ENDBRANCH  27  28
ENDBRANCH   1  27
TORSDOF 24
ENDMDL
MODEL 2
REMARK VINA RESULT:     -10.0      1.142      2.103
REMARK SMILES CCc1cc(/C=C/C(=O)OCCOCCOCCOCCOC(=O)c2ccc(-c3c4nc(c(-c5c(F)cccc5F)c5ccc([nH]5)c(-c5c(F)cccc5F)c5nc(c(-c6c(F)cccc6F)c6ccc3[nH]6)C=C5)C=C4)cc2)cc(C(=O)c2ccccc2)c1
REMARK SMILES IDX 15 1 14 2 13 3 12 4 11 5 10 6 8 7 9 8 7 9 6 10 5 11 3 12
REMARK SMILES IDX 4 13 89 14 80 15 79 16 2 17 1 18 81 19 82 20 83 21 84 22
REMARK SMILES IDX 88 23 85 24 87 25 86 26 16 27 17 28 18 29 19 30 20 31 21 32
REMARK SMILES IDX 22 33 23 34 24 35 25 36 26 37 78 38 27 39 77 40 28 41 29 42
REMARK SMILES IDX 30 43 71 44 31 45 76 46 70 47 72 48 32 49 75 50 69 51 68 52
REMARK SMILES IDX 33 54 59 55 42 56 58 57 43 58 46 59 57 60 73 61 44 62 45 63
REMARK SMILES IDX 56 65 74 66 47 67 34 68 35 69 40 70 36 71 37 72 39 73 41 74
REMARK SMILES IDX 38 75 60 76 61 77 66 78 62 79 63 80 65 81 67 82 64 83 48 84
REMARK SMILES IDX 49 85 54 86 50 87 51 88 53 89 55 90 52 91
REMARK H PARENT 72 53 46 64
REMARK Flexibility Score: inf
ROOT
ATOM      1  C   UNL A   1      35.442  18.681  24.562  1.00  0.00     0.188 C 
ENDROOT
BRANCH   1   2
ATOM      2  C   UNL A   1      33.937  18.414  24.357  1.00  0.00     0.188 C 
BRANCH   2   3
ATOM      3  O   UNL A   1      33.108  19.482  24.779  1.00  0.00    -0.376 OA
BRANCH   3   4
ATOM      4  C   UNL A   1      32.625  20.409  23.826  1.00  0.00     0.202 C 
BRANCH   4   5
ATOM      5  C   UNL A   1      32.101  21.777  24.287  1.00  0.00     0.261 C 
BRANCH   5   6
ATOM      6  O   UNL A   1      31.584  21.842  25.622  1.00  0.00    -0.460 OA
BRANCH   6   7
ATOM      7  C   UNL A   1      32.220  22.659  26.487  1.00  0.00     0.330 C 
ATOM      8  O   UNL A   1      32.997  22.315  27.364  1.00  0.00    -0.247 OA
BRANCH   7   9
ATOM      9  C   UNL A   1      32.000  24.080  26.127  1.00  0.00     0.094 C 
ATOM     10  C   UNL A   1      32.897  25.062  26.327  1.00  0.00     0.015 C 
BRANCH  10  11
ATOM     11  C   UNL A   1      32.643  26.484  26.033  1.00  0.00    -0.024 A 
ATOM     12  C   UNL A   1      32.824  28.863  26.588  1.00  0.00    -0.047 A 
ATOM     13  C   UNL A   1      33.095  27.515  26.872  1.00  0.00     0.011 A 
ATOM     14  C   UNL A   1      32.115  29.172  25.420  1.00  0.00     0.016 A 
ATOM     15  C   UNL A   1      31.714  28.168  24.530  1.00  0.00     0.023 A 
ATOM     16  C   UNL A   1      31.982  26.827  24.844  1.00  0.00     0.020 A 
BRANCH  12  17
ATOM     17  C   UNL A   1      33.351  29.954  27.491  1.00  0.00     0.032 C 
ATOM     18  C   UNL A   1      34.846  30.224  27.355  1.00  0.00     0.009 C 
ENDBRANCH  12  17
BRANCH  15  19
ATOM     19  C   UNL A   1      30.962  28.473  23.274  1.00  0.00     0.193 C 
ATOM     20  O   UNL A   1      31.385  28.079  22.191  1.00  0.00    -0.289 OA
BRANCH  19  21
ATOM     21  C   UNL A   1      29.666  29.190  23.301  1.00  0.00     0.022 A 
ATOM     22  C   UNL A   1      29.685  30.581  23.444  1.00  0.00     0.012 A 
ATOM     23  C   UNL A   1      28.448  28.511  23.178  1.00  0.00     0.012 A 
ATOM     24  C   UNL A   1      28.489  31.299  23.405  1.00  0.00     0.001 A 
ATOM     25  C   UNL A   1      27.255  29.235  23.128  1.00  0.00     0.001 A 
ATOM     26  C   UNL A   1      27.278  30.627  23.234  1.00  0.00     0.000 A 
ENDBRANCH  19  21
ENDBRANCH  15  19
ENDBRANCH  10  11
ENDBRANCH   7   9
ENDBRANCH   6   7
ENDBRANCH   5   6
ENDBRANCH   4   5
ENDBRANCH   3   4
ENDBRANCH   2   3
ENDBRANCH   1   2
BRANCH   1  27
ATOM     27  O   UNL A   1      35.858  19.998  24.892  1.00  0.00    -0.377 OA
BRANCH  27  28
ATOM     28  C   UNL A   1      37.244  20.285  25.076  1.00  0.00     0.188 C 
BRANCH  28  29
ATOM     29  C   UNL A   1      37.761  21.704  25.419  1.00  0.00     0.188 C 
BRANCH  29  30
ATOM     30  O   UNL A   1      39.169  21.811  25.533  1.00  0.00    -0.376 OA
BRANCH  30  31
ATOM     31  C   UNL A   1      39.701  22.233  26.774  1.00  0.00     0.202 C 
BRANCH  31  32
ATOM     32  C   UNL A   1      41.220  22.109  26.955  1.00  0.00     0.261 C 
BRANCH  32  33
ATOM     33  O   UNL A   1      41.897  23.278  27.440  1.00  0.00    -0.460 OA
BRANCH  33  34
ATOM     34  C   UNL A   1      41.812  24.398  26.693  1.00  0.00     0.338 C 
ATOM     35  O   UNL A   1      41.843  24.477  25.474  1.00  0.00    -0.246 OA
BRANCH  34  36
ATOM     36  C   UNL A   1      41.495  25.518  27.600  1.00  0.00     0.060 A 
ATOM     37  C   UNL A   1      42.439  26.536  27.789  1.00  0.00     0.016 A 
ATOM     38  C   UNL A   1      40.262  25.565  28.255  1.00  0.00     0.016 A 
ATOM     39  C   UNL A   1      42.166  27.587  28.665  1.00  0.00     0.010 A 
ATOM     40  C   UNL A   1      39.997  26.609  29.145  1.00  0.00     0.010 A 
ATOM     41  C   UNL A   1      40.960  27.605  29.381  1.00  0.00    -0.014 A 
BRANCH  41  42
ATOM     42  C   UNL A   1      40.790  28.547  30.515  1.00  0.00     0.031 A 
ATOM     43  C   UNL A   1      39.728  29.606  30.407  1.00  0.00     0.074 A 
ATOM     44  C   UNL A   1      41.544  28.455  31.624  1.00  0.00     0.049 A 
ATOM     45  N   UNL A   1      39.422  30.567  31.241  1.00  0.00    -0.248 NA
ATOM     46  C   UNL A   1      38.902  29.580  29.188  1.00  0.00     0.031 C 
ATOM     47  C   UNL A   1      42.578  27.452  31.865  1.00  0.00     0.029 A 
ATOM     48  N   UNL A   1      41.557  29.235  32.754  1.00  0.00    -0.354 N 
ATOM     49  C   UNL A   1      38.376  31.262  30.645  1.00  0.00     0.074 A 
ATOM     50  C   UNL A   1      38.124  30.637  29.366  1.00  0.00     0.031 C 
ATOM     51  C   UNL A   1      43.135  27.683  33.067  1.00  0.00     0.029 A 
ATOM     52  C   UNL A   1      42.521  28.869  33.663  1.00  0.00     0.049 A 
ATOM     53  H   UNL A   1      40.936  29.983  32.900  1.00  0.00     0.167 HD
ATOM     54  C   UNL A   1      37.680  32.320  31.125  1.00  0.00     0.037 A 
ATOM     55  C   UNL A   1      42.880  29.444  34.828  1.00  0.00     0.037 A 
ATOM     56  C   UNL A   1      37.937  32.943  32.397  1.00  0.00     0.049 A 
ATOM     57  C   UNL A   1      42.143  30.670  35.305  1.00  0.00     0.074 A 
ATOM     58  C   UNL A   1      37.278  34.010  32.981  1.00  0.00     0.029 A 
ATOM     59  N   UNL A   1      38.941  32.562  33.275  1.00  0.00    -0.354 N 
ATOM     60  N   UNL A   1      41.137  31.302  34.752  1.00  0.00    -0.248 NA
ATOM     61  C   UNL A   1      42.593  31.261  36.576  1.00  0.00     0.031 C 
ATOM     62  C   UNL A   1      37.922  34.315  34.185  1.00  0.00     0.029 A 
ATOM     63  C   UNL A   1      38.938  33.393  34.383  1.00  0.00     0.049 A 
ATOM     64  H   UNL A   1      39.564  31.814  33.131  1.00  0.00     0.167 HD
ATOM     65  C   UNL A   1      40.810  32.338  35.621  1.00  0.00     0.074 A 
ATOM     66  C   UNL A   1      41.719  32.242  36.743  1.00  0.00     0.031 C 
ATOM     67  C   UNL A   1      39.841  33.280  35.502  1.00  0.00     0.037 A 
BRANCH  54  68
ATOM     68  C   UNL A   1      36.597  32.889  30.256  1.00  0.00     0.057 A 
ATOM     69  C   UNL A   1      35.245  32.569  30.446  1.00  0.00     0.134 A 
ATOM     70  C   UNL A   1      36.908  33.788  29.228  1.00  0.00     0.134 A 
ATOM     71  F   UNL A   1      34.879  31.702  31.402  1.00  0.00    -0.206 F 
ATOM     72  C   UNL A   1      34.247  33.104  29.629  1.00  0.00     0.040 A 
ATOM     73  C   UNL A   1      35.916  34.352  28.425  1.00  0.00     0.040 A 
ATOM     74  F   UNL A   1      38.182  34.140  28.993  1.00  0.00    -0.206 F 
ATOM     75  C   UNL A   1      34.581  34.005  28.620  1.00  0.00     0.006 A 
ENDBRANCH  54  68
BRANCH  55  76
ATOM     76  C   UNL A   1      43.999  28.879  35.627  1.00  0.00     0.057 A 
ATOM     77  C   UNL A   1      45.325  29.262  35.396  1.00  0.00     0.134 A 
ATOM     78  C   UNL A   1      43.771  27.916  36.618  1.00  0.00     0.134 A 
ATOM     79  F   UNL A   1      45.611  30.161  34.442  1.00  0.00    -0.206 F 
ATOM     80  C   UNL A   1      46.386  28.695  36.106  1.00  0.00     0.040 A 
ATOM     81  C   UNL A   1      44.820  27.363  37.356  1.00  0.00     0.040 A 
ATOM     82  F   UNL A   1      42.524  27.503  36.888  1.00  0.00    -0.206 F 
ATOM     83  C   UNL A   1      46.133  27.746  37.094  1.00  0.00     0.006 A 
ENDBRANCH  55  76
BRANCH  67  84
ATOM     84  C   UNL A   1      39.673  34.253  36.635  1.00  0.00     0.057 A 
ATOM     85  C   UNL A   1      40.247  35.531  36.616  1.00  0.00     0.134 A 
ATOM     86  C   UNL A   1      38.884  33.919  37.745  1.00  0.00     0.134 A 
ATOM     87  F   UNL A   1      41.022  35.912  35.589  1.00  0.00    -0.206 F 
ATOM     88  C   UNL A   1      40.064  36.429  37.668  1.00  0.00     0.040 A 
ATOM     89  C   UNL A   1      38.667  34.820  38.788  1.00  0.00     0.040 A 
ATOM     90  F   UNL A   1      38.293  32.716  37.824  1.00  0.00    -0.206 F 
ATOM     91  C   UNL A   1      39.265  36.077  38.755  1.00  0.00     0.006 A 
ENDBRANCH  67  84
ENDBRANCH  41  42
ENDBRANCH  34  36
ENDBRANCH  33  34
ENDBRANCH  32  33
ENDBRANCH  31  32
ENDBRANCH  30  31
ENDBRANCH  29  30
ENDBRANCH  28  29
ENDBRANCH  27  28
ENDBRANCH   1  27
TORSDOF 24
ENDMDL
MODEL 3
REMARK VINA RESULT:      -9.8      7.254      9.468
REMARK SMILES CCc1cc(/C=C/C(=O)OCCOCCOCCOCCOC(=O)c2ccc(-c3c4nc(c(-c5c(F)cccc5F)c5ccc([nH]5)c(-c5c(F)cccc5F)c5nc(c(-c6c(F)cccc6F)c6ccc3[nH]6)C=C5)C=C4)cc2)cc(C(=O)c2ccccc2)c1
REMARK SMILES IDX 15 1 14 2 13 3 12 4 11 5 10 6 8 7 9 8 7 9 6 10 5 11 3 12
REMARK SMILES IDX 4 13 89 14 80 15 79 16 2 17 1 18 81 19 82 20 83 21 84 22
REMARK SMILES IDX 88 23 85 24 87 25 86 26 16 27 17 28 18 29 19 30 20 31 21 32
REMARK SMILES IDX 22 33 23 34 24 35 25 36 26 37 78 38 27 39 77 40 28 41 29 42
REMARK SMILES IDX 30 43 71 44 31 45 76 46 70 47 72 48 32 49 75 50 69 51 68 52
REMARK SMILES IDX 33 54 59 55 42 56 58 57 43 58 46 59 57 60 73 61 44 62 45 63
REMARK SMILES IDX 56 65 74 66 47 67 34 68 35 69 40 70 36 71 37 72 39 73 41 74
REMARK SMILES IDX 38 75 60 76 61 77 66 78 62 79 63 80 65 81 67 82 64 83 48 84
REMARK SMILES IDX 49 85 54 86 50 87 51 88 53 89 55 90 52 91
REMARK H PARENT 72 53 46 64
REMARK Flexibility Score: inf
ROOT
ATOM      1  C   UNL A   1      35.056  23.532  24.601  1.00  0.00     0.188 C 
ENDROOT
BRANCH   1   2
ATOM      2  C   UNL A   1      34.543  22.986  23.253  1.00  0.00     0.188 C 
BRANCH   2   3
ATOM      3  O   UNL A   1      33.187  22.579  23.285  1.00  0.00    -0.376 OA
BRANCH   3   4
ATOM      4  C   UNL A   1      32.843  21.349  23.893  1.00  0.00     0.202 C 
BRANCH   4   5
ATOM      5  C   UNL A   1      31.842  21.327  25.059  1.00  0.00     0.261 C 
BRANCH   5   6
ATOM      6  O   UNL A   1      32.125  22.204  26.155  1.00  0.00    -0.460 OA
BRANCH   6   7
ATOM      7  C   UNL A   1      31.140  23.044  26.538  1.00  0.00     0.330 C 
ATOM      8  O   UNL A   1      30.286  22.817  27.379  1.00  0.00    -0.247 OA
BRANCH   7   9
ATOM      9  C   UNL A   1      31.326  24.384  25.930  1.00  0.00     0.094 C 
ATOM     10  C   UNL A   1      31.439  25.527  26.629  1.00  0.00     0.015 C 
BRANCH  10  11
ATOM     11  C   UNL A   1      31.551  26.862  26.015  1.00  0.00    -0.024 A 
ATOM     12  C   UNL A   1      32.405  29.158  25.997  1.00  0.00    -0.047 A 
ATOM     13  C   UNL A   1      32.329  27.885  26.582  1.00  0.00     0.011 A 
ATOM     14  C   UNL A   1      31.711  29.388  24.802  1.00  0.00     0.016 A 
ATOM     15  C   UNL A   1      30.985  28.366  24.178  1.00  0.00     0.023 A 
ATOM     16  C   UNL A   1      30.910  27.107  24.792  1.00  0.00     0.020 A 
BRANCH  12  17
ATOM     17  C   UNL A   1      33.277  30.230  26.611  1.00  0.00     0.032 C 
ATOM     18  C   UNL A   1      34.519  29.706  27.324  1.00  0.00     0.009 C 
ENDBRANCH  12  17
BRANCH  15  19
ATOM     19  C   UNL A   1      30.242  28.585  22.899  1.00  0.00     0.193 C 
ATOM     20  O   UNL A   1      30.262  27.730  22.019  1.00  0.00    -0.289 OA
BRANCH  19  21
ATOM     21  C   UNL A   1      29.412  29.793  22.682  1.00  0.00     0.022 A 
ATOM     22  C   UNL A   1      29.548  30.478  21.471  1.00  0.00     0.012 A 
ATOM     23  C   UNL A   1      28.505  30.245  23.648  1.00  0.00     0.012 A 
ATOM     24  C   UNL A   1      28.735  31.579  21.201  1.00  0.00     0.001 A 
ATOM     25  C   UNL A   1      27.687  31.341  23.369  1.00  0.00     0.001 A 
ATOM     26  C   UNL A   1      27.797  32.001  22.144  1.00  0.00     0.000 A 
ENDBRANCH  19  21
ENDBRANCH  15  19
ENDBRANCH  10  11
ENDBRANCH   7   9
ENDBRANCH   6   7
ENDBRANCH   5   6
ENDBRANCH   4   5
ENDBRANCH   3   4
ENDBRANCH   2   3
ENDBRANCH   1   2
BRANCH   1  27
ATOM     27  O   UNL A   1      35.220  22.626  25.682  1.00  0.00    -0.377 OA
BRANCH  27  28
ATOM     28  C   UNL A   1      36.231  21.620  25.626  1.00  0.00     0.188 C 
BRANCH  28  29
ATOM     29  C   UNL A   1      37.711  21.945  25.308  1.00  0.00     0.188 C 
BRANCH  29  30
ATOM     30  O   UNL A   1      38.607  21.747  26.387  1.00  0.00    -0.376 OA
BRANCH  30  31
ATOM     31  C   UNL A   1      39.991  21.886  26.130  1.00  0.00     0.202 C 
BRANCH  31  32
ATOM     32  C   UNL A   1      40.636  23.225  26.512  1.00  0.00     0.261 C 
BRANCH  32  33
ATOM     33  O   UNL A   1      42.003  23.407  26.112  1.00  0.00    -0.460 OA
BRANCH  33  34
ATOM     34  C   UNL A   1      42.940  23.380  27.082  1.00  0.00     0.338 C 
ATOM     35  O   UNL A   1      43.218  22.443  27.816  1.00  0.00    -0.246 OA
BRANCH  34  36
ATOM     36  C   UNL A   1      43.711  24.636  26.993  1.00  0.00     0.060 A 
ATOM     37  C   UNL A   1      44.010  25.169  25.732  1.00  0.00     0.016 A 
ATOM     38  C   UNL A   1      44.129  25.288  28.155  1.00  0.00     0.016 A 
ATOM     39  C   UNL A   1      44.761  26.341  25.631  1.00  0.00     0.010 A 
ATOM     40  C   UNL A   1      44.897  26.450  28.051  1.00  0.00     0.010 A 
ATOM     41  C   UNL A   1      45.246  26.963  26.790  1.00  0.00    -0.014 A 
BRANCH  41  42
ATOM     42  C   UNL A   1      46.275  28.025  26.681  1.00  0.00     0.031 A 
ATOM     43  C   UNL A   1      45.826  29.460  26.721  1.00  0.00     0.074 A 
ATOM     44  C   UNL A   1      47.582  27.729  26.569  1.00  0.00     0.049 A 
ATOM     45  N   UNL A   1      46.528  30.557  26.598  1.00  0.00    -0.248 NA
ATOM     46  C   UNL A   1      44.385  29.686  26.922  1.00  0.00     0.031 C 
ATOM     47  C   UNL A   1      48.147  26.383  26.557  1.00  0.00     0.029 A 
ATOM     48  N   UNL A   1      48.670  28.555  26.433  1.00  0.00    -0.354 N 
ATOM     49  C   UNL A   1      45.615  31.600  26.699  1.00  0.00     0.074 A 
ATOM     50  C   UNL A   1      44.306  31.006  26.857  1.00  0.00     0.031 C 
ATOM     51  C   UNL A   1      49.481  26.473  26.409  1.00  0.00     0.029 A 
ATOM     52  C   UNL A   1      49.858  27.880  26.282  1.00  0.00     0.049 A 
ATOM     53  H   UNL A   1      48.607  29.537  26.443  1.00  0.00     0.167 HD
ATOM     54  C   UNL A   1      45.847  32.934  26.673  1.00  0.00     0.037 A 
ATOM     55  C   UNL A   1      51.100  28.348  26.044  1.00  0.00     0.037 A 
ATOM     56  C   UNL A   1      47.150  33.522  26.510  1.00  0.00     0.049 A 
ATOM     57  C   UNL A   1      51.322  29.836  25.940  1.00  0.00     0.074 A 
ATOM     58  C   UNL A   1      47.493  34.863  26.487  1.00  0.00     0.029 A 
ATOM     59  N   UNL A   1      48.324  32.805  26.331  1.00  0.00    -0.354 N 
ATOM     60  N   UNL A   1      50.460  30.816  26.067  1.00  0.00    -0.248 NA
ATOM     61  C   UNL A   1      52.696  30.283  25.662  1.00  0.00     0.031 C 
ATOM     62  C   UNL A   1      48.865  34.958  26.232  1.00  0.00     0.029 A 
ATOM     63  C   UNL A   1      49.388  33.676  26.167  1.00  0.00     0.049 A 
ATOM     64  H   UNL A   1      48.390  31.823  26.321  1.00  0.00     0.167 HD
ATOM     65  C   UNL A   1      51.190  31.991  25.922  1.00  0.00     0.074 A 
ATOM     66  C   UNL A   1      52.567  31.601  25.709  1.00  0.00     0.031 C 
ATOM     67  C   UNL A   1      50.759  33.276  25.968  1.00  0.00     0.037 A 
BRANCH  54  68
ATOM     68  C   UNL A   1      44.660  33.846  26.792  1.00  0.00     0.057 A 
ATOM     69  C   UNL A   1      44.203  34.315  28.031  1.00  0.00     0.134 A 
ATOM     70  C   UNL A   1      43.980  34.280  25.647  1.00  0.00     0.134 A 
ATOM     71  F   UNL A   1      44.800  33.926  29.168  1.00  0.00    -0.206 F 
ATOM     72  C   UNL A   1      43.097  35.162  28.128  1.00  0.00     0.040 A 
ATOM     73  C   UNL A   1      42.892  35.150  25.729  1.00  0.00     0.040 A 
ATOM     74  F   UNL A   1      44.366  33.872  24.428  1.00  0.00    -0.206 F 
ATOM     75  C   UNL A   1      42.443  35.588  26.974  1.00  0.00     0.006 A 
ENDBRANCH  54  68
BRANCH  55  76
ATOM     76  C   UNL A   1      52.234  27.403  25.875  1.00  0.00     0.057 A 
ATOM     77  C   UNL A   1      52.533  26.838  24.630  1.00  0.00     0.134 A 
ATOM     78  C   UNL A   1      53.027  27.017  26.963  1.00  0.00     0.134 A 
ATOM     79  F   UNL A   1      51.794  27.148  23.554  1.00  0.00    -0.206 F 
ATOM     80  C   UNL A   1      53.564  25.909  24.476  1.00  0.00     0.040 A 
ATOM     81  C   UNL A   1      54.080  26.111  26.817  1.00  0.00     0.040 A 
ATOM     82  F   UNL A   1      52.793  27.518  28.185  1.00  0.00    -0.206 F 
ATOM     83  C   UNL A   1      54.345  25.547  25.572  1.00  0.00     0.006 A 
ENDBRANCH  55  76
BRANCH  67  84
ATOM     84  C   UNL A   1      51.791  34.361  25.837  1.00  0.00     0.057 A 
ATOM     85  C   UNL A   1      52.309  35.038  26.949  1.00  0.00     0.134 A 
ATOM     86  C   UNL A   1      52.308  34.699  24.579  1.00  0.00     0.134 A 
ATOM     87  F   UNL A   1      51.851  34.771  28.182  1.00  0.00    -0.206 F 
ATOM     88  C   UNL A   1      53.282  36.030  26.811  1.00  0.00     0.040 A 
ATOM     89  C   UNL A   1      53.304  35.665  24.432  1.00  0.00     0.040 A 
ATOM     90  F   UNL A   1      51.866  34.082  23.472  1.00  0.00    -0.206 F 
ATOM     91  C   UNL A   1      53.789  36.339  25.550  1.00  0.00     0.006 A 
ENDBRANCH  67  84
ENDBRANCH  41  42
ENDBRANCH  34  36
ENDBRANCH  33  34
ENDBRANCH  32  33
ENDBRANCH  31  32
ENDBRANCH  30  31
ENDBRANCH  29  30
ENDBRANCH  28  29
ENDBRANCH  27  28
ENDBRANCH   1  27
TORSDOF 24
ENDMDL
