MODEL 1
REMARK VINA RESULT:      -9.7      0.000      0.000
REMARK SMILES C/C=C/C[C@@H](C(=O)OCCOCCOCCOCCOC(=O)c1ccc(-c2c3nc(c(-c4c(F)cccc4F)c4ccc([nH]4)c(-c4c(F)cccc4F)c4nc(c(-c5c(F)cccc5F)c5ccc2[nH]5)C=C4)C=C3)cc1)c1cccc(Cl)c1
REMARK SMILES IDX 14 1 13 2 12 3 11 4 10 5 9 6 8 7 6 8 7 9 5 10 4 11 3 12 1 13
REMARK SMILES IDX 2 14 77 15 78 16 83 17 79 18 81 19 80 20 82 21 15 22 16 23
REMARK SMILES IDX 17 24 18 25 19 26 20 27 21 28 22 29 23 30 24 31 76 32 25 33
REMARK SMILES IDX 75 34 26 35 27 36 28 37 69 38 29 39 74 40 68 41 70 42 30 43
REMARK SMILES IDX 73 44 67 45 66 46 31 48 57 49 40 50 56 51 41 52 44 53 55 54
REMARK SMILES IDX 71 55 42 56 43 57 54 59 72 60 45 61 32 62 33 63 38 64 34 65
REMARK SMILES IDX 35 66 37 67 39 68 36 69 58 70 59 71 64 72 60 73 61 74 63 75
REMARK SMILES IDX 65 76 62 77 46 78 47 79 52 80 48 81 49 82 51 83 53 84 50 85
REMARK H PARENT 70 47 44 58
REMARK Flexibility Score: inf
ROOT
ATOM      1  O   UNL A   1      40.778  20.452  27.635  1.00  0.00    -0.377 OA
ENDROOT
BRANCH   1   2
ATOM      2  C   UNL A   1      40.742  21.847  27.854  1.00  0.00     0.188 C 
BRANCH   2   3
ATOM      3  C   UNL A   1      40.000  22.726  26.836  1.00  0.00     0.188 C 
BRANCH   3   4
ATOM      4  O   UNL A   1      38.836  22.113  26.330  1.00  0.00    -0.376 OA
BRANCH   4   5
ATOM      5  C   UNL A   1      37.829  22.917  25.747  1.00  0.00     0.202 C 
BRANCH   5   6
ATOM      6  C   UNL A   1      36.346  22.506  25.611  1.00  0.00     0.261 C 
BRANCH   6   7
ATOM      7  O   UNL A   1      35.412  23.452  25.068  1.00  0.00    -0.463 OA
BRANCH   7   8
ATOM      8  C   UNL A   1      34.697  23.096  23.978  1.00  0.00     0.313 C 
ATOM      9  O   UNL A   1      35.204  22.963  22.866  1.00  0.00    -0.252 OA
BRANCH   8  10
ATOM     10  C   UNL A   1      33.193  22.838  24.241  1.00  0.00     0.133 C 
BRANCH  10  11
ATOM     11  C   UNL A   1      32.365  23.656  25.274  1.00  0.00     0.047 C 
BRANCH  11  12
ATOM     12  C   UNL A   1      30.976  23.199  25.644  1.00  0.00    -0.030 C 
ATOM     13  C   UNL A   1      29.150  22.612  27.251  1.00  0.00     0.035 C 
ATOM     14  C   UNL A   1      30.565  22.949  26.897  1.00  0.00    -0.035 C 
ENDBRANCH  11  12
ENDBRANCH  10  11
BRANCH  10  15
ATOM     15  C   UNL A   1      32.967  21.323  24.420  1.00  0.00    -0.032 A 
ATOM     16  C   UNL A   1      33.155  20.659  25.647  1.00  0.00     0.005 A 
ATOM     17  C   UNL A   1      32.650  20.540  23.301  1.00  0.00     0.025 A 
ATOM     18  C   UNL A   1      33.088  19.266  25.744  1.00  0.00     0.002 A 
ATOM     19  C   UNL A   1      32.554  19.150  23.407  1.00  0.00     0.041 A 
ATOM     20  C   UNL A   1      32.791  18.508  24.620  1.00  0.00     0.020 A 
ATOM     21  Cl  UNL A   1      32.152  18.217  22.019  1.00  0.00    -0.084 Cl
ENDBRANCH  10  15
ENDBRANCH   8  10
ENDBRANCH   7   8
ENDBRANCH   6   7
ENDBRANCH   5   6
ENDBRANCH   4   5
ENDBRANCH   3   4
ENDBRANCH   2   3
ENDBRANCH   1   2
BRANCH   1  22
ATOM     22  C   UNL A   1      41.995  19.847  27.232  1.00  0.00     0.188 C 
BRANCH  22  23
ATOM     23  C   UNL A   1      42.290  19.525  25.751  1.00  0.00     0.188 C 
BRANCH  23  24
ATOM     24  O   UNL A   1      43.370  20.242  25.174  1.00  0.00    -0.376 OA
BRANCH  24  25
ATOM     25  C   UNL A   1      43.677  21.524  25.697  1.00  0.00     0.202 C 
BRANCH  25  26
ATOM     26  C   UNL A   1      43.108  22.737  24.946  1.00  0.00     0.261 C 
BRANCH  26  27
ATOM     27  O   UNL A   1      43.979  23.872  24.832  1.00  0.00    -0.460 OA
BRANCH  27  28
ATOM     28  C   UNL A   1      44.745  24.177  25.900  1.00  0.00     0.338 C 
ATOM     29  O   UNL A   1      45.925  23.915  26.066  1.00  0.00    -0.246 OA
BRANCH  28  30
ATOM     30  C   UNL A   1      43.953  25.060  26.776  1.00  0.00     0.060 A 
ATOM     31  C   UNL A   1      44.102  26.449  26.658  1.00  0.00     0.016 A 
ATOM     32  C   UNL A   1      43.046  24.518  27.689  1.00  0.00     0.016 A 
ATOM     33  C   UNL A   1      43.360  27.300  27.473  1.00  0.00     0.010 A 
ATOM     34  C   UNL A   1      42.326  25.371  28.527  1.00  0.00     0.010 A 
ATOM     35  C   UNL A   1      42.505  26.764  28.444  1.00  0.00    -0.014 A 
BRANCH  35  36
ATOM     36  C   UNL A   1      41.975  27.643  29.513  1.00  0.00     0.031 A 
ATOM     37  C   UNL A   1      42.663  27.620  30.849  1.00  0.00     0.074 A 
ATOM     38  C   UNL A   1      40.928  28.460  29.301  1.00  0.00     0.049 A 
ATOM     39  N   UNL A   1      42.363  28.253  31.953  1.00  0.00    -0.248 NA
ATOM     40  C   UNL A   1      43.856  26.762  30.952  1.00  0.00     0.031 C 
ATOM     41  C   UNL A   1      40.211  28.610  28.038  1.00  0.00     0.029 A 
ATOM     42  N   UNL A   1      40.286  29.316  30.159  1.00  0.00    -0.354 N 
ATOM     43  C   UNL A   1      43.321  27.866  32.880  1.00  0.00     0.074 A 
ATOM     44  C   UNL A   1      44.194  26.919  32.222  1.00  0.00     0.031 C 
ATOM     45  C   UNL A   1      39.214  29.497  28.207  1.00  0.00     0.029 A 
ATOM     46  C   UNL A   1      39.204  29.948  29.598  1.00  0.00     0.049 A 
ATOM     47  H   UNL A   1      40.572  29.462  31.090  1.00  0.00     0.167 HD
ATOM     48  C   UNL A   1      43.468  28.270  34.163  1.00  0.00     0.037 A 
ATOM     49  C   UNL A   1      38.297  30.775  30.155  1.00  0.00     0.037 A 
ATOM     50  C   UNL A   1      42.593  29.207  34.817  1.00  0.00     0.049 A 
ATOM     51  C   UNL A   1      38.427  31.140  31.613  1.00  0.00     0.074 A 
ATOM     52  C   UNL A   1      42.661  29.688  36.112  1.00  0.00     0.029 A 
ATOM     53  N   UNL A   1      41.485  29.795  34.227  1.00  0.00    -0.354 N 
ATOM     54  N   UNL A   1      39.348  30.788  32.478  1.00  0.00    -0.248 NA
ATOM     55  C   UNL A   1      37.389  32.020  32.171  1.00  0.00     0.031 C 
ATOM     56  C   UNL A   1      41.557  30.520  36.324  1.00  0.00     0.029 A 
ATOM     57  C   UNL A   1      40.841  30.611  35.142  1.00  0.00     0.049 A 
ATOM     58  H   UNL A   1      41.199  29.652  33.296  1.00  0.00     0.167 HD
ATOM     59  C   UNL A   1      39.022  31.428  33.668  1.00  0.00     0.074 A 
ATOM     60  C   UNL A   1      37.825  32.200  33.410  1.00  0.00     0.031 C 
ATOM     61  C   UNL A   1      39.655  31.383  34.866  1.00  0.00     0.037 A 
BRANCH  48  62
ATOM     62  C   UNL A   1      44.597  27.672  34.951  1.00  0.00     0.057 A 
ATOM     63  C   UNL A   1      44.451  26.478  35.671  1.00  0.00     0.134 A 
ATOM     64  C   UNL A   1      45.854  28.289  34.973  1.00  0.00     0.134 A 
ATOM     65  F   UNL A   1      43.269  25.846  35.708  1.00  0.00    -0.206 F 
ATOM     66  C   UNL A   1      45.508  25.933  36.403  1.00  0.00     0.040 A 
ATOM     67  C   UNL A   1      46.927  27.738  35.675  1.00  0.00     0.040 A 
ATOM     68  F   UNL A   1      46.063  29.433  34.304  1.00  0.00    -0.206 F 
ATOM     69  C   UNL A   1      46.753  26.560  36.399  1.00  0.00     0.006 A 
ENDBRANCH  48  62
BRANCH  49  70
ATOM     70  C   UNL A   1      37.170  31.307  29.345  1.00  0.00     0.057 A 
ATOM     71  C   UNL A   1      36.038  30.529  29.072  1.00  0.00     0.134 A 
ATOM     72  C   UNL A   1      37.214  32.593  28.790  1.00  0.00     0.134 A 
ATOM     73  F   UNL A   1      35.947  29.280  29.552  1.00  0.00    -0.206 F 
ATOM     74  C   UNL A   1      35.003  30.999  28.261  1.00  0.00     0.040 A 
ATOM     75  C   UNL A   1      36.173  33.086  28.001  1.00  0.00     0.040 A 
ATOM     76  F   UNL A   1      38.270  33.390  29.009  1.00  0.00    -0.206 F 
ATOM     77  C   UNL A   1      35.067  32.284  27.727  1.00  0.00     0.006 A 
ENDBRANCH  49  70
BRANCH  61  78
ATOM     78  C   UNL A   1      39.098  32.226  35.979  1.00  0.00     0.057 A 
ATOM     79  C   UNL A   1      38.207  31.711  36.930  1.00  0.00     0.134 A 
ATOM     80  C   UNL A   1      39.497  33.561  36.127  1.00  0.00     0.134 A 
ATOM     81  F   UNL A   1      37.777  30.443  36.842  1.00  0.00    -0.206 F 
ATOM     82  C   UNL A   1      37.714  32.500  37.970  1.00  0.00     0.040 A 
ATOM     83  C   UNL A   1      39.036  34.351  37.181  1.00  0.00     0.040 A 
ATOM     84  F   UNL A   1      40.358  34.116  35.260  1.00  0.00    -0.206 F 
ATOM     85  C   UNL A   1      38.135  33.822  38.102  1.00  0.00     0.006 A 
ENDBRANCH  61  78
ENDBRANCH  35  36
ENDBRANCH  28  30
ENDBRANCH  27  28
ENDBRANCH  26  27
ENDBRANCH  25  26
ENDBRANCH  24  25
ENDBRANCH  23  24
ENDBRANCH  22  23
ENDBRANCH   1  22
TORSDOF 23
ENDMDL
MODEL 2
REMARK VINA RESULT:      -9.7      1.188      2.051
REMARK SMILES C/C=C/C[C@@H](C(=O)OCCOCCOCCOCCOC(=O)c1ccc(-c2c3nc(c(-c4c(F)cccc4F)c4ccc([nH]4)c(-c4c(F)cccc4F)c4nc(c(-c5c(F)cccc5F)c5ccc2[nH]5)C=C4)C=C3)cc1)c1cccc(Cl)c1
REMARK SMILES IDX 14 1 13 2 12 3 11 4 10 5 9 6 8 7 6 8 7 9 5 10 4 11 3 12 1 13
REMARK SMILES IDX 2 14 77 15 78 16 83 17 79 18 81 19 80 20 82 21 15 22 16 23
REMARK SMILES IDX 17 24 18 25 19 26 20 27 21 28 22 29 23 30 24 31 76 32 25 33
REMARK SMILES IDX 75 34 26 35 27 36 28 37 69 38 29 39 74 40 68 41 70 42 30 43
REMARK SMILES IDX 73 44 67 45 66 46 31 48 57 49 40 50 56 51 41 52 44 53 55 54
REMARK SMILES IDX 71 55 42 56 43 57 54 59 72 60 45 61 32 62 33 63 38 64 34 65
REMARK SMILES IDX 35 66 37 67 39 68 36 69 58 70 59 71 64 72 60 73 61 74 63 75
REMARK SMILES IDX 65 76 62 77 46 78 47 79 52 80 48 81 49 82 51 83 53 84 50 85
REMARK H PARENT 70 47 44 58
REMARK Flexibility Score: inf
ROOT
ATOM      1  O   UNL A   1      40.698  20.421  27.614  1.00  0.00    -0.377 OA
ENDROOT
BRANCH   1   2
ATOM      2  C   UNL A   1      40.688  21.809  27.875  1.00  0.00     0.188 C 
BRANCH   2   3
ATOM      3  C   UNL A   1      39.952  22.730  26.891  1.00  0.00     0.188 C 
BRANCH   3   4
ATOM      4  O   UNL A   1      38.911  22.075  26.202  1.00  0.00    -0.376 OA
BRANCH   4   5
ATOM      5  C   UNL A   1      37.866  22.842  25.637  1.00  0.00     0.202 C 
BRANCH   5   6
ATOM      6  C   UNL A   1      36.743  22.272  24.742  1.00  0.00     0.261 C 
BRANCH   6   7
ATOM      7  O   UNL A   1      36.225  20.964  25.030  1.00  0.00    -0.463 OA
BRANCH   7   8
ATOM      8  C   UNL A   1      34.927  20.851  25.388  1.00  0.00     0.313 C 
ATOM      9  O   UNL A   1      34.520  21.148  26.509  1.00  0.00    -0.252 OA
BRANCH   8  10
ATOM     10  C   UNL A   1      33.983  20.347  24.268  1.00  0.00     0.133 C 
BRANCH  10  11
ATOM     11  C   UNL A   1      32.703  21.118  23.834  1.00  0.00     0.047 C 
BRANCH  11  12
ATOM     12  C   UNL A   1      32.774  22.605  23.596  1.00  0.00    -0.030 C 
ATOM     13  C   UNL A   1      33.280  24.650  22.245  1.00  0.00     0.035 C 
ATOM     14  C   UNL A   1      33.328  23.179  22.515  1.00  0.00    -0.035 C 
ENDBRANCH  11  12
ENDBRANCH  10  11
BRANCH  10  15
ATOM     15  C   UNL A   1      33.682  18.853  24.500  1.00  0.00    -0.032 A 
ATOM     16  C   UNL A   1      32.375  18.338  24.591  1.00  0.00     0.005 A 
ATOM     17  C   UNL A   1      34.745  17.965  24.723  1.00  0.00     0.025 A 
ATOM     18  C   UNL A   1      32.133  17.009  24.949  1.00  0.00     0.002 A 
ATOM     19  C   UNL A   1      34.501  16.629  25.051  1.00  0.00     0.041 A 
ATOM     20  C   UNL A   1      33.200  16.152  25.184  1.00  0.00     0.020 A 
ATOM     21  Cl  UNL A   1      35.825  15.562  25.309  1.00  0.00    -0.084 Cl
ENDBRANCH  10  15
ENDBRANCH   8  10
ENDBRANCH   7   8
ENDBRANCH   6   7
ENDBRANCH   5   6
ENDBRANCH   4   5
ENDBRANCH   3   4
ENDBRANCH   2   3
ENDBRANCH   1   2
BRANCH   1  22
ATOM     22  C   UNL A   1      41.907  19.803  27.207  1.00  0.00     0.188 C 
BRANCH  22  23
ATOM     23  C   UNL A   1      42.233  19.559  25.718  1.00  0.00     0.188 C 
BRANCH  23  24
ATOM     24  O   UNL A   1      43.335  20.291  25.206  1.00  0.00    -0.376 OA
BRANCH  24  25
ATOM     25  C   UNL A   1      43.619  21.559  25.776  1.00  0.00     0.202 C 
BRANCH  25  26
ATOM     26  C   UNL A   1      43.131  22.794  25.004  1.00  0.00     0.261 C 
BRANCH  26  27
ATOM     27  O   UNL A   1      44.072  23.871  24.881  1.00  0.00    -0.460 OA
BRANCH  27  28
ATOM     28  C   UNL A   1      44.830  24.159  25.959  1.00  0.00     0.338 C 
ATOM     29  O   UNL A   1      46.006  23.882  26.134  1.00  0.00    -0.246 OA
BRANCH  28  30
ATOM     30  C   UNL A   1      44.040  25.043  26.835  1.00  0.00     0.060 A 
ATOM     31  C   UNL A   1      44.158  26.431  26.687  1.00  0.00     0.016 A 
ATOM     32  C   UNL A   1      43.164  24.500  27.778  1.00  0.00     0.016 A 
ATOM     33  C   UNL A   1      43.416  27.284  27.502  1.00  0.00     0.010 A 
ATOM     34  C   UNL A   1      42.445  25.355  28.615  1.00  0.00     0.010 A 
ATOM     35  C   UNL A   1      42.593  26.750  28.502  1.00  0.00    -0.014 A 
BRANCH  35  36
ATOM     36  C   UNL A   1      42.068  27.638  29.565  1.00  0.00     0.031 A 
ATOM     37  C   UNL A   1      42.766  27.630  30.897  1.00  0.00     0.074 A 
ATOM     38  C   UNL A   1      41.019  28.451  29.352  1.00  0.00     0.049 A 
ATOM     39  N   UNL A   1      42.471  28.274  31.996  1.00  0.00    -0.248 NA
ATOM     40  C   UNL A   1      43.961  26.776  31.001  1.00  0.00     0.031 C 
ATOM     41  C   UNL A   1      40.293  28.586  28.092  1.00  0.00     0.029 A 
ATOM     42  N   UNL A   1      40.380  29.314  30.206  1.00  0.00    -0.354 N 
ATOM     43  C   UNL A   1      43.437  27.899  32.920  1.00  0.00     0.074 A 
ATOM     44  C   UNL A   1      44.307  26.946  32.266  1.00  0.00     0.031 C 
ATOM     45  C   UNL A   1      39.295  29.472  28.259  1.00  0.00     0.029 A 
ATOM     46  C   UNL A   1      39.293  29.938  29.645  1.00  0.00     0.049 A 
ATOM     47  H   UNL A   1      40.672  29.471  31.133  1.00  0.00     0.167 HD
ATOM     48  C   UNL A   1      43.591  28.316  34.199  1.00  0.00     0.037 A 
ATOM     49  C   UNL A   1      38.388  30.769  30.200  1.00  0.00     0.037 A 
ATOM     50  C   UNL A   1      42.719  29.257  34.848  1.00  0.00     0.049 A 
ATOM     51  C   UNL A   1      38.527  31.148  31.653  1.00  0.00     0.074 A 
ATOM     52  C   UNL A   1      42.794  29.752  36.138  1.00  0.00     0.029 A 
ATOM     53  N   UNL A   1      41.605  29.837  34.260  1.00  0.00    -0.354 N 
ATOM     54  N   UNL A   1      39.454  30.807  32.515  1.00  0.00    -0.248 NA
ATOM     55  C   UNL A   1      37.491  32.032  32.209  1.00  0.00     0.031 C 
ATOM     56  C   UNL A   1      41.690  30.584  36.349  1.00  0.00     0.029 A 
ATOM     57  C   UNL A   1      40.966  30.662  35.171  1.00  0.00     0.049 A 
ATOM     58  H   UNL A   1      41.313  29.684  33.333  1.00  0.00     0.167 HD
ATOM     59  C   UNL A   1      39.135  31.459  33.701  1.00  0.00     0.074 A 
ATOM     60  C   UNL A   1      37.934  32.226  33.444  1.00  0.00     0.031 C 
ATOM     61  C   UNL A   1      39.777  31.428  34.895  1.00  0.00     0.037 A 
BRANCH  48  62
ATOM     62  C   UNL A   1      44.727  27.729  34.985  1.00  0.00     0.057 A 
ATOM     63  C   UNL A   1      46.021  28.265  34.938  1.00  0.00     0.134 A 
ATOM     64  C   UNL A   1      44.518  26.623  35.818  1.00  0.00     0.134 A 
ATOM     65  F   UNL A   1      46.294  29.313  34.146  1.00  0.00    -0.206 F 
ATOM     66  C   UNL A   1      47.070  27.708  35.671  1.00  0.00     0.040 A 
ATOM     67  C   UNL A   1      45.551  26.076  36.580  1.00  0.00     0.040 A 
ATOM     68  F   UNL A   1      43.303  26.060  35.912  1.00  0.00    -0.206 F 
ATOM     69  C   UNL A   1      46.833  26.615  36.503  1.00  0.00     0.006 A 
ENDBRANCH  48  62
BRANCH  49  70
ATOM     70  C   UNL A   1      37.254  31.290  29.392  1.00  0.00     0.057 A 
ATOM     71  C   UNL A   1      36.142  30.492  29.099  1.00  0.00     0.134 A 
ATOM     72  C   UNL A   1      37.273  32.586  28.860  1.00  0.00     0.134 A 
ATOM     73  F   UNL A   1      36.075  29.233  29.556  1.00  0.00    -0.206 F 
ATOM     74  C   UNL A   1      35.102  30.953  28.289  1.00  0.00     0.040 A 
ATOM     75  C   UNL A   1      36.226  33.070  28.073  1.00  0.00     0.040 A 
ATOM     76  F   UNL A   1      38.310  33.402  29.100  1.00  0.00    -0.206 F 
ATOM     77  C   UNL A   1      35.140  32.249  27.778  1.00  0.00     0.006 A 
ENDBRANCH  49  70
BRANCH  61  78
ATOM     78  C   UNL A   1      39.225  32.281  36.003  1.00  0.00     0.057 A 
ATOM     79  C   UNL A   1      39.633  33.607  36.197  1.00  0.00     0.134 A 
ATOM     80  C   UNL A   1      38.236  31.780  36.860  1.00  0.00     0.134 A 
ATOM     81  F   UNL A   1      40.583  34.147  35.418  1.00  0.00    -0.206 F 
ATOM     82  C   UNL A   1      39.097  34.393  37.218  1.00  0.00     0.040 A 
ATOM     83  C   UNL A   1      37.669  32.566  37.864  1.00  0.00     0.040 A 
ATOM     84  F   UNL A   1      37.790  30.521  36.724  1.00  0.00    -0.206 F 
ATOM     85  C   UNL A   1      38.106  33.875  38.050  1.00  0.00     0.006 A 
ENDBRANCH  61  78
ENDBRANCH  35  36
ENDBRANCH  28  30
ENDBRANCH  27  28
ENDBRANCH  26  27
ENDBRANCH  25  26
ENDBRANCH  24  25
ENDBRANCH  23  24
ENDBRANCH  22  23
ENDBRANCH   1  22
TORSDOF 23
ENDMDL
MODEL 3
REMARK VINA RESULT:      -9.6      1.587      2.271
REMARK SMILES C/C=C/C[C@@H](C(=O)OCCOCCOCCOCCOC(=O)c1ccc(-c2c3nc(c(-c4c(F)cccc4F)c4ccc([nH]4)c(-c4c(F)cccc4F)c4nc(c(-c5c(F)cccc5F)c5ccc2[nH]5)C=C4)C=C3)cc1)c1cccc(Cl)c1
REMARK SMILES IDX 14 1 13 2 12 3 11 4 10 5 9 6 8 7 6 8 7 9 5 10 4 11 3 12 1 13
REMARK SMILES IDX 2 14 77 15 78 16 83 17 79 18 81 19 80 20 82 21 15 22 16 23
REMARK SMILES IDX 17 24 18 25 19 26 20 27 21 28 22 29 23 30 24 31 76 32 25 33
REMARK SMILES IDX 75 34 26 35 27 36 28 37 69 38 29 39 74 40 68 41 70 42 30 43
REMARK SMILES IDX 73 44 67 45 66 46 31 48 57 49 40 50 56 51 41 52 44 53 55 54
REMARK SMILES IDX 71 55 42 56 43 57 54 59 72 60 45 61 32 62 33 63 38 64 34 65
REMARK SMILES IDX 35 66 37 67 39 68 36 69 58 70 59 71 64 72 60 73 61 74 63 75
REMARK SMILES IDX 65 76 62 77 46 78 47 79 52 80 48 81 49 82 51 83 53 84 50 85
REMARK H PARENT 70 47 44 58
REMARK Flexibility Score: inf
ROOT
ATOM      1  O   UNL A   1      42.726  20.358  25.580  1.00  0.00    -0.377 OA
ENDROOT
BRANCH   1   2
ATOM      2  C   UNL A   1      41.859  20.226  26.687  1.00  0.00     0.188 C 
BRANCH   2   3
ATOM      3  C   UNL A   1      40.357  20.458  26.468  1.00  0.00     0.188 C 
BRANCH   3   4
ATOM      4  O   UNL A   1      40.067  21.754  25.995  1.00  0.00    -0.376 OA
BRANCH   4   5
ATOM      5  C   UNL A   1      38.717  22.156  25.863  1.00  0.00     0.202 C 
BRANCH   5   6
ATOM      6  C   UNL A   1      37.621  21.331  25.153  1.00  0.00     0.261 C 
BRANCH   6   7
ATOM      7  O   UNL A   1      36.449  20.956  25.893  1.00  0.00    -0.463 OA
BRANCH   7   8
ATOM      8  C   UNL A   1      35.237  21.201  25.347  1.00  0.00     0.313 C 
ATOM      9  O   UNL A   1      34.643  20.380  24.652  1.00  0.00    -0.252 OA
BRANCH   8  10
ATOM     10  C   UNL A   1      34.637  22.587  25.688  1.00  0.00     0.133 C 
BRANCH  10  11
ATOM     11  C   UNL A   1      33.771  22.843  26.956  1.00  0.00     0.047 C 
BRANCH  11  12
ATOM     12  C   UNL A   1      32.289  22.570  26.912  1.00  0.00    -0.030 C 
ATOM     13  C   UNL A   1      29.876  23.231  26.848  1.00  0.00     0.035 C 
ATOM     14  C   UNL A   1      31.337  23.512  27.014  1.00  0.00    -0.035 C 
ENDBRANCH  11  12
ENDBRANCH  10  11
BRANCH  10  15
ATOM     15  C   UNL A   1      33.964  23.167  24.427  1.00  0.00    -0.032 A 
ATOM     16  C   UNL A   1      33.353  22.365  23.445  1.00  0.00     0.005 A 
ATOM     17  C   UNL A   1      34.034  24.547  24.186  1.00  0.00     0.025 A 
ATOM     18  C   UNL A   1      32.885  22.905  22.244  1.00  0.00     0.002 A 
ATOM     19  C   UNL A   1      33.537  25.089  22.998  1.00  0.00     0.041 A 
ATOM     20  C   UNL A   1      32.980  24.272  22.018  1.00  0.00     0.020 A 
ATOM     21  Cl  UNL A   1      33.627  26.787  22.735  1.00  0.00    -0.084 Cl
ENDBRANCH  10  15
ENDBRANCH   8  10
ENDBRANCH   7   8
ENDBRANCH   6   7
ENDBRANCH   5   6
ENDBRANCH   4   5
ENDBRANCH   3   4
ENDBRANCH   2   3
ENDBRANCH   1   2
BRANCH   1  22
ATOM     22  C   UNL A   1      43.714  19.367  25.352  1.00  0.00     0.188 C 
BRANCH  22  23
ATOM     23  C   UNL A   1      45.151  19.737  24.925  1.00  0.00     0.188 C 
BRANCH  23  24
ATOM     24  O   UNL A   1      45.620  20.994  25.386  1.00  0.00    -0.376 OA
BRANCH  24  25
ATOM     25  C   UNL A   1      46.405  21.779  24.503  1.00  0.00     0.202 C 
BRANCH  25  26
ATOM     26  C   UNL A   1      45.987  23.244  24.315  1.00  0.00     0.261 C 
BRANCH  26  27
ATOM     27  O   UNL A   1      45.096  23.776  25.306  1.00  0.00    -0.460 OA
BRANCH  27  28
ATOM     28  C   UNL A   1      43.783  23.824  25.000  1.00  0.00     0.338 C 
ATOM     29  O   UNL A   1      43.176  23.107  24.220  1.00  0.00    -0.246 OA
BRANCH  28  30
ATOM     30  C   UNL A   1      43.148  24.786  25.919  1.00  0.00     0.060 A 
ATOM     31  C   UNL A   1      43.650  26.092  25.992  1.00  0.00     0.016 A 
ATOM     32  C   UNL A   1      42.042  24.406  26.682  1.00  0.00     0.016 A 
ATOM     33  C   UNL A   1      43.061  27.018  26.850  1.00  0.00     0.010 A 
ATOM     34  C   UNL A   1      41.472  25.326  27.565  1.00  0.00     0.010 A 
ATOM     35  C   UNL A   1      42.000  26.625  27.677  1.00  0.00    -0.014 A 
BRANCH  35  36
ATOM     36  C   UNL A   1      41.595  27.494  28.805  1.00  0.00     0.031 A 
ATOM     37  C   UNL A   1      42.381  27.400  30.083  1.00  0.00     0.074 A 
ATOM     38  C   UNL A   1      40.576  28.365  28.696  1.00  0.00     0.049 A 
ATOM     39  N   UNL A   1      42.195  28.014  31.223  1.00  0.00    -0.248 NA
ATOM     40  C   UNL A   1      43.536  26.486  30.072  1.00  0.00     0.031 C 
ATOM     41  C   UNL A   1      39.774  28.585  27.496  1.00  0.00     0.029 A 
ATOM     42  N   UNL A   1      40.042  29.223  29.623  1.00  0.00    -0.354 N 
ATOM     43  C   UNL A   1      43.202  27.556  32.063  1.00  0.00     0.074 A 
ATOM     44  C   UNL A   1      43.975  26.589  31.316  1.00  0.00     0.031 C 
ATOM     45  C   UNL A   1      38.836  29.511  27.765  1.00  0.00     0.029 A 
ATOM     46  C   UNL A   1      38.952  29.921  29.163  1.00  0.00     0.049 A 
ATOM     47  H   UNL A   1      40.404  29.329  30.533  1.00  0.00     0.167 HD
ATOM     48  C   UNL A   1      43.464  27.914  33.342  1.00  0.00     0.037 A 
ATOM     49  C   UNL A   1      38.131  30.772  29.810  1.00  0.00     0.037 A 
ATOM     50  C   UNL A   1      42.687  28.870  34.085  1.00  0.00     0.049 A 
ATOM     51  C   UNL A   1      38.388  31.086  31.262  1.00  0.00     0.074 A 
ATOM     52  C   UNL A   1      42.875  29.309  35.383  1.00  0.00     0.029 A 
ATOM     53  N   UNL A   1      41.566  29.526  33.598  1.00  0.00    -0.354 N 
ATOM     54  N   UNL A   1      39.353  30.667  32.044  1.00  0.00    -0.248 NA
ATOM     55  C   UNL A   1      37.439  31.996  31.922  1.00  0.00     0.031 C 
ATOM     56  C   UNL A   1      41.832  30.184  35.701  1.00  0.00     0.029 A 
ATOM     57  C   UNL A   1      41.033  30.343  34.580  1.00  0.00     0.049 A 
ATOM     58  H   UNL A   1      41.204  29.424  32.688  1.00  0.00     0.167 HD
ATOM     59  C   UNL A   1      39.149  31.285  33.272  1.00  0.00     0.074 A 
ATOM     60  C   UNL A   1      37.974  32.119  33.128  1.00  0.00     0.031 C 
ATOM     61  C   UNL A   1      39.869  31.176  34.417  1.00  0.00     0.037 A 
BRANCH  48  62
ATOM     62  C   UNL A   1      44.619  27.242  34.025  1.00  0.00     0.057 A 
ATOM     63  C   UNL A   1      45.908  27.792  34.021  1.00  0.00     0.134 A 
ATOM     64  C   UNL A   1      44.434  26.038  34.715  1.00  0.00     0.134 A 
ATOM     65  F   UNL A   1      46.158  28.935  33.363  1.00  0.00    -0.206 F 
ATOM     66  C   UNL A   1      46.976  27.156  34.657  1.00  0.00     0.040 A 
ATOM     67  C   UNL A   1      45.486  25.407  35.381  1.00  0.00     0.040 A 
ATOM     68  F   UNL A   1      43.226  25.457  34.760  1.00  0.00    -0.206 F 
ATOM     69  C   UNL A   1      46.764  25.964  35.347  1.00  0.00     0.006 A 
ENDBRANCH  48  62
BRANCH  49  70
ATOM     70  C   UNL A   1      36.972  31.378  29.103  1.00  0.00     0.057 A 
ATOM     71  C   UNL A   1      35.820  30.635  28.822  1.00  0.00     0.134 A 
ATOM     72  C   UNL A   1      37.005  32.706  28.655  1.00  0.00     0.134 A 
ATOM     73  F   UNL A   1      35.737  29.351  29.201  1.00  0.00    -0.206 F 
ATOM     74  C   UNL A   1      34.752  31.179  28.104  1.00  0.00     0.040 A 
ATOM     75  C   UNL A   1      35.934  33.271  27.962  1.00  0.00     0.040 A 
ATOM     76  F   UNL A   1      38.080  33.473  28.888  1.00  0.00    -0.206 F 
ATOM     77  C   UNL A   1      34.806  32.504  27.676  1.00  0.00     0.006 A 
ENDBRANCH  49  70
BRANCH  61  78
ATOM     78  C   UNL A   1      39.438  32.010  35.591  1.00  0.00     0.057 A 
ATOM     79  C   UNL A   1      38.551  31.528  36.562  1.00  0.00     0.134 A 
ATOM     80  C   UNL A   1      39.957  33.298  35.776  1.00  0.00     0.134 A 
ATOM     81  F   UNL A   1      38.009  30.306  36.442  1.00  0.00    -0.206 F 
ATOM     82  C   UNL A   1      38.176  32.307  37.658  1.00  0.00     0.040 A 
ATOM     83  C   UNL A   1      39.615  34.074  36.884  1.00  0.00     0.040 A 
ATOM     84  F   UNL A   1      40.822  33.819  34.891  1.00  0.00    -0.206 F 
ATOM     85  C   UNL A   1      38.715  33.581  37.825  1.00  0.00     0.006 A 
ENDBRANCH  61  78
ENDBRANCH  35  36
ENDBRANCH  28  30
ENDBRANCH  27  28
ENDBRANCH  26  27
ENDBRANCH  25  26
ENDBRANCH  24  25
ENDBRANCH  23  24
ENDBRANCH  22  23
ENDBRANCH   1  22
TORSDOF 23
ENDMDL
