MODEL 1
REMARK VINA RESULT:     -10.6      0.000      0.000
REMARK SMILES Cc1ncccc1NC(=O)NC[C@H]1CCC[C@H]1C(=O)OCCOCCOCCOCCOC(=O)c1ccc(-c2c3nc(c(-c4c(F)cccc4F)c4ccc([nH]4)c(-c4c(F)cccc4F)c4nc(c(-c5c(F)cccc5F)c5ccc2[nH]5)C=C4)C=C3)cc1
REMARK SMILES IDX 25 1 24 2 23 3 22 4 21 5 20 6 18 7 19 8 17 9 13 10 14 11
REMARK SMILES IDX 15 12 16 13 12 14 11 15 8 16 9 17 10 19 7 21 1 22 2 23 3 24
REMARK SMILES IDX 4 25 6 26 5 27 26 28 27 29 28 30 29 31 30 32 31 33 32 34
REMARK SMILES IDX 33 35 34 36 35 37 36 38 88 39 37 40 87 41 38 42 39 43 40 44
REMARK SMILES IDX 81 45 41 46 86 47 80 48 82 49 42 50 85 51 79 52 78 53 43 55
REMARK SMILES IDX 69 56 52 57 68 58 53 59 56 60 67 61 83 62 54 63 55 64 66 66
REMARK SMILES IDX 84 67 57 68 44 69 45 70 50 71 46 72 47 73 49 74 51 75 48 76
REMARK SMILES IDX 70 77 71 78 76 79 72 80 73 81 75 82 77 83 74 84 58 85 59 86
REMARK SMILES IDX 64 87 60 88 61 89 63 90 65 91 62 92
REMARK H PARENT 8 18 11 20 82 54 56 65
REMARK Flexibility Score: inf
ROOT
ATOM      1  C   UNL A   1      41.028  20.827  27.167  1.00  0.00     0.188 C 
ENDROOT
BRANCH   1   2
ATOM      2  C   UNL A   1      39.934  21.102  26.129  1.00  0.00     0.188 C 
BRANCH   2   3
ATOM      3  O   UNL A   1      39.227  22.293  26.391  1.00  0.00    -0.376 OA
BRANCH   3   4
ATOM      4  C   UNL A   1      37.976  22.509  25.767  1.00  0.00     0.202 C 
BRANCH   4   5
ATOM      5  C   UNL A   1      37.215  23.848  25.857  1.00  0.00     0.261 C 
BRANCH   5   6
ATOM      6  O   UNL A   1      36.046  24.008  25.036  1.00  0.00    -0.463 OA
BRANCH   6   7
ATOM      7  C   UNL A   1      34.919  23.406  25.480  1.00  0.00     0.309 C 
ATOM      8  O   UNL A   1      34.600  23.340  26.663  1.00  0.00    -0.252 OA
BRANCH   7   9
ATOM      9  C   UNL A   1      34.043  22.818  24.390  1.00  0.00     0.104 C 
ATOM     10  C   UNL A   1      32.511  22.840  24.367  1.00  0.00     0.022 C 
ATOM     11  C   UNL A   1      32.259  22.258  22.958  1.00  0.00     0.006 C 
ATOM     12  C   UNL A   1      33.271  22.985  22.084  1.00  0.00     0.001 C 
ATOM     13  C   UNL A   1      34.445  23.323  23.005  1.00  0.00     0.016 C 
BRANCH  10  14
ATOM     14  C   UNL A   1      31.690  24.138  24.496  1.00  0.00     0.122 C 
BRANCH  14  15
ATOM     15  N   UNL A   1      30.543  24.184  25.360  1.00  0.00    -0.338 N 
ATOM     16  N   UNL A   1      30.650  26.302  26.466  1.00  0.00    -0.306 N 
ATOM     17  C   UNL A   1      30.066  25.113  26.207  1.00  0.00     0.319 C 
ATOM     18  H   UNL A   1      30.332  26.693  27.312  1.00  0.00     0.171 HD
ATOM     19  O   UNL A   1      29.072  24.812  26.876  1.00  0.00    -0.249 OA
ATOM     20  H   UNL A   1      29.993  23.368  25.324  1.00  0.00     0.165 HD
BRANCH  16  21
ATOM     21  C   UNL A   1      31.601  27.127  25.830  1.00  0.00     0.064 A 
ATOM     22  C   UNL A   1      30.013  27.606  23.876  1.00  0.00     0.069 C 
ATOM     23  C   UNL A   1      31.277  27.827  24.654  1.00  0.00     0.061 A 
ATOM     24  N   UNL A   1      32.113  28.744  24.089  1.00  0.00    -0.259 NA
ATOM     25  C   UNL A   1      33.310  28.950  24.670  1.00  0.00     0.111 A 
ATOM     26  C   UNL A   1      32.906  27.271  26.304  1.00  0.00     0.030 A 
ATOM     27  C   UNL A   1      33.759  28.225  25.753  1.00  0.00     0.022 A 
ENDBRANCH  16  21
ENDBRANCH  14  15
ENDBRANCH  10  14
ENDBRANCH   7   9
ENDBRANCH   6   7
ENDBRANCH   5   6
ENDBRANCH   4   5
ENDBRANCH   3   4
ENDBRANCH   2   3
ENDBRANCH   1   2
BRANCH   1  28
ATOM     28  O   UNL A   1      41.756  19.611  27.096  1.00  0.00    -0.377 OA
BRANCH  28  29
ATOM     29  C   UNL A   1      42.288  19.189  25.843  1.00  0.00     0.188 C 
BRANCH  29  30
ATOM     30  C   UNL A   1      43.648  18.458  25.747  1.00  0.00     0.188 C 
BRANCH  30  31
ATOM     31  O   UNL A   1      44.758  19.268  25.399  1.00  0.00    -0.376 OA
BRANCH  31  32
ATOM     32  C   UNL A   1      44.485  20.524  24.792  1.00  0.00     0.202 C 
BRANCH  32  33
ATOM     33  C   UNL A   1      44.665  21.775  25.668  1.00  0.00     0.261 C 
BRANCH  33  34
ATOM     34  O   UNL A   1      43.611  22.747  25.589  1.00  0.00    -0.460 OA
BRANCH  34  35
ATOM     35  C   UNL A   1      43.958  23.995  25.220  1.00  0.00     0.338 C 
ATOM     36  O   UNL A   1      44.636  24.324  24.257  1.00  0.00    -0.246 OA
BRANCH  35  37
ATOM     37  C   UNL A   1      43.246  24.941  26.094  1.00  0.00     0.060 A 
ATOM     38  C   UNL A   1      43.697  26.264  26.177  1.00  0.00     0.016 A 
ATOM     39  C   UNL A   1      42.151  24.511  26.846  1.00  0.00     0.016 A 
ATOM     40  C   UNL A   1      43.070  27.158  27.042  1.00  0.00     0.010 A 
ATOM     41  C   UNL A   1      41.540  25.401  27.731  1.00  0.00     0.010 A 
ATOM     42  C   UNL A   1      42.020  26.717  27.857  1.00  0.00    -0.014 A 
BRANCH  42  43
ATOM     43  C   UNL A   1      41.567  27.567  28.983  1.00  0.00     0.031 A 
ATOM     44  C   UNL A   1      42.312  27.480  30.286  1.00  0.00     0.074 A 
ATOM     45  C   UNL A   1      40.536  28.418  28.847  1.00  0.00     0.049 A 
ATOM     46  N   UNL A   1      42.080  28.086  31.421  1.00  0.00    -0.248 NA
ATOM     47  C   UNL A   1      43.478  26.580  30.310  1.00  0.00     0.031 C 
ATOM     48  C   UNL A   1      39.768  28.630  27.622  1.00  0.00     0.029 A 
ATOM     49  N   UNL A   1      39.955  29.260  29.762  1.00  0.00    -0.354 N 
ATOM     50  C   UNL A   1      43.063  27.636  32.295  1.00  0.00     0.074 A 
ATOM     51  C   UNL A   1      43.872  26.682  31.569  1.00  0.00     0.031 C 
ATOM     52  C   UNL A   1      38.807  29.538  27.865  1.00  0.00     0.029 A 
ATOM     53  C   UNL A   1      38.871  29.943  29.268  1.00  0.00     0.049 A 
ATOM     54  H   UNL A   1      40.285  29.365  30.684  1.00  0.00     0.167 HD
ATOM     55  C   UNL A   1      43.274  27.990  33.584  1.00  0.00     0.037 A 
ATOM     56  C   UNL A   1      38.017  30.779  29.890  1.00  0.00     0.037 A 
ATOM     57  C   UNL A   1      42.461  28.934  34.304  1.00  0.00     0.049 A 
ATOM     58  C   UNL A   1      38.219  31.092  31.351  1.00  0.00     0.074 A 
ATOM     59  C   UNL A   1      42.600  29.374  35.607  1.00  0.00     0.029 A 
ATOM     60  N   UNL A   1      41.345  29.573  33.782  1.00  0.00    -0.354 N 
ATOM     61  N   UNL A   1      39.163  30.682  32.164  1.00  0.00    -0.248 NA
ATOM     62  C   UNL A   1      37.236  31.985  31.980  1.00  0.00     0.031 C 
ATOM     63  C   UNL A   1      41.532  30.229  35.896  1.00  0.00     0.029 A 
ATOM     64  C   UNL A   1      40.767  30.378  34.750  1.00  0.00     0.049 A 
ATOM     65  H   UNL A   1      41.013  29.470  32.861  1.00  0.00     0.167 HD
ATOM     66  C   UNL A   1      38.908  31.293  33.387  1.00  0.00     0.074 A 
ATOM     67  C   UNL A   1      37.726  32.110  33.205  1.00  0.00     0.031 C 
ATOM     68  C   UNL A   1      39.592  31.191  34.554  1.00  0.00     0.037 A 
BRANCH  55  69
ATOM     69  C   UNL A   1      44.405  27.318  34.308  1.00  0.00     0.057 A 
ATOM     70  C   UNL A   1      44.255  26.077  34.940  1.00  0.00     0.134 A 
ATOM     71  C   UNL A   1      45.669  27.920  34.362  1.00  0.00     0.134 A 
ATOM     72  F   UNL A   1      43.067  25.453  34.942  1.00  0.00    -0.206 F 
ATOM     73  C   UNL A   1      45.312  25.473  35.626  1.00  0.00     0.040 A 
ATOM     74  C   UNL A   1      46.741  27.312  35.017  1.00  0.00     0.040 A 
ATOM     75  F   UNL A   1      45.884  29.107  33.776  1.00  0.00    -0.206 F 
ATOM     76  C   UNL A   1      46.561  26.088  35.659  1.00  0.00     0.006 A 
ENDBRANCH  55  69
BRANCH  56  77
ATOM     77  C   UNL A   1      36.881  31.375  29.140  1.00  0.00     0.057 A 
ATOM     78  C   UNL A   1      35.749  30.618  28.815  1.00  0.00     0.134 A 
ATOM     79  C   UNL A   1      36.908  32.708  28.712  1.00  0.00     0.134 A 
ATOM     80  F   UNL A   1      35.676  29.327  29.173  1.00  0.00    -0.206 F 
ATOM     81  C   UNL A   1      34.694  31.158  28.078  1.00  0.00     0.040 A 
ATOM     82  C   UNL A   1      35.847  33.270  27.999  1.00  0.00     0.040 A 
ATOM     83  F   UNL A   1      37.965  33.486  28.986  1.00  0.00    -0.206 F 
ATOM     84  C   UNL A   1      34.739  32.491  27.674  1.00  0.00     0.006 A 
ENDBRANCH  56  77
BRANCH  68  85
ATOM     85  C   UNL A   1      39.110  32.015  35.715  1.00  0.00     0.057 A 
ATOM     86  C   UNL A   1      39.500  33.348  35.896  1.00  0.00     0.134 A 
ATOM     87  C   UNL A   1      38.205  31.477  36.641  1.00  0.00     0.134 A 
ATOM     88  F   UNL A   1      40.372  33.923  35.054  1.00  0.00    -0.206 F 
ATOM     89  C   UNL A   1      39.028  34.108  36.969  1.00  0.00     0.040 A 
ATOM     90  C   UNL A   1      37.702  32.236  37.698  1.00  0.00     0.040 A 
ATOM     91  F   UNL A   1      37.780  30.211  36.522  1.00  0.00    -0.206 F 
ATOM     92  C   UNL A   1      38.119  33.554  37.870  1.00  0.00     0.006 A 
ENDBRANCH  68  85
ENDBRANCH  42  43
ENDBRANCH  35  37
ENDBRANCH  34  35
ENDBRANCH  33  34
ENDBRANCH  32  33
ENDBRANCH  31  32
ENDBRANCH  30  31
ENDBRANCH  29  30
ENDBRANCH  28  29
ENDBRANCH   1  28
TORSDOF 23
ENDMDL
MODEL 2
REMARK VINA RESULT:     -10.5      4.904     10.199
REMARK SMILES Cc1ncccc1NC(=O)NC[C@H]1CCC[C@H]1C(=O)OCCOCCOCCOCCOC(=O)c1ccc(-c2c3nc(c(-c4c(F)cccc4F)c4ccc([nH]4)c(-c4c(F)cccc4F)c4nc(c(-c5c(F)cccc5F)c5ccc2[nH]5)C=C4)C=C3)cc1
REMARK SMILES IDX 25 1 24 2 23 3 22 4 21 5 20 6 18 7 19 8 17 9 13 10 14 11
REMARK SMILES IDX 15 12 16 13 12 14 11 15 8 16 9 17 10 19 7 21 1 22 2 23 3 24
REMARK SMILES IDX 4 25 6 26 5 27 26 28 27 29 28 30 29 31 30 32 31 33 32 34
REMARK SMILES IDX 33 35 34 36 35 37 36 38 88 39 37 40 87 41 38 42 39 43 40 44
REMARK SMILES IDX 81 45 41 46 86 47 80 48 82 49 42 50 85 51 79 52 78 53 43 55
REMARK SMILES IDX 69 56 52 57 68 58 53 59 56 60 67 61 83 62 54 63 55 64 66 66
REMARK SMILES IDX 84 67 57 68 44 69 45 70 50 71 46 72 47 73 49 74 51 75 48 76
REMARK SMILES IDX 70 77 71 78 76 79 72 80 73 81 75 82 77 83 74 84 58 85 59 86
REMARK SMILES IDX 64 87 60 88 61 89 63 90 65 91 62 92
REMARK H PARENT 8 18 11 20 82 54 56 65
REMARK Flexibility Score: inf
ROOT
ATOM      1  C   UNL A   1      35.572  32.043  27.733  1.00  0.00     0.188 C 
ENDROOT
BRANCH   1   2
ATOM      2  C   UNL A   1      34.975  30.632  27.686  1.00  0.00     0.188 C 
BRANCH   2   3
ATOM      3  O   UNL A   1      33.579  30.629  27.881  1.00  0.00    -0.376 OA
BRANCH   3   4
ATOM      4  C   UNL A   1      32.729  30.994  26.810  1.00  0.00     0.202 C 
BRANCH   4   5
ATOM      5  C   UNL A   1      31.571  30.101  26.320  1.00  0.00     0.261 C 
BRANCH   5   6
ATOM      6  O   UNL A   1      31.537  29.760  24.923  1.00  0.00    -0.463 OA
BRANCH   6   7
ATOM      7  C   UNL A   1      31.244  28.473  24.630  1.00  0.00     0.309 C 
ATOM      8  O   UNL A   1      30.275  28.128  23.960  1.00  0.00    -0.252 OA
BRANCH   7   9
ATOM      9  C   UNL A   1      32.225  27.458  25.182  1.00  0.00     0.104 C 
ATOM     10  C   UNL A   1      31.863  26.235  26.032  1.00  0.00     0.022 C 
ATOM     11  C   UNL A   1      33.244  25.549  26.112  1.00  0.00     0.006 C 
ATOM     12  C   UNL A   1      33.774  25.641  24.688  1.00  0.00     0.001 C 
ATOM     13  C   UNL A   1      33.137  26.898  24.091  1.00  0.00     0.016 C 
BRANCH  10  14
ATOM     14  C   UNL A   1      30.836  25.178  25.582  1.00  0.00     0.122 C 
BRANCH  14  15
ATOM     15  N   UNL A   1      30.067  24.457  26.558  1.00  0.00    -0.338 N 
ATOM     16  N   UNL A   1      30.823  22.191  26.435  1.00  0.00    -0.306 N 
ATOM     17  C   UNL A   1      30.054  23.172  26.954  1.00  0.00     0.319 C 
ATOM     18  H   UNL A   1      30.461  21.296  26.630  1.00  0.00     0.171 HD
ATOM     19  O   UNL A   1      29.201  22.844  27.786  1.00  0.00    -0.249 OA
ATOM     20  H   UNL A   1      29.415  25.020  27.036  1.00  0.00     0.165 HD
BRANCH  16  21
ATOM     21  C   UNL A   1      32.015  22.124  25.683  1.00  0.00     0.064 A 
ATOM     22  C   UNL A   1      33.459  22.184  27.800  1.00  0.00     0.069 C 
ATOM     23  C   UNL A   1      33.264  22.022  26.320  1.00  0.00     0.061 A 
ATOM     24  N   UNL A   1      34.424  21.809  25.637  1.00  0.00    -0.259 NA
ATOM     25  C   UNL A   1      34.361  21.734  24.294  1.00  0.00     0.111 A 
ATOM     26  C   UNL A   1      32.027  22.186  24.289  1.00  0.00     0.030 A 
ATOM     27  C   UNL A   1      33.201  21.942  23.579  1.00  0.00     0.022 A 
ENDBRANCH  16  21
ENDBRANCH  14  15
ENDBRANCH  10  14
ENDBRANCH   7   9
ENDBRANCH   6   7
ENDBRANCH   5   6
ENDBRANCH   4   5
ENDBRANCH   3   4
ENDBRANCH   2   3
ENDBRANCH   1   2
BRANCH   1  28
ATOM     28  O   UNL A   1      35.363  32.842  28.887  1.00  0.00    -0.377 OA
BRANCH  28  29
ATOM     29  C   UNL A   1      34.361  33.856  28.861  1.00  0.00     0.188 C 
BRANCH  29  30
ATOM     30  C   UNL A   1      33.863  34.534  30.160  1.00  0.00     0.188 C 
BRANCH  30  31
ATOM     31  O   UNL A   1      34.821  34.654  31.197  1.00  0.00    -0.376 OA
BRANCH  31  32
ATOM     32  C   UNL A   1      34.372  34.438  32.528  1.00  0.00     0.202 C 
BRANCH  32  33
ATOM     33  C   UNL A   1      34.521  33.016  33.093  1.00  0.00     0.261 C 
BRANCH  33  34
ATOM     34  O   UNL A   1      35.544  32.209  32.487  1.00  0.00    -0.460 OA
BRANCH  34  35
ATOM     35  C   UNL A   1      36.638  31.952  33.230  1.00  0.00     0.338 C 
ATOM     36  O   UNL A   1      36.771  32.105  34.435  1.00  0.00    -0.246 OA
BRANCH  35  37
ATOM     37  C   UNL A   1      37.630  31.296  32.364  1.00  0.00     0.060 A 
ATOM     38  C   UNL A   1      38.699  30.607  32.951  1.00  0.00     0.016 A 
ATOM     39  C   UNL A   1      37.513  31.382  30.975  1.00  0.00     0.016 A 
ATOM     40  C   UNL A   1      39.677  30.027  32.146  1.00  0.00     0.010 A 
ATOM     41  C   UNL A   1      38.507  30.823  30.171  1.00  0.00     0.010 A 
ATOM     42  C   UNL A   1      39.611  30.175  30.755  1.00  0.00    -0.014 A 
BRANCH  42  43
ATOM     43  C   UNL A   1      40.794  29.837  29.930  1.00  0.00     0.031 A 
ATOM     44  C   UNL A   1      40.874  28.461  29.329  1.00  0.00     0.074 A 
ATOM     45  C   UNL A   1      41.763  30.737  29.695  1.00  0.00     0.049 A 
ATOM     46  N   UNL A   1      41.824  27.918  28.612  1.00  0.00    -0.248 NA
ATOM     47  C   UNL A   1      39.724  27.575  29.576  1.00  0.00     0.031 C 
ATOM     48  C   UNL A   1      41.774  32.116  30.179  1.00  0.00     0.029 A 
ATOM     49  N   UNL A   1      42.934  30.616  28.989  1.00  0.00    -0.354 N 
ATOM     50  C   UNL A   1      41.391  26.628  28.330  1.00  0.00     0.074 A 
ATOM     51  C   UNL A   1      40.110  26.458  28.980  1.00  0.00     0.031 C 
ATOM     52  C   UNL A   1      42.906  32.712  29.763  1.00  0.00     0.029 A 
ATOM     53  C   UNL A   1      43.711  31.747  29.016  1.00  0.00     0.049 A 
ATOM     54  H   UNL A   1      43.191  29.795  28.509  1.00  0.00     0.167 HD
ATOM     55  C   UNL A   1      42.004  25.673  27.593  1.00  0.00     0.037 A 
ATOM     56  C   UNL A   1      44.942  31.965  28.514  1.00  0.00     0.037 A 
ATOM     57  C   UNL A   1      43.282  25.845  26.954  1.00  0.00     0.049 A 
ATOM     58  C   UNL A   1      45.645  30.858  27.770  1.00  0.00     0.074 A 
ATOM     59  C   UNL A   1      43.982  24.946  26.171  1.00  0.00     0.029 A 
ATOM     60  N   UNL A   1      44.060  26.992  27.040  1.00  0.00    -0.354 N 
ATOM     61  N   UNL A   1      45.221  29.649  27.486  1.00  0.00    -0.248 NA
ATOM     62  C   UNL A   1      46.998  31.147  27.275  1.00  0.00     0.031 C 
ATOM     63  C   UNL A   1      45.211  25.524  25.836  1.00  0.00     0.029 A 
ATOM     64  C   UNL A   1      45.247  26.810  26.351  1.00  0.00     0.049 A 
ATOM     65  H   UNL A   1      43.804  27.813  27.519  1.00  0.00     0.167 HD
ATOM     66  C   UNL A   1      46.238  29.047  26.753  1.00  0.00     0.074 A 
ATOM     67  C   UNL A   1      47.295  30.029  26.626  1.00  0.00     0.031 C 
ATOM     68  C   UNL A   1      46.290  27.798  26.228  1.00  0.00     0.037 A 
BRANCH  55  69
ATOM     69  C   UNL A   1      41.315  24.344  27.475  1.00  0.00     0.057 A 
ATOM     70  C   UNL A   1      41.718  23.226  28.216  1.00  0.00     0.134 A 
ATOM     71  C   UNL A   1      40.224  24.186  26.611  1.00  0.00     0.134 A 
ATOM     72  F   UNL A   1      42.767  23.303  29.049  1.00  0.00    -0.206 F 
ATOM     73  C   UNL A   1      41.080  21.991  28.082  1.00  0.00     0.040 A 
ATOM     74  C   UNL A   1      39.557  22.965  26.491  1.00  0.00     0.040 A 
ATOM     75  F   UNL A   1      39.783  25.215  25.873  1.00  0.00    -0.206 F 
ATOM     76  C   UNL A   1      39.991  21.860  27.222  1.00  0.00     0.006 A 
ENDBRANCH  55  69
BRANCH  56  77
ATOM     77  C   UNL A   1      45.601  33.282  28.707  1.00  0.00     0.057 A 
ATOM     78  C   UNL A   1      46.453  33.516  29.793  1.00  0.00     0.134 A 
ATOM     79  C   UNL A   1      45.380  34.346  27.823  1.00  0.00     0.134 A 
ATOM     80  F   UNL A   1      46.683  32.546  30.690  1.00  0.00    -0.206 F 
ATOM     81  C   UNL A   1      47.047  34.762  30.002  1.00  0.00     0.040 A 
ATOM     82  C   UNL A   1      45.990  35.588  28.003  1.00  0.00     0.040 A 
ATOM     83  F   UNL A   1      44.571  34.189  26.764  1.00  0.00    -0.206 F 
ATOM     84  C   UNL A   1      46.821  35.801  29.101  1.00  0.00     0.006 A 
ENDBRANCH  56  77
BRANCH  68  85
ATOM     85  C   UNL A   1      47.509  27.432  25.429  1.00  0.00     0.057 A 
ATOM     86  C   UNL A   1      47.585  27.642  24.046  1.00  0.00     0.134 A 
ATOM     87  C   UNL A   1      48.642  26.903  26.063  1.00  0.00     0.134 A 
ATOM     88  F   UNL A   1      46.534  28.135  23.374  1.00  0.00    -0.206 F 
ATOM     89  C   UNL A   1      48.733  27.315  23.320  1.00  0.00     0.040 A 
ATOM     90  C   UNL A   1      49.805  26.603  25.354  1.00  0.00     0.040 A 
ATOM     91  F   UNL A   1      48.644  26.687  27.386  1.00  0.00    -0.206 F 
ATOM     92  C   UNL A   1      49.850  26.801  23.975  1.00  0.00     0.006 A 
ENDBRANCH  68  85
ENDBRANCH  42  43
ENDBRANCH  35  37
ENDBRANCH  34  35
ENDBRANCH  33  34
ENDBRANCH  32  33
ENDBRANCH  31  32
ENDBRANCH  30  31
ENDBRANCH  29  30
ENDBRANCH  28  29
ENDBRANCH   1  28
TORSDOF 23
ENDMDL
MODEL 3
REMARK VINA RESULT:     -10.4      4.577      9.987
REMARK SMILES Cc1ncccc1NC(=O)NC[C@H]1CCC[C@H]1C(=O)OCCOCCOCCOCCOC(=O)c1ccc(-c2c3nc(c(-c4c(F)cccc4F)c4ccc([nH]4)c(-c4c(F)cccc4F)c4nc(c(-c5c(F)cccc5F)c5ccc2[nH]5)C=C4)C=C3)cc1
REMARK SMILES IDX 25 1 24 2 23 3 22 4 21 5 20 6 18 7 19 8 17 9 13 10 14 11
REMARK SMILES IDX 15 12 16 13 12 14 11 15 8 16 9 17 10 19 7 21 1 22 2 23 3 24
REMARK SMILES IDX 4 25 6 26 5 27 26 28 27 29 28 30 29 31 30 32 31 33 32 34
REMARK SMILES IDX 33 35 34 36 35 37 36 38 88 39 37 40 87 41 38 42 39 43 40 44
REMARK SMILES IDX 81 45 41 46 86 47 80 48 82 49 42 50 85 51 79 52 78 53 43 55
REMARK SMILES IDX 69 56 52 57 68 58 53 59 56 60 67 61 83 62 54 63 55 64 66 66
REMARK SMILES IDX 84 67 57 68 44 69 45 70 50 71 46 72 47 73 49 74 51 75 48 76
REMARK SMILES IDX 70 77 71 78 76 79 72 80 73 81 75 82 77 83 74 84 58 85 59 86
REMARK SMILES IDX 64 87 60 88 61 89 63 90 65 91 62 92
REMARK H PARENT 8 18 11 20 82 54 56 65
REMARK Flexibility Score: inf
ROOT
ATOM      1  C   UNL A   1      34.190  31.334  27.500  1.00  0.00     0.188 C 
ENDROOT
BRANCH   1   2
ATOM      2  C   UNL A   1      33.073  30.298  27.324  1.00  0.00     0.188 C 
BRANCH   2   3
ATOM      3  O   UNL A   1      32.395  30.438  26.095  1.00  0.00    -0.376 OA
BRANCH   3   4
ATOM      4  C   UNL A   1      32.537  29.435  25.107  1.00  0.00     0.202 C 
BRANCH   4   5
ATOM      5  C   UNL A   1      31.782  28.092  25.165  1.00  0.00     0.261 C 
BRANCH   5   6
ATOM      6  O   UNL A   1      32.239  27.109  26.109  1.00  0.00    -0.463 OA
BRANCH   6   7
ATOM      7  C   UNL A   1      31.475  26.000  26.234  1.00  0.00     0.309 C 
ATOM      8  O   UNL A   1      30.305  25.932  25.868  1.00  0.00    -0.252 OA
BRANCH   7   9
ATOM      9  C   UNL A   1      32.180  24.810  26.854  1.00  0.00     0.104 C 
ATOM     10  C   UNL A   1      31.584  23.409  27.027  1.00  0.00     0.022 C 
ATOM     11  C   UNL A   1      32.828  22.652  27.541  1.00  0.00     0.006 C 
ATOM     12  C   UNL A   1      33.947  23.145  26.634  1.00  0.00     0.001 C 
ATOM     13  C   UNL A   1      33.543  24.559  26.211  1.00  0.00     0.016 C 
BRANCH  10  14
ATOM     14  C   UNL A   1      30.990  22.602  25.857  1.00  0.00     0.122 C 
BRANCH  14  15
ATOM     15  N   UNL A   1      31.558  21.333  25.492  1.00  0.00    -0.338 N 
ATOM     16  N   UNL A   1      32.566  21.666  23.348  1.00  0.00    -0.306 N 
ATOM     17  C   UNL A   1      32.255  20.910  24.423  1.00  0.00     0.319 C 
ATOM     18  H   UNL A   1      32.797  21.115  22.565  1.00  0.00     0.171 HD
ATOM     19  O   UNL A   1      32.544  19.709  24.375  1.00  0.00    -0.249 OA
ATOM     20  H   UNL A   1      31.406  20.629  26.164  1.00  0.00     0.165 HD
BRANCH  16  21
ATOM     21  C   UNL A   1      32.644  23.045  23.065  1.00  0.00     0.064 A 
ATOM     22  C   UNL A   1      35.206  23.003  23.118  1.00  0.00     0.069 C 
ATOM     23  C   UNL A   1      33.887  23.669  22.857  1.00  0.00     0.061 A 
ATOM     24  N   UNL A   1      34.001  24.961  22.440  1.00  0.00    -0.259 NA
ATOM     25  C   UNL A   1      32.870  25.669  22.259  1.00  0.00     0.111 A 
ATOM     26  C   UNL A   1      31.515  23.864  23.006  1.00  0.00     0.030 A 
ATOM     27  C   UNL A   1      31.616  25.178  22.553  1.00  0.00     0.022 A 
ENDBRANCH  16  21
ENDBRANCH  14  15
ENDBRANCH  10  14
ENDBRANCH   7   9
ENDBRANCH   6   7
ENDBRANCH   5   6
ENDBRANCH   4   5
ENDBRANCH   3   4
ENDBRANCH   2   3
ENDBRANCH   1   2
BRANCH   1  28
ATOM     28  O   UNL A   1      34.086  32.289  28.544  1.00  0.00    -0.377 OA
BRANCH  28  29
ATOM     29  C   UNL A   1      33.510  33.564  28.269  1.00  0.00     0.188 C 
BRANCH  29  30
ATOM     30  C   UNL A   1      33.834  34.802  29.138  1.00  0.00     0.188 C 
BRANCH  30  31
ATOM     31  O   UNL A   1      34.737  34.583  30.208  1.00  0.00    -0.376 OA
BRANCH  31  32
ATOM     32  C   UNL A   1      34.255  34.813  31.525  1.00  0.00     0.202 C 
BRANCH  32  33
ATOM     33  C   UNL A   1      34.065  33.579  32.424  1.00  0.00     0.261 C 
BRANCH  33  34
ATOM     34  O   UNL A   1      34.901  32.452  32.120  1.00  0.00    -0.460 OA
BRANCH  34  35
ATOM     35  C   UNL A   1      35.979  32.262  32.905  1.00  0.00     0.338 C 
ATOM     36  O   UNL A   1      36.101  32.560  34.085  1.00  0.00    -0.246 OA
BRANCH  35  37
ATOM     37  C   UNL A   1      36.964  31.480  32.142  1.00  0.00     0.060 A 
ATOM     38  C   UNL A   1      37.900  30.701  32.834  1.00  0.00     0.016 A 
ATOM     39  C   UNL A   1      36.974  31.536  30.747  1.00  0.00     0.016 A 
ATOM     40  C   UNL A   1      38.874  29.998  32.130  1.00  0.00     0.010 A 
ATOM     41  C   UNL A   1      37.967  30.851  30.044  1.00  0.00     0.010 A 
ATOM     42  C   UNL A   1      38.941  30.109  30.735  1.00  0.00    -0.014 A 
BRANCH  42  43
ATOM     43  C   UNL A   1      40.147  29.624  30.023  1.00  0.00     0.031 A 
ATOM     44  C   UNL A   1      41.288  30.581  29.821  1.00  0.00     0.074 A 
ATOM     45  C   UNL A   1      40.241  28.355  29.591  1.00  0.00     0.049 A 
ATOM     46  N   UNL A   1      42.422  30.405  29.194  1.00  0.00    -0.248 NA
ATOM     47  C   UNL A   1      41.123  31.923  30.404  1.00  0.00     0.031 C 
ATOM     48  C   UNL A   1      39.224  27.321  29.772  1.00  0.00     0.029 A 
ATOM     49  N   UNL A   1      41.246  27.726  28.900  1.00  0.00    -0.354 N 
ATOM     50  C   UNL A   1      43.101  31.613  29.299  1.00  0.00     0.074 A 
ATOM     51  C   UNL A   1      42.238  32.524  30.020  1.00  0.00     0.031 C 
ATOM     52  C   UNL A   1      39.655  26.185  29.195  1.00  0.00     0.029 A 
ATOM     53  C   UNL A   1      40.957  26.424  28.576  1.00  0.00     0.049 A 
ATOM     54  H   UNL A   1      42.093  28.167  28.659  1.00  0.00     0.167 HD
ATOM     55  C   UNL A   1      44.333  31.934  28.839  1.00  0.00     0.037 A 
ATOM     56  C   UNL A   1      41.658  25.537  27.843  1.00  0.00     0.037 A 
ATOM     57  C   UNL A   1      45.183  31.027  28.116  1.00  0.00     0.049 A 
ATOM     58  C   UNL A   1      42.991  25.944  27.266  1.00  0.00     0.074 A 
ATOM     59  C   UNL A   1      46.456  31.247  27.621  1.00  0.00     0.029 A 
ATOM     60  N   UNL A   1      44.839  29.728  27.770  1.00  0.00    -0.354 N 
ATOM     61  N   UNL A   1      43.637  27.079  27.389  1.00  0.00    -0.248 NA
ATOM     62  C   UNL A   1      43.692  24.943  26.448  1.00  0.00     0.031 C 
ATOM     63  C   UNL A   1      46.856  30.105  26.921  1.00  0.00     0.029 A 
ATOM     64  C   UNL A   1      45.862  29.147  27.039  1.00  0.00     0.049 A 
ATOM     65  H   UNL A   1      43.993  29.285  28.009  1.00  0.00     0.167 HD
ATOM     66  C   UNL A   1      44.832  26.917  26.695  1.00  0.00     0.074 A 
ATOM     67  C   UNL A   1      44.825  25.570  26.164  1.00  0.00     0.031 C 
ATOM     68  C   UNL A   1      45.845  27.802  26.519  1.00  0.00     0.037 A 
BRANCH  55  69
ATOM     69  C   UNL A   1      44.813  33.338  29.072  1.00  0.00     0.057 A 
ATOM     70  C   UNL A   1      45.499  33.709  30.234  1.00  0.00     0.134 A 
ATOM     71  C   UNL A   1      44.592  34.331  28.108  1.00  0.00     0.134 A 
ATOM     72  F   UNL A   1      45.729  32.812  31.205  1.00  0.00    -0.206 F 
ATOM     73  C   UNL A   1      45.923  35.024  30.445  1.00  0.00     0.040 A 
ATOM     74  C   UNL A   1      45.038  35.641  28.292  1.00  0.00     0.040 A 
ATOM     75  F   UNL A   1      43.943  34.044  26.970  1.00  0.00    -0.206 F 
ATOM     76  C   UNL A   1      45.699  35.992  29.468  1.00  0.00     0.006 A 
ENDBRANCH  55  69
BRANCH  56  77
ATOM     77  C   UNL A   1      41.112  24.177  27.597  1.00  0.00     0.057 A 
ATOM     78  C   UNL A   1      41.632  23.057  28.256  1.00  0.00     0.134 A 
ATOM     79  C   UNL A   1      40.072  23.962  26.685  1.00  0.00     0.134 A 
ATOM     80  F   UNL A   1      42.647  23.194  29.121  1.00  0.00    -0.206 F 
ATOM     81  C   UNL A   1      41.150  21.771  28.004  1.00  0.00     0.040 A 
ATOM     82  C   UNL A   1      39.561  22.686  26.444  1.00  0.00     0.040 A 
ATOM     83  F   UNL A   1      39.532  24.993  26.017  1.00  0.00    -0.206 F 
ATOM     84  C   UNL A   1      40.106  21.584  27.100  1.00  0.00     0.006 A 
ENDBRANCH  56  77
BRANCH  68  85
ATOM     85  C   UNL A   1      47.052  27.331  25.757  1.00  0.00     0.057 A 
ATOM     86  C   UNL A   1      47.197  27.548  24.381  1.00  0.00     0.134 A 
ATOM     87  C   UNL A   1      48.107  26.691  26.423  1.00  0.00     0.134 A 
ATOM     88  F   UNL A   1      46.221  28.145  23.679  1.00  0.00    -0.206 F 
ATOM     89  C   UNL A   1      48.334  27.122  23.690  1.00  0.00     0.040 A 
ATOM     90  C   UNL A   1      49.261  26.290  25.750  1.00  0.00     0.040 A 
ATOM     91  F   UNL A   1      48.041  26.463  27.742  1.00  0.00    -0.206 F 
ATOM     92  C   UNL A   1      49.374  26.498  24.377  1.00  0.00     0.006 A 
ENDBRANCH  68  85
ENDBRANCH  42  43
ENDBRANCH  35  37
ENDBRANCH  34  35
ENDBRANCH  33  34
ENDBRANCH  32  33
ENDBRANCH  31  32
ENDBRANCH  30  31
ENDBRANCH  29  30
ENDBRANCH  28  29
ENDBRANCH   1  28
TORSDOF 23
ENDMDL
