MODEL 1
REMARK VINA RESULT:      -8.9      0.000      0.000
REMARK SMILES Cc1c(C(=O)OCCOCCOCCOCCOC(=O)c2ccc(-c3c4nc(c(-c5c(F)cccc5F)c5ccc([nH]5)c(-c5c(F)cccc5F)c5nc(c(-c6c(F)cccc6F)c6ccc3[nH]6)C=C5)C=C4)cc2)cccc1N1[C@@H](C)C=C(/C=C(\C#N)C(=O)NCCc2c[nH]c3ccccc23)[C@@H]1C
REMARK SMILES IDX 10 1 9 2 8 3 7 4 6 5 4 6 5 7 3 8 1 9 2 10 78 11 75 12 77 13
REMARK SMILES IDX 76 14 79 15 80 16 102 17 82 18 81 19 83 20 103 21 84 22
REMARK SMILES IDX 85 23 86 24 87 25 88 26 89 27 90 28 91 30 92 31 93 32 94 33
REMARK SMILES IDX 101 34 95 35 96 36 100 37 97 39 99 40 98 41 11 42 12 43
REMARK SMILES IDX 13 44 14 45 15 46 16 47 17 48 18 49 19 50 20 51 21 52 22 53
REMARK SMILES IDX 74 54 23 55 73 56 24 57 25 58 26 59 67 60 27 61 72 62 66 63
REMARK SMILES IDX 68 64 28 65 71 66 65 67 64 68 29 70 55 71 38 72 54 73 39 74
REMARK SMILES IDX 42 75 53 76 69 77 40 78 41 79 52 81 70 82 43 83 30 84 31 85
REMARK SMILES IDX 36 86 32 87 33 88 35 89 37 90 34 91 56 92 57 93 62 94 58 95
REMARK SMILES IDX 59 96 61 97 63 98 60 99 44 100 45 101 50 102 46 103 47 104
REMARK SMILES IDX 49 105 51 106 48 107
REMARK H PARENT 90 29 95 38 68 69 42 80
REMARK Flexibility Score: inf
ROOT
ATOM      1  C   UNL A   1      31.514  29.271  24.613  1.00  0.00     0.188 C 
ENDROOT
BRANCH   1   2
ATOM      2  O   UNL A   1      30.666  28.131  24.644  1.00  0.00    -0.376 OA
BRANCH   2   3
ATOM      3  C   UNL A   1      31.282  26.927  25.083  1.00  0.00     0.202 C 
BRANCH   3   4
ATOM      4  C   UNL A   1      30.743  26.368  26.384  1.00  0.00     0.261 C 
BRANCH   4   5
ATOM      5  O   UNL A   1      29.952  25.215  26.109  1.00  0.00    -0.460 OA
BRANCH   5   6
ATOM      6  C   UNL A   1      30.498  24.066  26.511  1.00  0.00     0.338 C 
ATOM      7  O   UNL A   1      30.145  23.416  27.486  1.00  0.00    -0.246 OA
BRANCH   6   8
ATOM      8  C   UNL A   1      31.387  23.499  25.460  1.00  0.00     0.065 A 
ATOM      9  C   UNL A   1      33.742  24.265  26.200  1.00  0.00     0.047 C 
ATOM     10  C   UNL A   1      32.801  23.384  25.422  1.00  0.00    -0.013 A 
ATOM     11  C   UNL A   1      33.400  22.651  24.375  1.00  0.00     0.041 A 
ATOM     12  C   UNL A   1      30.650  23.202  24.303  1.00  0.00     0.016 A 
ATOM     13  C   UNL A   1      32.595  22.309  23.272  1.00  0.00     0.026 A 
ATOM     14  C   UNL A   1      31.255  22.654  23.196  1.00  0.00     0.003 A 
BRANCH  11  15
ATOM     15  N   UNL A   1      34.763  22.440  24.308  1.00  0.00    -0.358 N 
ATOM     16  C   UNL A   1      35.519  23.031  23.213  1.00  0.00     0.103 C 
ATOM     17  C   UNL A   1      35.588  21.586  25.191  1.00  0.00     0.110 C 
ATOM     18  C   UNL A   1      36.896  22.582  23.522  1.00  0.00     0.003 C 
ATOM     19  C   UNL A   1      35.486  24.558  23.235  1.00  0.00     0.035 C 
ATOM     20  C   UNL A   1      36.986  21.879  24.657  1.00  0.00    -0.026 C 
ATOM     21  C   UNL A   1      35.198  20.115  25.032  1.00  0.00     0.036 C 
BRANCH  20  22
ATOM     22  C   UNL A   1      38.211  21.423  25.292  1.00  0.00     0.031 C 
ATOM     23  C   UNL A   1      39.026  22.122  26.118  1.00  0.00     0.117 C 
BRANCH  23  24
ATOM     24  C   UNL A   1      38.778  23.451  26.524  1.00  0.00     0.105 C 
ATOM     25  N   UNL A   1      38.579  24.567  26.831  1.00  0.00    -0.192 NA
ENDBRANCH  23  24
BRANCH  23  26
ATOM     26  C   UNL A   1      40.375  21.543  26.373  1.00  0.00     0.261 C 
ATOM     27  O   UNL A   1      40.512  20.372  26.729  1.00  0.00    -0.268 OA
ATOM     28  N   UNL A   1      41.487  22.218  25.974  1.00  0.00    -0.351 N 
ATOM     29  H   UNL A   1      42.122  21.653  25.478  1.00  0.00     0.163 HD
BRANCH  28  30
ATOM     30  C   UNL A   1      41.947  23.611  26.120  1.00  0.00     0.121 C 
BRANCH  30  31
ATOM     31  C   UNL A   1      42.181  24.099  27.585  1.00  0.00     0.059 C 
BRANCH  31  32
ATOM     32  C   UNL A   1      42.790  25.503  27.724  1.00  0.00    -0.021 A 
ATOM     33  C   UNL A   1      43.063  26.065  28.972  1.00  0.00     0.087 A 
ATOM     34  C   UNL A   1      42.318  26.683  27.059  1.00  0.00     0.003 A 
ATOM     35  N   UNL A   1      41.807  26.652  29.192  1.00  0.00    -0.361 N 
ATOM     36  C   UNL A   1      41.422  27.211  27.988  1.00  0.00     0.046 A 
ATOM     37  C   UNL A   1      42.513  27.383  25.857  1.00  0.00     0.010 A 
ATOM     38  H   UNL A   1      41.302  26.665  30.037  1.00  0.00     0.166 HD
ATOM     39  C   UNL A   1      40.451  28.155  27.670  1.00  0.00     0.026 A 
ATOM     40  C   UNL A   1      41.696  28.500  25.607  1.00  0.00     0.001 A 
ATOM     41  C   UNL A   1      40.630  28.817  26.455  1.00  0.00     0.002 A 
ENDBRANCH  31  32
ENDBRANCH  30  31
ENDBRANCH  28  30
ENDBRANCH  23  26
ENDBRANCH  20  22
ENDBRANCH  11  15
ENDBRANCH   6   8
ENDBRANCH   5   6
ENDBRANCH   4   5
ENDBRANCH   3   4
ENDBRANCH   2   3
ENDBRANCH   1   2
BRANCH   1  42
ATOM     42  C   UNL A   1      31.134  30.526  25.411  1.00  0.00     0.188 C 
BRANCH  42  43
ATOM     43  O   UNL A   1      32.165  30.985  26.281  1.00  0.00    -0.377 OA
BRANCH  43  44
ATOM     44  C   UNL A   1      32.595  30.018  27.211  1.00  0.00     0.188 C 
BRANCH  44  45
ATOM     45  C   UNL A   1      34.084  29.813  27.195  1.00  0.00     0.188 C 
BRANCH  45  46
ATOM     46  O   UNL A   1      34.913  30.513  28.098  1.00  0.00    -0.376 OA
BRANCH  46  47
ATOM     47  C   UNL A   1      34.664  31.876  28.401  1.00  0.00     0.202 C 
BRANCH  47  48
ATOM     48  C   UNL A   1      35.603  32.493  29.442  1.00  0.00     0.261 C 
BRANCH  48  49
ATOM     49  O   UNL A   1      35.497  31.704  30.661  1.00  0.00    -0.460 OA
BRANCH  49  50
ATOM     50  C   UNL A   1      36.500  30.820  30.951  1.00  0.00     0.338 C 
ATOM     51  O   UNL A   1      36.325  29.668  31.319  1.00  0.00    -0.246 OA
BRANCH  50  52
ATOM     52  C   UNL A   1      37.809  31.559  31.151  1.00  0.00     0.060 A 
ATOM     53  C   UNL A   1      38.904  31.288  30.304  1.00  0.00     0.016 A 
ATOM     54  C   UNL A   1      38.075  32.133  32.386  1.00  0.00     0.016 A 
ATOM     55  C   UNL A   1      40.237  31.338  30.792  1.00  0.00     0.010 A 
ATOM     56  C   UNL A   1      39.384  32.098  32.874  1.00  0.00     0.010 A 
ATOM     57  C   UNL A   1      40.482  31.594  32.137  1.00  0.00    -0.014 A 
BRANCH  57  58
ATOM     58  C   UNL A   1      41.749  31.255  32.889  1.00  0.00     0.031 A 
ATOM     59  C   UNL A   1      41.803  29.895  33.561  1.00  0.00     0.074 A 
ATOM     60  C   UNL A   1      42.928  31.930  32.679  1.00  0.00     0.049 A 
ATOM     61  N   UNL A   1      42.841  29.339  34.085  1.00  0.00    -0.248 NA
ATOM     62  C   UNL A   1      40.675  28.971  33.576  1.00  0.00     0.031 C 
ATOM     63  C   UNL A   1      44.297  31.451  32.919  1.00  0.00     0.029 A 
ATOM     64  N   UNL A   1      43.217  33.180  32.099  1.00  0.00    -0.354 N 
ATOM     65  C   UNL A   1      42.673  27.958  34.102  1.00  0.00     0.074 A 
ATOM     66  C   UNL A   1      41.271  27.798  33.816  1.00  0.00     0.031 C 
ATOM     67  C   UNL A   1      45.231  32.383  32.685  1.00  0.00     0.029 A 
ATOM     68  C   UNL A   1      44.492  33.599  32.590  1.00  0.00     0.049 A 
ATOM     69  H   UNL A   1      42.645  33.676  31.469  1.00  0.00     0.167 HD
ATOM     70  C   UNL A   1      43.778  27.143  34.229  1.00  0.00     0.037 A 
ATOM     71  C   UNL A   1      44.630  34.590  33.516  1.00  0.00     0.037 A 
ATOM     72  C   UNL A   1      45.006  27.967  34.435  1.00  0.00     0.049 A 
ATOM     73  C   UNL A   1      45.106  33.946  34.848  1.00  0.00     0.074 A 
ATOM     74  C   UNL A   1      46.246  28.084  33.828  1.00  0.00     0.029 A 
ATOM     75  N   UNL A   1      44.949  29.050  35.317  1.00  0.00    -0.354 N 
ATOM     76  N   UNL A   1      44.935  32.665  35.140  1.00  0.00    -0.248 NA
ATOM     77  C   UNL A   1      46.005  34.561  35.817  1.00  0.00     0.031 C 
ATOM     78  C   UNL A   1      46.883  29.274  34.309  1.00  0.00     0.029 A 
ATOM     79  C   UNL A   1      46.055  29.873  35.250  1.00  0.00     0.049 A 
ATOM     80  H   UNL A   1      44.192  29.210  35.927  1.00  0.00     0.167 HD
ATOM     81  C   UNL A   1      45.857  32.233  36.062  1.00  0.00     0.074 A 
ATOM     82  C   UNL A   1      46.359  33.504  36.583  1.00  0.00     0.031 C 
ATOM     83  C   UNL A   1      46.249  30.916  36.263  1.00  0.00     0.037 A 
BRANCH  70  84
ATOM     84  C   UNL A   1      43.834  25.602  34.017  1.00  0.00     0.057 A 
ATOM     85  C   UNL A   1      43.181  24.703  34.898  1.00  0.00     0.134 A 
ATOM     86  C   UNL A   1      44.499  24.921  32.973  1.00  0.00     0.134 A 
ATOM     87  F   UNL A   1      42.411  25.131  35.904  1.00  0.00    -0.206 F 
ATOM     88  C   UNL A   1      43.237  23.295  34.788  1.00  0.00     0.040 A 
ATOM     89  C   UNL A   1      44.557  23.514  32.845  1.00  0.00     0.040 A 
ATOM     90  F   UNL A   1      45.105  25.559  31.973  1.00  0.00    -0.206 F 
ATOM     91  C   UNL A   1      43.931  22.691  33.758  1.00  0.00     0.006 A 
ENDBRANCH  70  84
BRANCH  71  92
ATOM     92  C   UNL A   1      43.726  35.718  33.086  1.00  0.00     0.057 A 
ATOM     93  C   UNL A   1      42.673  36.016  34.006  1.00  0.00     0.134 A 
ATOM     94  C   UNL A   1      44.272  36.825  32.429  1.00  0.00     0.134 A 
ATOM     95  F   UNL A   1      42.047  35.017  34.654  1.00  0.00    -0.206 F 
ATOM     96  C   UNL A   1      42.418  37.320  34.464  1.00  0.00     0.040 A 
ATOM     97  C   UNL A   1      43.980  38.140  32.850  1.00  0.00     0.040 A 
ATOM     98  F   UNL A   1      45.265  36.659  31.544  1.00  0.00    -0.206 F 
ATOM     99  C   UNL A   1      43.129  38.384  33.928  1.00  0.00     0.006 A 
ENDBRANCH  71  92
BRANCH  83 100
ATOM    100  C   UNL A   1      46.809  30.396  37.571  1.00  0.00     0.057 A 
ATOM    101  C   UNL A   1      48.146  30.103  37.795  1.00  0.00     0.134 A 
ATOM    102  C   UNL A   1      45.974  30.243  38.713  1.00  0.00     0.134 A 
ATOM    103  F   UNL A   1      48.984  29.867  36.781  1.00  0.00    -0.206 F 
ATOM    104  C   UNL A   1      48.661  29.971  39.088  1.00  0.00     0.040 A 
ATOM    105  C   UNL A   1      46.462  30.044  39.997  1.00  0.00     0.040 A 
ATOM    106  F   UNL A   1      44.638  30.281  38.666  1.00  0.00    -0.206 F 
ATOM    107  C   UNL A   1      47.824  29.985  40.198  1.00  0.00     0.006 A 
ENDBRANCH  83 100
ENDBRANCH  57  58
ENDBRANCH  50  52
ENDBRANCH  49  50
ENDBRANCH  48  49
ENDBRANCH  47  48
ENDBRANCH  46  47
ENDBRANCH  45  46
ENDBRANCH  44  45
ENDBRANCH  43  44
ENDBRANCH  42  43
ENDBRANCH   1  42
TORSDOF 27
ENDMDL
MODEL 2
REMARK VINA RESULT:      -8.3      1.595      2.159
REMARK SMILES Cc1c(C(=O)OCCOCCOCCOCCOC(=O)c2ccc(-c3c4nc(c(-c5c(F)cccc5F)c5ccc([nH]5)c(-c5c(F)cccc5F)c5nc(c(-c6c(F)cccc6F)c6ccc3[nH]6)C=C5)C=C4)cc2)cccc1N1[C@@H](C)C=C(/C=C(\C#N)C(=O)NCCc2c[nH]c3ccccc23)[C@@H]1C
REMARK SMILES IDX 10 1 9 2 8 3 7 4 6 5 4 6 5 7 3 8 1 9 2 10 78 11 75 12 77 13
REMARK SMILES IDX 76 14 79 15 80 16 102 17 82 18 81 19 83 20 103 21 84 22
REMARK SMILES IDX 85 23 86 24 87 25 88 26 89 27 90 28 91 30 92 31 93 32 94 33
REMARK SMILES IDX 101 34 95 35 96 36 100 37 97 39 99 40 98 41 11 42 12 43
REMARK SMILES IDX 13 44 14 45 15 46 16 47 17 48 18 49 19 50 20 51 21 52 22 53
REMARK SMILES IDX 74 54 23 55 73 56 24 57 25 58 26 59 67 60 27 61 72 62 66 63
REMARK SMILES IDX 68 64 28 65 71 66 65 67 64 68 29 70 55 71 38 72 54 73 39 74
REMARK SMILES IDX 42 75 53 76 69 77 40 78 41 79 52 81 70 82 43 83 30 84 31 85
REMARK SMILES IDX 36 86 32 87 33 88 35 89 37 90 34 91 56 92 57 93 62 94 58 95
REMARK SMILES IDX 59 96 61 97 63 98 60 99 44 100 45 101 50 102 46 103 47 104
REMARK SMILES IDX 49 105 51 106 48 107
REMARK H PARENT 90 29 95 38 68 69 42 80
REMARK Flexibility Score: inf
ROOT
ATOM      1  C   UNL A   1      31.163  29.037  24.408  1.00  0.00     0.188 C 
ENDROOT
BRANCH   1   2
ATOM      2  O   UNL A   1      30.382  27.910  24.780  1.00  0.00    -0.376 OA
BRANCH   2   3
ATOM      3  C   UNL A   1      31.097  26.686  24.896  1.00  0.00     0.202 C 
BRANCH   3   4
ATOM      4  C   UNL A   1      31.099  26.073  26.282  1.00  0.00     0.261 C 
BRANCH   4   5
ATOM      5  O   UNL A   1      30.164  24.999  26.322  1.00  0.00    -0.460 OA
BRANCH   5   6
ATOM      6  C   UNL A   1      30.692  23.824  26.670  1.00  0.00     0.338 C 
ATOM      7  O   UNL A   1      30.333  23.138  27.618  1.00  0.00    -0.246 OA
BRANCH   6   8
ATOM      8  C   UNL A   1      31.564  23.287  25.589  1.00  0.00     0.065 A 
ATOM      9  C   UNL A   1      33.941  23.939  26.368  1.00  0.00     0.047 C 
ATOM     10  C   UNL A   1      32.973  23.131  25.544  1.00  0.00    -0.013 A 
ATOM     11  C   UNL A   1      33.551  22.439  24.458  1.00  0.00     0.041 A 
ATOM     12  C   UNL A   1      30.820  23.078  24.418  1.00  0.00     0.016 A 
ATOM     13  C   UNL A   1      32.736  22.182  23.338  1.00  0.00     0.026 A 
ATOM     14  C   UNL A   1      31.408  22.573  23.282  1.00  0.00     0.003 A 
BRANCH  11  15
ATOM     15  N   UNL A   1      34.906  22.190  24.378  1.00  0.00    -0.358 N 
ATOM     16  C   UNL A   1      35.687  22.836  23.333  1.00  0.00     0.103 C 
ATOM     17  C   UNL A   1      35.700  21.247  25.198  1.00  0.00     0.110 C 
ATOM     18  C   UNL A   1      37.046  22.321  23.610  1.00  0.00     0.003 C 
ATOM     19  C   UNL A   1      35.702  24.357  23.468  1.00  0.00     0.035 C 
ATOM     20  C   UNL A   1      37.109  21.533  24.690  1.00  0.00    -0.026 C 
ATOM     21  C   UNL A   1      35.263  19.804  24.929  1.00  0.00     0.036 C 
BRANCH  20  22
ATOM     22  C   UNL A   1      38.315  20.992  25.292  1.00  0.00     0.031 C 
ATOM     23  C   UNL A   1      39.203  21.633  26.092  1.00  0.00     0.117 C 
BRANCH  23  24
ATOM     24  C   UNL A   1      39.062  22.978  26.497  1.00  0.00     0.105 C 
ATOM     25  N   UNL A   1      38.925  24.102  26.809  1.00  0.00    -0.192 NA
ENDBRANCH  23  24
BRANCH  23  26
ATOM     26  C   UNL A   1      40.513  20.959  26.311  1.00  0.00     0.261 C 
ATOM     27  O   UNL A   1      40.579  19.837  26.814  1.00  0.00    -0.268 OA
ATOM     28  N   UNL A   1      41.636  21.460  25.729  1.00  0.00    -0.351 N 
ATOM     29  H   UNL A   1      42.168  20.774  25.266  1.00  0.00     0.163 HD
BRANCH  28  30
ATOM     30  C   UNL A   1      42.230  22.807  25.641  1.00  0.00     0.121 C 
BRANCH  30  31
ATOM     31  C   UNL A   1      42.435  23.549  27.000  1.00  0.00     0.059 C 
BRANCH  31  32
ATOM     32  C   UNL A   1      43.635  24.508  27.053  1.00  0.00    -0.021 A 
ATOM     33  C   UNL A   1      44.888  24.090  27.503  1.00  0.00     0.087 A 
ATOM     34  C   UNL A   1      43.627  25.819  27.635  1.00  0.00     0.003 A 
ATOM     35  N   UNL A   1      44.694  24.352  28.869  1.00  0.00    -0.361 N 
ATOM     36  C   UNL A   1      44.041  25.568  28.944  1.00  0.00     0.046 A 
ATOM     37  C   UNL A   1      43.360  27.149  27.270  1.00  0.00     0.010 A 
ATOM     38  H   UNL A   1      44.971  23.784  29.623  1.00  0.00     0.166 HD
ATOM     39  C   UNL A   1      43.856  26.460  29.993  1.00  0.00     0.026 A 
ATOM     40  C   UNL A   1      43.398  28.127  28.280  1.00  0.00     0.001 A 
ATOM     41  C   UNL A   1      43.551  27.771  29.623  1.00  0.00     0.002 A 
ENDBRANCH  31  32
ENDBRANCH  30  31
ENDBRANCH  28  30
ENDBRANCH  23  26
ENDBRANCH  20  22
ENDBRANCH  11  15
ENDBRANCH   6   8
ENDBRANCH   5   6
ENDBRANCH   4   5
ENDBRANCH   3   4
ENDBRANCH   2   3
ENDBRANCH   1   2
BRANCH   1  42
ATOM     42  C   UNL A   1      30.708  30.446  24.813  1.00  0.00     0.188 C 
BRANCH  42  43
ATOM     43  O   UNL A   1      31.613  31.110  25.690  1.00  0.00    -0.377 OA
BRANCH  43  44
ATOM     44  C   UNL A   1      31.887  30.393  26.872  1.00  0.00     0.188 C 
BRANCH  44  45
ATOM     45  C   UNL A   1      33.252  29.761  26.869  1.00  0.00     0.188 C 
BRANCH  45  46
ATOM     46  O   UNL A   1      34.343  30.411  27.483  1.00  0.00    -0.376 OA
BRANCH  46  47
ATOM     47  C   UNL A   1      34.378  31.825  27.587  1.00  0.00     0.202 C 
BRANCH  47  48
ATOM     48  C   UNL A   1      35.607  32.395  28.302  1.00  0.00     0.261 C 
BRANCH  48  49
ATOM     49  O   UNL A   1      35.919  31.517  29.421  1.00  0.00    -0.460 OA
BRANCH  49  50
ATOM     50  C   UNL A   1      36.746  30.451  29.199  1.00  0.00     0.338 C 
ATOM     51  O   UNL A   1      36.443  29.284  29.396  1.00  0.00    -0.246 OA
BRANCH  50  52
ATOM     52  C   UNL A   1      38.184  30.919  29.076  1.00  0.00     0.060 A 
ATOM     53  C   UNL A   1      39.165  30.045  28.565  1.00  0.00     0.016 A 
ATOM     54  C   UNL A   1      38.611  31.986  29.854  1.00  0.00     0.016 A 
ATOM     55  C   UNL A   1      40.502  30.083  29.044  1.00  0.00     0.010 A 
ATOM     56  C   UNL A   1      39.908  31.958  30.375  1.00  0.00     0.010 A 
ATOM     57  C   UNL A   1      40.851  30.946  30.077  1.00  0.00    -0.014 A 
BRANCH  57  58
ATOM     58  C   UNL A   1      42.057  30.809  30.979  1.00  0.00     0.031 A 
ATOM     59  C   UNL A   1      41.968  29.779  32.091  1.00  0.00     0.074 A 
ATOM     60  C   UNL A   1      43.298  31.278  30.618  1.00  0.00     0.049 A 
ATOM     61  N   UNL A   1      42.935  29.376  32.841  1.00  0.00    -0.248 NA
ATOM     62  C   UNL A   1      40.762  29.005  32.361  1.00  0.00     0.031 C 
ATOM     63  C   UNL A   1      44.610  30.822  31.098  1.00  0.00     0.029 A 
ATOM     64  N   UNL A   1      43.715  32.215  29.653  1.00  0.00    -0.354 N 
ATOM     65  C   UNL A   1      42.644  28.107  33.335  1.00  0.00     0.074 A 
ATOM     66  C   UNL A   1      41.244  27.956  33.037  1.00  0.00     0.031 C 
ATOM     67  C   UNL A   1      45.630  31.540  30.608  1.00  0.00     0.029 A 
ATOM     68  C   UNL A   1      45.006  32.689  30.043  1.00  0.00     0.049 A 
ATOM     69  H   UNL A   1      43.211  32.491  28.854  1.00  0.00     0.167 HD
ATOM     70  C   UNL A   1      43.668  27.316  33.812  1.00  0.00     0.037 A 
ATOM     71  C   UNL A   1      45.200  33.934  30.565  1.00  0.00     0.037 A 
ATOM     72  C   UNL A   1      44.956  28.069  33.789  1.00  0.00     0.049 A 
ATOM     73  C   UNL A   1      45.572  33.777  32.066  1.00  0.00     0.074 A 
ATOM     74  C   UNL A   1      46.221  27.873  33.259  1.00  0.00     0.029 A 
ATOM     75  N   UNL A   1      44.966  29.397  34.226  1.00  0.00    -0.354 N 
ATOM     76  N   UNL A   1      45.279  32.701  32.780  1.00  0.00    -0.248 NA
ATOM     77  C   UNL A   1      46.490  34.633  32.809  1.00  0.00     0.031 C 
ATOM     78  C   UNL A   1      46.945  29.108  33.327  1.00  0.00     0.029 A 
ATOM     79  C   UNL A   1      46.142  30.061  33.941  1.00  0.00     0.049 A 
ATOM     80  H   UNL A   1      44.207  29.819  34.691  1.00  0.00     0.167 HD
ATOM     81  C   UNL A   1      46.128  32.564  33.852  1.00  0.00     0.074 A 
ATOM     82  C   UNL A   1      46.722  33.897  33.920  1.00  0.00     0.031 C 
ATOM     83  C   UNL A   1      46.394  31.381  34.530  1.00  0.00     0.037 A 
BRANCH  70  84
ATOM     84  C   UNL A   1      43.593  25.801  34.162  1.00  0.00     0.057 A 
ATOM     85  C   UNL A   1      44.282  24.823  33.401  1.00  0.00     0.134 A 
ATOM     86  C   UNL A   1      42.875  25.221  35.232  1.00  0.00     0.134 A 
ATOM     87  F   UNL A   1      45.102  25.155  32.397  1.00  0.00    -0.206 F 
ATOM     88  C   UNL A   1      44.213  23.432  33.637  1.00  0.00     0.040 A 
ATOM     89  C   UNL A   1      42.803  23.831  35.486  1.00  0.00     0.040 A 
ATOM     90  F   UNL A   1      42.226  25.949  36.139  1.00  0.00    -0.206 F 
ATOM     91  C   UNL A   1      43.467  22.926  34.684  1.00  0.00     0.006 A 
ENDBRANCH  70  84
BRANCH  71  92
ATOM     92  C   UNL A   1      44.414  34.895  29.708  1.00  0.00     0.057 A 
ATOM     93  C   UNL A   1      43.590  35.803  30.441  1.00  0.00     0.134 A 
ATOM     94  C   UNL A   1      45.000  35.422  28.553  1.00  0.00     0.134 A 
ATOM     95  F   UNL A   1      42.942  35.382  31.542  1.00  0.00    -0.206 F 
ATOM     96  C   UNL A   1      43.615  37.192  30.219  1.00  0.00     0.040 A 
ATOM     97  C   UNL A   1      44.982  36.809  28.295  1.00  0.00     0.040 A 
ATOM     98  F   UNL A   1      45.791  34.655  27.790  1.00  0.00    -0.206 F 
ATOM     99  C   UNL A   1      44.374  37.704  29.177  1.00  0.00     0.006 A 
ENDBRANCH  71  92
BRANCH  83 100
ATOM    100  C   UNL A   1      46.863  31.325  35.970  1.00  0.00     0.057 A 
ATOM    101  C   UNL A   1      48.190  31.369  36.370  1.00  0.00     0.134 A 
ATOM    102  C   UNL A   1      45.926  31.298  37.041  1.00  0.00     0.134 A 
ATOM    103  F   UNL A   1      49.179  31.059  35.526  1.00  0.00    -0.206 F 
ATOM    104  C   UNL A   1      48.549  31.667  37.687  1.00  0.00     0.040 A 
ATOM    105  C   UNL A   1      46.272  31.526  38.366  1.00  0.00     0.040 A 
ATOM    106  F   UNL A   1      44.620  31.057  36.879  1.00  0.00    -0.206 F 
ATOM    107  C   UNL A   1      47.586  31.790  38.682  1.00  0.00     0.006 A 
ENDBRANCH  83 100
ENDBRANCH  57  58
ENDBRANCH  50  52
ENDBRANCH  49  50
ENDBRANCH  48  49
ENDBRANCH  47  48
ENDBRANCH  46  47
ENDBRANCH  45  46
ENDBRANCH  44  45
ENDBRANCH  43  44
ENDBRANCH  42  43
ENDBRANCH   1  42
TORSDOF 27
ENDMDL
MODEL 3
REMARK VINA RESULT:      -8.0      4.917      8.887
REMARK SMILES Cc1c(C(=O)OCCOCCOCCOCCOC(=O)c2ccc(-c3c4nc(c(-c5c(F)cccc5F)c5ccc([nH]5)c(-c5c(F)cccc5F)c5nc(c(-c6c(F)cccc6F)c6ccc3[nH]6)C=C5)C=C4)cc2)cccc1N1[C@@H](C)C=C(/C=C(\C#N)C(=O)NCCc2c[nH]c3ccccc23)[C@@H]1C
REMARK SMILES IDX 10 1 9 2 8 3 7 4 6 5 4 6 5 7 3 8 1 9 2 10 78 11 75 12 77 13
REMARK SMILES IDX 76 14 79 15 80 16 102 17 82 18 81 19 83 20 103 21 84 22
REMARK SMILES IDX 85 23 86 24 87 25 88 26 89 27 90 28 91 30 92 31 93 32 94 33
REMARK SMILES IDX 101 34 95 35 96 36 100 37 97 39 99 40 98 41 11 42 12 43
REMARK SMILES IDX 13 44 14 45 15 46 16 47 17 48 18 49 19 50 20 51 21 52 22 53
REMARK SMILES IDX 74 54 23 55 73 56 24 57 25 58 26 59 67 60 27 61 72 62 66 63
REMARK SMILES IDX 68 64 28 65 71 66 65 67 64 68 29 70 55 71 38 72 54 73 39 74
REMARK SMILES IDX 42 75 53 76 69 77 40 78 41 79 52 81 70 82 43 83 30 84 31 85
REMARK SMILES IDX 36 86 32 87 33 88 35 89 37 90 34 91 56 92 57 93 62 94 58 95
REMARK SMILES IDX 59 96 61 97 63 98 60 99 44 100 45 101 50 102 46 103 47 104
REMARK SMILES IDX 49 105 51 106 48 107
REMARK H PARENT 90 29 95 38 68 69 42 80
REMARK Flexibility Score: inf
ROOT
ATOM      1  C   UNL A   1      39.403  32.966  40.650  1.00  0.00     0.188 C 
ENDROOT
BRANCH   1   2
ATOM      2  O   UNL A   1      38.647  32.010  39.920  1.00  0.00    -0.376 OA
BRANCH   2   3
ATOM      3  C   UNL A   1      37.886  32.534  38.839  1.00  0.00     0.202 C 
BRANCH   3   4
ATOM      4  C   UNL A   1      38.600  32.552  37.502  1.00  0.00     0.261 C 
BRANCH   4   5
ATOM      5  O   UNL A   1      37.775  31.932  36.519  1.00  0.00    -0.460 OA
BRANCH   5   6
ATOM      6  C   UNL A   1      38.014  32.333  35.269  1.00  0.00     0.338 C 
ATOM      7  O   UNL A   1      37.864  33.472  34.849  1.00  0.00    -0.246 OA
BRANCH   6   8
ATOM      8  C   UNL A   1      38.783  31.305  34.515  1.00  0.00     0.065 A 
ATOM      9  C   UNL A   1      37.143  30.591  32.648  1.00  0.00     0.047 C 
ATOM     10  C   UNL A   1      38.515  30.702  33.258  1.00  0.00    -0.013 A 
ATOM     11  C   UNL A   1      39.494  29.867  32.678  1.00  0.00     0.041 A 
ATOM     12  C   UNL A   1      39.824  30.794  35.305  1.00  0.00     0.016 A 
ATOM     13  C   UNL A   1      40.563  29.448  33.493  1.00  0.00     0.026 A 
ATOM     14  C   UNL A   1      40.683  29.837  34.817  1.00  0.00     0.003 A 
BRANCH  11  15
ATOM     15  N   UNL A   1      39.333  29.299  31.430  1.00  0.00    -0.358 N 
ATOM     16  C   UNL A   1      39.066  30.161  30.287  1.00  0.00     0.103 C 
ATOM     17  C   UNL A   1      39.312  27.859  31.089  1.00  0.00     0.110 C 
ATOM     18  C   UNL A   1      38.979  29.179  29.183  1.00  0.00     0.003 C 
ATOM     19  C   UNL A   1      40.216  31.124  29.997  1.00  0.00     0.035 C 
ATOM     20  C   UNL A   1      39.216  27.919  29.569  1.00  0.00    -0.026 C 
ATOM     21  C   UNL A   1      38.099  27.175  31.725  1.00  0.00     0.036 C 
BRANCH  20  22
ATOM     22  C   UNL A   1      39.338  26.762  28.700  1.00  0.00     0.031 C 
ATOM     23  C   UNL A   1      40.472  26.117  28.331  1.00  0.00     0.117 C 
BRANCH  23  24
ATOM     24  C   UNL A   1      41.760  26.478  28.781  1.00  0.00     0.105 C 
ATOM     25  N   UNL A   1      42.821  26.776  29.187  1.00  0.00    -0.192 NA
ENDBRANCH  23  24
BRANCH  23  26
ATOM     26  C   UNL A   1      40.360  25.170  27.187  1.00  0.00     0.261 C 
ATOM     27  O   UNL A   1      39.792  24.084  27.308  1.00  0.00    -0.268 OA
ATOM     28  N   UNL A   1      40.656  25.593  25.928  1.00  0.00    -0.351 N 
ATOM     29  H   UNL A   1      39.965  25.354  25.269  1.00  0.00     0.163 HD
BRANCH  28  30
ATOM     30  C   UNL A   1      41.786  26.333  25.336  1.00  0.00     0.121 C 
BRANCH  30  31
ATOM     31  C   UNL A   1      43.170  25.610  25.382  1.00  0.00     0.059 C 
BRANCH  31  32
ATOM     32  C   UNL A   1      44.301  26.395  26.065  1.00  0.00    -0.021 A 
ATOM     33  C   UNL A   1      44.434  27.775  25.910  1.00  0.00     0.087 A 
ATOM     34  C   UNL A   1      45.691  26.043  26.037  1.00  0.00     0.003 A 
ATOM     35  N   UNL A   1      45.226  27.758  24.751  1.00  0.00    -0.361 N 
ATOM     36  C   UNL A   1      46.157  26.752  24.929  1.00  0.00     0.046 A 
ATOM     37  C   UNL A   1      46.614  25.272  26.763  1.00  0.00     0.010 A 
ATOM     38  H   UNL A   1      45.138  28.348  23.967  1.00  0.00     0.166 HD
ATOM     39  C   UNL A   1      47.354  26.468  24.282  1.00  0.00     0.026 A 
ATOM     40  C   UNL A   1      47.919  25.156  26.253  1.00  0.00     0.001 A 
ATOM     41  C   UNL A   1      48.249  25.668  24.994  1.00  0.00     0.002 A 
ENDBRANCH  31  32
ENDBRANCH  30  31
ENDBRANCH  28  30
ENDBRANCH  23  26
ENDBRANCH  20  22
ENDBRANCH  11  15
ENDBRANCH   6   8
ENDBRANCH   5   6
ENDBRANCH   4   5
ENDBRANCH   3   4
ENDBRANCH   2   3
ENDBRANCH   1   2
BRANCH   1  42
ATOM     42  C   UNL A   1      38.873  34.399  40.805  1.00  0.00     0.188 C 
BRANCH  42  43
ATOM     43  O   UNL A   1      39.859  35.402  40.578  1.00  0.00    -0.377 OA
BRANCH  43  44
ATOM     44  C   UNL A   1      40.465  35.325  39.308  1.00  0.00     0.188 C 
BRANCH  44  45
ATOM     45  C   UNL A   1      41.076  36.628  38.873  1.00  0.00     0.188 C 
BRANCH  45  46
ATOM     46  O   UNL A   1      42.476  36.753  38.740  1.00  0.00    -0.376 OA
BRANCH  46  47
ATOM     47  C   UNL A   1      43.254  35.679  38.238  1.00  0.00     0.202 C 
BRANCH  47  48
ATOM     48  C   UNL A   1      43.426  35.656  36.716  1.00  0.00     0.261 C 
BRANCH  48  49
ATOM     49  O   UNL A   1      42.195  35.137  36.136  1.00  0.00    -0.460 OA
BRANCH  49  50
ATOM     50  C   UNL A   1      41.627  35.822  35.098  1.00  0.00     0.338 C 
ATOM     51  O   UNL A   1      40.774  36.688  35.221  1.00  0.00    -0.246 OA
BRANCH  50  52
ATOM     52  C   UNL A   1      41.882  35.098  33.789  1.00  0.00     0.060 A 
ATOM     53  C   UNL A   1      41.169  33.919  33.489  1.00  0.00     0.016 A 
ATOM     54  C   UNL A   1      43.081  35.316  33.124  1.00  0.00     0.016 A 
ATOM     55  C   UNL A   1      41.774  32.865  32.753  1.00  0.00     0.010 A 
ATOM     56  C   UNL A   1      43.690  34.239  32.473  1.00  0.00     0.010 A 
ATOM     57  C   UNL A   1      43.107  32.954  32.368  1.00  0.00    -0.014 A 
BRANCH  57  58
ATOM     58  C   UNL A   1      44.002  31.795  31.993  1.00  0.00     0.031 A 
ATOM     59  C   UNL A   1      44.518  30.931  33.129  1.00  0.00     0.074 A 
ATOM     60  C   UNL A   1      44.053  31.293  30.714  1.00  0.00     0.049 A 
ATOM     61  N   UNL A   1      45.129  29.802  33.018  1.00  0.00    -0.248 NA
ATOM     62  C   UNL A   1      44.255  31.227  34.533  1.00  0.00     0.031 C 
ATOM     63  C   UNL A   1      44.445  29.942  30.289  1.00  0.00     0.029 A 
ATOM     64  N   UNL A   1      43.668  31.827  29.468  1.00  0.00    -0.354 N 
ATOM     65  C   UNL A   1      44.964  29.065  34.187  1.00  0.00     0.074 A 
ATOM     66  C   UNL A   1      44.451  30.038  35.115  1.00  0.00     0.031 C 
ATOM     67  C   UNL A   1      44.463  29.792  28.957  1.00  0.00     0.029 A 
ATOM     68  C   UNL A   1      44.393  31.125  28.457  1.00  0.00     0.049 A 
ATOM     69  H   UNL A   1      43.017  32.552  29.321  1.00  0.00     0.167 HD
ATOM     70  C   UNL A   1      45.168  27.702  34.161  1.00  0.00     0.037 A 
ATOM     71  C   UNL A   1      45.434  31.687  27.780  1.00  0.00     0.037 A 
ATOM     72  C   UNL A   1      45.650  27.277  32.815  1.00  0.00     0.049 A 
ATOM     73  C   UNL A   1      46.743  30.978  28.229  1.00  0.00     0.074 A 
ATOM     74  C   UNL A   1      45.258  26.358  31.855  1.00  0.00     0.029 A 
ATOM     75  N   UNL A   1      46.630  28.045  32.178  1.00  0.00    -0.354 N 
ATOM     76  N   UNL A   1      46.859  30.320  29.372  1.00  0.00    -0.248 NA
ATOM     77  C   UNL A   1      47.901  30.715  27.383  1.00  0.00     0.031 C 
ATOM     78  C   UNL A   1      45.962  26.636  30.638  1.00  0.00     0.029 A 
ATOM     79  C   UNL A   1      46.826  27.701  30.856  1.00  0.00     0.049 A 
ATOM     80  H   UNL A   1      47.130  28.763  32.630  1.00  0.00     0.167 HD
ATOM     81  C   UNL A   1      47.858  29.379  29.310  1.00  0.00     0.074 A 
ATOM     82  C   UNL A   1      48.588  29.814  28.121  1.00  0.00     0.031 C 
ATOM     83  C   UNL A   1      47.968  28.256  30.121  1.00  0.00     0.037 A 
BRANCH  70  84
ATOM     84  C   UNL A   1      44.795  26.679  35.274  1.00  0.00     0.057 A 
ATOM     85  C   UNL A   1      43.449  26.444  35.653  1.00  0.00     0.134 A 
ATOM     86  C   UNL A   1      45.694  25.881  36.018  1.00  0.00     0.134 A 
ATOM     87  F   UNL A   1      42.423  27.021  35.016  1.00  0.00    -0.206 F 
ATOM     88  C   UNL A   1      43.051  25.569  36.689  1.00  0.00     0.040 A 
ATOM     89  C   UNL A   1      45.310  24.995  37.051  1.00  0.00     0.040 A 
ATOM     90  F   UNL A   1      47.003  25.861  35.776  1.00  0.00    -0.206 F 
ATOM     91  C   UNL A   1      43.984  24.839  37.399  1.00  0.00     0.006 A 
ENDBRANCH  70  84
BRANCH  71  92
ATOM     92  C   UNL A   1      45.000  33.076  27.386  1.00  0.00     0.057 A 
ATOM     93  C   UNL A   1      45.829  34.122  27.896  1.00  0.00     0.134 A 
ATOM     94  C   UNL A   1      44.484  33.298  26.105  1.00  0.00     0.134 A 
ATOM     95  F   UNL A   1      46.336  34.030  29.139  1.00  0.00    -0.206 F 
ATOM     96  C   UNL A   1      46.354  35.137  27.077  1.00  0.00     0.040 A 
ATOM     97  C   UNL A   1      44.969  34.348  25.296  1.00  0.00     0.040 A 
ATOM     98  F   UNL A   1      43.693  32.381  25.530  1.00  0.00    -0.206 F 
ATOM     99  C   UNL A   1      45.971  35.207  25.746  1.00  0.00     0.006 A 
ENDBRANCH  71  92
BRANCH  83 100
ATOM    100  C   UNL A   1      49.279  27.559  30.418  1.00  0.00     0.057 A 
ATOM    101  C   UNL A   1      49.675  26.353  29.860  1.00  0.00     0.134 A 
ATOM    102  C   UNL A   1      50.251  28.163  31.265  1.00  0.00     0.134 A 
ATOM    103  F   UNL A   1      48.785  25.506  29.333  1.00  0.00    -0.206 F 
ATOM    104  C   UNL A   1      51.009  25.936  29.886  1.00  0.00     0.040 A 
ATOM    105  C   UNL A   1      51.564  27.724  31.357  1.00  0.00     0.040 A 
ATOM    106  F   UNL A   1      49.999  29.216  32.050  1.00  0.00    -0.206 F 
ATOM    107  C   UNL A   1      51.968  26.646  30.600  1.00  0.00     0.006 A 
ENDBRANCH  83 100
ENDBRANCH  57  58
ENDBRANCH  50  52
ENDBRANCH  49  50
ENDBRANCH  48  49
ENDBRANCH  47  48
ENDBRANCH  46  47
ENDBRANCH  45  46
ENDBRANCH  44  45
ENDBRANCH  43  44
ENDBRANCH  42  43
ENDBRANCH   1  42
TORSDOF 27
ENDMDL
