MODEL 1
REMARK VINA RESULT:     -10.6      0.000      0.000
REMARK SMILES C[C@H](NS(=O)(=O)c1ccc(-c2cc(-c3ccccc3)c3cc([N+](=O)[O-])ccc3n2)cc1)C(=O)OCCOCCOCCOCCOC(=O)c1ccc(-c2c3nc(c(-c4c(F)cccc4F)c4ccc([nH]4)c(-c4c(F)cccc4F)c4nc(c(-c5c(F)cccc5F)c5ccc2[nH]5)C=C4)C=C3)cc1
REMARK SMILES IDX 38 1 37 2 36 3 35 4 34 5 32 6 33 7 2 8 1 9 3 10 4 12 5 13
REMARK SMILES IDX 6 14 7 15 8 16 31 17 9 18 30 19 10 20 11 21 12 22 29 23
REMARK SMILES IDX 13 24 28 25 20 26 27 27 21 28 26 29 22 30 14 31 15 32 19 33
REMARK SMILES IDX 16 34 18 35 17 36 23 37 24 38 25 39 39 40 40 41 41 42 42 43
REMARK SMILES IDX 43 44 44 45 45 46 46 47 47 48 48 49 49 50 50 51 102 52 51 53
REMARK SMILES IDX 101 54 52 55 53 56 54 57 95 58 55 59 100 60 94 61 96 62
REMARK SMILES IDX 56 63 99 64 93 65 92 66 57 68 83 69 66 70 82 71 67 72 70 73
REMARK SMILES IDX 81 74 97 75 68 76 69 77 80 79 98 80 71 81 58 82 59 83 64 84
REMARK SMILES IDX 60 85 61 86 63 87 65 88 62 89 84 90 85 91 90 92 86 93 87 94
REMARK SMILES IDX 89 95 91 96 88 97 72 98 73 99 78 100 74 101 75 102 77 103
REMARK SMILES IDX 79 104 76 105
REMARK H PARENT 3 11 96 67 70 78
REMARK Flexibility Score: inf
ROOT
ATOM      1  C   UNL A   1      33.987  22.383  27.821  1.00  0.00     0.188 C 
ENDROOT
BRANCH   1   2
ATOM      2  O   UNL A   1      32.587  22.597  27.918  1.00  0.00    -0.376 OA
BRANCH   2   3
ATOM      3  C   UNL A   1      31.925  23.432  26.976  1.00  0.00     0.202 C 
BRANCH   3   4
ATOM      4  C   UNL A   1      31.294  22.845  25.702  1.00  0.00     0.261 C 
BRANCH   4   5
ATOM      5  O   UNL A   1      30.751  23.799  24.758  1.00  0.00    -0.462 OA
BRANCH   5   6
ATOM      6  C   UNL A   1      31.652  24.371  23.917  1.00  0.00     0.323 C 
ATOM      7  O   UNL A   1      32.747  23.869  23.675  1.00  0.00    -0.250 OA
BRANCH   6   8
ATOM      8  C   UNL A   1      31.232  25.728  23.337  1.00  0.00     0.176 C 
ATOM      9  C   UNL A   1      31.859  25.800  21.952  1.00  0.00     0.038 C 
BRANCH   8  10
ATOM     10  N   UNL A   1      31.520  26.932  24.132  1.00  0.00    -0.197 NA
ATOM     11  H   UNL A   1      31.500  26.635  25.107  1.00  0.00     0.142 HD
BRANCH  10  12
ATOM     12  S   UNL A   1      32.925  27.842  23.956  1.00  0.00     0.241 S 
ATOM     13  O   UNL A   1      33.999  26.891  23.782  1.00  0.00    -0.207 OA
ATOM     14  O   UNL A   1      32.664  28.873  22.974  1.00  0.00    -0.207 OA
BRANCH  12  15
ATOM     15  C   UNL A   1      33.209  28.652  25.527  1.00  0.00     0.082 A 
ATOM     16  C   UNL A   1      32.258  29.527  26.058  1.00  0.00     0.022 A 
ATOM     17  C   UNL A   1      34.377  28.391  26.248  1.00  0.00     0.022 A 
ATOM     18  C   UNL A   1      32.592  30.330  27.164  1.00  0.00     0.012 A 
ATOM     19  C   UNL A   1      34.683  29.156  27.384  1.00  0.00     0.012 A 
ATOM     20  C   UNL A   1      33.877  30.262  27.744  1.00  0.00     0.000 A 
BRANCH  20  21
ATOM     21  C   UNL A   1      34.578  31.570  28.082  1.00  0.00     0.072 A 
ATOM     22  C   UNL A   1      34.319  32.284  29.255  1.00  0.00     0.038 A 
ATOM     23  N   UNL A   1      35.883  31.361  27.771  1.00  0.00    -0.248 NA
ATOM     24  C   UNL A   1      35.286  32.212  30.261  1.00  0.00    -0.007 A 
ATOM     25  C   UNL A   1      36.616  30.912  28.789  1.00  0.00     0.072 A 
ATOM     26  C   UNL A   1      36.226  31.182  30.097  1.00  0.00     0.015 A 
ATOM     27  C   UNL A   1      37.656  30.029  28.583  1.00  0.00     0.036 A 
ATOM     28  C   UNL A   1      36.683  30.376  31.162  1.00  0.00     0.096 A 
ATOM     29  C   UNL A   1      38.124  29.226  29.628  1.00  0.00     0.088 A 
ATOM     30  C   UNL A   1      37.556  29.334  30.891  1.00  0.00     0.270 A 
BRANCH  24  31
ATOM     31  C   UNL A   1      35.475  33.123  31.412  1.00  0.00    -0.018 A 
ATOM     32  C   UNL A   1      36.699  33.846  31.474  1.00  0.00     0.009 A 
ATOM     33  C   UNL A   1      34.582  33.292  32.467  1.00  0.00     0.009 A 
ATOM     34  C   UNL A   1      37.070  34.603  32.580  1.00  0.00     0.001 A 
ATOM     35  C   UNL A   1      34.942  34.079  33.574  1.00  0.00     0.001 A 
ATOM     36  C   UNL A   1      36.190  34.708  33.643  1.00  0.00     0.000 A 
ENDBRANCH  24  31
BRANCH  30  37
ATOM     37  N   UNL A   1      37.767  28.275  31.880  1.00  0.00     0.062 N 
ATOM     38  O   UNL A   1      38.420  27.282  31.530  1.00  0.00    -0.258 OA
ATOM     39  O   UNL A   1      37.334  28.469  33.025  1.00  0.00    -0.258 OA
ENDBRANCH  30  37
ENDBRANCH  20  21
ENDBRANCH  12  15
ENDBRANCH  10  12
ENDBRANCH   8  10
ENDBRANCH   6   8
ENDBRANCH   5   6
ENDBRANCH   4   5
ENDBRANCH   3   4
ENDBRANCH   2   3
ENDBRANCH   1   2
BRANCH   1  40
ATOM     40  C   UNL A   1      34.644  22.140  26.457  1.00  0.00     0.188 C 
BRANCH  40  41
ATOM     41  O   UNL A   1      35.453  23.198  25.985  1.00  0.00    -0.377 OA
BRANCH  41  42
ATOM     42  C   UNL A   1      36.396  22.876  24.968  1.00  0.00     0.188 C 
BRANCH  42  43
ATOM     43  C   UNL A   1      36.943  21.436  24.905  1.00  0.00     0.188 C 
BRANCH  43  44
ATOM     44  O   UNL A   1      38.259  21.290  25.434  1.00  0.00    -0.376 OA
BRANCH  44  45
ATOM     45  C   UNL A   1      38.865  22.432  26.031  1.00  0.00     0.202 C 
BRANCH  45  46
ATOM     46  C   UNL A   1      40.282  22.227  26.596  1.00  0.00     0.261 C 
BRANCH  46  47
ATOM     47  O   UNL A   1      41.101  23.407  26.668  1.00  0.00    -0.460 OA
BRANCH  47  48
ATOM     48  C   UNL A   1      42.434  23.252  26.554  1.00  0.00     0.338 C 
ATOM     49  O   UNL A   1      43.036  22.233  26.271  1.00  0.00    -0.246 OA
BRANCH  48  50
ATOM     50  C   UNL A   1      43.069  24.584  26.631  1.00  0.00     0.060 A 
ATOM     51  C   UNL A   1      43.194  25.323  25.448  1.00  0.00     0.016 A 
ATOM     52  C   UNL A   1      43.584  25.075  27.834  1.00  0.00     0.016 A 
ATOM     53  C   UNL A   1      43.917  26.513  25.445  1.00  0.00     0.010 A 
ATOM     54  C   UNL A   1      44.325  26.262  27.827  1.00  0.00     0.010 A 
ATOM     55  C   UNL A   1      44.546  26.947  26.620  1.00  0.00    -0.014 A 
BRANCH  55  56
ATOM     56  C   UNL A   1      45.656  27.924  26.507  1.00  0.00     0.031 A 
ATOM     57  C   UNL A   1      45.317  29.386  26.647  1.00  0.00     0.074 A 
ATOM     58  C   UNL A   1      46.933  27.537  26.357  1.00  0.00     0.049 A 
ATOM     59  N   UNL A   1      46.105  30.430  26.637  1.00  0.00    -0.248 NA
ATOM     60  C   UNL A   1      43.892  29.711  26.824  1.00  0.00     0.031 C 
ATOM     61  C   UNL A   1      47.394  26.155  26.252  1.00  0.00     0.029 A 
ATOM     62  N   UNL A   1      48.080  28.286  26.274  1.00  0.00    -0.354 N 
ATOM     63  C   UNL A   1      45.272  31.530  26.801  1.00  0.00     0.074 A 
ATOM     64  C   UNL A   1      43.917  31.034  26.873  1.00  0.00     0.031 C 
ATOM     65  C   UNL A   1      48.733  26.154  26.121  1.00  0.00     0.029 A 
ATOM     66  C   UNL A   1      49.218  27.534  26.116  1.00  0.00     0.049 A 
ATOM     67  H   UNL A   1      48.087  29.269  26.325  1.00  0.00     0.167 HD
ATOM     68  C   UNL A   1      45.604  32.839  26.897  1.00  0.00     0.037 A 
ATOM     69  C   UNL A   1      50.500  27.923  25.980  1.00  0.00     0.037 A 
ATOM     70  C   UNL A   1      46.950  33.337  26.827  1.00  0.00     0.049 A 
ATOM     71  C   UNL A   1      50.839  29.392  26.030  1.00  0.00     0.074 A 
ATOM     72  C   UNL A   1      47.394  34.644  26.927  1.00  0.00     0.029 A 
ATOM     73  N   UNL A   1      48.071  32.545  26.630  1.00  0.00    -0.354 N 
ATOM     74  N   UNL A   1      50.049  30.420  26.221  1.00  0.00    -0.248 NA
ATOM     75  C   UNL A   1      52.255  29.748  25.854  1.00  0.00     0.031 C 
ATOM     76  C   UNL A   1      48.780  34.647  26.744  1.00  0.00     0.029 A 
ATOM     77  C   UNL A   1      49.206  33.338  26.585  1.00  0.00     0.049 A 
ATOM     78  H   UNL A   1      48.062  31.566  26.536  1.00  0.00     0.167 HD
ATOM     79  C   UNL A   1      50.876  31.539  26.234  1.00  0.00     0.074 A 
ATOM     80  C   UNL A   1      52.227  31.061  26.032  1.00  0.00     0.031 C 
ATOM     81  C   UNL A   1      50.546  32.844  26.404  1.00  0.00     0.037 A 
BRANCH  68  82
ATOM     82  C   UNL A   1      44.480  33.821  27.054  1.00  0.00     0.057 A 
ATOM     83  C   UNL A   1      44.017  34.226  28.313  1.00  0.00     0.134 A 
ATOM     84  C   UNL A   1      43.850  34.366  25.927  1.00  0.00     0.134 A 
ATOM     85  F   UNL A   1      44.562  33.724  29.431  1.00  0.00    -0.206 F 
ATOM     86  C   UNL A   1      42.951  35.117  28.446  1.00  0.00     0.040 A 
ATOM     87  C   UNL A   1      42.802  35.278  26.048  1.00  0.00     0.040 A 
ATOM     88  F   UNL A   1      44.243  34.019  24.693  1.00  0.00    -0.206 F 
ATOM     89  C   UNL A   1      42.343  35.650  27.311  1.00  0.00     0.006 A 
ENDBRANCH  68  82
BRANCH  69  90
ATOM     90  C   UNL A   1      51.573  26.912  25.800  1.00  0.00     0.057 A 
ATOM     91  C   UNL A   1      51.992  26.520  24.523  1.00  0.00     0.134 A 
ATOM     92  C   UNL A   1      52.180  26.290  26.897  1.00  0.00     0.134 A 
ATOM     93  F   UNL A   1      51.431  27.062  23.432  1.00  0.00    -0.206 F 
ATOM     94  C   UNL A   1      52.960  25.530  24.343  1.00  0.00     0.040 A 
ATOM     95  C   UNL A   1      53.167  25.316  26.732  1.00  0.00     0.040 A 
ATOM     96  F   UNL A   1      51.822  26.621  28.146  1.00  0.00    -0.206 F 
ATOM     97  C   UNL A   1      53.554  24.929  25.450  1.00  0.00     0.006 A 
ENDBRANCH  69  90
BRANCH  81  98
ATOM     98  C   UNL A   1      51.669  33.840  26.446  1.00  0.00     0.057 A 
ATOM     99  C   UNL A   1      52.279  34.228  27.644  1.00  0.00     0.134 A 
ATOM    100  C   UNL A   1      52.169  34.391  25.257  1.00  0.00     0.134 A 
ATOM    101  F   UNL A   1      51.843  33.746  28.817  1.00  0.00    -0.206 F 
ATOM    102  C   UNL A   1      53.327  35.151  27.662  1.00  0.00     0.040 A 
ATOM    103  C   UNL A   1      53.233  35.292  25.261  1.00  0.00     0.040 A 
ATOM    104  F   UNL A   1      51.638  34.052  24.073  1.00  0.00    -0.206 F 
ATOM    105  C   UNL A   1      53.811  35.682  26.467  1.00  0.00     0.006 A 
ENDBRANCH  81  98
ENDBRANCH  55  56
ENDBRANCH  48  50
ENDBRANCH  47  48
ENDBRANCH  46  47
ENDBRANCH  45  46
ENDBRANCH  44  45
ENDBRANCH  43  44
ENDBRANCH  42  43
ENDBRANCH  41  42
ENDBRANCH  40  41
ENDBRANCH   1  40
TORSDOF 26
ENDMDL
MODEL 2
REMARK VINA RESULT:     -10.0      3.716      6.543
REMARK SMILES C[C@H](NS(=O)(=O)c1ccc(-c2cc(-c3ccccc3)c3cc([N+](=O)[O-])ccc3n2)cc1)C(=O)OCCOCCOCCOCCOC(=O)c1ccc(-c2c3nc(c(-c4c(F)cccc4F)c4ccc([nH]4)c(-c4c(F)cccc4F)c4nc(c(-c5c(F)cccc5F)c5ccc2[nH]5)C=C4)C=C3)cc1
REMARK SMILES IDX 38 1 37 2 36 3 35 4 34 5 32 6 33 7 2 8 1 9 3 10 4 12 5 13
REMARK SMILES IDX 6 14 7 15 8 16 31 17 9 18 30 19 10 20 11 21 12 22 29 23
REMARK SMILES IDX 13 24 28 25 20 26 27 27 21 28 26 29 22 30 14 31 15 32 19 33
REMARK SMILES IDX 16 34 18 35 17 36 23 37 24 38 25 39 39 40 40 41 41 42 42 43
REMARK SMILES IDX 43 44 44 45 45 46 46 47 47 48 48 49 49 50 50 51 102 52 51 53
REMARK SMILES IDX 101 54 52 55 53 56 54 57 95 58 55 59 100 60 94 61 96 62
REMARK SMILES IDX 56 63 99 64 93 65 92 66 57 68 83 69 66 70 82 71 67 72 70 73
REMARK SMILES IDX 81 74 97 75 68 76 69 77 80 79 98 80 71 81 58 82 59 83 64 84
REMARK SMILES IDX 60 85 61 86 63 87 65 88 62 89 84 90 85 91 90 92 86 93 87 94
REMARK SMILES IDX 89 95 91 96 88 97 72 98 73 99 78 100 74 101 75 102 77 103
REMARK SMILES IDX 79 104 76 105
REMARK H PARENT 3 11 96 67 70 78
REMARK Flexibility Score: inf
ROOT
ATOM      1  C   UNL A   1      34.052  22.119  27.545  1.00  0.00     0.188 C 
ENDROOT
BRANCH   1   2
ATOM      2  O   UNL A   1      32.671  22.015  27.235  1.00  0.00    -0.376 OA
BRANCH   2   3
ATOM      3  C   UNL A   1      32.014  23.064  26.535  1.00  0.00     0.202 C 
BRANCH   3   4
ATOM      4  C   UNL A   1      31.342  22.811  25.175  1.00  0.00     0.261 C 
BRANCH   4   5
ATOM      5  O   UNL A   1      30.775  23.968  24.515  1.00  0.00    -0.462 OA
BRANCH   5   6
ATOM      6  C   UNL A   1      31.528  24.502  23.517  1.00  0.00     0.323 C 
ATOM      7  O   UNL A   1      32.495  23.922  23.031  1.00  0.00    -0.250 OA
BRANCH   6   8
ATOM      8  C   UNL A   1      31.122  25.916  23.081  1.00  0.00     0.176 C 
ATOM      9  C   UNL A   1      31.691  26.099  21.682  1.00  0.00     0.038 C 
BRANCH   8  10
ATOM     10  N   UNL A   1      31.479  27.036  23.968  1.00  0.00    -0.197 NA
ATOM     11  H   UNL A   1      31.528  26.644  24.907  1.00  0.00     0.142 HD
BRANCH  10  12
ATOM     12  S   UNL A   1      32.875  27.956  23.778  1.00  0.00     0.241 S 
ATOM     13  O   UNL A   1      33.940  27.018  23.512  1.00  0.00    -0.207 OA
ATOM     14  O   UNL A   1      32.572  29.034  22.861  1.00  0.00    -0.207 OA
BRANCH  12  15
ATOM     15  C   UNL A   1      33.224  28.687  25.374  1.00  0.00     0.082 A 
ATOM     16  C   UNL A   1      32.239  29.402  26.061  1.00  0.00     0.022 A 
ATOM     17  C   UNL A   1      34.483  28.523  25.959  1.00  0.00     0.022 A 
ATOM     18  C   UNL A   1      32.591  30.163  27.190  1.00  0.00     0.012 A 
ATOM     19  C   UNL A   1      34.815  29.241  27.118  1.00  0.00     0.012 A 
ATOM     20  C   UNL A   1      33.928  30.214  27.639  1.00  0.00     0.000 A 
BRANCH  20  21
ATOM     21  C   UNL A   1      34.506  31.572  28.012  1.00  0.00     0.072 A 
ATOM     22  C   UNL A   1      34.183  32.228  29.202  1.00  0.00     0.038 A 
ATOM     23  N   UNL A   1      35.824  31.493  27.697  1.00  0.00    -0.248 NA
ATOM     24  C   UNL A   1      35.155  32.220  30.207  1.00  0.00    -0.007 A 
ATOM     25  C   UNL A   1      36.597  31.088  28.703  1.00  0.00     0.072 A 
ATOM     26  C   UNL A   1      36.185  31.286  30.017  1.00  0.00     0.015 A 
ATOM     27  C   UNL A   1      37.714  30.310  28.475  1.00  0.00     0.036 A 
ATOM     28  C   UNL A   1      36.717  30.499  31.062  1.00  0.00     0.096 A 
ATOM     29  C   UNL A   1      38.256  29.527  29.499  1.00  0.00     0.088 A 
ATOM     30  C   UNL A   1      37.682  29.549  30.764  1.00  0.00     0.270 A 
BRANCH  24  31
ATOM     31  C   UNL A   1      35.260  33.114  31.382  1.00  0.00    -0.018 A 
ATOM     32  C   UNL A   1      34.609  32.696  32.577  1.00  0.00     0.009 A 
ATOM     33  C   UNL A   1      35.894  34.354  31.403  1.00  0.00     0.009 A 
ATOM     34  C   UNL A   1      34.490  33.515  33.694  1.00  0.00     0.001 A 
ATOM     35  C   UNL A   1      35.799  35.173  32.541  1.00  0.00     0.001 A 
ATOM     36  C   UNL A   1      35.078  34.768  33.669  1.00  0.00     0.000 A 
ENDBRANCH  24  31
BRANCH  30  37
ATOM     37  N   UNL A   1      37.992  28.489  31.725  1.00  0.00     0.062 N 
ATOM     38  O   UNL A   1      38.218  28.821  32.897  1.00  0.00    -0.258 OA
ATOM     39  O   UNL A   1      37.947  27.319  31.318  1.00  0.00    -0.258 OA
ENDBRANCH  30  37
ENDBRANCH  20  21
ENDBRANCH  12  15
ENDBRANCH  10  12
ENDBRANCH   8  10
ENDBRANCH   6   8
ENDBRANCH   5   6
ENDBRANCH   4   5
ENDBRANCH   3   4
ENDBRANCH   2   3
ENDBRANCH   1   2
BRANCH   1  40
ATOM     40  C   UNL A   1      35.107  22.024  26.436  1.00  0.00     0.188 C 
BRANCH  40  41
ATOM     41  O   UNL A   1      35.583  23.264  25.954  1.00  0.00    -0.377 OA
BRANCH  41  42
ATOM     42  C   UNL A   1      36.725  23.223  25.106  1.00  0.00     0.188 C 
BRANCH  42  43
ATOM     43  C   UNL A   1      37.872  22.259  25.467  1.00  0.00     0.188 C 
BRANCH  43  44
ATOM     44  O   UNL A   1      38.808  22.790  26.403  1.00  0.00    -0.376 OA
BRANCH  44  45
ATOM     45  C   UNL A   1      38.826  24.201  26.593  1.00  0.00     0.202 C 
BRANCH  45  46
ATOM     46  C   UNL A   1      39.726  24.718  27.730  1.00  0.00     0.261 C 
BRANCH  46  47
ATOM     47  O   UNL A   1      40.432  25.941  27.459  1.00  0.00    -0.460 OA
BRANCH  47  48
ATOM     48  C   UNL A   1      41.770  25.874  27.316  1.00  0.00     0.338 C 
ATOM     49  O   UNL A   1      42.423  24.920  26.932  1.00  0.00    -0.246 OA
BRANCH  48  50
ATOM     50  C   UNL A   1      42.331  27.227  27.508  1.00  0.00     0.060 A 
ATOM     51  C   UNL A   1      43.420  27.370  28.378  1.00  0.00     0.016 A 
ATOM     52  C   UNL A   1      41.763  28.344  26.890  1.00  0.00     0.016 A 
ATOM     53  C   UNL A   1      43.885  28.640  28.706  1.00  0.00     0.010 A 
ATOM     54  C   UNL A   1      42.219  29.621  27.233  1.00  0.00     0.010 A 
ATOM     55  C   UNL A   1      43.237  29.772  28.191  1.00  0.00    -0.014 A 
BRANCH  55  56
ATOM     56  C   UNL A   1      43.429  31.071  28.881  1.00  0.00     0.031 A 
ATOM     57  C   UNL A   1      42.594  31.343  30.105  1.00  0.00     0.074 A 
ATOM     58  C   UNL A   1      44.359  31.956  28.485  1.00  0.00     0.049 A 
ATOM     59  N   UNL A   1      42.604  32.373  30.910  1.00  0.00    -0.248 NA
ATOM     60  C   UNL A   1      41.612  30.307  30.468  1.00  0.00     0.031 C 
ATOM     61  C   UNL A   1      45.257  31.791  27.345  1.00  0.00     0.029 A 
ATOM     62  N   UNL A   1      44.703  33.174  29.016  1.00  0.00    -0.354 N 
ATOM     63  C   UNL A   1      41.633  32.111  31.868  1.00  0.00     0.074 A 
ATOM     64  C   UNL A   1      41.027  30.844  31.527  1.00  0.00     0.031 C 
ATOM     65  C   UNL A   1      46.054  32.871  27.263  1.00  0.00     0.029 A 
ATOM     66  C   UNL A   1      45.711  33.808  28.332  1.00  0.00     0.049 A 
ATOM     67  H   UNL A   1      44.268  33.556  29.812  1.00  0.00     0.167 HD
ATOM     68  C   UNL A   1      41.281  32.851  32.946  1.00  0.00     0.037 A 
ATOM     69  C   UNL A   1      46.282  35.007  28.550  1.00  0.00     0.037 A 
ATOM     70  C   UNL A   1      41.882  34.110  33.289  1.00  0.00     0.049 A 
ATOM     71  C   UNL A   1      45.833  35.842  29.723  1.00  0.00     0.074 A 
ATOM     72  C   UNL A   1      41.608  34.932  34.369  1.00  0.00     0.029 A 
ATOM     73  N   UNL A   1      42.875  34.735  32.550  1.00  0.00    -0.354 N 
ATOM     74  N   UNL A   1      44.939  35.568  30.642  1.00  0.00    -0.248 NA
ATOM     75  C   UNL A   1      46.483  37.150  29.890  1.00  0.00     0.031 C 
ATOM     76  C   UNL A   1      42.403  36.077  34.257  1.00  0.00     0.029 A 
ATOM     77  C   UNL A   1      43.212  35.942  33.139  1.00  0.00     0.049 A 
ATOM     78  H   UNL A   1      43.281  34.373  31.730  1.00  0.00     0.167 HD
ATOM     79  C   UNL A   1      44.953  36.647  31.520  1.00  0.00     0.074 A 
ATOM     80  C   UNL A   1      45.944  37.577  31.023  1.00  0.00     0.031 C 
ATOM     81  C   UNL A   1      44.216  36.847  32.642  1.00  0.00     0.037 A 
BRANCH  68  82
ATOM     82  C   UNL A   1      40.172  32.323  33.807  1.00  0.00     0.057 A 
ATOM     83  C   UNL A   1      40.422  31.579  34.969  1.00  0.00     0.134 A 
ATOM     84  C   UNL A   1      38.834  32.560  33.468  1.00  0.00     0.134 A 
ATOM     85  F   UNL A   1      41.681  31.298  35.337  1.00  0.00    -0.206 F 
ATOM     86  C   UNL A   1      39.381  31.068  35.745  1.00  0.00     0.040 A 
ATOM     87  C   UNL A   1      37.786  32.077  34.251  1.00  0.00     0.040 A 
ATOM     88  F   UNL A   1      38.526  33.263  32.368  1.00  0.00    -0.206 F 
ATOM     89  C   UNL A   1      38.058  31.321  35.390  1.00  0.00     0.006 A 
ENDBRANCH  68  82
BRANCH  69  90
ATOM     90  C   UNL A   1      47.358  35.497  27.651  1.00  0.00     0.057 A 
ATOM     91  C   UNL A   1      47.071  36.335  26.567  1.00  0.00     0.134 A 
ATOM     92  C   UNL A   1      48.691  35.111  27.833  1.00  0.00     0.134 A 
ATOM     93  F   UNL A   1      45.810  36.719  26.326  1.00  0.00    -0.206 F 
ATOM     94  C   UNL A   1      48.068  36.755  25.684  1.00  0.00     0.040 A 
ATOM     95  C   UNL A   1      49.702  35.543  26.972  1.00  0.00     0.040 A 
ATOM     96  F   UNL A   1      49.031  34.308  28.852  1.00  0.00    -0.206 F 
ATOM     97  C   UNL A   1      49.389  36.362  25.889  1.00  0.00     0.006 A 
ENDBRANCH  69  90
BRANCH  81  98
ATOM     98  C   UNL A   1      44.498  38.085  33.443  1.00  0.00     0.057 A 
ATOM     99  C   UNL A   1      43.831  39.293  33.210  1.00  0.00     0.134 A 
ATOM    100  C   UNL A   1      45.431  38.052  34.489  1.00  0.00     0.134 A 
ATOM    101  F   UNL A   1      42.934  39.394  32.218  1.00  0.00    -0.206 F 
ATOM    102  C   UNL A   1      44.101  40.433  33.970  1.00  0.00     0.040 A 
ATOM    103  C   UNL A   1      45.688  39.177  35.274  1.00  0.00     0.040 A 
ATOM    104  F   UNL A   1      46.097  36.923  34.774  1.00  0.00    -0.206 F 
ATOM    105  C   UNL A   1      45.029  40.375  35.009  1.00  0.00     0.006 A 
ENDBRANCH  81  98
ENDBRANCH  55  56
ENDBRANCH  48  50
ENDBRANCH  47  48
ENDBRANCH  46  47
ENDBRANCH  45  46
ENDBRANCH  44  45
ENDBRANCH  43  44
ENDBRANCH  42  43
ENDBRANCH  41  42
ENDBRANCH  40  41
ENDBRANCH   1  40
TORSDOF 26
ENDMDL
MODEL 3
REMARK VINA RESULT:      -9.6      6.968     13.555
REMARK SMILES C[C@H](NS(=O)(=O)c1ccc(-c2cc(-c3ccccc3)c3cc([N+](=O)[O-])ccc3n2)cc1)C(=O)OCCOCCOCCOCCOC(=O)c1ccc(-c2c3nc(c(-c4c(F)cccc4F)c4ccc([nH]4)c(-c4c(F)cccc4F)c4nc(c(-c5c(F)cccc5F)c5ccc2[nH]5)C=C4)C=C3)cc1
REMARK SMILES IDX 38 1 37 2 36 3 35 4 34 5 32 6 33 7 2 8 1 9 3 10 4 12 5 13
REMARK SMILES IDX 6 14 7 15 8 16 31 17 9 18 30 19 10 20 11 21 12 22 29 23
REMARK SMILES IDX 13 24 28 25 20 26 27 27 21 28 26 29 22 30 14 31 15 32 19 33
REMARK SMILES IDX 16 34 18 35 17 36 23 37 24 38 25 39 39 40 40 41 41 42 42 43
REMARK SMILES IDX 43 44 44 45 45 46 46 47 47 48 48 49 49 50 50 51 102 52 51 53
REMARK SMILES IDX 101 54 52 55 53 56 54 57 95 58 55 59 100 60 94 61 96 62
REMARK SMILES IDX 56 63 99 64 93 65 92 66 57 68 83 69 66 70 82 71 67 72 70 73
REMARK SMILES IDX 81 74 97 75 68 76 69 77 80 79 98 80 71 81 58 82 59 83 64 84
REMARK SMILES IDX 60 85 61 86 63 87 65 88 62 89 84 90 85 91 90 92 86 93 87 94
REMARK SMILES IDX 89 95 91 96 88 97 72 98 73 99 78 100 74 101 75 102 77 103
REMARK SMILES IDX 79 104 76 105
REMARK H PARENT 3 11 96 67 70 78
REMARK Flexibility Score: inf
ROOT
ATOM      1  C   UNL A   1      44.695  37.191  38.228  1.00  0.00     0.188 C 
ENDROOT
BRANCH   1   2
ATOM      2  O   UNL A   1      44.364  38.545  37.961  1.00  0.00    -0.376 OA
BRANCH   2   3
ATOM      3  C   UNL A   1      45.003  39.241  36.897  1.00  0.00     0.202 C 
BRANCH   3   4
ATOM      4  C   UNL A   1      44.359  40.486  36.264  1.00  0.00     0.261 C 
BRANCH   4   5
ATOM      5  O   UNL A   1      45.234  41.617  36.042  1.00  0.00    -0.462 OA
BRANCH   5   6
ATOM      6  C   UNL A   1      44.809  42.514  35.112  1.00  0.00     0.323 C 
ATOM      7  O   UNL A   1      43.972  43.378  35.356  1.00  0.00    -0.250 OA
BRANCH   6   8
ATOM      8  C   UNL A   1      45.405  42.329  33.710  1.00  0.00     0.176 C 
ATOM      9  C   UNL A   1      45.675  43.731  33.185  1.00  0.00     0.038 C 
BRANCH   8  10
ATOM     10  N   UNL A   1      44.647  41.519  32.744  1.00  0.00    -0.197 NA
ATOM     11  H   UNL A   1      44.581  40.586  33.151  1.00  0.00     0.142 HD
BRANCH  10  12
ATOM     12  S   UNL A   1      43.092  41.908  32.229  1.00  0.00     0.241 S 
ATOM     13  O   UNL A   1      42.207  41.529  33.306  1.00  0.00    -0.207 OA
ATOM     14  O   UNL A   1      43.122  43.262  31.719  1.00  0.00    -0.207 OA
BRANCH  12  15
ATOM     15  C   UNL A   1      42.722  40.821  30.857  1.00  0.00     0.082 A 
ATOM     16  C   UNL A   1      43.449  39.643  30.666  1.00  0.00     0.022 A 
ATOM     17  C   UNL A   1      41.679  41.131  29.980  1.00  0.00     0.022 A 
ATOM     18  C   UNL A   1      43.308  38.925  29.464  1.00  0.00     0.012 A 
ATOM     19  C   UNL A   1      41.504  40.379  28.807  1.00  0.00     0.012 A 
ATOM     20  C   UNL A   1      42.441  39.380  28.448  1.00  0.00     0.000 A 
BRANCH  20  21
ATOM     21  C   UNL A   1      42.952  39.370  27.014  1.00  0.00     0.072 A 
ATOM     22  C   UNL A   1      42.426  40.198  26.020  1.00  0.00     0.038 A 
ATOM     23  N   UNL A   1      44.305  39.331  27.123  1.00  0.00    -0.248 NA
ATOM     24  C   UNL A   1      43.201  41.299  25.644  1.00  0.00    -0.007 A 
ATOM     25  C   UNL A   1      44.882  40.531  27.131  1.00  0.00     0.072 A 
ATOM     26  C   UNL A   1      44.242  41.612  26.532  1.00  0.00     0.015 A 
ATOM     27  C   UNL A   1      46.016  40.772  27.880  1.00  0.00     0.036 A 
ATOM     28  C   UNL A   1      44.571  42.935  26.901  1.00  0.00     0.096 A 
ATOM     29  C   UNL A   1      46.359  42.076  28.251  1.00  0.00     0.088 A 
ATOM     30  C   UNL A   1      45.567  43.142  27.843  1.00  0.00     0.270 A 
BRANCH  24  31
ATOM     31  C   UNL A   1      43.100  42.106  24.408  1.00  0.00    -0.018 A 
ATOM     32  C   UNL A   1      41.806  42.256  23.834  1.00  0.00     0.009 A 
ATOM     33  C   UNL A   1      44.169  42.686  23.728  1.00  0.00     0.009 A 
ATOM     34  C   UNL A   1      41.598  42.845  22.592  1.00  0.00     0.001 A 
ATOM     35  C   UNL A   1      43.957  43.306  22.485  1.00  0.00     0.001 A 
ATOM     36  C   UNL A   1      42.685  43.361  21.908  1.00  0.00     0.000 A 
ENDBRANCH  24  31
BRANCH  30  37
ATOM     37  N   UNL A   1      45.692  44.441  28.508  1.00  0.00     0.062 N 
ATOM     38  O   UNL A   1      46.760  45.055  28.378  1.00  0.00    -0.258 OA
ATOM     39  O   UNL A   1      44.696  44.873  29.108  1.00  0.00    -0.258 OA
ENDBRANCH  30  37
ENDBRANCH  20  21
ENDBRANCH  12  15
ENDBRANCH  10  12
ENDBRANCH   8  10
ENDBRANCH   6   8
ENDBRANCH   5   6
ENDBRANCH   4   5
ENDBRANCH   3   4
ENDBRANCH   2   3
ENDBRANCH   1   2
BRANCH   1  40
ATOM     40  C   UNL A   1      43.695  36.071  37.917  1.00  0.00     0.188 C 
BRANCH  40  41
ATOM     41  O   UNL A   1      42.362  36.495  37.719  1.00  0.00    -0.377 OA
BRANCH  41  42
ATOM     42  C   UNL A   1      41.583  35.742  36.795  1.00  0.00     0.188 C 
BRANCH  42  43
ATOM     43  C   UNL A   1      40.752  36.505  35.745  1.00  0.00     0.188 C 
BRANCH  43  44
ATOM     44  O   UNL A   1      39.448  35.969  35.533  1.00  0.00    -0.376 OA
BRANCH  44  45
ATOM     45  C   UNL A   1      39.347  34.706  34.883  1.00  0.00     0.202 C 
BRANCH  45  46
ATOM     46  C   UNL A   1      37.982  34.376  34.254  1.00  0.00     0.261 C 
BRANCH  46  47
ATOM     47  O   UNL A   1      37.525  33.025  34.431  1.00  0.00    -0.460 OA
BRANCH  47  48
ATOM     48  C   UNL A   1      36.646  32.538  33.533  1.00  0.00     0.338 C 
ATOM     49  O   UNL A   1      35.493  32.890  33.366  1.00  0.00    -0.246 OA
BRANCH  48  50
ATOM     50  C   UNL A   1      37.365  31.626  32.620  1.00  0.00     0.060 A 
ATOM     51  C   UNL A   1      38.301  30.743  33.174  1.00  0.00     0.016 A 
ATOM     52  C   UNL A   1      37.166  31.675  31.238  1.00  0.00     0.016 A 
ATOM     53  C   UNL A   1      39.108  29.973  32.341  1.00  0.00     0.010 A 
ATOM     54  C   UNL A   1      37.989  30.914  30.401  1.00  0.00     0.010 A 
ATOM     55  C   UNL A   1      39.004  30.112  30.950  1.00  0.00    -0.014 A 
BRANCH  55  56
ATOM     56  C   UNL A   1      40.137  29.659  30.108  1.00  0.00     0.031 A 
ATOM     57  C   UNL A   1      41.261  30.632  29.863  1.00  0.00     0.074 A 
ATOM     58  C   UNL A   1      40.211  28.405  29.631  1.00  0.00     0.049 A 
ATOM     59  N   UNL A   1      42.380  30.467  29.207  1.00  0.00    -0.248 NA
ATOM     60  C   UNL A   1      41.096  31.977  30.439  1.00  0.00     0.031 C 
ATOM     61  C   UNL A   1      39.212  27.359  29.834  1.00  0.00     0.029 A 
ATOM     62  N   UNL A   1      41.187  27.802  28.878  1.00  0.00    -0.354 N 
ATOM     63  C   UNL A   1      43.047  31.683  29.290  1.00  0.00     0.074 A 
ATOM     64  C   UNL A   1      42.194  32.589  30.027  1.00  0.00     0.031 C 
ATOM     65  C   UNL A   1      39.630  26.237  29.220  1.00  0.00     0.029 A 
ATOM     66  C   UNL A   1      40.914  26.492  28.569  1.00  0.00     0.049 A 
ATOM     67  H   UNL A   1      42.006  28.264  28.587  1.00  0.00     0.167 HD
ATOM     68  C   UNL A   1      44.266  32.018  28.807  1.00  0.00     0.037 A 
ATOM     69  C   UNL A   1      41.623  25.609  27.840  1.00  0.00     0.037 A 
ATOM     70  C   UNL A   1      45.117  31.120  28.075  1.00  0.00     0.049 A 
ATOM     71  C   UNL A   1      42.953  26.023  27.261  1.00  0.00     0.074 A 
ATOM     72  C   UNL A   1      46.377  31.357  27.555  1.00  0.00     0.029 A 
ATOM     73  N   UNL A   1      44.787  29.813  27.752  1.00  0.00    -0.354 N 
ATOM     74  N   UNL A   1      43.590  27.163  27.375  1.00  0.00    -0.248 NA
ATOM     75  C   UNL A   1      43.665  25.017  26.460  1.00  0.00     0.031 C 
ATOM     76  C   UNL A   1      46.791  30.206  26.876  1.00  0.00     0.029 A 
ATOM     77  C   UNL A   1      45.812  29.235  27.021  1.00  0.00     0.049 A 
ATOM     78  H   UNL A   1      43.950  29.362  28.004  1.00  0.00     0.167 HD
ATOM     79  C   UNL A   1      44.794  26.997  26.700  1.00  0.00     0.074 A 
ATOM     80  C   UNL A   1      44.798  25.646  26.181  1.00  0.00     0.031 C 
ATOM     81  C   UNL A   1      45.809  27.881  26.530  1.00  0.00     0.037 A 
BRANCH  68  82
ATOM     82  C   UNL A   1      44.729  33.427  29.032  1.00  0.00     0.057 A 
ATOM     83  C   UNL A   1      44.513  34.440  28.087  1.00  0.00     0.134 A 
ATOM     84  C   UNL A   1      45.402  33.774  30.210  1.00  0.00     0.134 A 
ATOM     85  F   UNL A   1      43.894  34.168  26.929  1.00  0.00    -0.206 F 
ATOM     86  C   UNL A   1      44.975  35.740  28.295  1.00  0.00     0.040 A 
ATOM     87  C   UNL A   1      45.844  35.077  30.440  1.00  0.00     0.040 A 
ATOM     88  F   UNL A   1      45.643  32.853  31.154  1.00  0.00    -0.206 F 
ATOM     89  C   UNL A   1      45.638  36.064  29.477  1.00  0.00     0.006 A 
ENDBRANCH  68  82
BRANCH  69  90
ATOM     90  C   UNL A   1      41.107  24.234  27.624  1.00  0.00     0.057 A 
ATOM     91  C   UNL A   1      41.642  23.142  28.318  1.00  0.00     0.134 A 
ATOM     92  C   UNL A   1      40.093  23.973  26.695  1.00  0.00     0.134 A 
ATOM     93  F   UNL A   1      42.632  23.325  29.204  1.00  0.00    -0.206 F 
ATOM     94  C   UNL A   1      41.202  21.838  28.081  1.00  0.00     0.040 A 
ATOM     95  C   UNL A   1      39.627  22.677  26.466  1.00  0.00     0.040 A 
ATOM     96  F   UNL A   1      39.541  24.976  25.997  1.00  0.00    -0.206 F 
ATOM     97  C   UNL A   1      40.188  21.604  27.156  1.00  0.00     0.006 A 
ENDBRANCH  69  90
BRANCH  81  98
ATOM     98  C   UNL A   1      47.034  27.397  25.810  1.00  0.00     0.057 A 
ATOM     99  C   UNL A   1      48.049  26.684  26.458  1.00  0.00     0.134 A 
ATOM    100  C   UNL A   1      47.179  27.620  24.433  1.00  0.00     0.134 A 
ATOM    101  F   UNL A   1      47.977  26.445  27.776  1.00  0.00    -0.206 F 
ATOM    102  C   UNL A   1      49.178  26.235  25.770  1.00  0.00     0.040 A 
ATOM    103  C   UNL A   1      48.289  27.152  23.730  1.00  0.00     0.040 A 
ATOM    104  F   UNL A   1      46.237  28.285  23.748  1.00  0.00    -0.206 F 
ATOM    105  C   UNL A   1      49.298  26.464  24.400  1.00  0.00     0.006 A 
ENDBRANCH  81  98
ENDBRANCH  55  56
ENDBRANCH  48  50
ENDBRANCH  47  48
ENDBRANCH  46  47
ENDBRANCH  45  46
ENDBRANCH  44  45
ENDBRANCH  43  44
ENDBRANCH  42  43
ENDBRANCH  41  42
ENDBRANCH  40  41
ENDBRANCH   1  40
TORSDOF 26
ENDMDL
