MODEL 1
REMARK VINA RESULT:      -9.8      0.000      0.000
REMARK SMILES Cc1cc(C)n([C@H](C)[C@H](C)C(=O)OCCOCCOCCOCCOC(=O)c2ccc(-c3c4nc(c(-c5c(F)cccc5F)c5ccc([nH]5)c(-c5c(F)cccc5F)c5nc(c(-c6c(F)cccc6F)c6ccc3[nH]6)C=C5)C=C4)cc2)n1
REMARK SMILES IDX 19 1 18 2 17 3 16 4 15 5 14 6 13 7 11 8 12 9 9 10 10 11 7 12
REMARK SMILES IDX 8 13 6 14 1 15 2 16 3 17 82 18 4 19 5 20 20 21 21 22 22 23
REMARK SMILES IDX 23 24 24 25 25 26 26 27 27 28 28 29 29 30 81 31 30 32 80 33
REMARK SMILES IDX 31 34 32 35 33 36 74 37 34 38 79 39 73 40 75 41 35 42 78 43
REMARK SMILES IDX 72 44 71 45 36 47 62 48 45 49 61 50 46 51 49 52 60 53 76 54
REMARK SMILES IDX 47 55 48 56 59 58 77 59 50 60 37 61 38 62 43 63 39 64 40 65
REMARK SMILES IDX 42 66 44 67 41 68 63 69 64 70 69 71 65 72 66 73 68 74 70 75
REMARK SMILES IDX 67 76 51 77 52 78 57 79 53 80 54 81 56 82 58 83 55 84
REMARK H PARENT 75 46 49 57
REMARK Flexibility Score: inf
ROOT
ATOM      1  O   UNL A   1      40.501  22.060  25.783  1.00  0.00    -0.377 OA
ENDROOT
BRANCH   1   2
ATOM      2  C   UNL A   1      39.288  22.236  26.482  1.00  0.00     0.188 C 
BRANCH   2   3
ATOM      3  C   UNL A   1      38.011  22.018  25.647  1.00  0.00     0.188 C 
BRANCH   3   4
ATOM      4  O   UNL A   1      37.784  20.835  24.894  1.00  0.00    -0.376 OA
BRANCH   4   5
ATOM      5  C   UNL A   1      36.561  20.121  24.899  1.00  0.00     0.202 C 
BRANCH   5   6
ATOM      6  C   UNL A   1      35.187  20.790  24.760  1.00  0.00     0.261 C 
BRANCH   6   7
ATOM      7  O   UNL A   1      34.345  20.739  25.910  1.00  0.00    -0.463 OA
BRANCH   7   8
ATOM      8  C   UNL A   1      33.120  21.270  25.729  1.00  0.00     0.310 C 
ATOM      9  O   UNL A   1      32.398  20.992  24.781  1.00  0.00    -0.252 OA
BRANCH   8  10
ATOM     10  C   UNL A   1      32.716  22.256  26.814  1.00  0.00     0.120 C 
ATOM     11  C   UNL A   1      33.848  22.934  27.616  1.00  0.00     0.022 C 
BRANCH  10  12
ATOM     12  C   UNL A   1      31.794  23.296  26.164  1.00  0.00     0.118 C 
ATOM     13  C   UNL A   1      30.343  23.255  26.708  1.00  0.00     0.034 C 
BRANCH  12  14
ATOM     14  N   UNL A   1      32.282  24.677  26.046  1.00  0.00    -0.266 N 
ATOM     15  C   UNL A   1      31.679  27.915  27.357  1.00  0.00     0.069 C 
ATOM     16  C   UNL A   1      32.154  26.734  26.609  1.00  0.00     0.060 A 
ATOM     17  C   UNL A   1      33.171  26.649  25.651  1.00  0.00     0.048 A 
ATOM     18  N   UNL A   1      31.590  25.549  26.821  1.00  0.00    -0.178 NA
ATOM     19  C   UNL A   1      33.242  25.317  25.286  1.00  0.00     0.036 A 
ATOM     20  C   UNL A   1      34.206  24.754  24.302  1.00  0.00     0.066 C 
ENDBRANCH  12  14
ENDBRANCH  10  12
ENDBRANCH   8  10
ENDBRANCH   7   8
ENDBRANCH   6   7
ENDBRANCH   5   6
ENDBRANCH   4   5
ENDBRANCH   3   4
ENDBRANCH   2   3
ENDBRANCH   1   2
BRANCH   1  21
ATOM     21  C   UNL A   1      41.383  21.048  26.250  1.00  0.00     0.188 C 
BRANCH  21  22
ATOM     22  C   UNL A   1      40.923  19.567  26.254  1.00  0.00     0.188 C 
BRANCH  22  23
ATOM     23  O   UNL A   1      41.846  18.642  25.687  1.00  0.00    -0.376 OA
BRANCH  23  24
ATOM     24  C   UNL A   1      42.991  18.227  26.414  1.00  0.00     0.202 C 
BRANCH  24  25
ATOM     25  C   UNL A   1      44.337  18.376  25.709  1.00  0.00     0.261 C 
BRANCH  25  26
ATOM     26  O   UNL A   1      44.760  19.720  25.572  1.00  0.00    -0.460 OA
BRANCH  26  27
ATOM     27  C   UNL A   1      44.641  20.244  24.348  1.00  0.00     0.338 C 
ATOM     28  O   UNL A   1      44.340  19.653  23.304  1.00  0.00    -0.246 OA
BRANCH  27  29
ATOM     29  C   UNL A   1      45.059  21.639  24.399  1.00  0.00     0.060 A 
ATOM     30  C   UNL A   1      46.063  21.946  25.316  1.00  0.00     0.016 A 
ATOM     31  C   UNL A   1      44.183  22.603  23.875  1.00  0.00     0.016 A 
ATOM     32  C   UNL A   1      45.977  23.155  25.955  1.00  0.00     0.010 A 
ATOM     33  C   UNL A   1      44.079  23.795  24.534  1.00  0.00     0.010 A 
ATOM     34  C   UNL A   1      44.905  23.995  25.634  1.00  0.00    -0.014 A 
BRANCH  34  35
ATOM     35  C   UNL A   1      44.671  25.134  26.477  1.00  0.00     0.031 A 
ATOM     36  C   UNL A   1      45.765  26.113  26.416  1.00  0.00     0.074 A 
ATOM     37  C   UNL A   1      43.530  25.289  27.170  1.00  0.00     0.049 A 
ATOM     38  N   UNL A   1      46.639  26.357  27.331  1.00  0.00    -0.248 NA
ATOM     39  C   UNL A   1      46.043  26.744  25.118  1.00  0.00     0.031 C 
ATOM     40  C   UNL A   1      42.289  24.515  27.090  1.00  0.00     0.029 A 
ATOM     41  N   UNL A   1      43.224  26.269  28.055  1.00  0.00    -0.354 N 
ATOM     42  C   UNL A   1      47.455  27.341  26.797  1.00  0.00     0.074 A 
ATOM     43  C   UNL A   1      47.181  27.384  25.384  1.00  0.00     0.031 C 
ATOM     44  C   UNL A   1      41.305  25.192  27.727  1.00  0.00     0.029 A 
ATOM     45  C   UNL A   1      41.875  26.370  28.359  1.00  0.00     0.049 A 
ATOM     46  H   UNL A   1      43.904  26.861  28.450  1.00  0.00     0.167 HD
ATOM     47  C   UNL A   1      48.087  28.232  27.604  1.00  0.00     0.037 A 
ATOM     48  C   UNL A   1      41.295  27.403  29.019  1.00  0.00     0.037 A 
ATOM     49  C   UNL A   1      48.131  27.769  28.968  1.00  0.00     0.049 A 
ATOM     50  C   UNL A   1      42.372  28.129  29.744  1.00  0.00     0.074 A 
ATOM     51  C   UNL A   1      48.659  26.656  29.595  1.00  0.00     0.029 A 
ATOM     52  N   UNL A   1      47.227  28.306  29.854  1.00  0.00    -0.354 N 
ATOM     53  N   UNL A   1      43.001  27.643  30.779  1.00  0.00    -0.248 NA
ATOM     54  C   UNL A   1      43.072  29.194  29.038  1.00  0.00     0.031 C 
ATOM     55  C   UNL A   1      47.719  26.320  30.614  1.00  0.00     0.029 A 
ATOM     56  C   UNL A   1      46.700  27.273  30.586  1.00  0.00     0.049 A 
ATOM     57  H   UNL A   1      47.000  29.260  29.945  1.00  0.00     0.167 HD
ATOM     58  C   UNL A   1      44.325  28.018  30.598  1.00  0.00     0.074 A 
ATOM     59  C   UNL A   1      44.293  29.051  29.564  1.00  0.00     0.031 C 
ATOM     60  C   UNL A   1      45.345  27.251  31.085  1.00  0.00     0.037 A 
BRANCH  47  61
ATOM     61  C   UNL A   1      48.301  29.669  27.224  1.00  0.00     0.057 A 
ATOM     62  C   UNL A   1      49.585  30.222  27.350  1.00  0.00     0.134 A 
ATOM     63  C   UNL A   1      47.261  30.600  27.014  1.00  0.00     0.134 A 
ATOM     64  F   UNL A   1      50.650  29.440  27.578  1.00  0.00    -0.206 F 
ATOM     65  C   UNL A   1      49.806  31.603  27.330  1.00  0.00     0.040 A 
ATOM     66  C   UNL A   1      47.479  31.975  26.934  1.00  0.00     0.040 A 
ATOM     67  F   UNL A   1      45.970  30.245  26.981  1.00  0.00    -0.206 F 
ATOM     68  C   UNL A   1      48.750  32.484  27.125  1.00  0.00     0.006 A 
ENDBRANCH  47  61
BRANCH  48  69
ATOM     69  C   UNL A   1      39.939  27.970  28.850  1.00  0.00     0.057 A 
ATOM     70  C   UNL A   1      39.018  27.971  29.907  1.00  0.00     0.134 A 
ATOM     71  C   UNL A   1      39.605  28.768  27.741  1.00  0.00     0.134 A 
ATOM     72  F   UNL A   1      39.264  27.272  31.025  1.00  0.00    -0.206 F 
ATOM     73  C   UNL A   1      37.849  28.742  29.878  1.00  0.00     0.040 A 
ATOM     74  C   UNL A   1      38.437  29.537  27.695  1.00  0.00     0.040 A 
ATOM     75  F   UNL A   1      40.442  28.902  26.703  1.00  0.00    -0.206 F 
ATOM     76  C   UNL A   1      37.562  29.538  28.773  1.00  0.00     0.006 A 
ENDBRANCH  48  69
BRANCH  60  77
ATOM     77  C   UNL A   1      44.983  26.137  32.029  1.00  0.00     0.057 A 
ATOM     78  C   UNL A   1      44.778  26.313  33.407  1.00  0.00     0.134 A 
ATOM     79  C   UNL A   1      44.701  24.872  31.506  1.00  0.00     0.134 A 
ATOM     80  F   UNL A   1      44.919  27.514  33.981  1.00  0.00    -0.206 F 
ATOM     81  C   UNL A   1      44.367  25.263  34.233  1.00  0.00     0.040 A 
ATOM     82  C   UNL A   1      44.255  23.823  32.313  1.00  0.00     0.040 A 
ATOM     83  F   UNL A   1      44.814  24.645  30.188  1.00  0.00    -0.206 F 
ATOM     84  C   UNL A   1      44.100  24.012  33.684  1.00  0.00     0.006 A 
ENDBRANCH  60  77
ENDBRANCH  34  35
ENDBRANCH  27  29
ENDBRANCH  26  27
ENDBRANCH  25  26
ENDBRANCH  24  25
ENDBRANCH  23  24
ENDBRANCH  22  23
ENDBRANCH  21  22
ENDBRANCH   1  21
TORSDOF 22
ENDMDL
MODEL 2
REMARK VINA RESULT:      -9.6      1.887      2.475
REMARK SMILES Cc1cc(C)n([C@H](C)[C@H](C)C(=O)OCCOCCOCCOCCOC(=O)c2ccc(-c3c4nc(c(-c5c(F)cccc5F)c5ccc([nH]5)c(-c5c(F)cccc5F)c5nc(c(-c6c(F)cccc6F)c6ccc3[nH]6)C=C5)C=C4)cc2)n1
REMARK SMILES IDX 19 1 18 2 17 3 16 4 15 5 14 6 13 7 11 8 12 9 9 10 10 11 7 12
REMARK SMILES IDX 8 13 6 14 1 15 2 16 3 17 82 18 4 19 5 20 20 21 21 22 22 23
REMARK SMILES IDX 23 24 24 25 25 26 26 27 27 28 28 29 29 30 81 31 30 32 80 33
REMARK SMILES IDX 31 34 32 35 33 36 74 37 34 38 79 39 73 40 75 41 35 42 78 43
REMARK SMILES IDX 72 44 71 45 36 47 62 48 45 49 61 50 46 51 49 52 60 53 76 54
REMARK SMILES IDX 47 55 48 56 59 58 77 59 50 60 37 61 38 62 43 63 39 64 40 65
REMARK SMILES IDX 42 66 44 67 41 68 63 69 64 70 69 71 65 72 66 73 68 74 70 75
REMARK SMILES IDX 67 76 51 77 52 78 57 79 53 80 54 81 56 82 58 83 55 84
REMARK H PARENT 75 46 49 57
REMARK Flexibility Score: inf
ROOT
ATOM      1  O   UNL A   1      37.446  21.278  25.523  1.00  0.00    -0.377 OA
ENDROOT
BRANCH   1   2
ATOM      2  C   UNL A   1      36.995  21.996  24.396  1.00  0.00     0.188 C 
BRANCH   2   3
ATOM      3  C   UNL A   1      35.470  22.210  24.320  1.00  0.00     0.188 C 
BRANCH   3   4
ATOM      4  O   UNL A   1      34.890  23.375  23.752  1.00  0.00    -0.376 OA
BRANCH   4   5
ATOM      5  C   UNL A   1      33.811  23.349  22.833  1.00  0.00     0.202 C 
BRANCH   5   6
ATOM      6  C   UNL A   1      32.351  23.123  23.246  1.00  0.00     0.261 C 
BRANCH   6   7
ATOM      7  O   UNL A   1      31.992  23.569  24.552  1.00  0.00    -0.463 OA
BRANCH   7   8
ATOM      8  C   UNL A   1      31.955  24.909  24.694  1.00  0.00     0.310 C 
ATOM      9  O   UNL A   1      32.782  25.542  25.338  1.00  0.00    -0.252 OA
BRANCH   8  10
ATOM     10  C   UNL A   1      30.783  25.567  23.984  1.00  0.00     0.120 C 
ATOM     11  C   UNL A   1      29.594  26.029  24.853  1.00  0.00     0.022 C 
BRANCH  10  12
ATOM     12  C   UNL A   1      31.347  26.724  23.149  1.00  0.00     0.118 C 
ATOM     13  C   UNL A   1      31.589  26.349  21.665  1.00  0.00     0.034 C 
BRANCH  12  14
ATOM     14  N   UNL A   1      30.708  28.041  23.270  1.00  0.00    -0.266 N 
ATOM     15  C   UNL A   1      28.308  30.080  21.641  1.00  0.00     0.069 C 
ATOM     16  C   UNL A   1      29.347  29.509  22.520  1.00  0.00     0.060 A 
ATOM     17  C   UNL A   1      29.937  30.064  23.661  1.00  0.00     0.048 A 
ATOM     18  N   UNL A   1      29.839  28.301  22.261  1.00  0.00    -0.178 NA
ATOM     19  C   UNL A   1      30.822  29.113  24.136  1.00  0.00     0.036 A 
ATOM     20  C   UNL A   1      31.661  29.263  25.356  1.00  0.00     0.066 C 
ENDBRANCH  12  14
ENDBRANCH  10  12
ENDBRANCH   8  10
ENDBRANCH   7   8
ENDBRANCH   6   7
ENDBRANCH   5   6
ENDBRANCH   4   5
ENDBRANCH   3   4
ENDBRANCH   2   3
ENDBRANCH   1   2
BRANCH   1  21
ATOM     21  C   UNL A   1      38.823  20.926  25.565  1.00  0.00     0.188 C 
BRANCH  21  22
ATOM     22  C   UNL A   1      39.803  21.752  26.437  1.00  0.00     0.188 C 
BRANCH  22  23
ATOM     23  O   UNL A   1      40.829  21.001  27.078  1.00  0.00    -0.376 OA
BRANCH  23  24
ATOM     24  C   UNL A   1      41.179  19.709  26.608  1.00  0.00     0.202 C 
BRANCH  24  25
ATOM     25  C   UNL A   1      42.643  19.492  26.234  1.00  0.00     0.261 C 
BRANCH  25  26
ATOM     26  O   UNL A   1      42.976  19.969  24.944  1.00  0.00    -0.460 OA
BRANCH  26  27
ATOM     27  C   UNL A   1      44.276  19.945  24.633  1.00  0.00     0.338 C 
ATOM     28  O   UNL A   1      44.983  18.949  24.438  1.00  0.00    -0.246 OA
BRANCH  27  29
ATOM     29  C   UNL A   1      44.790  21.307  24.688  1.00  0.00     0.060 A 
ATOM     30  C   UNL A   1      45.755  21.561  25.662  1.00  0.00     0.016 A 
ATOM     31  C   UNL A   1      44.022  22.319  24.093  1.00  0.00     0.016 A 
ATOM     32  C   UNL A   1      45.717  22.785  26.275  1.00  0.00     0.010 A 
ATOM     33  C   UNL A   1      43.964  23.529  24.724  1.00  0.00     0.010 A 
ATOM     34  C   UNL A   1      44.732  23.693  25.871  1.00  0.00    -0.014 A 
BRANCH  34  35
ATOM     35  C   UNL A   1      44.529  24.864  26.679  1.00  0.00     0.031 A 
ATOM     36  C   UNL A   1      45.646  25.813  26.582  1.00  0.00     0.074 A 
ATOM     37  C   UNL A   1      43.396  25.068  27.370  1.00  0.00     0.049 A 
ATOM     38  N   UNL A   1      46.530  26.066  27.485  1.00  0.00    -0.248 NA
ATOM     39  C   UNL A   1      45.932  26.396  25.263  1.00  0.00     0.031 C 
ATOM     40  C   UNL A   1      42.136  24.322  27.320  1.00  0.00     0.029 A 
ATOM     41  N   UNL A   1      43.117  26.083  28.225  1.00  0.00    -0.354 N 
ATOM     42  C   UNL A   1      47.367  27.012  26.917  1.00  0.00     0.074 A 
ATOM     43  C   UNL A   1      47.087  27.017  25.505  1.00  0.00     0.031 C 
ATOM     44  C   UNL A   1      41.171  25.042  27.939  1.00  0.00     0.029 A 
ATOM     45  C   UNL A   1      41.773  26.226  28.531  1.00  0.00     0.049 A 
ATOM     46  H   UNL A   1      43.814  26.671  28.598  1.00  0.00     0.167 HD
ATOM     47  C   UNL A   1      48.023  27.912  27.692  1.00  0.00     0.037 A 
ATOM     48  C   UNL A   1      41.220  27.293  29.161  1.00  0.00     0.037 A 
ATOM     49  C   UNL A   1      48.063  27.492  29.070  1.00  0.00     0.049 A 
ATOM     50  C   UNL A   1      42.318  28.016  29.857  1.00  0.00     0.074 A 
ATOM     51  C   UNL A   1      48.567  26.387  29.731  1.00  0.00     0.029 A 
ATOM     52  N   UNL A   1      47.177  28.079  29.942  1.00  0.00    -0.354 N 
ATOM     53  N   UNL A   1      42.940  27.548  30.905  1.00  0.00    -0.248 NA
ATOM     54  C   UNL A   1      43.040  29.040  29.115  1.00  0.00     0.031 C 
ATOM     55  C   UNL A   1      47.624  26.107  30.764  1.00  0.00     0.029 A 
ATOM     56  C   UNL A   1      46.628  27.082  30.709  1.00  0.00     0.049 A 
ATOM     57  H   UNL A   1      46.973  29.040  30.004  1.00  0.00     0.167 HD
ATOM     58  C   UNL A   1      44.272  27.885  30.707  1.00  0.00     0.074 A 
ATOM     59  C   UNL A   1      44.260  28.884  29.641  1.00  0.00     0.031 C 
ATOM     60  C   UNL A   1      45.275  27.109  31.214  1.00  0.00     0.037 A 
BRANCH  47  61
ATOM     61  C   UNL A   1      48.270  29.332  27.266  1.00  0.00     0.057 A 
ATOM     62  C   UNL A   1      49.571  29.851  27.351  1.00  0.00     0.134 A 
ATOM     63  C   UNL A   1      47.252  30.285  27.049  1.00  0.00     0.134 A 
ATOM     64  F   UNL A   1      50.618  29.045  27.580  1.00  0.00    -0.206 F 
ATOM     65  C   UNL A   1      49.831  31.223  27.285  1.00  0.00     0.040 A 
ATOM     66  C   UNL A   1      47.507  31.650  26.924  1.00  0.00     0.040 A 
ATOM     67  F   UNL A   1      45.952  29.967  27.053  1.00  0.00    -0.206 F 
ATOM     68  C   UNL A   1      48.796  32.128  27.075  1.00  0.00     0.006 A 
ENDBRANCH  47  61
BRANCH  48  69
ATOM     69  C   UNL A   1      39.878  27.887  28.979  1.00  0.00     0.057 A 
ATOM     70  C   UNL A   1      38.968  27.957  30.043  1.00  0.00     0.134 A 
ATOM     71  C   UNL A   1      39.553  28.644  27.839  1.00  0.00     0.134 A 
ATOM     72  F   UNL A   1      39.207  27.301  31.188  1.00  0.00    -0.206 F 
ATOM     73  C   UNL A   1      37.818  28.756  29.990  1.00  0.00     0.040 A 
ATOM     74  C   UNL A   1      38.405  29.440  27.770  1.00  0.00     0.040 A 
ATOM     75  F   UNL A   1      40.383  28.711  26.789  1.00  0.00    -0.206 F 
ATOM     76  C   UNL A   1      37.540  29.511  28.855  1.00  0.00     0.006 A 
ENDBRANCH  48  69
BRANCH  60  77
ATOM     77  C   UNL A   1      44.891  26.035  32.194  1.00  0.00     0.057 A 
ATOM     78  C   UNL A   1      44.672  26.264  33.562  1.00  0.00     0.134 A 
ATOM     79  C   UNL A   1      44.603  24.754  31.716  1.00  0.00     0.134 A 
ATOM     80  F   UNL A   1      44.817  27.484  34.093  1.00  0.00    -0.206 F 
ATOM     81  C   UNL A   1      44.240  25.249  34.421  1.00  0.00     0.040 A 
ATOM     82  C   UNL A   1      44.138  23.740  32.556  1.00  0.00     0.040 A 
ATOM     83  F   UNL A   1      44.730  24.476  30.408  1.00  0.00    -0.206 F 
ATOM     84  C   UNL A   1      43.968  23.982  33.916  1.00  0.00     0.006 A 
ENDBRANCH  60  77
ENDBRANCH  34  35
ENDBRANCH  27  29
ENDBRANCH  26  27
ENDBRANCH  25  26
ENDBRANCH  24  25
ENDBRANCH  23  24
ENDBRANCH  22  23
ENDBRANCH  21  22
ENDBRANCH   1  21
TORSDOF 22
ENDMDL
MODEL 3
REMARK VINA RESULT:      -9.5      6.110     10.977
REMARK SMILES Cc1cc(C)n([C@H](C)[C@H](C)C(=O)OCCOCCOCCOCCOC(=O)c2ccc(-c3c4nc(c(-c5c(F)cccc5F)c5ccc([nH]5)c(-c5c(F)cccc5F)c5nc(c(-c6c(F)cccc6F)c6ccc3[nH]6)C=C5)C=C4)cc2)n1
REMARK SMILES IDX 19 1 18 2 17 3 16 4 15 5 14 6 13 7 11 8 12 9 9 10 10 11 7 12
REMARK SMILES IDX 8 13 6 14 1 15 2 16 3 17 82 18 4 19 5 20 20 21 21 22 22 23
REMARK SMILES IDX 23 24 24 25 25 26 26 27 27 28 28 29 29 30 81 31 30 32 80 33
REMARK SMILES IDX 31 34 32 35 33 36 74 37 34 38 79 39 73 40 75 41 35 42 78 43
REMARK SMILES IDX 72 44 71 45 36 47 62 48 45 49 61 50 46 51 49 52 60 53 76 54
REMARK SMILES IDX 47 55 48 56 59 58 77 59 50 60 37 61 38 62 43 63 39 64 40 65
REMARK SMILES IDX 42 66 44 67 41 68 63 69 64 70 69 71 65 72 66 73 68 74 70 75
REMARK SMILES IDX 67 76 51 77 52 78 57 79 53 80 54 81 56 82 58 83 55 84
REMARK H PARENT 75 46 49 57
REMARK Flexibility Score: inf
ROOT
ATOM      1  O   UNL A   1      34.025  33.281  29.263  1.00  0.00    -0.377 OA
ENDROOT
BRANCH   1   2
ATOM      2  C   UNL A   1      34.412  31.980  28.876  1.00  0.00     0.188 C 
BRANCH   2   3
ATOM      3  C   UNL A   1      33.704  31.429  27.622  1.00  0.00     0.188 C 
BRANCH   3   4
ATOM      4  O   UNL A   1      33.541  30.038  27.387  1.00  0.00    -0.376 OA
BRANCH   4   5
ATOM      5  C   UNL A   1      32.312  29.441  27.015  1.00  0.00     0.202 C 
BRANCH   5   6
ATOM      6  C   UNL A   1      31.993  28.972  25.590  1.00  0.00     0.261 C 
BRANCH   6   7
ATOM      7  O   UNL A   1      32.851  27.966  25.054  1.00  0.00    -0.463 OA
BRANCH   7   8
ATOM      8  C   UNL A   1      33.279  28.208  23.800  1.00  0.00     0.310 C 
ATOM      9  O   UNL A   1      33.515  29.331  23.372  1.00  0.00    -0.252 OA
BRANCH   8  10
ATOM     10  C   UNL A   1      33.440  26.954  22.955  1.00  0.00     0.120 C 
ATOM     11  C   UNL A   1      33.660  25.620  23.701  1.00  0.00     0.022 C 
BRANCH  10  12
ATOM     12  C   UNL A   1      32.227  26.876  22.019  1.00  0.00     0.118 C 
ATOM     13  C   UNL A   1      32.214  25.602  21.136  1.00  0.00     0.034 C 
BRANCH  12  14
ATOM     14  N   UNL A   1      30.898  27.148  22.583  1.00  0.00    -0.266 N 
ATOM     15  C   UNL A   1      28.305  29.562  22.443  1.00  0.00     0.069 C 
ATOM     16  C   UNL A   1      29.185  28.416  22.744  1.00  0.00     0.060 A 
ATOM     17  C   UNL A   1      28.956  27.332  23.600  1.00  0.00     0.048 A 
ATOM     18  N   UNL A   1      30.374  28.325  22.157  1.00  0.00    -0.178 NA
ATOM     19  C   UNL A   1      30.072  26.521  23.497  1.00  0.00     0.036 A 
ATOM     20  C   UNL A   1      30.258  25.233  24.218  1.00  0.00     0.066 C 
ENDBRANCH  12  14
ENDBRANCH  10  12
ENDBRANCH   8  10
ENDBRANCH   7   8
ENDBRANCH   6   7
ENDBRANCH   5   6
ENDBRANCH   4   5
ENDBRANCH   3   4
ENDBRANCH   2   3
ENDBRANCH   1   2
BRANCH   1  21
ATOM     21  C   UNL A   1      33.632  34.178  28.232  1.00  0.00     0.188 C 
BRANCH  21  22
ATOM     22  C   UNL A   1      34.425  35.493  28.013  1.00  0.00     0.188 C 
BRANCH  22  23
ATOM     23  O   UNL A   1      33.823  36.665  28.553  1.00  0.00    -0.376 OA
BRANCH  23  24
ATOM     24  C   UNL A   1      32.811  36.566  29.543  1.00  0.00     0.202 C 
BRANCH  24  25
ATOM     25  C   UNL A   1      33.205  36.964  30.963  1.00  0.00     0.261 C 
BRANCH  25  26
ATOM     26  O   UNL A   1      34.045  36.022  31.605  1.00  0.00    -0.460 OA
BRANCH  26  27
ATOM     27  C   UNL A   1      33.421  35.085  32.327  1.00  0.00     0.338 C 
ATOM     28  O   UNL A   1      32.204  34.962  32.505  1.00  0.00    -0.246 OA
BRANCH  27  29
ATOM     29  C   UNL A   1      34.427  34.278  33.005  1.00  0.00     0.060 A 
ATOM     30  C   UNL A   1      35.576  34.950  33.421  1.00  0.00     0.016 A 
ATOM     31  C   UNL A   1      34.381  32.887  32.822  1.00  0.00     0.016 A 
ATOM     32  C   UNL A   1      36.763  34.271  33.333  1.00  0.00     0.010 A 
ATOM     33  C   UNL A   1      35.567  32.220  32.706  1.00  0.00     0.010 A 
ATOM     34  C   UNL A   1      36.736  32.957  32.853  1.00  0.00    -0.014 A 
BRANCH  34  35
ATOM     35  C   UNL A   1      37.990  32.340  32.521  1.00  0.00     0.031 A 
ATOM     36  C   UNL A   1      38.893  32.247  33.676  1.00  0.00     0.074 A 
ATOM     37  C   UNL A   1      38.241  31.843  31.299  1.00  0.00     0.049 A 
ATOM     38  N   UNL A   1      39.962  32.937  33.882  1.00  0.00    -0.248 NA
ATOM     39  C   UNL A   1      38.450  31.443  34.825  1.00  0.00     0.031 C 
ATOM     40  C   UNL A   1      37.323  31.649  30.174  1.00  0.00     0.029 A 
ATOM     41  N   UNL A   1      39.403  31.315  30.841  1.00  0.00    -0.354 N 
ATOM     42  C   UNL A   1      40.448  32.494  35.101  1.00  0.00     0.074 A 
ATOM     43  C   UNL A   1      39.386  31.748  35.724  1.00  0.00     0.031 C 
ATOM     44  C   UNL A   1      37.912  30.849  29.255  1.00  0.00     0.029 A 
ATOM     45  C   UNL A   1      39.281  30.584  29.669  1.00  0.00     0.049 A 
ATOM     46  H   UNL A   1      40.263  31.440  31.303  1.00  0.00     0.167 HD
ATOM     47  C   UNL A   1      41.777  32.539  35.376  1.00  0.00     0.037 A 
ATOM     48  C   UNL A   1      40.233  29.771  29.149  1.00  0.00     0.037 A 
ATOM     49  C   UNL A   1      42.470  33.434  34.483  1.00  0.00     0.049 A 
ATOM     50  C   UNL A   1      41.532  30.159  29.761  1.00  0.00     0.074 A 
ATOM     51  C   UNL A   1      42.370  34.782  34.193  1.00  0.00     0.029 A 
ATOM     52  N   UNL A   1      43.172  32.877  33.440  1.00  0.00    -0.354 N 
ATOM     53  N   UNL A   1      42.150  31.277  29.497  1.00  0.00    -0.248 NA
ATOM     54  C   UNL A   1      41.913  29.523  31.015  1.00  0.00     0.031 C 
ATOM     55  C   UNL A   1      42.603  34.881  32.790  1.00  0.00     0.029 A 
ATOM     56  C   UNL A   1      42.883  33.601  32.311  1.00  0.00     0.049 A 
ATOM     57  H   UNL A   1      43.775  32.100  33.495  1.00  0.00     0.167 HD
ATOM     58  C   UNL A   1      42.654  31.702  30.718  1.00  0.00     0.074 A 
ATOM     59  C   UNL A   1      42.562  30.538  31.596  1.00  0.00     0.031 C 
ATOM     60  C   UNL A   1      42.820  33.031  30.986  1.00  0.00     0.037 A 
BRANCH  47  61
ATOM     61  C   UNL A   1      42.482  31.485  36.181  1.00  0.00     0.057 A 
ATOM     62  C   UNL A   1      43.313  31.880  37.240  1.00  0.00     0.134 A 
ATOM     63  C   UNL A   1      42.604  30.134  35.789  1.00  0.00     0.134 A 
ATOM     64  F   UNL A   1      43.305  33.146  37.684  1.00  0.00    -0.206 F 
ATOM     65  C   UNL A   1      44.240  31.011  37.824  1.00  0.00     0.040 A 
ATOM     66  C   UNL A   1      43.483  29.244  36.404  1.00  0.00     0.040 A 
ATOM     67  F   UNL A   1      41.963  29.629  34.728  1.00  0.00    -0.206 F 
ATOM     68  C   UNL A   1      44.329  29.689  37.404  1.00  0.00     0.006 A 
ENDBRANCH  47  61
BRANCH  48  69
ATOM     69  C   UNL A   1      40.067  28.516  28.383  1.00  0.00     0.057 A 
ATOM     70  C   UNL A   1      40.680  28.345  27.134  1.00  0.00     0.134 A 
ATOM     71  C   UNL A   1      39.535  27.355  28.973  1.00  0.00     0.134 A 
ATOM     72  F   UNL A   1      41.252  29.384  26.507  1.00  0.00    -0.206 F 
ATOM     73  C   UNL A   1      40.784  27.090  26.519  1.00  0.00     0.040 A 
ATOM     74  C   UNL A   1      39.624  26.098  28.367  1.00  0.00     0.040 A 
ATOM     75  F   UNL A   1      38.990  27.385  30.197  1.00  0.00    -0.206 F 
ATOM     76  C   UNL A   1      40.266  25.959  27.142  1.00  0.00     0.006 A 
ENDBRANCH  48  69
BRANCH  60  77
ATOM     77  C   UNL A   1      42.679  33.991  29.836  1.00  0.00     0.057 A 
ATOM     78  C   UNL A   1      43.702  34.267  28.915  1.00  0.00     0.134 A 
ATOM     79  C   UNL A   1      41.426  34.552  29.573  1.00  0.00     0.134 A 
ATOM     80  F   UNL A   1      44.906  33.690  29.023  1.00  0.00    -0.206 F 
ATOM     81  C   UNL A   1      43.501  35.107  27.817  1.00  0.00     0.040 A 
ATOM     82  C   UNL A   1      41.202  35.366  28.461  1.00  0.00     0.040 A 
ATOM     83  F   UNL A   1      40.384  34.284  30.376  1.00  0.00    -0.206 F 
ATOM     84  C   UNL A   1      42.244  35.657  27.585  1.00  0.00     0.006 A 
ENDBRANCH  60  77
ENDBRANCH  34  35
ENDBRANCH  27  29
ENDBRANCH  26  27
ENDBRANCH  25  26
ENDBRANCH  24  25
ENDBRANCH  23  24
ENDBRANCH  22  23
ENDBRANCH  21  22
ENDBRANCH   1  21
TORSDOF 22
ENDMDL
