MODEL 1
REMARK VINA RESULT:     -10.1      0.000      0.000
REMARK SMILES O=C(OCCOCCOCCOCCOC(=O)[C@H](Cc1ccccn1)c1ccc(F)cc1)c1ccc(-c2c3nc(c(-c4c(F)cccc4F)c4ccc([nH]4)c(-c4c(F)cccc4F)c4nc(c(-c5c(F)cccc5F)c5ccc2[nH]5)C=C4)C=C3)cc1
REMARK SMILES IDX 9 1 8 2 7 3 6 4 5 5 4 6 3 7 2 8 1 9 33 10 34 11 86 12 35 13
REMARK SMILES IDX 85 14 36 15 37 16 38 17 79 18 39 19 84 20 78 21 80 22 40 23
REMARK SMILES IDX 83 24 77 25 76 26 41 28 67 29 50 30 66 31 51 32 54 33 65 34
REMARK SMILES IDX 81 35 52 36 53 37 64 39 82 40 55 41 42 42 43 43 48 44 44 45
REMARK SMILES IDX 45 46 47 47 49 48 46 49 68 50 69 51 74 52 70 53 71 54 73 55
REMARK SMILES IDX 75 56 72 57 56 58 57 59 62 60 58 61 59 62 61 63 63 64 60 65
REMARK SMILES IDX 10 66 11 67 12 68 13 69 14 70 15 71 16 72 17 73 18 74 26 75
REMARK SMILES IDX 27 76 32 77 28 78 31 79 29 80 30 81 19 82 20 83 21 84 25 85
REMARK SMILES IDX 22 86 24 87 23 88
REMARK H PARENT 80 27 54 38
REMARK Flexibility Score: inf
ROOT
ATOM      1  O   UNL A   1      41.470  19.594  25.441  1.00  0.00    -0.377 OA
ENDROOT
BRANCH   1   2
ATOM      2  C   UNL A   1      42.629  19.051  26.072  1.00  0.00     0.188 C 
BRANCH   2   3
ATOM      3  C   UNL A   1      43.821  18.801  25.140  1.00  0.00     0.188 C 
BRANCH   3   4
ATOM      4  O   UNL A   1      44.134  19.970  24.378  1.00  0.00    -0.376 OA
BRANCH   4   5
ATOM      5  C   UNL A   1      44.404  21.195  25.067  1.00  0.00     0.202 C 
BRANCH   5   6
ATOM      6  C   UNL A   1      43.865  22.458  24.416  1.00  0.00     0.261 C 
BRANCH   6   7
ATOM      7  O   UNL A   1      43.363  23.443  25.330  1.00  0.00    -0.460 OA
BRANCH   7   8
ATOM      8  C   UNL A   1      43.736  24.723  25.532  1.00  0.00     0.338 C 
ATOM      9  O   UNL A   1      44.431  25.265  24.667  1.00  0.00    -0.246 OA
BRANCH   8  10
ATOM     10  C   UNL A   1      43.367  25.545  26.719  1.00  0.00     0.060 A 
ATOM     11  C   UNL A   1      42.542  25.137  27.763  1.00  0.00     0.016 A 
ATOM     12  C   UNL A   1      43.976  26.803  26.833  1.00  0.00     0.016 A 
ATOM     13  C   UNL A   1      42.268  25.934  28.850  1.00  0.00     0.010 A 
ATOM     14  C   UNL A   1      43.721  27.626  27.933  1.00  0.00     0.010 A 
ATOM     15  C   UNL A   1      42.840  27.189  28.925  1.00  0.00    -0.014 A 
BRANCH  15  16
ATOM     16  C   UNL A   1      42.270  28.081  29.932  1.00  0.00     0.031 A 
ATOM     17  C   UNL A   1      43.075  28.287  31.171  1.00  0.00     0.074 A 
ATOM     18  C   UNL A   1      41.202  28.834  29.625  1.00  0.00     0.049 A 
ATOM     19  N   UNL A   1      42.762  28.919  32.262  1.00  0.00    -0.248 NA
ATOM     20  C   UNL A   1      44.435  27.713  31.172  1.00  0.00     0.031 C 
ATOM     21  C   UNL A   1      40.526  28.850  28.323  1.00  0.00     0.029 A 
ATOM     22  N   UNL A   1      40.524  29.756  30.367  1.00  0.00    -0.354 N 
ATOM     23  C   UNL A   1      43.851  28.755  33.105  1.00  0.00     0.074 A 
ATOM     24  C   UNL A   1      44.851  27.997  32.394  1.00  0.00     0.031 C 
ATOM     25  C   UNL A   1      39.528  29.746  28.362  1.00  0.00     0.029 A 
ATOM     26  C   UNL A   1      39.437  30.280  29.714  1.00  0.00     0.049 A 
ATOM     27  H   UNL A   1      40.788  30.019  31.278  1.00  0.00     0.167 HD
ATOM     28  C   UNL A   1      43.966  29.185  34.378  1.00  0.00     0.037 A 
ATOM     29  C   UNL A   1      38.446  31.047  30.199  1.00  0.00     0.037 A 
ATOM     30  C   UNL A   1      42.932  29.949  35.015  1.00  0.00     0.049 A 
ATOM     31  C   UNL A   1      38.523  31.414  31.654  1.00  0.00     0.074 A 
ATOM     32  C   UNL A   1      42.855  30.391  36.319  1.00  0.00     0.029 A 
ATOM     33  N   UNL A   1      41.780  30.386  34.365  1.00  0.00    -0.354 N 
ATOM     34  N   UNL A   1      39.481  31.150  32.516  1.00  0.00    -0.248 NA
ATOM     35  C   UNL A   1      37.387  32.146  32.221  1.00  0.00     0.031 C 
ATOM     36  C   UNL A   1      41.629  31.046  36.471  1.00  0.00     0.029 A 
ATOM     37  C   UNL A   1      40.970  31.069  35.248  1.00  0.00     0.049 A 
ATOM     38  H   UNL A   1      41.575  30.230  33.414  1.00  0.00     0.167 HD
ATOM     39  C   UNL A   1      39.071  31.686  33.726  1.00  0.00     0.074 A 
ATOM     40  C   UNL A   1      37.779  32.304  33.479  1.00  0.00     0.031 C 
ATOM     41  C   UNL A   1      39.694  31.670  34.930  1.00  0.00     0.037 A 
BRANCH  28  42
ATOM     42  C   UNL A   1      45.164  28.723  35.150  1.00  0.00     0.057 A 
ATOM     43  C   UNL A   1      46.367  29.434  35.055  1.00  0.00     0.134 A 
ATOM     44  C   UNL A   1      45.126  27.635  36.031  1.00  0.00     0.134 A 
ATOM     45  F   UNL A   1      46.466  30.500  34.246  1.00  0.00    -0.206 F 
ATOM     46  C   UNL A   1      47.489  29.081  35.805  1.00  0.00     0.040 A 
ATOM     47  C   UNL A   1      46.235  27.287  36.807  1.00  0.00     0.040 A 
ATOM     48  F   UNL A   1      43.992  26.940  36.205  1.00  0.00    -0.206 F 
ATOM     49  C   UNL A   1      47.422  28.008  36.691  1.00  0.00     0.006 A 
ENDBRANCH  28  42
BRANCH  29  50
ATOM     50  C   UNL A   1      37.302  31.414  29.326  1.00  0.00     0.057 A 
ATOM     51  C   UNL A   1      37.212  32.687  28.741  1.00  0.00     0.134 A 
ATOM     52  C   UNL A   1      36.235  30.537  29.112  1.00  0.00     0.134 A 
ATOM     53  F   UNL A   1      38.198  33.581  28.910  1.00  0.00    -0.206 F 
ATOM     54  C   UNL A   1      36.093  33.084  28.008  1.00  0.00     0.040 A 
ATOM     55  C   UNL A   1      35.119  30.912  28.359  1.00  0.00     0.040 A 
ATOM     56  F   UNL A   1      36.263  29.301  29.631  1.00  0.00    -0.206 F 
ATOM     57  C   UNL A   1      35.041  32.194  27.815  1.00  0.00     0.006 A 
ENDBRANCH  29  50
BRANCH  41  58
ATOM     58  C   UNL A   1      39.001  32.357  36.063  1.00  0.00     0.057 A 
ATOM     59  C   UNL A   1      39.307  33.688  36.368  1.00  0.00     0.134 A 
ATOM     60  C   UNL A   1      38.150  31.660  36.927  1.00  0.00     0.134 A 
ATOM     61  F   UNL A   1      40.131  34.395  35.580  1.00  0.00    -0.206 F 
ATOM     62  C   UNL A   1      38.815  34.297  37.520  1.00  0.00     0.040 A 
ATOM     63  C   UNL A   1      37.629  32.268  38.068  1.00  0.00     0.040 A 
ATOM     64  F   UNL A   1      37.818  30.386  36.676  1.00  0.00    -0.206 F 
ATOM     65  C   UNL A   1      37.976  33.583  38.375  1.00  0.00     0.006 A 
ENDBRANCH  41  58
ENDBRANCH  15  16
ENDBRANCH   8  10
ENDBRANCH   7   8
ENDBRANCH   6   7
ENDBRANCH   5   6
ENDBRANCH   4   5
ENDBRANCH   3   4
ENDBRANCH   2   3
ENDBRANCH   1   2
BRANCH   1  66
ATOM     66  C   UNL A   1      40.523  20.148  26.340  1.00  0.00     0.188 C 
BRANCH  66  67
ATOM     67  C   UNL A   1      40.533  21.673  26.576  1.00  0.00     0.188 C 
BRANCH  67  68
ATOM     68  O   UNL A   1      39.334  22.316  26.173  1.00  0.00    -0.376 OA
BRANCH  68  69
ATOM     69  C   UNL A   1      38.465  21.541  25.349  1.00  0.00     0.202 C 
BRANCH  69  70
ATOM     70  C   UNL A   1      37.040  21.225  25.857  1.00  0.00     0.261 C 
BRANCH  70  71
ATOM     71  O   UNL A   1      35.986  21.261  24.860  1.00  0.00    -0.463 OA
BRANCH  71  72
ATOM     72  C   UNL A   1      34.706  21.111  25.267  1.00  0.00     0.313 C 
ATOM     73  O   UNL A   1      34.315  21.523  26.369  1.00  0.00    -0.252 OA
BRANCH  72  74
ATOM     74  C   UNL A   1      33.819  20.350  24.230  1.00  0.00     0.135 C 
BRANCH  74  75
ATOM     75  C   UNL A   1      33.695  18.888  24.589  1.00  0.00    -0.033 A 
ATOM     76  C   UNL A   1      34.798  18.049  24.373  1.00  0.00     0.007 A 
ATOM     77  C   UNL A   1      32.499  18.352  25.098  1.00  0.00     0.007 A 
ATOM     78  C   UNL A   1      34.714  16.700  24.693  1.00  0.00     0.039 A 
ATOM     79  C   UNL A   1      32.432  17.009  25.448  1.00  0.00     0.039 A 
ATOM     80  C   UNL A   1      33.541  16.197  25.243  1.00  0.00     0.123 A 
ATOM     81  F   UNL A   1      33.477  14.903  25.578  1.00  0.00    -0.207 F 
ENDBRANCH  74  75
BRANCH  74  82
ATOM     82  C   UNL A   1      32.436  20.992  24.040  1.00  0.00     0.076 C 
BRANCH  82  83
ATOM     83  C   UNL A   1      32.091  22.362  23.496  1.00  0.00     0.042 A 
ATOM     84  C   UNL A   1      31.030  23.141  23.936  1.00  0.00     0.024 A 
ATOM     85  N   UNL A   1      33.028  22.883  22.653  1.00  0.00    -0.261 NA
ATOM     86  C   UNL A   1      30.868  24.433  23.427  1.00  0.00     0.003 A 
ATOM     87  C   UNL A   1      32.869  24.147  22.199  1.00  0.00     0.111 A 
ATOM     88  C   UNL A   1      31.799  24.948  22.538  1.00  0.00     0.020 A 
ENDBRANCH  82  83
ENDBRANCH  74  82
ENDBRANCH  72  74
ENDBRANCH  71  72
ENDBRANCH  70  71
ENDBRANCH  69  70
ENDBRANCH  68  69
ENDBRANCH  67  68
ENDBRANCH  66  67
ENDBRANCH   1  66
TORSDOF 23
ENDMDL
MODEL 2
REMARK VINA RESULT:     -10.0      3.701      8.459
REMARK SMILES O=C(OCCOCCOCCOCCOC(=O)[C@H](Cc1ccccn1)c1ccc(F)cc1)c1ccc(-c2c3nc(c(-c4c(F)cccc4F)c4ccc([nH]4)c(-c4c(F)cccc4F)c4nc(c(-c5c(F)cccc5F)c5ccc2[nH]5)C=C4)C=C3)cc1
REMARK SMILES IDX 9 1 8 2 7 3 6 4 5 5 4 6 3 7 2 8 1 9 33 10 34 11 86 12 35 13
REMARK SMILES IDX 85 14 36 15 37 16 38 17 79 18 39 19 84 20 78 21 80 22 40 23
REMARK SMILES IDX 83 24 77 25 76 26 41 28 67 29 50 30 66 31 51 32 54 33 65 34
REMARK SMILES IDX 81 35 52 36 53 37 64 39 82 40 55 41 42 42 43 43 48 44 44 45
REMARK SMILES IDX 45 46 47 47 49 48 46 49 68 50 69 51 74 52 70 53 71 54 73 55
REMARK SMILES IDX 75 56 72 57 56 58 57 59 62 60 58 61 59 62 61 63 63 64 60 65
REMARK SMILES IDX 10 66 11 67 12 68 13 69 14 70 15 71 16 72 17 73 18 74 26 75
REMARK SMILES IDX 27 76 32 77 28 78 31 79 29 80 30 81 19 82 20 83 21 84 25 85
REMARK SMILES IDX 22 86 24 87 23 88
REMARK H PARENT 80 27 54 38
REMARK Flexibility Score: inf
ROOT
ATOM      1  O   UNL A   1      33.305  27.668  25.211  1.00  0.00    -0.377 OA
ENDROOT
BRANCH   1   2
ATOM      2  C   UNL A   1      32.953  27.952  26.565  1.00  0.00     0.188 C 
BRANCH   2   3
ATOM      3  C   UNL A   1      31.840  28.993  26.743  1.00  0.00     0.188 C 
BRANCH   3   4
ATOM      4  O   UNL A   1      32.360  30.220  27.262  1.00  0.00    -0.376 OA
BRANCH   4   5
ATOM      5  C   UNL A   1      31.696  31.446  26.942  1.00  0.00     0.202 C 
BRANCH   5   6
ATOM      6  C   UNL A   1      32.584  32.671  26.815  1.00  0.00     0.261 C 
BRANCH   6   7
ATOM      7  O   UNL A   1      32.256  33.752  27.700  1.00  0.00    -0.460 OA
BRANCH   7   8
ATOM      8  C   UNL A   1      33.033  34.460  28.546  1.00  0.00     0.338 C 
ATOM      9  O   UNL A   1      32.687  35.614  28.818  1.00  0.00    -0.246 OA
BRANCH   8  10
ATOM     10  C   UNL A   1      34.277  33.954  29.191  1.00  0.00     0.060 A 
ATOM     11  C   UNL A   1      35.575  34.193  28.748  1.00  0.00     0.016 A 
ATOM     12  C   UNL A   1      34.127  33.255  30.397  1.00  0.00     0.016 A 
ATOM     13  C   UNL A   1      36.686  33.726  29.412  1.00  0.00     0.010 A 
ATOM     14  C   UNL A   1      35.240  32.779  31.094  1.00  0.00     0.010 A 
ATOM     15  C   UNL A   1      36.519  32.998  30.574  1.00  0.00    -0.014 A 
BRANCH  15  16
ATOM     16  C   UNL A   1      37.702  32.284  31.045  1.00  0.00     0.031 A 
ATOM     17  C   UNL A   1      38.258  32.713  32.361  1.00  0.00     0.074 A 
ATOM     18  C   UNL A   1      38.096  31.163  30.420  1.00  0.00     0.049 A 
ATOM     19  N   UNL A   1      39.354  32.342  32.954  1.00  0.00    -0.248 NA
ATOM     20  C   UNL A   1      37.454  33.686  33.127  1.00  0.00     0.031 C 
ATOM     21  C   UNL A   1      37.422  30.560  29.265  1.00  0.00     0.029 A 
ATOM     22  N   UNL A   1      39.126  30.312  30.689  1.00  0.00    -0.354 N 
ATOM     23  C   UNL A   1      39.409  33.090  34.121  1.00  0.00     0.074 A 
ATOM     24  C   UNL A   1      38.224  33.909  34.178  1.00  0.00     0.031 C 
ATOM     25  C   UNL A   1      38.062  29.429  28.929  1.00  0.00     0.029 A 
ATOM     26  C   UNL A   1      39.239  29.294  29.776  1.00  0.00     0.049 A 
ATOM     27  H   UNL A   1      39.728  30.417  31.462  1.00  0.00     0.167 HD
ATOM     28  C   UNL A   1      40.399  33.095  35.037  1.00  0.00     0.037 A 
ATOM     29  C   UNL A   1      40.235  28.407  29.616  1.00  0.00     0.037 A 
ATOM     30  C   UNL A   1      41.543  32.237  34.920  1.00  0.00     0.049 A 
ATOM     31  C   UNL A   1      41.393  28.507  30.568  1.00  0.00     0.074 A 
ATOM     32  C   UNL A   1      42.669  32.177  35.713  1.00  0.00     0.029 A 
ATOM     33  N   UNL A   1      41.692  31.278  33.921  1.00  0.00    -0.354 N 
ATOM     34  N   UNL A   1      41.535  29.305  31.604  1.00  0.00    -0.248 NA
ATOM     35  C   UNL A   1      42.537  27.624  30.325  1.00  0.00     0.031 C 
ATOM     36  C   UNL A   1      43.524  31.218  35.160  1.00  0.00     0.029 A 
ATOM     37  C   UNL A   1      42.905  30.637  34.060  1.00  0.00     0.049 A 
ATOM     38  H   UNL A   1      41.027  31.085  33.220  1.00  0.00     0.167 HD
ATOM     39  C   UNL A   1      42.779  29.021  32.142  1.00  0.00     0.074 A 
ATOM     40  C   UNL A   1      43.345  27.963  31.322  1.00  0.00     0.031 C 
ATOM     41  C   UNL A   1      43.403  29.580  33.209  1.00  0.00     0.037 A 
BRANCH  28  42
ATOM     42  C   UNL A   1      40.321  34.127  36.120  1.00  0.00     0.057 A 
ATOM     43  C   UNL A   1      40.813  35.418  35.884  1.00  0.00     0.134 A 
ATOM     44  C   UNL A   1      39.711  33.886  37.357  1.00  0.00     0.134 A 
ATOM     45  F   UNL A   1      41.390  35.723  34.713  1.00  0.00    -0.206 F 
ATOM     46  C   UNL A   1      40.703  36.430  36.838  1.00  0.00     0.040 A 
ATOM     47  C   UNL A   1      39.571  34.898  38.310  1.00  0.00     0.040 A 
ATOM     48  F   UNL A   1      39.178  32.686  37.630  1.00  0.00    -0.206 F 
ATOM     49  C   UNL A   1      40.073  36.173  38.054  1.00  0.00     0.006 A 
ENDBRANCH  28  42
BRANCH  29  50
ATOM     50  C   UNL A   1      40.195  27.450  28.480  1.00  0.00     0.057 A 
ATOM     51  C   UNL A   1      39.567  26.200  28.603  1.00  0.00     0.134 A 
ATOM     52  C   UNL A   1      40.841  27.723  27.271  1.00  0.00     0.134 A 
ATOM     53  F   UNL A   1      38.932  25.870  29.739  1.00  0.00    -0.206 F 
ATOM     54  C   UNL A   1      39.615  25.248  27.584  1.00  0.00     0.040 A 
ATOM     55  C   UNL A   1      40.875  26.788  26.233  1.00  0.00     0.040 A 
ATOM     56  F   UNL A   1      41.448  28.903  27.083  1.00  0.00    -0.206 F 
ATOM     57  C   UNL A   1      40.270  25.542  26.393  1.00  0.00     0.006 A 
ENDBRANCH  29  50
BRANCH  41  58
ATOM     58  C   UNL A   1      44.753  29.044  33.563  1.00  0.00     0.057 A 
ATOM     59  C   UNL A   1      45.899  29.572  32.955  1.00  0.00     0.134 A 
ATOM     60  C   UNL A   1      44.900  27.923  34.386  1.00  0.00     0.134 A 
ATOM     61  F   UNL A   1      45.810  30.637  32.145  1.00  0.00    -0.206 F 
ATOM     62  C   UNL A   1      47.147  28.979  33.127  1.00  0.00     0.040 A 
ATOM     63  C   UNL A   1      46.149  27.337  34.587  1.00  0.00     0.040 A 
ATOM     64  F   UNL A   1      43.837  27.382  34.998  1.00  0.00    -0.206 F 
ATOM     65  C   UNL A   1      47.272  27.855  33.944  1.00  0.00     0.006 A 
ENDBRANCH  41  58
ENDBRANCH  15  16
ENDBRANCH   8  10
ENDBRANCH   7   8
ENDBRANCH   6   7
ENDBRANCH   5   6
ENDBRANCH   4   5
ENDBRANCH   3   4
ENDBRANCH   2   3
ENDBRANCH   1   2
BRANCH   1  66
ATOM     66  C   UNL A   1      32.355  28.113  24.257  1.00  0.00     0.188 C 
BRANCH  66  67
ATOM     67  C   UNL A   1      31.669  27.067  23.353  1.00  0.00     0.188 C 
BRANCH  67  68
ATOM     68  O   UNL A   1      30.498  26.506  23.924  1.00  0.00    -0.376 OA
BRANCH  68  69
ATOM     69  C   UNL A   1      30.263  25.131  23.627  1.00  0.00     0.202 C 
BRANCH  69  70
ATOM     70  C   UNL A   1      31.411  24.290  23.027  1.00  0.00     0.261 C 
BRANCH  70  71
ATOM     71  O   UNL A   1      31.427  22.884  23.389  1.00  0.00    -0.463 OA
BRANCH  71  72
ATOM     72  C   UNL A   1      32.057  22.516  24.527  1.00  0.00     0.313 C 
ATOM     73  O   UNL A   1      31.857  23.097  25.604  1.00  0.00    -0.252 OA
BRANCH  72  74
ATOM     74  C   UNL A   1      33.058  21.335  24.319  1.00  0.00     0.135 C 
BRANCH  74  75
ATOM     75  C   UNL A   1      34.481  21.779  24.562  1.00  0.00    -0.033 A 
ATOM     76  C   UNL A   1      34.965  22.893  23.862  1.00  0.00     0.007 A 
ATOM     77  C   UNL A   1      35.330  21.084  25.442  1.00  0.00     0.007 A 
ATOM     78  C   UNL A   1      36.269  23.325  24.064  1.00  0.00     0.039 A 
ATOM     79  C   UNL A   1      36.623  21.541  25.665  1.00  0.00     0.039 A 
ATOM     80  C   UNL A   1      37.079  22.657  24.975  1.00  0.00     0.123 A 
ATOM     81  F   UNL A   1      38.325  23.096  25.189  1.00  0.00    -0.207 F 
ENDBRANCH  74  75
BRANCH  74  82
ATOM     82  C   UNL A   1      32.711  20.101  25.165  1.00  0.00     0.076 C 
BRANCH  82  83
ATOM     83  C   UNL A   1      32.887  18.635  24.826  1.00  0.00     0.042 A 
ATOM     84  C   UNL A   1      33.700  18.153  23.810  1.00  0.00     0.024 A 
ATOM     85  N   UNL A   1      32.328  17.780  25.730  1.00  0.00    -0.261 NA
ATOM     86  C   UNL A   1      33.859  16.773  23.653  1.00  0.00     0.003 A 
ATOM     87  C   UNL A   1      32.524  16.450  25.579  1.00  0.00     0.111 A 
ATOM     88  C   UNL A   1      33.258  15.901  24.550  1.00  0.00     0.020 A 
ENDBRANCH  82  83
ENDBRANCH  74  82
ENDBRANCH  72  74
ENDBRANCH  71  72
ENDBRANCH  70  71
ENDBRANCH  69  70
ENDBRANCH  68  69
ENDBRANCH  67  68
ENDBRANCH  66  67
ENDBRANCH   1  66
TORSDOF 23
ENDMDL
MODEL 3
REMARK VINA RESULT:     -10.0      3.643      8.670
REMARK SMILES O=C(OCCOCCOCCOCCOC(=O)[C@H](Cc1ccccn1)c1ccc(F)cc1)c1ccc(-c2c3nc(c(-c4c(F)cccc4F)c4ccc([nH]4)c(-c4c(F)cccc4F)c4nc(c(-c5c(F)cccc5F)c5ccc2[nH]5)C=C4)C=C3)cc1
REMARK SMILES IDX 9 1 8 2 7 3 6 4 5 5 4 6 3 7 2 8 1 9 33 10 34 11 86 12 35 13
REMARK SMILES IDX 85 14 36 15 37 16 38 17 79 18 39 19 84 20 78 21 80 22 40 23
REMARK SMILES IDX 83 24 77 25 76 26 41 28 67 29 50 30 66 31 51 32 54 33 65 34
REMARK SMILES IDX 81 35 52 36 53 37 64 39 82 40 55 41 42 42 43 43 48 44 44 45
REMARK SMILES IDX 45 46 47 47 49 48 46 49 68 50 69 51 74 52 70 53 71 54 73 55
REMARK SMILES IDX 75 56 72 57 56 58 57 59 62 60 58 61 59 62 61 63 63 64 60 65
REMARK SMILES IDX 10 66 11 67 12 68 13 69 14 70 15 71 16 72 17 73 18 74 26 75
REMARK SMILES IDX 27 76 32 77 28 78 31 79 29 80 30 81 19 82 20 83 21 84 25 85
REMARK SMILES IDX 22 86 24 87 23 88
REMARK H PARENT 80 27 54 38
REMARK Flexibility Score: inf
ROOT
ATOM      1  O   UNL A   1      32.665  29.331  24.118  1.00  0.00    -0.377 OA
ENDROOT
BRANCH   1   2
ATOM      2  C   UNL A   1      33.155  28.834  25.363  1.00  0.00     0.188 C 
BRANCH   2   3
ATOM      3  C   UNL A   1      32.276  29.150  26.581  1.00  0.00     0.188 C 
BRANCH   3   4
ATOM      4  O   UNL A   1      32.560  30.453  27.097  1.00  0.00    -0.376 OA
BRANCH   4   5
ATOM      5  C   UNL A   1      31.595  31.495  26.921  1.00  0.00     0.202 C 
BRANCH   5   6
ATOM      6  C   UNL A   1      32.151  32.872  26.604  1.00  0.00     0.261 C 
BRANCH   6   7
ATOM      7  O   UNL A   1      32.021  33.835  27.659  1.00  0.00    -0.460 OA
BRANCH   7   8
ATOM      8  C   UNL A   1      32.956  34.401  28.451  1.00  0.00     0.338 C 
ATOM      9  O   UNL A   1      32.782  35.572  28.803  1.00  0.00    -0.246 OA
BRANCH   8  10
ATOM     10  C   UNL A   1      34.184  33.718  28.947  1.00  0.00     0.060 A 
ATOM     11  C   UNL A   1      34.218  32.690  29.885  1.00  0.00     0.016 A 
ATOM     12  C   UNL A   1      35.398  34.084  28.348  1.00  0.00     0.016 A 
ATOM     13  C   UNL A   1      35.386  32.077  30.275  1.00  0.00     0.010 A 
ATOM     14  C   UNL A   1      36.596  33.469  28.720  1.00  0.00     0.010 A 
ATOM     15  C   UNL A   1      36.580  32.481  29.709  1.00  0.00    -0.014 A 
BRANCH  15  16
ATOM     16  C   UNL A   1      37.786  32.011  30.383  1.00  0.00     0.031 A 
ATOM     17  C   UNL A   1      38.553  30.930  29.698  1.00  0.00     0.074 A 
ATOM     18  C   UNL A   1      38.272  32.695  31.432  1.00  0.00     0.049 A 
ATOM     19  N   UNL A   1      39.578  30.251  30.121  1.00  0.00    -0.248 NA
ATOM     20  C   UNL A   1      38.112  30.576  28.335  1.00  0.00     0.031 C 
ATOM     21  C   UNL A   1      37.685  33.920  31.985  1.00  0.00     0.029 A 
ATOM     22  N   UNL A   1      39.386  32.483  32.190  1.00  0.00    -0.354 N 
ATOM     23  C   UNL A   1      39.855  29.342  29.111  1.00  0.00     0.074 A 
ATOM     24  C   UNL A   1      38.920  29.573  28.038  1.00  0.00     0.031 C 
ATOM     25  C   UNL A   1      38.453  34.351  32.998  1.00  0.00     0.029 A 
ATOM     26  C   UNL A   1      39.514  33.379  33.221  1.00  0.00     0.049 A 
ATOM     27  H   UNL A   1      40.032  31.761  32.015  1.00  0.00     0.167 HD
ATOM     28  C   UNL A   1      40.801  28.380  29.120  1.00  0.00     0.037 A 
ATOM     29  C   UNL A   1      40.360  33.353  34.265  1.00  0.00     0.037 A 
ATOM     30  C   UNL A   1      41.707  28.220  30.221  1.00  0.00     0.049 A 
ATOM     31  C   UNL A   1      41.325  32.203  34.328  1.00  0.00     0.074 A 
ATOM     32  C   UNL A   1      42.665  27.249  30.424  1.00  0.00     0.029 A 
ATOM     33  N   UNL A   1      41.754  29.079  31.316  1.00  0.00    -0.354 N 
ATOM     34  N   UNL A   1      41.514  31.243  33.448  1.00  0.00    -0.248 NA
ATOM     35  C   UNL A   1      42.167  32.100  35.523  1.00  0.00     0.031 C 
ATOM     36  C   UNL A   1      43.253  27.491  31.670  1.00  0.00     0.029 A 
ATOM     37  C   UNL A   1      42.706  28.647  32.214  1.00  0.00     0.049 A 
ATOM     38  H   UNL A   1      41.190  29.879  31.430  1.00  0.00     0.167 HD
ATOM     39  C   UNL A   1      42.498  30.424  33.976  1.00  0.00     0.074 A 
ATOM     40  C   UNL A   1      42.876  31.011  35.251  1.00  0.00     0.031 C 
ATOM     41  C   UNL A   1      43.039  29.290  33.466  1.00  0.00     0.037 A 
BRANCH  28  42
ATOM     42  C   UNL A   1      40.785  27.396  27.991  1.00  0.00     0.057 A 
ATOM     43  C   UNL A   1      41.563  27.637  26.850  1.00  0.00     0.134 A 
ATOM     44  C   UNL A   1      40.073  26.191  28.042  1.00  0.00     0.134 A 
ATOM     45  F   UNL A   1      42.287  28.761  26.745  1.00  0.00    -0.206 F 
ATOM     46  C   UNL A   1      41.632  26.719  25.802  1.00  0.00     0.040 A 
ATOM     47  C   UNL A   1      40.154  25.252  27.010  1.00  0.00     0.040 A 
ATOM     48  F   UNL A   1      39.345  25.877  29.124  1.00  0.00    -0.206 F 
ATOM     49  C   UNL A   1      40.931  25.517  25.884  1.00  0.00     0.006 A 
ENDBRANCH  28  42
BRANCH  29  50
ATOM     50  C   UNL A   1      40.249  34.382  35.331  1.00  0.00     0.057 A 
ATOM     51  C   UNL A   1      40.965  35.586  35.257  1.00  0.00     0.134 A 
ATOM     52  C   UNL A   1      39.487  34.163  36.482  1.00  0.00     0.134 A 
ATOM     53  F   UNL A   1      41.722  35.860  34.182  1.00  0.00    -0.206 F 
ATOM     54  C   UNL A   1      40.957  36.514  36.299  1.00  0.00     0.040 A 
ATOM     55  C   UNL A   1      39.449  35.094  37.522  1.00  0.00     0.040 A 
ATOM     56  F   UNL A   1      38.768  33.038  36.610  1.00  0.00    -0.206 F 
ATOM     57  C   UNL A   1      40.196  36.270  37.437  1.00  0.00     0.006 A 
ENDBRANCH  29  50
BRANCH  41  58
ATOM     58  C   UNL A   1      44.110  28.626  34.271  1.00  0.00     0.057 A 
ATOM     59  C   UNL A   1      45.456  28.934  34.037  1.00  0.00     0.134 A 
ATOM     60  C   UNL A   1      43.816  27.591  35.164  1.00  0.00     0.134 A 
ATOM     61  F   UNL A   1      45.792  29.908  33.179  1.00  0.00    -0.206 F 
ATOM     62  C   UNL A   1      46.479  28.207  34.641  1.00  0.00     0.040 A 
ATOM     63  C   UNL A   1      44.831  26.874  35.795  1.00  0.00     0.040 A 
ATOM     64  F   UNL A   1      42.543  27.261  35.429  1.00  0.00    -0.206 F 
ATOM     65  C   UNL A   1      46.165  27.172  35.520  1.00  0.00     0.006 A 
ENDBRANCH  41  58
ENDBRANCH  15  16
ENDBRANCH   8  10
ENDBRANCH   7   8
ENDBRANCH   6   7
ENDBRANCH   5   6
ENDBRANCH   4   5
ENDBRANCH   3   4
ENDBRANCH   2   3
ENDBRANCH   1   2
BRANCH   1  66
ATOM     66  C   UNL A   1      31.323  28.970  23.836  1.00  0.00     0.188 C 
BRANCH  66  67
ATOM     67  C   UNL A   1      31.026  27.528  23.374  1.00  0.00     0.188 C 
BRANCH  67  68
ATOM     68  O   UNL A   1      29.868  26.969  23.972  1.00  0.00    -0.376 OA
BRANCH  68  69
ATOM     69  C   UNL A   1      29.876  25.552  24.131  1.00  0.00     0.202 C 
BRANCH  69  70
ATOM     70  C   UNL A   1      31.233  24.816  24.195  1.00  0.00     0.261 C 
BRANCH  70  71
ATOM     71  O   UNL A   1      31.614  24.295  25.495  1.00  0.00    -0.463 OA
BRANCH  71  72
ATOM     72  C   UNL A   1      31.436  22.977  25.741  1.00  0.00     0.313 C 
ATOM     73  O   UNL A   1      30.325  22.509  26.030  1.00  0.00    -0.252 OA
BRANCH  72  74
ATOM     74  C   UNL A   1      32.760  22.153  25.654  1.00  0.00     0.135 C 
BRANCH  74  75
ATOM     75  C   UNL A   1      32.605  20.970  24.726  1.00  0.00    -0.033 A 
ATOM     76  C   UNL A   1      32.296  21.210  23.380  1.00  0.00     0.007 A 
ATOM     77  C   UNL A   1      32.731  19.648  25.189  1.00  0.00     0.007 A 
ATOM     78  C   UNL A   1      32.146  20.144  22.503  1.00  0.00     0.039 A 
ATOM     79  C   UNL A   1      32.613  18.587  24.301  1.00  0.00     0.039 A 
ATOM     80  C   UNL A   1      32.324  18.845  22.967  1.00  0.00     0.123 A 
ATOM     81  F   UNL A   1      32.209  17.823  22.111  1.00  0.00    -0.207 F 
ENDBRANCH  74  75
BRANCH  74  82
ATOM     82  C   UNL A   1      33.973  23.009  25.260  1.00  0.00     0.076 C 
BRANCH  82  83
ATOM     83  C   UNL A   1      35.440  22.634  25.251  1.00  0.00     0.042 A 
ATOM     84  C   UNL A   1      36.462  23.435  25.740  1.00  0.00     0.024 A 
ATOM     85  N   UNL A   1      35.685  21.339  24.897  1.00  0.00    -0.261 NA
ATOM     86  C   UNL A   1      37.770  22.940  25.768  1.00  0.00     0.003 A 
ATOM     87  C   UNL A   1      36.952  20.871  24.964  1.00  0.00     0.111 A 
ATOM     88  C   UNL A   1      38.025  21.636  25.370  1.00  0.00     0.020 A 
ENDBRANCH  82  83
ENDBRANCH  74  82
ENDBRANCH  72  74
ENDBRANCH  71  72
ENDBRANCH  70  71
ENDBRANCH  69  70
ENDBRANCH  68  69
ENDBRANCH  67  68
ENDBRANCH  66  67
ENDBRANCH   1  66
TORSDOF 23
ENDMDL
