MODEL 1
REMARK VINA RESULT:      -8.4      0.000      0.000
REMARK SMILES CCOc1ncccc1C(=O)N1CCC[C@](CC)(C(=O)OCCOCCOCCOCCOC(=O)c2ccc(-c3c4nc(c(-c5c(F)cccc5F)c5ccc([nH]5)c(-c5c(F)cccc5F)c5nc(c(-c6c(F)cccc6F)c6ccc3[nH]6)C=C5)C=C4)cc2)C1
REMARK SMILES IDX 26 1 25 2 24 3 23 4 22 5 21 6 19 7 20 8 16 9 12 10 13 11
REMARK SMILES IDX 90 12 14 13 15 14 10 15 11 16 9 17 4 18 5 19 6 20 8 21 7 22
REMARK SMILES IDX 3 23 2 24 1 25 17 26 18 27 27 28 28 29 29 30 30 31 31 32
REMARK SMILES IDX 32 33 33 34 34 35 35 36 36 37 37 38 89 39 38 40 88 41 39 42
REMARK SMILES IDX 40 43 41 44 82 45 42 46 87 47 81 48 83 49 43 50 86 51 80 52
REMARK SMILES IDX 79 53 44 55 70 56 53 57 69 58 54 59 57 60 68 61 84 62 55 63
REMARK SMILES IDX 56 64 67 66 85 67 58 68 45 69 46 70 51 71 47 72 48 73 50 74
REMARK SMILES IDX 52 75 49 76 71 77 72 78 77 79 73 80 74 81 76 82 78 83 75 84
REMARK SMILES IDX 59 85 60 86 65 87 61 88 62 89 64 90 66 91 63 92
REMARK H PARENT 83 54 57 65
REMARK Flexibility Score: inf
ROOT
ATOM      1  C   UNL A   1      40.495  21.862  27.216  1.00  0.00     0.188 C 
ENDROOT
BRANCH   1   2
ATOM      2  C   UNL A   1      39.508  21.569  26.084  1.00  0.00     0.188 C 
BRANCH   2   3
ATOM      3  O   UNL A   1      38.308  22.308  26.176  1.00  0.00    -0.376 OA
BRANCH   3   4
ATOM      4  C   UNL A   1      37.406  22.374  25.081  1.00  0.00     0.202 C 
BRANCH   4   5
ATOM      5  C   UNL A   1      36.217  23.357  24.930  1.00  0.00     0.261 C 
BRANCH   5   6
ATOM      6  O   UNL A   1      34.907  22.854  24.610  1.00  0.00    -0.463 OA
BRANCH   6   7
ATOM      7  C   UNL A   1      34.076  22.696  25.655  1.00  0.00     0.313 C 
ATOM      8  O   UNL A   1      34.476  22.793  26.808  1.00  0.00    -0.252 OA
BRANCH   7   9
ATOM      9  C   UNL A   1      32.634  22.297  25.276  1.00  0.00     0.085 C 
ATOM     10  N   UNL A   1      32.095  24.602  24.372  1.00  0.00    -0.337 N 
ATOM     11  C   UNL A   1      31.272  24.892  25.543  1.00  0.00     0.120 C 
ATOM     12  C   UNL A   1      32.276  23.187  24.042  1.00  0.00     0.138 C 
ATOM     13  C   UNL A   1      31.698  24.109  26.779  1.00  0.00     0.023 C 
ATOM     14  C   UNL A   1      31.743  22.615  26.487  1.00  0.00     0.022 C 
BRANCH  10  15
ATOM     15  C   UNL A   1      32.704  25.683  23.709  1.00  0.00     0.259 C 
ATOM     16  O   UNL A   1      33.892  25.657  23.392  1.00  0.00    -0.269 OA
BRANCH  15  17
ATOM     17  C   UNL A   1      31.973  26.963  23.514  1.00  0.00     0.102 A 
ATOM     18  C   UNL A   1      32.153  28.058  24.361  1.00  0.00     0.226 A 
ATOM     19  N   UNL A   1      31.352  29.159  24.359  1.00  0.00    -0.221 NA
ATOM     20  C   UNL A   1      30.319  29.165  23.493  1.00  0.00     0.115 A 
ATOM     21  C   UNL A   1      30.909  27.029  22.605  1.00  0.00     0.021 A 
ATOM     22  C   UNL A   1      30.068  28.143  22.595  1.00  0.00     0.021 A 
BRANCH  18  23
ATOM     23  O   UNL A   1      33.094  28.030  25.356  1.00  0.00    -0.477 OA
BRANCH  23  24
ATOM     24  C   UNL A   1      33.428  29.341  25.810  1.00  0.00     0.228 C 
ATOM     25  C   UNL A   1      33.390  29.356  27.322  1.00  0.00     0.049 C 
ENDBRANCH  23  24
ENDBRANCH  18  23
ENDBRANCH  15  17
ENDBRANCH  10  15
BRANCH   9  26
ATOM     26  C   UNL A   1      32.367  20.830  24.824  1.00  0.00     0.017 C 
ATOM     27  C   UNL A   1      33.555  19.872  24.720  1.00  0.00     0.005 C 
ENDBRANCH   9  26
ENDBRANCH   7   9
ENDBRANCH   6   7
ENDBRANCH   5   6
ENDBRANCH   4   5
ENDBRANCH   3   4
ENDBRANCH   2   3
ENDBRANCH   1   2
BRANCH   1  28
ATOM     28  O   UNL A   1      41.722  21.174  27.116  1.00  0.00    -0.377 OA
BRANCH  28  29
ATOM     29  C   UNL A   1      42.433  21.237  25.894  1.00  0.00     0.188 C 
BRANCH  29  30
ATOM     30  C   UNL A   1      42.981  22.570  25.341  1.00  0.00     0.188 C 
BRANCH  30  31
ATOM     31  O   UNL A   1      44.015  22.449  24.375  1.00  0.00    -0.376 OA
BRANCH  31  32
ATOM     32  C   UNL A   1      45.363  22.564  24.802  1.00  0.00     0.202 C 
BRANCH  32  33
ATOM     33  C   UNL A   1      45.782  23.892  25.456  1.00  0.00     0.261 C 
BRANCH  33  34
ATOM     34  O   UNL A   1      45.355  25.088  24.789  1.00  0.00    -0.460 OA
BRANCH  34  35
ATOM     35  C   UNL A   1      46.165  26.170  24.885  1.00  0.00     0.338 C 
ATOM     36  O   UNL A   1      47.070  26.476  24.149  1.00  0.00    -0.246 OA
BRANCH  35  37
ATOM     37  C   UNL A   1      45.620  27.036  25.958  1.00  0.00     0.060 A 
ATOM     38  C   UNL A   1      46.517  27.694  26.810  1.00  0.00     0.016 A 
ATOM     39  C   UNL A   1      44.243  27.228  26.093  1.00  0.00     0.016 A 
ATOM     40  C   UNL A   1      46.038  28.523  27.824  1.00  0.00     0.010 A 
ATOM     41  C   UNL A   1      43.763  28.032  27.130  1.00  0.00     0.010 A 
ATOM     42  C   UNL A   1      44.656  28.655  28.019  1.00  0.00    -0.014 A 
BRANCH  42  43
ATOM     43  C   UNL A   1      44.146  29.243  29.281  1.00  0.00     0.031 A 
ATOM     44  C   UNL A   1      43.865  30.720  29.302  1.00  0.00     0.074 A 
ATOM     45  C   UNL A   1      43.931  28.495  30.377  1.00  0.00     0.049 A 
ATOM     46  N   UNL A   1      43.493  31.483  30.296  1.00  0.00    -0.248 NA
ATOM     47  C   UNL A   1      44.031  31.432  28.024  1.00  0.00     0.031 C 
ATOM     48  C   UNL A   1      44.119  27.050  30.469  1.00  0.00     0.029 A 
ATOM     49  N   UNL A   1      43.518  28.864  31.634  1.00  0.00    -0.354 N 
ATOM     50  C   UNL A   1      43.394  32.765  29.766  1.00  0.00     0.074 A 
ATOM     51  C   UNL A   1      43.768  32.681  28.372  1.00  0.00     0.031 C 
ATOM     52  C   UNL A   1      43.843  26.656  31.727  1.00  0.00     0.029 A 
ATOM     53  C   UNL A   1      43.496  27.825  32.533  1.00  0.00     0.049 A 
ATOM     54  H   UNL A   1      43.262  29.785  31.868  1.00  0.00     0.167 HD
ATOM     55  C   UNL A   1      43.022  33.908  30.386  1.00  0.00     0.037 A 
ATOM     56  C   UNL A   1      43.254  27.830  33.858  1.00  0.00     0.037 A 
ATOM     57  C   UNL A   1      42.654  33.988  31.774  1.00  0.00     0.049 A 
ATOM     58  C   UNL A   1      42.920  29.131  34.547  1.00  0.00     0.074 A 
ATOM     59  C   UNL A   1      42.242  35.096  32.492  1.00  0.00     0.029 A 
ATOM     60  N   UNL A   1      42.669  32.919  32.657  1.00  0.00    -0.354 N 
ATOM     61  N   UNL A   1      42.801  30.333  34.035  1.00  0.00    -0.248 NA
ATOM     62  C   UNL A   1      42.686  29.076  35.997  1.00  0.00     0.031 C 
ATOM     63  C   UNL A   1      42.067  34.710  33.825  1.00  0.00     0.029 A 
ATOM     64  C   UNL A   1      42.305  33.349  33.922  1.00  0.00     0.049 A 
ATOM     65  H   UNL A   1      42.905  31.992  32.420  1.00  0.00     0.167 HD
ATOM     66  C   UNL A   1      42.447  31.166  35.090  1.00  0.00     0.074 A 
ATOM     67  C   UNL A   1      42.361  30.332  36.269  1.00  0.00     0.031 C 
ATOM     68  C   UNL A   1      42.211  32.502  35.084  1.00  0.00     0.037 A 
BRANCH  55  69
ATOM     69  C   UNL A   1      43.032  35.170  29.575  1.00  0.00     0.057 A 
ATOM     70  C   UNL A   1      44.191  35.941  29.411  1.00  0.00     0.134 A 
ATOM     71  C   UNL A   1      41.871  35.604  28.925  1.00  0.00     0.134 A 
ATOM     72  F   UNL A   1      45.333  35.591  30.022  1.00  0.00    -0.206 F 
ATOM     73  C   UNL A   1      44.187  37.109  28.647  1.00  0.00     0.040 A 
ATOM     74  C   UNL A   1      41.861  36.753  28.134  1.00  0.00     0.040 A 
ATOM     75  F   UNL A   1      40.727  34.912  29.041  1.00  0.00    -0.206 F 
ATOM     76  C   UNL A   1      43.021  37.513  27.999  1.00  0.00     0.006 A 
ENDBRANCH  55  69
BRANCH  56  77
ATOM     77  C   UNL A   1      43.347  26.569  34.641  1.00  0.00     0.057 A 
ATOM     78  C   UNL A   1      44.584  26.046  35.036  1.00  0.00     0.134 A 
ATOM     79  C   UNL A   1      42.202  25.836  34.979  1.00  0.00     0.134 A 
ATOM     80  F   UNL A   1      45.719  26.686  34.720  1.00  0.00    -0.206 F 
ATOM     81  C   UNL A   1      44.681  24.832  35.720  1.00  0.00     0.040 A 
ATOM     82  C   UNL A   1      42.282  24.636  35.686  1.00  0.00     0.040 A 
ATOM     83  F   UNL A   1      40.986  26.280  34.628  1.00  0.00    -0.206 F 
ATOM     84  C   UNL A   1      43.526  24.126  36.051  1.00  0.00     0.006 A 
ENDBRANCH  56  77
BRANCH  68  85
ATOM     85  C   UNL A   1      41.790  33.141  36.377  1.00  0.00     0.057 A 
ATOM     86  C   UNL A   1      40.449  33.203  36.776  1.00  0.00     0.134 A 
ATOM     87  C   UNL A   1      42.751  33.648  37.263  1.00  0.00     0.134 A 
ATOM     88  F   UNL A   1      39.478  32.743  35.971  1.00  0.00    -0.206 F 
ATOM     89  C   UNL A   1      40.076  33.764  37.999  1.00  0.00     0.040 A 
ATOM     90  C   UNL A   1      42.394  34.184  38.502  1.00  0.00     0.040 A 
ATOM     91  F   UNL A   1      44.055  33.609  36.950  1.00  0.00    -0.206 F 
ATOM     92  C   UNL A   1      41.051  34.249  38.869  1.00  0.00     0.006 A 
ENDBRANCH  68  85
ENDBRANCH  42  43
ENDBRANCH  35  37
ENDBRANCH  34  35
ENDBRANCH  33  34
ENDBRANCH  32  33
ENDBRANCH  31  32
ENDBRANCH  30  31
ENDBRANCH  29  30
ENDBRANCH  28  29
ENDBRANCH   1  28
TORSDOF 25
ENDMDL
MODEL 2
REMARK VINA RESULT:      -8.4      4.932      7.439
REMARK SMILES CCOc1ncccc1C(=O)N1CCC[C@](CC)(C(=O)OCCOCCOCCOCCOC(=O)c2ccc(-c3c4nc(c(-c5c(F)cccc5F)c5ccc([nH]5)c(-c5c(F)cccc5F)c5nc(c(-c6c(F)cccc6F)c6ccc3[nH]6)C=C5)C=C4)cc2)C1
REMARK SMILES IDX 26 1 25 2 24 3 23 4 22 5 21 6 19 7 20 8 16 9 12 10 13 11
REMARK SMILES IDX 90 12 14 13 15 14 10 15 11 16 9 17 4 18 5 19 6 20 8 21 7 22
REMARK SMILES IDX 3 23 2 24 1 25 17 26 18 27 27 28 28 29 29 30 30 31 31 32
REMARK SMILES IDX 32 33 33 34 34 35 35 36 36 37 37 38 89 39 38 40 88 41 39 42
REMARK SMILES IDX 40 43 41 44 82 45 42 46 87 47 81 48 83 49 43 50 86 51 80 52
REMARK SMILES IDX 79 53 44 55 70 56 53 57 69 58 54 59 57 60 68 61 84 62 55 63
REMARK SMILES IDX 56 64 67 66 85 67 58 68 45 69 46 70 51 71 47 72 48 73 50 74
REMARK SMILES IDX 52 75 49 76 71 77 72 78 77 79 73 80 74 81 76 82 78 83 75 84
REMARK SMILES IDX 59 85 60 86 65 87 61 88 62 89 64 90 66 91 63 92
REMARK H PARENT 83 54 57 65
REMARK Flexibility Score: inf
ROOT
ATOM      1  C   UNL A   1      41.039  19.621  26.081  1.00  0.00     0.188 C 
ENDROOT
BRANCH   1   2
ATOM      2  C   UNL A   1      41.369  20.071  27.506  1.00  0.00     0.188 C 
BRANCH   2   3
ATOM      3  O   UNL A   1      40.497  21.068  27.999  1.00  0.00    -0.376 OA
BRANCH   3   4
ATOM      4  C   UNL A   1      40.231  22.241  27.245  1.00  0.00     0.202 C 
BRANCH   4   5
ATOM      5  C   UNL A   1      40.264  23.698  27.774  1.00  0.00     0.261 C 
BRANCH   5   6
ATOM      6  O   UNL A   1      39.507  24.722  27.103  1.00  0.00    -0.463 OA
BRANCH   6   7
ATOM      7  C   UNL A   1      40.227  25.735  26.593  1.00  0.00     0.313 C 
ATOM      8  O   UNL A   1      40.848  25.611  25.546  1.00  0.00    -0.252 OA
BRANCH   7   9
ATOM      9  C   UNL A   1      40.274  27.000  27.476  1.00  0.00     0.085 C 
ATOM     10  N   UNL A   1      42.552  27.683  26.600  1.00  0.00    -0.337 N 
ATOM     11  C   UNL A   1      43.180  27.279  27.855  1.00  0.00     0.120 C 
ATOM     12  C   UNL A   1      41.131  28.028  26.669  1.00  0.00     0.138 C 
ATOM     13  C   UNL A   1      42.404  26.189  28.585  1.00  0.00     0.023 C 
ATOM     14  C   UNL A   1      40.954  26.604  28.797  1.00  0.00     0.022 C 
BRANCH  10  15
ATOM     15  C   UNL A   1      43.328  27.636  25.429  1.00  0.00     0.259 C 
ATOM     16  O   UNL A   1      42.849  27.904  24.328  1.00  0.00    -0.269 OA
BRANCH  15  17
ATOM     17  C   UNL A   1      44.716  27.100  25.458  1.00  0.00     0.102 A 
ATOM     18  C   UNL A   1      45.833  27.935  25.498  1.00  0.00     0.226 A 
ATOM     19  N   UNL A   1      47.109  27.504  25.302  1.00  0.00    -0.221 NA
ATOM     20  C   UNL A   1      47.282  26.194  25.035  1.00  0.00     0.115 A 
ATOM     21  C   UNL A   1      44.945  25.739  25.215  1.00  0.00     0.021 A 
ATOM     22  C   UNL A   1      46.243  25.279  24.998  1.00  0.00     0.021 A 
BRANCH  18  23
ATOM     23  O   UNL A   1      45.694  29.292  25.615  1.00  0.00    -0.477 OA
BRANCH  23  24
ATOM     24  C   UNL A   1      45.931  29.740  26.950  1.00  0.00     0.228 C 
ATOM     25  C   UNL A   1      44.783  30.629  27.374  1.00  0.00     0.049 C 
ENDBRANCH  23  24
ENDBRANCH  18  23
ENDBRANCH  15  17
ENDBRANCH  10  15
BRANCH   9  26
ATOM     26  C   UNL A   1      38.936  27.730  27.796  1.00  0.00     0.017 C 
ATOM     27  C   UNL A   1      38.886  29.252  27.658  1.00  0.00     0.005 C 
ENDBRANCH   9  26
ENDBRANCH   7   9
ENDBRANCH   6   7
ENDBRANCH   5   6
ENDBRANCH   4   5
ENDBRANCH   3   4
ENDBRANCH   2   3
ENDBRANCH   1   2
BRANCH   1  28
ATOM     28  O   UNL A   1      42.102  19.755  25.163  1.00  0.00    -0.377 OA
BRANCH  28  29
ATOM     29  C   UNL A   1      43.428  19.696  25.655  1.00  0.00     0.188 C 
BRANCH  29  30
ATOM     30  C   UNL A   1      44.310  20.958  25.763  1.00  0.00     0.188 C 
BRANCH  30  31
ATOM     31  O   UNL A   1      43.607  22.191  25.808  1.00  0.00    -0.376 OA
BRANCH  31  32
ATOM     32  C   UNL A   1      43.577  22.914  27.028  1.00  0.00     0.202 C 
BRANCH  32  33
ATOM     33  C   UNL A   1      44.921  23.143  27.741  1.00  0.00     0.261 C 
BRANCH  33  34
ATOM     34  O   UNL A   1      44.874  23.921  28.945  1.00  0.00    -0.460 OA
BRANCH  34  35
ATOM     35  C   UNL A   1      45.879  24.806  29.148  1.00  0.00     0.338 C 
ATOM     36  O   UNL A   1      46.846  24.991  28.451  1.00  0.00    -0.246 OA
BRANCH  35  37
ATOM     37  C   UNL A   1      45.489  25.662  30.295  1.00  0.00     0.060 A 
ATOM     38  C   UNL A   1      44.649  25.123  31.279  1.00  0.00     0.016 A 
ATOM     39  C   UNL A   1      45.981  26.963  30.417  1.00  0.00     0.016 A 
ATOM     40  C   UNL A   1      44.271  25.899  32.375  1.00  0.00     0.010 A 
ATOM     41  C   UNL A   1      45.575  27.750  31.498  1.00  0.00     0.010 A 
ATOM     42  C   UNL A   1      44.692  27.232  32.462  1.00  0.00    -0.014 A 
BRANCH  42  43
ATOM     43  C   UNL A   1      44.030  28.150  33.419  1.00  0.00     0.031 A 
ATOM     44  C   UNL A   1      42.688  28.711  33.035  1.00  0.00     0.074 A 
ATOM     45  C   UNL A   1      44.590  28.476  34.596  1.00  0.00     0.049 A 
ATOM     46  N   UNL A   1      41.945  29.591  33.654  1.00  0.00    -0.248 NA
ATOM     47  C   UNL A   1      42.111  28.213  31.776  1.00  0.00     0.031 C 
ATOM     48  C   UNL A   1      45.859  27.962  35.103  1.00  0.00     0.029 A 
ATOM     49  N   UNL A   1      44.158  29.338  35.574  1.00  0.00    -0.354 N 
ATOM     50  C   UNL A   1      40.821  29.760  32.854  1.00  0.00     0.074 A 
ATOM     51  C   UNL A   1      40.990  28.912  31.695  1.00  0.00     0.031 C 
ATOM     52  C   UNL A   1      46.117  28.538  36.292  1.00  0.00     0.029 A 
ATOM     53  C   UNL A   1      45.049  29.485  36.610  1.00  0.00     0.049 A 
ATOM     54  H   UNL A   1      43.293  29.805  35.537  1.00  0.00     0.167 HD
ATOM     55  C   UNL A   1      39.743  30.548  33.068  1.00  0.00     0.037 A 
ATOM     56  C   UNL A   1      45.016  30.314  37.672  1.00  0.00     0.037 A 
ATOM     57  C   UNL A   1      39.579  31.393  34.221  1.00  0.00     0.049 A 
ATOM     58  C   UNL A   1      43.841  31.245  37.850  1.00  0.00     0.074 A 
ATOM     59  C   UNL A   1      38.514  32.214  34.542  1.00  0.00     0.029 A 
ATOM     60  N   UNL A   1      40.515  31.533  35.235  1.00  0.00    -0.354 N 
ATOM     61  N   UNL A   1      42.769  31.379  37.105  1.00  0.00    -0.248 NA
ATOM     62  C   UNL A   1      43.871  32.140  39.016  1.00  0.00     0.031 C 
ATOM     63  C   UNL A   1      38.832  32.900  35.718  1.00  0.00     0.029 A 
ATOM     64  C   UNL A   1      40.065  32.454  36.165  1.00  0.00     0.049 A 
ATOM     65  H   UNL A   1      41.372  31.050  35.285  1.00  0.00     0.167 HD
ATOM     66  C   UNL A   1      41.987  32.344  37.729  1.00  0.00     0.074 A 
ATOM     67  C   UNL A   1      42.701  32.756  38.918  1.00  0.00     0.031 C 
ATOM     68  C   UNL A   1      40.783  32.844  37.352  1.00  0.00     0.037 A 
BRANCH  55  69
ATOM     69  C   UNL A   1      38.675  30.562  32.015  1.00  0.00     0.057 A 
ATOM     70  C   UNL A   1      38.640  31.530  31.002  1.00  0.00     0.134 A 
ATOM     71  C   UNL A   1      37.683  29.574  31.998  1.00  0.00     0.134 A 
ATOM     72  F   UNL A   1      39.551  32.516  30.971  1.00  0.00    -0.206 F 
ATOM     73  C   UNL A   1      37.645  31.526  30.023  1.00  0.00     0.040 A 
ATOM     74  C   UNL A   1      36.700  29.542  31.008  1.00  0.00     0.040 A 
ATOM     75  F   UNL A   1      37.659  28.618  32.939  1.00  0.00    -0.206 F 
ATOM     76  C   UNL A   1      36.676  30.524  30.021  1.00  0.00     0.006 A 
ENDBRANCH  55  69
BRANCH  56  77
ATOM     77  C   UNL A   1      46.142  30.334  38.642  1.00  0.00     0.057 A 
ATOM     78  C   UNL A   1      46.178  29.461  39.736  1.00  0.00     0.134 A 
ATOM     79  C   UNL A   1      47.192  31.254  38.520  1.00  0.00     0.134 A 
ATOM     80  F   UNL A   1      45.190  28.574  39.924  1.00  0.00    -0.206 F 
ATOM     81  C   UNL A   1      47.203  29.514  40.683  1.00  0.00     0.040 A 
ATOM     82  C   UNL A   1      48.237  31.300  39.444  1.00  0.00     0.040 A 
ATOM     83  F   UNL A   1      47.217  32.121  37.498  1.00  0.00    -0.206 F 
ATOM     84  C   UNL A   1      48.239  30.433  40.535  1.00  0.00     0.006 A 
ENDBRANCH  56  77
BRANCH  68  85
ATOM     85  C   UNL A   1      40.135  33.854  38.256  1.00  0.00     0.057 A 
ATOM     86  C   UNL A   1      40.291  35.233  38.066  1.00  0.00     0.134 A 
ATOM     87  C   UNL A   1      39.292  33.438  39.296  1.00  0.00     0.134 A 
ATOM     88  F   UNL A   1      41.091  35.699  37.093  1.00  0.00    -0.206 F 
ATOM     89  C   UNL A   1      39.651  36.161  38.889  1.00  0.00     0.040 A 
ATOM     90  C   UNL A   1      38.623  34.356  40.107  1.00  0.00     0.040 A 
ATOM     91  F   UNL A   1      39.088  32.132  39.526  1.00  0.00    -0.206 F 
ATOM     92  C   UNL A   1      38.807  35.722  39.908  1.00  0.00     0.006 A 
ENDBRANCH  68  85
ENDBRANCH  42  43
ENDBRANCH  35  37
ENDBRANCH  34  35
ENDBRANCH  33  34
ENDBRANCH  32  33
ENDBRANCH  31  32
ENDBRANCH  30  31
ENDBRANCH  29  30
ENDBRANCH  28  29
ENDBRANCH   1  28
TORSDOF 25
ENDMDL
MODEL 3
REMARK VINA RESULT:      -8.2      7.477     14.988
REMARK SMILES CCOc1ncccc1C(=O)N1CCC[C@](CC)(C(=O)OCCOCCOCCOCCOC(=O)c2ccc(-c3c4nc(c(-c5c(F)cccc5F)c5ccc([nH]5)c(-c5c(F)cccc5F)c5nc(c(-c6c(F)cccc6F)c6ccc3[nH]6)C=C5)C=C4)cc2)C1
REMARK SMILES IDX 26 1 25 2 24 3 23 4 22 5 21 6 19 7 20 8 16 9 12 10 13 11
REMARK SMILES IDX 90 12 14 13 15 14 10 15 11 16 9 17 4 18 5 19 6 20 8 21 7 22
REMARK SMILES IDX 3 23 2 24 1 25 17 26 18 27 27 28 28 29 29 30 30 31 31 32
REMARK SMILES IDX 32 33 33 34 34 35 35 36 36 37 37 38 89 39 38 40 88 41 39 42
REMARK SMILES IDX 40 43 41 44 82 45 42 46 87 47 81 48 83 49 43 50 86 51 80 52
REMARK SMILES IDX 79 53 44 55 70 56 53 57 69 58 54 59 57 60 68 61 84 62 55 63
REMARK SMILES IDX 56 64 67 66 85 67 58 68 45 69 46 70 51 71 47 72 48 73 50 74
REMARK SMILES IDX 52 75 49 76 71 77 72 78 77 79 73 80 74 81 76 82 78 83 75 84
REMARK SMILES IDX 59 85 60 86 65 87 61 88 62 89 64 90 66 91 63 92
REMARK H PARENT 83 54 57 65
REMARK Flexibility Score: inf
ROOT
ATOM      1  C   UNL A   1      44.326  42.739  32.659  1.00  0.00     0.188 C 
ENDROOT
BRANCH   1   2
ATOM      2  C   UNL A   1      44.481  43.952  31.739  1.00  0.00     0.188 C 
BRANCH   2   3
ATOM      3  O   UNL A   1      45.187  43.671  30.548  1.00  0.00    -0.376 OA
BRANCH   3   4
ATOM      4  C   UNL A   1      44.703  44.118  29.290  1.00  0.00     0.202 C 
BRANCH   4   5
ATOM      5  C   UNL A   1      45.557  44.418  28.033  1.00  0.00     0.261 C 
BRANCH   5   6
ATOM      6  O   UNL A   1      46.191  43.340  27.321  1.00  0.00    -0.463 OA
BRANCH   6   7
ATOM      7  C   UNL A   1      45.905  43.264  26.010  1.00  0.00     0.313 C 
ATOM      8  O   UNL A   1      45.714  44.270  25.340  1.00  0.00    -0.252 OA
BRANCH   7   9
ATOM      9  C   UNL A   1      45.747  41.827  25.468  1.00  0.00     0.085 C 
ATOM     10  N   UNL A   1      43.834  42.477  23.938  1.00  0.00    -0.337 N 
ATOM     11  C   UNL A   1      42.877  41.813  24.818  1.00  0.00     0.120 C 
ATOM     12  C   UNL A   1      45.216  41.999  24.008  1.00  0.00     0.138 C 
ATOM     13  C   UNL A   1      43.343  41.751  26.268  1.00  0.00     0.023 C 
ATOM     14  C   UNL A   1      44.723  41.115  26.367  1.00  0.00     0.022 C 
BRANCH  10  15
ATOM     15  C   UNL A   1      43.379  43.556  23.160  1.00  0.00     0.259 C 
ATOM     16  O   UNL A   1      43.015  44.612  23.675  1.00  0.00    -0.269 OA
BRANCH  15  17
ATOM     17  C   UNL A   1      43.164  43.400  21.696  1.00  0.00     0.102 A 
ATOM     18  C   UNL A   1      44.188  43.603  20.770  1.00  0.00     0.226 A 
ATOM     19  N   UNL A   1      43.989  43.692  19.427  1.00  0.00    -0.221 NA
ATOM     20  C   UNL A   1      42.719  43.593  18.986  1.00  0.00     0.115 A 
ATOM     21  C   UNL A   1      41.864  43.265  21.191  1.00  0.00     0.021 A 
ATOM     22  C   UNL A   1      41.637  43.365  19.818  1.00  0.00     0.021 A 
BRANCH  18  23
ATOM     23  O   UNL A   1      45.469  43.860  21.182  1.00  0.00    -0.477 OA
BRANCH  23  24
ATOM     24  C   UNL A   1      46.384  43.895  20.087  1.00  0.00     0.228 C 
ATOM     25  C   UNL A   1      47.476  42.878  20.336  1.00  0.00     0.049 C 
ENDBRANCH  23  24
ENDBRANCH  18  23
ENDBRANCH  15  17
ENDBRANCH  10  15
BRANCH   9  26
ATOM     26  C   UNL A   1      47.020  40.937  25.349  1.00  0.00     0.017 C 
ATOM     27  C   UNL A   1      47.064  39.873  24.251  1.00  0.00     0.005 C 
ENDBRANCH   9  26
ENDBRANCH   7   9
ENDBRANCH   6   7
ENDBRANCH   5   6
ENDBRANCH   4   5
ENDBRANCH   3   4
ENDBRANCH   2   3
ENDBRANCH   1   2
BRANCH   1  28
ATOM     28  O   UNL A   1      44.418  41.492  32.005  1.00  0.00    -0.377 OA
BRANCH  28  29
ATOM     29  C   UNL A   1      43.252  40.961  31.403  1.00  0.00     0.188 C 
BRANCH  29  30
ATOM     30  C   UNL A   1      43.217  40.567  29.911  1.00  0.00     0.188 C 
BRANCH  30  31
ATOM     31  O   UNL A   1      43.588  39.226  29.625  1.00  0.00    -0.376 OA
BRANCH  31  32
ATOM     32  C   UNL A   1      44.938  38.951  29.286  1.00  0.00     0.202 C 
BRANCH  32  33
ATOM     33  C   UNL A   1      45.592  37.724  29.944  1.00  0.00     0.261 C 
BRANCH  33  34
ATOM     34  O   UNL A   1      46.883  37.350  29.443  1.00  0.00    -0.460 OA
BRANCH  34  35
ATOM     35  C   UNL A   1      46.921  36.720  28.245  1.00  0.00     0.338 C 
ATOM     36  O   UNL A   1      47.585  37.013  27.282  1.00  0.00    -0.246 OA
BRANCH  35  37
ATOM     37  C   UNL A   1      46.136  35.468  28.379  1.00  0.00     0.060 A 
ATOM     38  C   UNL A   1      46.480  34.567  29.396  1.00  0.00     0.016 A 
ATOM     39  C   UNL A   1      45.051  35.209  27.540  1.00  0.00     0.016 A 
ATOM     40  C   UNL A   1      45.757  33.385  29.556  1.00  0.00     0.010 A 
ATOM     41  C   UNL A   1      44.349  34.009  27.679  1.00  0.00     0.010 A 
ATOM     42  C   UNL A   1      44.720  33.078  28.665  1.00  0.00    -0.014 A 
BRANCH  42  43
ATOM     43  C   UNL A   1      44.184  31.698  28.610  1.00  0.00     0.031 A 
ATOM     44  C   UNL A   1      44.996  30.660  27.884  1.00  0.00     0.074 A 
ATOM     45  C   UNL A   1      43.017  31.364  29.188  1.00  0.00     0.049 A 
ATOM     46  N   UNL A   1      44.712  29.410  27.626  1.00  0.00    -0.248 NA
ATOM     47  C   UNL A   1      46.307  31.098  27.377  1.00  0.00     0.031 C 
ATOM     48  C   UNL A   1      42.164  32.264  29.959  1.00  0.00     0.029 A 
ATOM     49  N   UNL A   1      42.344  30.167  29.197  1.00  0.00    -0.354 N 
ATOM     50  C   UNL A   1      45.802  28.919  26.916  1.00  0.00     0.074 A 
ATOM     51  C   UNL A   1      46.739  30.009  26.763  1.00  0.00     0.031 C 
ATOM     52  C   UNL A   1      41.065  31.591  30.348  1.00  0.00     0.029 A 
ATOM     53  C   UNL A   1      41.123  30.228  29.824  1.00  0.00     0.049 A 
ATOM     54  H   UNL A   1      42.702  29.344  28.794  1.00  0.00     0.167 HD
ATOM     55  C   UNL A   1      46.004  27.669  26.438  1.00  0.00     0.037 A 
ATOM     56  C   UNL A   1      40.154  29.296  29.930  1.00  0.00     0.037 A 
ATOM     57  C   UNL A   1      45.067  26.588  26.589  1.00  0.00     0.049 A 
ATOM     58  C   UNL A   1      40.366  27.933  29.318  1.00  0.00     0.074 A 
ATOM     59  C   UNL A   1      45.187  25.279  26.159  1.00  0.00     0.029 A 
ATOM     60  N   UNL A   1      43.831  26.697  27.208  1.00  0.00    -0.354 N 
ATOM     61  N   UNL A   1      41.410  27.467  28.674  1.00  0.00    -0.248 NA
ATOM     62  C   UNL A   1      39.266  26.966  29.449  1.00  0.00     0.031 C 
ATOM     63  C   UNL A   1      43.997  24.611  26.462  1.00  0.00     0.029 A 
ATOM     64  C   UNL A   1      43.164  25.485  27.141  1.00  0.00     0.049 A 
ATOM     65  H   UNL A   1      43.479  27.514  27.631  1.00  0.00     0.167 HD
ATOM     66  C   UNL A   1      41.105  26.148  28.354  1.00  0.00     0.074 A 
ATOM     67  C   UNL A   1      39.784  25.885  28.883  1.00  0.00     0.031 C 
ATOM     68  C   UNL A   1      41.853  25.235  27.684  1.00  0.00     0.037 A 
BRANCH  55  69
ATOM     69  C   UNL A   1      47.269  27.417  25.674  1.00  0.00     0.057 A 
ATOM     70  C   UNL A   1      47.357  27.620  24.290  1.00  0.00     0.134 A 
ATOM     71  C   UNL A   1      48.426  26.992  26.338  1.00  0.00     0.134 A 
ATOM     72  F   UNL A   1      46.281  28.009  23.589  1.00  0.00    -0.206 F 
ATOM     73  C   UNL A   1      48.544  27.388  23.593  1.00  0.00     0.040 A 
ATOM     74  C   UNL A   1      49.626  26.786  25.658  1.00  0.00     0.040 A 
ATOM     75  F   UNL A   1      48.411  26.779  27.663  1.00  0.00    -0.206 F 
ATOM     76  C   UNL A   1      49.685  26.978  24.280  1.00  0.00     0.006 A 
ENDBRANCH  55  69
BRANCH  56  77
ATOM     77  C   UNL A   1      38.875  29.621  30.616  1.00  0.00     0.057 A 
ATOM     78  C   UNL A   1      38.716  29.423  31.992  1.00  0.00     0.134 A 
ATOM     79  C   UNL A   1      37.768  30.100  29.903  1.00  0.00     0.134 A 
ATOM     80  F   UNL A   1      39.729  28.942  32.726  1.00  0.00    -0.206 F 
ATOM     81  C   UNL A   1      37.499  29.670  32.631  1.00  0.00     0.040 A 
ATOM     82  C   UNL A   1      36.555  30.377  30.533  1.00  0.00     0.040 A 
ATOM     83  F   UNL A   1      37.853  30.308  28.580  1.00  0.00    -0.206 F 
ATOM     84  C   UNL A   1      36.415  30.153  31.902  1.00  0.00     0.006 A 
ENDBRANCH  56  77
BRANCH  68  85
ATOM     85  C   UNL A   1      41.287  23.853  27.526  1.00  0.00     0.057 A 
ATOM     86  C   UNL A   1      40.252  23.570  26.625  1.00  0.00     0.134 A 
ATOM     87  C   UNL A   1      41.830  22.778  28.243  1.00  0.00     0.134 A 
ATOM     88  F   UNL A   1      39.681  24.555  25.914  1.00  0.00    -0.206 F 
ATOM     89  C   UNL A   1      39.762  22.273  26.460  1.00  0.00     0.040 A 
ATOM     90  C   UNL A   1      41.370  21.472  28.064  1.00  0.00     0.040 A 
ATOM     91  F   UNL A   1      42.832  22.976  29.112  1.00  0.00    -0.206 F 
ATOM     92  C   UNL A   1      40.328  21.219  27.174  1.00  0.00     0.006 A 
ENDBRANCH  68  85
ENDBRANCH  42  43
ENDBRANCH  35  37
ENDBRANCH  34  35
ENDBRANCH  33  34
ENDBRANCH  32  33
ENDBRANCH  31  32
ENDBRANCH  30  31
ENDBRANCH  29  30
ENDBRANCH  28  29
ENDBRANCH   1  28
TORSDOF 25
ENDMDL
