MODEL 1
REMARK VINA RESULT:      -9.8      0.000      0.000
REMARK SMILES N#CCC[NH+]1CC[NH+]([C@@H](C(=O)OCCOCCOCCOCCOC(=O)c2ccc(-c3c4nc(c(-c5c(F)cccc5F)c5ccc([nH]5)c(-c5c(F)cccc5F)c5nc(c(-c6c(F)cccc6F)c6ccc3[nH]6)C=C5)C=C4)cc2)c2c[nH]c3cc(Cl)ccc23)CC1
REMARK SMILES IDX 17 1 16 2 15 3 14 4 13 5 12 6 10 7 11 8 9 9 8 10 5 11 6 12
REMARK SMILES IDX 92 13 7 15 91 16 4 18 3 19 2 20 1 21 81 22 82 23 90 24 83 25
REMARK SMILES IDX 84 26 89 27 85 29 88 30 86 31 87 32 18 33 19 34 20 35 21 36
REMARK SMILES IDX 22 37 23 38 24 39 25 40 26 41 27 42 28 43 80 44 29 45 79 46
REMARK SMILES IDX 30 47 31 48 32 49 73 50 33 51 78 52 72 53 74 54 34 55 77 56
REMARK SMILES IDX 71 57 70 58 35 60 61 61 44 62 60 63 45 64 48 65 59 66 75 67
REMARK SMILES IDX 46 68 47 69 58 71 76 72 49 73 36 74 37 75 42 76 38 77 39 78
REMARK SMILES IDX 41 79 43 80 40 81 62 82 63 83 68 84 64 85 65 86 67 87 69 88
REMARK SMILES IDX 66 89 50 90 51 91 56 92 52 93 53 94 55 95 57 96 54 97
REMARK H PARENT 5 14 8 17 83 28 74 59 48 70
REMARK Flexibility Score: inf
ROOT
ATOM      1  C   UNL A   1      38.262  23.577  26.448  1.00  0.00     0.188 C 
ENDROOT
BRANCH   1   2
ATOM      2  C   UNL A   1      37.578  22.473  25.645  1.00  0.00     0.188 C 
BRANCH   2   3
ATOM      3  O   UNL A   1      36.243  22.772  25.238  1.00  0.00    -0.376 OA
BRANCH   3   4
ATOM      4  C   UNL A   1      36.092  23.708  24.170  1.00  0.00     0.202 C 
BRANCH   4   5
ATOM      5  C   UNL A   1      34.751  24.460  24.126  1.00  0.00     0.261 C 
BRANCH   5   6
ATOM      6  O   UNL A   1      34.195  24.562  22.792  1.00  0.00    -0.459 OA
BRANCH   6   7
ATOM      7  C   UNL A   1      32.889  24.875  22.569  1.00  0.00     0.370 C 
ATOM      8  O   UNL A   1      32.515  25.370  21.508  1.00  0.00    -0.245 OA
BRANCH   7   9
ATOM      9  C   UNL A   1      31.906  24.579  23.760  1.00  0.00     0.328 C 
BRANCH   9  10
ATOM     10  N   UNL A   1      31.300  23.176  23.943  1.00  0.00    -0.310 N 
ATOM     11  N   UNL A   1      33.235  21.212  25.196  1.00  0.00    -0.325 N 
ATOM     12  C   UNL A   1      33.202  21.459  23.754  1.00  0.00     0.324 C 
ATOM     13  C   UNL A   1      32.476  22.241  25.911  1.00  0.00     0.324 C 
ATOM     14  H   UNL A   1      34.181  21.355  25.548  1.00  0.00     0.348 HD
ATOM     15  C   UNL A   1      31.861  22.017  23.214  1.00  0.00     0.325 C 
ATOM     16  C   UNL A   1      31.122  22.701  25.321  1.00  0.00     0.325 C 
ATOM     17  H   UNL A   1      30.419  23.438  23.502  1.00  0.00     0.349 HD
BRANCH  11  18
ATOM     18  C   UNL A   1      33.180  19.817  25.606  1.00  0.00     0.278 C 
BRANCH  18  19
ATOM     19  C   UNL A   1      32.848  18.828  24.466  1.00  0.00     0.181 C 
BRANCH  19  20
ATOM     20  C   UNL A   1      32.812  17.480  25.168  1.00  0.00     0.068 C 
ATOM     21  N   UNL A   1      32.781  16.363  25.750  1.00  0.00    -0.198 NA
ENDBRANCH  19  20
ENDBRANCH  18  19
ENDBRANCH  11  18
ENDBRANCH   9  10
BRANCH   9  22
ATOM     22  C   UNL A   1      31.068  25.735  24.374  1.00  0.00     0.046 A 
ATOM     23  C   UNL A   1      29.894  26.237  23.818  1.00  0.00     0.094 A 
ATOM     24  C   UNL A   1      31.299  26.798  25.315  1.00  0.00     0.009 A 
ATOM     25  N   UNL A   1      30.214  27.548  23.555  1.00  0.00    -0.361 N 
ATOM     26  C   UNL A   1      31.022  27.962  24.586  1.00  0.00     0.047 A 
ATOM     27  C   UNL A   1      31.577  26.988  26.682  1.00  0.00     0.012 A 
ATOM     28  H   UNL A   1      29.923  28.085  22.782  1.00  0.00     0.166 HD
ATOM     29  C   UNL A   1      31.417  29.242  24.968  1.00  0.00     0.047 A 
ATOM     30  C   UNL A   1      31.792  28.297  27.168  1.00  0.00     0.021 A 
ATOM     31  C   UNL A   1      31.793  29.387  26.298  1.00  0.00     0.043 A 
ATOM     32  Cl  UNL A   1      32.180  30.962  26.878  1.00  0.00    -0.084 Cl
ENDBRANCH   9  22
ENDBRANCH   7   9
ENDBRANCH   6   7
ENDBRANCH   5   6
ENDBRANCH   4   5
ENDBRANCH   3   4
ENDBRANCH   2   3
ENDBRANCH   1   2
BRANCH   1  33
ATOM     33  O   UNL A   1      39.645  23.320  26.588  1.00  0.00    -0.377 OA
BRANCH  33  34
ATOM     34  C   UNL A   1      40.072  21.977  26.743  1.00  0.00     0.188 C 
BRANCH  34  35
ATOM     35  C   UNL A   1      41.089  21.660  27.836  1.00  0.00     0.188 C 
BRANCH  35  36
ATOM     36  O   UNL A   1      42.171  20.800  27.492  1.00  0.00    -0.376 OA
BRANCH  36  37
ATOM     37  C   UNL A   1      41.906  19.413  27.292  1.00  0.00     0.202 C 
BRANCH  37  38
ATOM     38  C   UNL A   1      42.630  18.720  26.138  1.00  0.00     0.261 C 
BRANCH  38  39
ATOM     39  O   UNL A   1      42.873  19.599  25.033  1.00  0.00    -0.460 OA
BRANCH  39  40
ATOM     40  C   UNL A   1      44.165  19.658  24.626  1.00  0.00     0.338 C 
ATOM     41  O   UNL A   1      44.810  18.824  24.039  1.00  0.00    -0.246 OA
BRANCH  40  42
ATOM     42  C   UNL A   1      44.640  21.022  24.896  1.00  0.00     0.060 A 
ATOM     43  C   UNL A   1      45.247  21.292  26.127  1.00  0.00     0.016 A 
ATOM     44  C   UNL A   1      44.447  22.026  23.947  1.00  0.00     0.016 A 
ATOM     45  C   UNL A   1      45.647  22.587  26.427  1.00  0.00     0.010 A 
ATOM     46  C   UNL A   1      44.841  23.327  24.250  1.00  0.00     0.010 A 
ATOM     47  C   UNL A   1      45.401  23.613  25.507  1.00  0.00    -0.014 A 
BRANCH  47  48
ATOM     48  C   UNL A   1      45.470  25.010  25.974  1.00  0.00     0.031 A 
ATOM     49  C   UNL A   1      46.803  25.699  25.893  1.00  0.00     0.074 A 
ATOM     50  C   UNL A   1      44.374  25.654  26.403  1.00  0.00     0.049 A 
ATOM     51  N   UNL A   1      47.144  26.898  26.280  1.00  0.00    -0.248 NA
ATOM     52  C   UNL A   1      47.906  24.919  25.303  1.00  0.00     0.031 C 
ATOM     53  C   UNL A   1      43.027  25.089  26.466  1.00  0.00     0.029 A 
ATOM     54  N   UNL A   1      44.227  26.933  26.870  1.00  0.00    -0.354 N 
ATOM     55  C   UNL A   1      48.499  27.008  25.994  1.00  0.00     0.074 A 
ATOM     56  C   UNL A   1      48.929  25.745  25.442  1.00  0.00     0.031 C 
ATOM     57  C   UNL A   1      42.188  26.019  26.955  1.00  0.00     0.029 A 
ATOM     58  C   UNL A   1      42.947  27.227  27.269  1.00  0.00     0.049 A 
ATOM     59  H   UNL A   1      44.969  27.578  26.916  1.00  0.00     0.167 HD
ATOM     60  C   UNL A   1      49.307  28.078  26.163  1.00  0.00     0.037 A 
ATOM     61  C   UNL A   1      42.462  28.343  27.843  1.00  0.00     0.037 A 
ATOM     62  C   UNL A   1      48.859  29.331  26.705  1.00  0.00     0.049 A 
ATOM     63  C   UNL A   1      43.400  29.498  28.091  1.00  0.00     0.074 A 
ATOM     64  C   UNL A   1      49.584  30.488  26.915  1.00  0.00     0.029 A 
ATOM     65  N   UNL A   1      47.561  29.584  27.127  1.00  0.00    -0.354 N 
ATOM     66  N   UNL A   1      44.677  29.603  27.807  1.00  0.00    -0.248 NA
ATOM     67  C   UNL A   1      42.828  30.688  28.735  1.00  0.00     0.031 C 
ATOM     68  C   UNL A   1      48.740  31.423  27.520  1.00  0.00     0.029 A 
ATOM     69  C   UNL A   1      47.471  30.872  27.623  1.00  0.00     0.049 A 
ATOM     70  H   UNL A   1      46.816  28.942  27.080  1.00  0.00     0.167 HD
ATOM     71  C   UNL A   1      45.053  30.879  28.207  1.00  0.00     0.074 A 
ATOM     72  C   UNL A   1      43.865  31.514  28.741  1.00  0.00     0.031 C 
ATOM     73  C   UNL A   1      46.269  31.478  28.138  1.00  0.00     0.037 A 
BRANCH  60  74
ATOM     74  C   UNL A   1      50.752  27.917  25.793  1.00  0.00     0.057 A 
ATOM     75  C   UNL A   1      51.749  27.694  26.753  1.00  0.00     0.134 A 
ATOM     76  C   UNL A   1      51.153  27.986  24.453  1.00  0.00     0.134 A 
ATOM     77  F   UNL A   1      51.438  27.643  28.058  1.00  0.00    -0.206 F 
ATOM     78  C   UNL A   1      53.093  27.571  26.396  1.00  0.00     0.040 A 
ATOM     79  C   UNL A   1      52.489  27.833  24.081  1.00  0.00     0.040 A 
ATOM     80  F   UNL A   1      50.251  28.203  23.483  1.00  0.00    -0.206 F 
ATOM     81  C   UNL A   1      53.464  27.633  25.054  1.00  0.00     0.006 A 
ENDBRANCH  60  74
BRANCH  61  82
ATOM     82  C   UNL A   1      41.032  28.421  28.236  1.00  0.00     0.057 A 
ATOM     83  C   UNL A   1      40.059  28.908  27.355  1.00  0.00     0.134 A 
ATOM     84  C   UNL A   1      40.604  28.027  29.510  1.00  0.00     0.134 A 
ATOM     85  F   UNL A   1      40.407  29.319  26.126  1.00  0.00    -0.206 F 
ATOM     86  C   UNL A   1      38.720  29.019  27.731  1.00  0.00     0.040 A 
ATOM     87  C   UNL A   1      39.264  28.105  29.891  1.00  0.00     0.040 A 
ATOM     88  F   UNL A   1      41.485  27.553  30.403  1.00  0.00    -0.206 F 
ATOM     89  C   UNL A   1      38.318  28.613  29.002  1.00  0.00     0.006 A 
ENDBRANCH  61  82
BRANCH  73  90
ATOM     90  C   UNL A   1      46.363  32.901  28.608  1.00  0.00     0.057 A 
ATOM     91  C   UNL A   1      46.048  33.982  27.775  1.00  0.00     0.134 A 
ATOM     92  C   UNL A   1      46.724  33.187  29.931  1.00  0.00     0.134 A 
ATOM     93  F   UNL A   1      45.704  33.775  26.495  1.00  0.00    -0.206 F 
ATOM     94  C   UNL A   1      46.115  35.298  28.234  1.00  0.00     0.040 A 
ATOM     95  C   UNL A   1      46.762  34.497  30.411  1.00  0.00     0.040 A 
ATOM     96  F   UNL A   1      47.023  32.197  30.787  1.00  0.00    -0.206 F 
ATOM     97  C   UNL A   1      46.465  35.557  29.558  1.00  0.00     0.006 A 
ENDBRANCH  73  90
ENDBRANCH  47  48
ENDBRANCH  40  42
ENDBRANCH  39  40
ENDBRANCH  38  39
ENDBRANCH  37  38
ENDBRANCH  36  37
ENDBRANCH  35  36
ENDBRANCH  34  35
ENDBRANCH  33  34
ENDBRANCH   1  33
TORSDOF 25
ENDMDL
MODEL 2
REMARK VINA RESULT:      -9.5      1.798      4.248
REMARK SMILES N#CCC[NH+]1CC[NH+]([C@@H](C(=O)OCCOCCOCCOCCOC(=O)c2ccc(-c3c4nc(c(-c5c(F)cccc5F)c5ccc([nH]5)c(-c5c(F)cccc5F)c5nc(c(-c6c(F)cccc6F)c6ccc3[nH]6)C=C5)C=C4)cc2)c2c[nH]c3cc(Cl)ccc23)CC1
REMARK SMILES IDX 17 1 16 2 15 3 14 4 13 5 12 6 10 7 11 8 9 9 8 10 5 11 6 12
REMARK SMILES IDX 92 13 7 15 91 16 4 18 3 19 2 20 1 21 81 22 82 23 90 24 83 25
REMARK SMILES IDX 84 26 89 27 85 29 88 30 86 31 87 32 18 33 19 34 20 35 21 36
REMARK SMILES IDX 22 37 23 38 24 39 25 40 26 41 27 42 28 43 80 44 29 45 79 46
REMARK SMILES IDX 30 47 31 48 32 49 73 50 33 51 78 52 72 53 74 54 34 55 77 56
REMARK SMILES IDX 71 57 70 58 35 60 61 61 44 62 60 63 45 64 48 65 59 66 75 67
REMARK SMILES IDX 46 68 47 69 58 71 76 72 49 73 36 74 37 75 42 76 38 77 39 78
REMARK SMILES IDX 41 79 43 80 40 81 62 82 63 83 68 84 64 85 65 86 67 87 69 88
REMARK SMILES IDX 66 89 50 90 51 91 56 92 52 93 53 94 55 95 57 96 54 97
REMARK H PARENT 5 14 8 17 83 28 74 59 48 70
REMARK Flexibility Score: inf
ROOT
ATOM      1  C   UNL A   1      37.931  22.247  25.952  1.00  0.00     0.188 C 
ENDROOT
BRANCH   1   2
ATOM      2  C   UNL A   1      37.548  21.121  24.995  1.00  0.00     0.188 C 
BRANCH   2   3
ATOM      3  O   UNL A   1      36.638  21.499  23.962  1.00  0.00    -0.376 OA
BRANCH   3   4
ATOM      4  C   UNL A   1      36.692  22.858  23.526  1.00  0.00     0.202 C 
BRANCH   4   5
ATOM      5  C   UNL A   1      35.486  23.732  23.913  1.00  0.00     0.261 C 
BRANCH   5   6
ATOM      6  O   UNL A   1      34.638  24.067  22.788  1.00  0.00    -0.459 OA
BRANCH   6   7
ATOM      7  C   UNL A   1      33.471  24.754  22.935  1.00  0.00     0.370 C 
ATOM      8  O   UNL A   1      33.109  25.595  22.114  1.00  0.00    -0.245 OA
BRANCH   7   9
ATOM      9  C   UNL A   1      32.639  24.414  24.224  1.00  0.00     0.328 C 
BRANCH   9  10
ATOM     10  N   UNL A   1      33.002  25.047  25.579  1.00  0.00    -0.310 N 
ATOM     11  N   UNL A   1      31.688  27.740  26.009  1.00  0.00    -0.325 N 
ATOM     12  C   UNL A   1      32.959  27.600  25.298  1.00  0.00     0.324 C 
ATOM     13  C   UNL A   1      31.039  26.436  26.164  1.00  0.00     0.324 C 
ATOM     14  H   UNL A   1      31.022  28.248  25.427  1.00  0.00     0.348 HD
ATOM     15  C   UNL A   1      33.760  26.317  25.632  1.00  0.00     0.325 C 
ATOM     16  C   UNL A   1      31.913  25.220  26.548  1.00  0.00     0.325 C 
ATOM     17  H   UNL A   1      33.632  24.285  25.830  1.00  0.00     0.349 HD
BRANCH  11  18
ATOM     18  C   UNL A   1      31.661  28.724  27.081  1.00  0.00     0.278 C 
BRANCH  18  19
ATOM     19  C   UNL A   1      32.758  29.808  26.982  1.00  0.00     0.181 C 
BRANCH  19  20
ATOM     20  C   UNL A   1      31.970  31.089  26.763  1.00  0.00     0.068 C 
ATOM     21  N   UNL A   1      31.316  32.151  26.581  1.00  0.00    -0.198 NA
ENDBRANCH  19  20
ENDBRANCH  18  19
ENDBRANCH  11  18
ENDBRANCH   9  10
BRANCH   9  22
ATOM     22  C   UNL A   1      31.886  23.056  24.321  1.00  0.00     0.046 A 
ATOM     23  C   UNL A   1      31.016  22.711  25.352  1.00  0.00     0.094 A 
ATOM     24  C   UNL A   1      32.040  21.742  23.758  1.00  0.00     0.009 A 
ATOM     25  N   UNL A   1      31.625  21.614  25.914  1.00  0.00    -0.361 N 
ATOM     26  C   UNL A   1      32.183  20.909  24.876  1.00  0.00     0.047 A 
ATOM     27  C   UNL A   1      31.967  21.084  22.515  1.00  0.00     0.012 A 
ATOM     28  H   UNL A   1      31.654  21.379  26.870  1.00  0.00     0.166 HD
ATOM     29  C   UNL A   1      32.683  19.609  24.830  1.00  0.00     0.047 A 
ATOM     30  C   UNL A   1      32.273  19.707  22.444  1.00  0.00     0.021 A 
ATOM     31  C   UNL A   1      32.704  19.014  23.574  1.00  0.00     0.043 A 
ATOM     32  Cl  UNL A   1      33.195  17.367  23.451  1.00  0.00    -0.084 Cl
ENDBRANCH   9  22
ENDBRANCH   7   9
ENDBRANCH   6   7
ENDBRANCH   5   6
ENDBRANCH   4   5
ENDBRANCH   3   4
ENDBRANCH   2   3
ENDBRANCH   1   2
BRANCH   1  33
ATOM     33  O   UNL A   1      39.334  22.391  26.031  1.00  0.00    -0.377 OA
BRANCH  33  34
ATOM     34  C   UNL A   1      40.111  21.262  26.395  1.00  0.00     0.188 C 
BRANCH  34  35
ATOM     35  C   UNL A   1      41.157  21.424  27.494  1.00  0.00     0.188 C 
BRANCH  35  36
ATOM     36  O   UNL A   1      42.332  20.624  27.402  1.00  0.00    -0.376 OA
BRANCH  36  37
ATOM     37  C   UNL A   1      42.193  19.233  27.120  1.00  0.00     0.202 C 
BRANCH  37  38
ATOM     38  C   UNL A   1      42.936  18.687  25.900  1.00  0.00     0.261 C 
BRANCH  38  39
ATOM     39  O   UNL A   1      43.163  19.688  24.900  1.00  0.00    -0.460 OA
BRANCH  39  40
ATOM     40  C   UNL A   1      44.446  19.785  24.474  1.00  0.00     0.338 C 
ATOM     41  O   UNL A   1      45.093  18.988  23.839  1.00  0.00    -0.246 OA
BRANCH  40  42
ATOM     42  C   UNL A   1      44.905  21.144  24.795  1.00  0.00     0.060 A 
ATOM     43  C   UNL A   1      45.450  21.389  26.060  1.00  0.00     0.016 A 
ATOM     44  C   UNL A   1      44.757  22.167  23.859  1.00  0.00     0.016 A 
ATOM     45  C   UNL A   1      45.832  22.677  26.406  1.00  0.00     0.010 A 
ATOM     46  C   UNL A   1      45.133  23.462  24.208  1.00  0.00     0.010 A 
ATOM     47  C   UNL A   1      45.630  23.722  25.497  1.00  0.00    -0.014 A 
BRANCH  47  48
ATOM     48  C   UNL A   1      45.673  25.109  25.995  1.00  0.00     0.031 A 
ATOM     49  C   UNL A   1      46.994  25.822  25.935  1.00  0.00     0.074 A 
ATOM     50  C   UNL A   1      44.565  25.725  26.435  1.00  0.00     0.049 A 
ATOM     51  N   UNL A   1      47.313  27.018  26.350  1.00  0.00    -0.248 NA
ATOM     52  C   UNL A   1      48.113  25.075  25.331  1.00  0.00     0.031 C 
ATOM     53  C   UNL A   1      43.228  25.135  26.480  1.00  0.00     0.029 A 
ATOM     54  N   UNL A   1      44.395  26.989  26.931  1.00  0.00    -0.354 N 
ATOM     55  C   UNL A   1      48.667  27.158  26.071  1.00  0.00     0.074 A 
ATOM     56  C   UNL A   1      49.121  25.915  25.493  1.00  0.00     0.031 C 
ATOM     57  C   UNL A   1      42.371  26.039  26.987  1.00  0.00     0.029 A 
ATOM     58  C   UNL A   1      43.109  27.253  27.332  1.00  0.00     0.049 A 
ATOM     59  H   UNL A   1      45.126  27.646  26.994  1.00  0.00     0.167 HD
ATOM     60  C   UNL A   1      49.456  28.237  26.268  1.00  0.00     0.037 A 
ATOM     61  C   UNL A   1      42.603  28.347  27.930  1.00  0.00     0.037 A 
ATOM     62  C   UNL A   1      48.985  29.470  26.836  1.00  0.00     0.049 A 
ATOM     63  C   UNL A   1      43.519  29.511  28.207  1.00  0.00     0.074 A 
ATOM     64  C   UNL A   1      49.690  30.634  27.075  1.00  0.00     0.029 A 
ATOM     65  N   UNL A   1      47.682  29.691  27.260  1.00  0.00    -0.354 N 
ATOM     66  N   UNL A   1      44.795  29.645  27.930  1.00  0.00    -0.248 NA
ATOM     67  C   UNL A   1      42.925  30.676  28.875  1.00  0.00     0.031 C 
ATOM     68  C   UNL A   1      48.827  31.541  27.698  1.00  0.00     0.029 A 
ATOM     69  C   UNL A   1      47.568  30.965  27.785  1.00  0.00     0.049 A 
ATOM     70  H   UNL A   1      46.948  29.037  27.196  1.00  0.00     0.167 HD
ATOM     71  C   UNL A   1      45.148  30.918  28.360  1.00  0.00     0.074 A 
ATOM     72  C   UNL A   1      43.948  31.520  28.904  1.00  0.00     0.031 C 
ATOM     73  C   UNL A   1      46.354  31.539  28.309  1.00  0.00     0.037 A 
BRANCH  60  74
ATOM     74  C   UNL A   1      50.905  28.110  25.899  1.00  0.00     0.057 A 
ATOM     75  C   UNL A   1      51.353  28.231  24.576  1.00  0.00     0.134 A 
ATOM     76  C   UNL A   1      51.869  27.862  26.885  1.00  0.00     0.134 A 
ATOM     77  F   UNL A   1      50.480  28.442  23.578  1.00  0.00    -0.206 F 
ATOM     78  C   UNL A   1      52.701  28.085  24.245  1.00  0.00     0.040 A 
ATOM     79  C   UNL A   1      53.223  27.745  26.570  1.00  0.00     0.040 A 
ATOM     80  F   UNL A   1      51.508  27.730  28.170  1.00  0.00    -0.206 F 
ATOM     81  C   UNL A   1      53.641  27.849  25.246  1.00  0.00     0.006 A 
ENDBRANCH  60  74
BRANCH  61  82
ATOM     82  C   UNL A   1      41.170  28.391  28.319  1.00  0.00     0.057 A 
ATOM     83  C   UNL A   1      40.185  28.831  27.427  1.00  0.00     0.134 A 
ATOM     84  C   UNL A   1      40.752  28.012  29.601  1.00  0.00     0.134 A 
ATOM     85  F   UNL A   1      40.523  29.226  26.190  1.00  0.00    -0.206 F 
ATOM     86  C   UNL A   1      38.842  28.911  27.799  1.00  0.00     0.040 A 
ATOM     87  C   UNL A   1      39.409  28.059  29.978  1.00  0.00     0.040 A 
ATOM     88  F   UNL A   1      41.645  27.582  30.505  1.00  0.00    -0.206 F 
ATOM     89  C   UNL A   1      38.451  28.519  29.078  1.00  0.00     0.006 A 
ENDBRANCH  61  82
BRANCH  73  90
ATOM     90  C   UNL A   1      46.422  32.952  28.811  1.00  0.00     0.057 A 
ATOM     91  C   UNL A   1      46.728  33.255  30.143  1.00  0.00     0.134 A 
ATOM     92  C   UNL A   1      46.228  34.026  27.931  1.00  0.00     0.134 A 
ATOM     93  F   UNL A   1      46.915  32.273  31.038  1.00  0.00    -0.206 F 
ATOM     94  C   UNL A   1      46.813  34.575  30.588  1.00  0.00     0.040 A 
ATOM     95  C   UNL A   1      46.344  35.349  28.357  1.00  0.00     0.040 A 
ATOM     96  F   UNL A   1      45.947  33.806  26.637  1.00  0.00    -0.206 F 
ATOM     97  C   UNL A   1      46.630  35.626  29.692  1.00  0.00     0.006 A 
ENDBRANCH  73  90
ENDBRANCH  47  48
ENDBRANCH  40  42
ENDBRANCH  39  40
ENDBRANCH  38  39
ENDBRANCH  37  38
ENDBRANCH  36  37
ENDBRANCH  35  36
ENDBRANCH  34  35
ENDBRANCH  33  34
ENDBRANCH   1  33
TORSDOF 25
ENDMDL
MODEL 3
REMARK VINA RESULT:      -9.4      1.832      4.325
REMARK SMILES N#CCC[NH+]1CC[NH+]([C@@H](C(=O)OCCOCCOCCOCCOC(=O)c2ccc(-c3c4nc(c(-c5c(F)cccc5F)c5ccc([nH]5)c(-c5c(F)cccc5F)c5nc(c(-c6c(F)cccc6F)c6ccc3[nH]6)C=C5)C=C4)cc2)c2c[nH]c3cc(Cl)ccc23)CC1
REMARK SMILES IDX 17 1 16 2 15 3 14 4 13 5 12 6 10 7 11 8 9 9 8 10 5 11 6 12
REMARK SMILES IDX 92 13 7 15 91 16 4 18 3 19 2 20 1 21 81 22 82 23 90 24 83 25
REMARK SMILES IDX 84 26 89 27 85 29 88 30 86 31 87 32 18 33 19 34 20 35 21 36
REMARK SMILES IDX 22 37 23 38 24 39 25 40 26 41 27 42 28 43 80 44 29 45 79 46
REMARK SMILES IDX 30 47 31 48 32 49 73 50 33 51 78 52 72 53 74 54 34 55 77 56
REMARK SMILES IDX 71 57 70 58 35 60 61 61 44 62 60 63 45 64 48 65 59 66 75 67
REMARK SMILES IDX 46 68 47 69 58 71 76 72 49 73 36 74 37 75 42 76 38 77 39 78
REMARK SMILES IDX 41 79 43 80 40 81 62 82 63 83 68 84 64 85 65 86 67 87 69 88
REMARK SMILES IDX 66 89 50 90 51 91 56 92 52 93 53 94 55 95 57 96 54 97
REMARK H PARENT 5 14 8 17 83 28 74 59 48 70
REMARK Flexibility Score: inf
ROOT
ATOM      1  C   UNL A   1      37.512  22.749  26.392  1.00  0.00     0.188 C 
ENDROOT
BRANCH   1   2
ATOM      2  C   UNL A   1      37.035  22.404  24.983  1.00  0.00     0.188 C 
BRANCH   2   3
ATOM      3  O   UNL A   1      36.152  23.362  24.401  1.00  0.00    -0.376 OA
BRANCH   3   4
ATOM      4  C   UNL A   1      35.662  24.389  25.264  1.00  0.00     0.202 C 
BRANCH   4   5
ATOM      5  C   UNL A   1      34.493  25.223  24.713  1.00  0.00     0.261 C 
BRANCH   5   6
ATOM      6  O   UNL A   1      34.379  25.168  23.270  1.00  0.00    -0.459 OA
BRANCH   6   7
ATOM      7  C   UNL A   1      33.275  25.613  22.609  1.00  0.00     0.370 C 
ATOM      8  O   UNL A   1      33.347  26.079  21.473  1.00  0.00    -0.245 OA
BRANCH   7   9
ATOM      9  C   UNL A   1      31.921  25.508  23.399  1.00  0.00     0.328 C 
BRANCH   9  10
ATOM     10  N   UNL A   1      31.370  26.721  24.171  1.00  0.00    -0.310 N 
ATOM     11  N   UNL A   1      30.247  28.864  22.351  1.00  0.00    -0.325 N 
ATOM     12  C   UNL A   1      31.669  28.802  22.696  1.00  0.00     0.324 C 
ATOM     13  C   UNL A   1      29.574  27.618  22.723  1.00  0.00     0.324 C 
ATOM     14  H   UNL A   1      30.140  28.876  21.337  1.00  0.00     0.348 HD
ATOM     15  C   UNL A   1      31.992  28.054  24.013  1.00  0.00     0.325 C 
ATOM     16  C   UNL A   1      29.926  26.968  24.082  1.00  0.00     0.325 C 
ATOM     17  H   UNL A   1      31.648  26.341  25.076  1.00  0.00     0.349 HD
BRANCH  11  18
ATOM     18  C   UNL A   1      29.600  30.154  22.540  1.00  0.00     0.278 C 
BRANCH  18  19
ATOM     19  C   UNL A   1      28.318  30.354  21.701  1.00  0.00     0.181 C 
BRANCH  19  20
ATOM     20  C   UNL A   1      28.154  31.865  21.662  1.00  0.00     0.068 C 
ATOM     21  N   UNL A   1      28.019  33.117  21.630  1.00  0.00    -0.198 NA
ENDBRANCH  19  20
ENDBRANCH  18  19
ENDBRANCH  11  18
ENDBRANCH   9  10
BRANCH   9  22
ATOM     22  C   UNL A   1      31.441  24.127  23.928  1.00  0.00     0.046 A 
ATOM     23  C   UNL A   1      30.712  23.944  25.100  1.00  0.00     0.094 A 
ATOM     24  C   UNL A   1      31.802  22.751  23.715  1.00  0.00     0.009 A 
ATOM     25  N   UNL A   1      31.545  23.159  25.861  1.00  0.00    -0.361 N 
ATOM     26  C   UNL A   1      32.163  22.295  24.990  1.00  0.00     0.047 A 
ATOM     27  C   UNL A   1      31.780  21.773  22.703  1.00  0.00     0.012 A 
ATOM     28  H   UNL A   1      31.674  23.206  26.836  1.00  0.00     0.166 HD
ATOM     29  C   UNL A   1      32.892  21.133  25.234  1.00  0.00     0.047 A 
ATOM     30  C   UNL A   1      32.332  20.498  22.963  1.00  0.00     0.021 A 
ATOM     31  C   UNL A   1      32.949  20.225  24.183  1.00  0.00     0.043 A 
ATOM     32  Cl  UNL A   1      33.730  18.712  24.443  1.00  0.00    -0.084 Cl
ENDBRANCH   9  22
ENDBRANCH   7   9
ENDBRANCH   6   7
ENDBRANCH   5   6
ENDBRANCH   4   5
ENDBRANCH   3   4
ENDBRANCH   2   3
ENDBRANCH   1   2
BRANCH   1  33
ATOM     33  O   UNL A   1      38.909  22.959  26.418  1.00  0.00    -0.377 OA
BRANCH  33  34
ATOM     34  C   UNL A   1      39.765  21.830  26.414  1.00  0.00     0.188 C 
BRANCH  34  35
ATOM     35  C   UNL A   1      41.146  21.962  27.048  1.00  0.00     0.188 C 
BRANCH  35  36
ATOM     36  O   UNL A   1      42.203  21.195  26.480  1.00  0.00    -0.376 OA
BRANCH  36  37
ATOM     37  C   UNL A   1      42.194  19.780  26.659  1.00  0.00     0.202 C 
BRANCH  37  38
ATOM     38  C   UNL A   1      43.072  18.949  25.723  1.00  0.00     0.261 C 
BRANCH  38  39
ATOM     39  O   UNL A   1      43.420  19.653  24.525  1.00  0.00    -0.460 OA
BRANCH  39  40
ATOM     40  C   UNL A   1      44.750  19.721  24.271  1.00  0.00     0.338 C 
ATOM     41  O   UNL A   1      45.463  18.896  23.754  1.00  0.00    -0.246 OA
BRANCH  40  42
ATOM     42  C   UNL A   1      45.183  21.085  24.607  1.00  0.00     0.060 A 
ATOM     43  C   UNL A   1      45.710  21.330  25.880  1.00  0.00     0.016 A 
ATOM     44  C   UNL A   1      45.030  22.112  23.676  1.00  0.00     0.016 A 
ATOM     45  C   UNL A   1      46.068  22.621  26.239  1.00  0.00     0.010 A 
ATOM     46  C   UNL A   1      45.381  23.411  24.038  1.00  0.00     0.010 A 
ATOM     47  C   UNL A   1      45.859  23.669  25.335  1.00  0.00    -0.014 A 
BRANCH  47  48
ATOM     48  C   UNL A   1      45.875  25.053  25.843  1.00  0.00     0.031 A 
ATOM     49  C   UNL A   1      47.188  25.782  25.817  1.00  0.00     0.074 A 
ATOM     50  C   UNL A   1      44.750  25.652  26.262  1.00  0.00     0.049 A 
ATOM     51  N   UNL A   1      47.483  26.978  26.247  1.00  0.00    -0.248 NA
ATOM     52  C   UNL A   1      48.329  25.052  25.234  1.00  0.00     0.031 C 
ATOM     53  C   UNL A   1      43.419  25.047  26.273  1.00  0.00     0.029 A 
ATOM     54  N   UNL A   1      44.553  26.912  26.762  1.00  0.00    -0.354 N 
ATOM     55  C   UNL A   1      48.842  27.136  25.999  1.00  0.00     0.074 A 
ATOM     56  C   UNL A   1      49.323  25.903  25.423  1.00  0.00     0.031 C 
ATOM     57  C   UNL A   1      42.540  25.937  26.766  1.00  0.00     0.029 A 
ATOM     58  C   UNL A   1      43.255  27.157  27.136  1.00  0.00     0.049 A 
ATOM     59  H   UNL A   1      45.274  27.577  26.846  1.00  0.00     0.167 HD
ATOM     60  C   UNL A   1      49.613  28.224  26.221  1.00  0.00     0.037 A 
ATOM     61  C   UNL A   1      42.723  28.241  27.729  1.00  0.00     0.037 A 
ATOM     62  C   UNL A   1      49.115  29.447  26.787  1.00  0.00     0.049 A 
ATOM     63  C   UNL A   1      43.619  29.414  28.034  1.00  0.00     0.074 A 
ATOM     64  C   UNL A   1      49.800  30.618  27.048  1.00  0.00     0.029 A 
ATOM     65  N   UNL A   1      47.800  29.650  27.182  1.00  0.00    -0.354 N 
ATOM     66  N   UNL A   1      44.899  29.565  27.787  1.00  0.00    -0.248 NA
ATOM     67  C   UNL A   1      42.997  30.568  28.696  1.00  0.00     0.031 C 
ATOM     68  C   UNL A   1      48.913  31.510  27.658  1.00  0.00     0.029 A 
ATOM     69  C   UNL A   1      47.658  30.919  27.713  1.00  0.00     0.049 A 
ATOM     70  H   UNL A   1      47.075  28.988  27.097  1.00  0.00     0.167 HD
ATOM     71  C   UNL A   1      45.227  30.839  28.233  1.00  0.00     0.074 A 
ATOM     72  C   UNL A   1      44.008  31.423  28.754  1.00  0.00     0.031 C 
ATOM     73  C   UNL A   1      46.426  31.474  28.213  1.00  0.00     0.037 A 
BRANCH  60  74
ATOM     74  C   UNL A   1      51.071  28.116  25.884  1.00  0.00     0.057 A 
ATOM     75  C   UNL A   1      52.047  27.866  26.859  1.00  0.00     0.134 A 
ATOM     76  C   UNL A   1      51.506  28.264  24.561  1.00  0.00     0.134 A 
ATOM     77  F   UNL A   1      51.702  27.740  28.150  1.00  0.00    -0.206 F 
ATOM     78  C   UNL A   1      53.402  27.793  26.535  1.00  0.00     0.040 A 
ATOM     79  C   UNL A   1      52.855  28.162  24.219  1.00  0.00     0.040 A 
ATOM     80  F   UNL A   1      50.626  28.510  23.579  1.00  0.00    -0.206 F 
ATOM     81  C   UNL A   1      53.808  27.933  25.209  1.00  0.00     0.006 A 
ENDBRANCH  60  74
BRANCH  61  82
ATOM     82  C   UNL A   1      41.282  28.266  28.086  1.00  0.00     0.057 A 
ATOM     83  C   UNL A   1      40.822  27.740  29.299  1.00  0.00     0.134 A 
ATOM     84  C   UNL A   1      40.325  28.801  27.214  1.00  0.00     0.134 A 
ATOM     85  F   UNL A   1      41.686  27.196  30.169  1.00  0.00    -0.206 F 
ATOM     86  C   UNL A   1      39.464  27.726  29.624  1.00  0.00     0.040 A 
ATOM     87  C   UNL A   1      38.967  28.821  27.538  1.00  0.00     0.040 A 
ATOM     88  F   UNL A   1      40.698  29.320  26.035  1.00  0.00    -0.206 F 
ATOM     89  C   UNL A   1      38.533  28.273  28.743  1.00  0.00     0.006 A 
ENDBRANCH  61  82
BRANCH  73  90
ATOM     90  C   UNL A   1      46.466  32.885  28.726  1.00  0.00     0.057 A 
ATOM     91  C   UNL A   1      46.229  33.986  27.894  1.00  0.00     0.134 A 
ATOM     92  C   UNL A   1      46.694  33.138  30.085  1.00  0.00     0.134 A 
ATOM     93  F   UNL A   1      46.013  33.812  26.581  1.00  0.00    -0.206 F 
ATOM     94  C   UNL A   1      46.243  35.290  28.391  1.00  0.00     0.040 A 
ATOM     95  C   UNL A   1      46.679  34.435  30.599  1.00  0.00     0.040 A 
ATOM     96  F   UNL A   1      46.914  32.127  30.940  1.00  0.00    -0.206 F 
ATOM     97  C   UNL A   1      46.460  35.516  29.749  1.00  0.00     0.006 A 
ENDBRANCH  73  90
ENDBRANCH  47  48
ENDBRANCH  40  42
ENDBRANCH  39  40
ENDBRANCH  38  39
ENDBRANCH  37  38
ENDBRANCH  36  37
ENDBRANCH  35  36
ENDBRANCH  34  35
ENDBRANCH  33  34
ENDBRANCH   1  33
TORSDOF 25
ENDMDL
