MODEL 1
REMARK VINA RESULT:      -9.8      0.000      0.000
REMARK SMILES COc1ncccc1C[C@H](C(=O)OCCOCCOCCOCCOC(=O)c1ccc(-c2c3nc(c(-c4c(F)cccc4F)c4ccc([nH]4)c(-c4c(F)cccc4F)c4nc(c(-c5c(F)cccc5F)c5ccc2[nH]5)C=C4)C=C3)cc1)c1ccc(F)cc1
REMARK SMILES IDX 18 1 17 2 16 3 15 4 14 5 13 6 11 7 12 8 10 9 9 10 8 11 3 12
REMARK SMILES IDX 4 13 5 14 7 15 6 16 2 17 1 18 82 19 83 20 88 21 84 22 87 23
REMARK SMILES IDX 85 24 86 25 19 26 20 27 21 28 22 29 23 30 24 31 25 32 26 33
REMARK SMILES IDX 27 34 28 35 29 36 81 37 30 38 80 39 31 40 32 41 33 42 74 43
REMARK SMILES IDX 34 44 79 45 73 46 75 47 35 48 78 49 72 50 71 51 36 53 62 54
REMARK SMILES IDX 45 55 61 56 46 57 49 58 60 59 76 60 47 61 48 62 59 64 77 65
REMARK SMILES IDX 50 66 37 67 38 68 43 69 39 70 40 71 42 72 44 73 41 74 63 75
REMARK SMILES IDX 64 76 69 77 65 78 66 79 68 80 70 81 67 82 51 83 52 84 57 85
REMARK SMILES IDX 53 86 54 87 56 88 58 89 55 90
REMARK H PARENT 75 52 49 63
REMARK Flexibility Score: inf
ROOT
ATOM      1  C   UNL A   1      34.340  20.660  24.876  1.00  0.00     0.188 C 
ENDROOT
BRANCH   1   2
ATOM      2  C   UNL A   1      32.803  20.625  24.725  1.00  0.00     0.188 C 
BRANCH   2   3
ATOM      3  O   UNL A   1      32.333  20.889  23.408  1.00  0.00    -0.376 OA
BRANCH   3   4
ATOM      4  C   UNL A   1      32.108  22.244  23.043  1.00  0.00     0.202 C 
BRANCH   4   5
ATOM      5  C   UNL A   1      33.185  22.914  22.179  1.00  0.00     0.261 C 
BRANCH   5   6
ATOM      6  O   UNL A   1      33.997  23.820  22.943  1.00  0.00    -0.463 OA
BRANCH   6   7
ATOM      7  C   UNL A   1      33.812  25.152  22.730  1.00  0.00     0.313 C 
ATOM      8  O   UNL A   1      33.648  25.643  21.623  1.00  0.00    -0.252 OA
BRANCH   7   9
ATOM      9  C   UNL A   1      33.761  25.878  24.092  1.00  0.00     0.134 C 
BRANCH   9  10
ATOM     10  C   UNL A   1      33.650  27.403  23.818  1.00  0.00     0.061 C 
BRANCH  10  11
ATOM     11  C   UNL A   1      33.067  28.352  24.866  1.00  0.00     0.015 A 
ATOM     12  C   UNL A   1      31.813  28.961  24.822  1.00  0.00     0.216 A 
ATOM     13  N   UNL A   1      31.424  29.994  25.610  1.00  0.00    -0.222 NA
ATOM     14  C   UNL A   1      32.291  30.419  26.545  1.00  0.00     0.115 A 
ATOM     15  C   UNL A   1      33.898  28.779  25.919  1.00  0.00     0.011 A 
ATOM     16  C   UNL A   1      33.512  29.819  26.765  1.00  0.00     0.021 A 
BRANCH  12  17
ATOM     17  O   UNL A   1      30.902  28.593  23.876  1.00  0.00    -0.481 OA
ATOM     18  C   UNL A   1      30.111  29.706  23.470  1.00  0.00     0.280 C 
ENDBRANCH  12  17
ENDBRANCH  10  11
ENDBRANCH   9  10
BRANCH   9  19
ATOM     19  C   UNL A   1      32.808  25.217  25.107  1.00  0.00    -0.033 A 
ATOM     20  C   UNL A   1      33.293  24.432  26.164  1.00  0.00     0.007 A 
ATOM     21  C   UNL A   1      31.413  25.197  24.885  1.00  0.00     0.007 A 
ATOM     22  C   UNL A   1      32.454  23.573  26.880  1.00  0.00     0.039 A 
ATOM     23  C   UNL A   1      30.559  24.397  25.652  1.00  0.00     0.039 A 
ATOM     24  C   UNL A   1      31.094  23.561  26.616  1.00  0.00     0.123 A 
ATOM     25  F   UNL A   1      30.295  22.721  27.286  1.00  0.00    -0.207 F 
ENDBRANCH   9  19
ENDBRANCH   7   9
ENDBRANCH   6   7
ENDBRANCH   5   6
ENDBRANCH   4   5
ENDBRANCH   3   4
ENDBRANCH   2   3
ENDBRANCH   1   2
BRANCH   1  26
ATOM     26  O   UNL A   1      34.873  21.118  26.108  1.00  0.00    -0.377 OA
BRANCH  26  27
ATOM     27  C   UNL A   1      36.047  21.925  26.115  1.00  0.00     0.188 C 
BRANCH  27  28
ATOM     28  C   UNL A   1      36.971  22.055  24.882  1.00  0.00     0.188 C 
BRANCH  28  29
ATOM     29  O   UNL A   1      38.180  21.322  24.972  1.00  0.00    -0.376 OA
BRANCH  29  30
ATOM     30  C   UNL A   1      38.085  19.915  25.086  1.00  0.00     0.202 C 
BRANCH  30  31
ATOM     31  C   UNL A   1      39.271  19.195  25.743  1.00  0.00     0.261 C 
BRANCH  31  32
ATOM     32  O   UNL A   1      40.569  19.770  25.511  1.00  0.00    -0.460 OA
BRANCH  32  33
ATOM     33  C   UNL A   1      41.395  19.890  26.572  1.00  0.00     0.338 C 
ATOM     34  O   UNL A   1      42.089  19.017  27.068  1.00  0.00    -0.246 OA
BRANCH  33  35
ATOM     35  C   UNL A   1      41.477  21.326  26.920  1.00  0.00     0.060 A 
ATOM     36  C   UNL A   1      41.137  22.283  25.954  1.00  0.00     0.016 A 
ATOM     37  C   UNL A   1      41.863  21.725  28.201  1.00  0.00     0.016 A 
ATOM     38  C   UNL A   1      41.218  23.643  26.257  1.00  0.00     0.010 A 
ATOM     39  C   UNL A   1      41.967  23.087  28.497  1.00  0.00     0.010 A 
ATOM     40  C   UNL A   1      41.679  24.052  27.515  1.00  0.00    -0.014 A 
BRANCH  40  41
ATOM     41  C   UNL A   1      42.059  25.471  27.730  1.00  0.00     0.031 A 
ATOM     42  C   UNL A   1      43.393  25.936  27.212  1.00  0.00     0.074 A 
ATOM     43  C   UNL A   1      41.233  26.338  28.340  1.00  0.00     0.049 A 
ATOM     44  N   UNL A   1      43.958  27.112  27.299  1.00  0.00    -0.248 NA
ATOM     45  C   UNL A   1      44.201  24.931  26.500  1.00  0.00     0.031 C 
ATOM     46  C   UNL A   1      39.899  26.026  28.849  1.00  0.00     0.029 A 
ATOM     47  N   UNL A   1      41.405  27.668  28.640  1.00  0.00    -0.354 N 
ATOM     48  C   UNL A   1      45.186  26.989  26.662  1.00  0.00     0.074 A 
ATOM     49  C   UNL A   1      45.301  25.616  26.222  1.00  0.00     0.031 C 
ATOM     50  C   UNL A   1      39.375  27.134  29.402  1.00  0.00     0.029 A 
ATOM     51  C   UNL A   1      40.348  28.222  29.318  1.00  0.00     0.049 A 
ATOM     52  H   UNL A   1      42.211  28.175  28.391  1.00  0.00     0.167 HD
ATOM     53  C   UNL A   1      46.132  27.935  26.454  1.00  0.00     0.037 A 
ATOM     54  C   UNL A   1      40.195  29.460  29.829  1.00  0.00     0.037 A 
ATOM     55  C   UNL A   1      46.018  29.301  26.892  1.00  0.00     0.049 A 
ATOM     56  C   UNL A   1      41.298  30.474  29.654  1.00  0.00     0.074 A 
ATOM     57  C   UNL A   1      46.912  30.341  26.709  1.00  0.00     0.029 A 
ATOM     58  N   UNL A   1      44.949  29.812  27.613  1.00  0.00    -0.354 N 
ATOM     59  N   UNL A   1      42.441  30.358  29.022  1.00  0.00    -0.248 NA
ATOM     60  C   UNL A   1      41.086  31.796  30.264  1.00  0.00     0.031 C 
ATOM     61  C   UNL A   1      46.413  31.466  27.374  1.00  0.00     0.029 A 
ATOM     62  C   UNL A   1      45.178  31.146  27.912  1.00  0.00     0.049 A 
ATOM     63  H   UNL A   1      44.148  29.303  27.874  1.00  0.00     0.167 HD
ATOM     64  C   UNL A   1      43.064  31.596  29.127  1.00  0.00     0.074 A 
ATOM     65  C   UNL A   1      42.167  32.454  29.871  1.00  0.00     0.031 C 
ATOM     66  C   UNL A   1      44.271  31.991  28.649  1.00  0.00     0.037 A 
BRANCH  53  67
ATOM     67  C   UNL A   1      47.389  27.515  25.748  1.00  0.00     0.057 A 
ATOM     68  C   UNL A   1      47.524  27.595  24.355  1.00  0.00     0.134 A 
ATOM     69  C   UNL A   1      48.491  27.052  26.478  1.00  0.00     0.134 A 
ATOM     70  F   UNL A   1      46.502  28.013  23.595  1.00  0.00    -0.206 F 
ATOM     71  C   UNL A   1      48.702  27.206  23.713  1.00  0.00     0.040 A 
ATOM     72  C   UNL A   1      49.684  26.691  25.849  1.00  0.00     0.040 A 
ATOM     73  F   UNL A   1      48.431  26.953  27.815  1.00  0.00    -0.206 F 
ATOM     74  C   UNL A   1      49.789  26.761  24.463  1.00  0.00     0.006 A 
ENDBRANCH  53  67
BRANCH  54  75
ATOM     75  C   UNL A   1      38.956  29.821  30.566  1.00  0.00     0.057 A 
ATOM     76  C   UNL A   1      38.823  29.561  31.936  1.00  0.00     0.134 A 
ATOM     77  C   UNL A   1      37.857  30.393  29.912  1.00  0.00     0.134 A 
ATOM     78  F   UNL A   1      39.829  28.990  32.615  1.00  0.00    -0.206 F 
ATOM     79  C   UNL A   1      37.638  29.835  32.622  1.00  0.00     0.040 A 
ATOM     80  C   UNL A   1      36.676  30.698  30.592  1.00  0.00     0.040 A 
ATOM     81  F   UNL A   1      37.916  30.666  28.600  1.00  0.00    -0.206 F 
ATOM     82  C   UNL A   1      36.562  30.409  31.950  1.00  0.00     0.006 A 
ENDBRANCH  54  75
BRANCH  66  83
ATOM     83  C   UNL A   1      44.672  33.422  28.873  1.00  0.00     0.057 A 
ATOM     84  C   UNL A   1      44.405  34.427  27.933  1.00  0.00     0.134 A 
ATOM     85  C   UNL A   1      45.305  33.807  30.063  1.00  0.00     0.134 A 
ATOM     86  F   UNL A   1      43.810  34.128  26.768  1.00  0.00    -0.206 F 
ATOM     87  C   UNL A   1      44.781  35.754  28.155  1.00  0.00     0.040 A 
ATOM     88  C   UNL A   1      45.656  35.134  30.310  1.00  0.00     0.040 A 
ATOM     89  F   UNL A   1      45.580  32.899  31.012  1.00  0.00    -0.206 F 
ATOM     90  C   UNL A   1      45.402  36.111  29.350  1.00  0.00     0.006 A 
ENDBRANCH  66  83
ENDBRANCH  40  41
ENDBRANCH  33  35
ENDBRANCH  32  33
ENDBRANCH  31  32
ENDBRANCH  30  31
ENDBRANCH  29  30
ENDBRANCH  28  29
ENDBRANCH  27  28
ENDBRANCH  26  27
ENDBRANCH   1  26
TORSDOF 24
ENDMDL
MODEL 2
REMARK VINA RESULT:      -9.7      1.703      3.155
REMARK SMILES COc1ncccc1C[C@H](C(=O)OCCOCCOCCOCCOC(=O)c1ccc(-c2c3nc(c(-c4c(F)cccc4F)c4ccc([nH]4)c(-c4c(F)cccc4F)c4nc(c(-c5c(F)cccc5F)c5ccc2[nH]5)C=C4)C=C3)cc1)c1ccc(F)cc1
REMARK SMILES IDX 18 1 17 2 16 3 15 4 14 5 13 6 11 7 12 8 10 9 9 10 8 11 3 12
REMARK SMILES IDX 4 13 5 14 7 15 6 16 2 17 1 18 82 19 83 20 88 21 84 22 87 23
REMARK SMILES IDX 85 24 86 25 19 26 20 27 21 28 22 29 23 30 24 31 25 32 26 33
REMARK SMILES IDX 27 34 28 35 29 36 81 37 30 38 80 39 31 40 32 41 33 42 74 43
REMARK SMILES IDX 34 44 79 45 73 46 75 47 35 48 78 49 72 50 71 51 36 53 62 54
REMARK SMILES IDX 45 55 61 56 46 57 49 58 60 59 76 60 47 61 48 62 59 64 77 65
REMARK SMILES IDX 50 66 37 67 38 68 43 69 39 70 40 71 42 72 44 73 41 74 63 75
REMARK SMILES IDX 64 76 69 77 65 78 66 79 68 80 70 81 67 82 51 83 52 84 57 85
REMARK SMILES IDX 53 86 54 87 56 88 58 89 55 90
REMARK H PARENT 75 52 49 63
REMARK Flexibility Score: inf
ROOT
ATOM      1  C   UNL A   1      33.294  21.403  24.420  1.00  0.00     0.188 C 
ENDROOT
BRANCH   1   2
ATOM      2  C   UNL A   1      32.973  22.849  24.862  1.00  0.00     0.188 C 
BRANCH   2   3
ATOM      3  O   UNL A   1      32.401  22.956  26.159  1.00  0.00    -0.376 OA
BRANCH   3   4
ATOM      4  C   UNL A   1      31.112  23.544  26.269  1.00  0.00     0.202 C 
BRANCH   4   5
ATOM      5  C   UNL A   1      30.999  25.034  25.917  1.00  0.00     0.261 C 
BRANCH   5   6
ATOM      6  O   UNL A   1      32.082  25.798  26.471  1.00  0.00    -0.463 OA
BRANCH   6   7
ATOM      7  C   UNL A   1      31.826  27.095  26.795  1.00  0.00     0.313 C 
ATOM      8  O   UNL A   1      31.037  27.430  27.666  1.00  0.00    -0.252 OA
BRANCH   7   9
ATOM      9  C   UNL A   1      32.741  28.015  25.958  1.00  0.00     0.134 C 
BRANCH   9  10
ATOM     10  C   UNL A   1      31.995  28.367  24.642  1.00  0.00     0.061 C 
BRANCH  10  11
ATOM     11  C   UNL A   1      32.184  27.525  23.379  1.00  0.00     0.015 A 
ATOM     12  C   UNL A   1      31.276  27.396  22.329  1.00  0.00     0.216 A 
ATOM     13  N   UNL A   1      31.342  26.450  21.360  1.00  0.00    -0.222 NA
ATOM     14  C   UNL A   1      32.395  25.617  21.378  1.00  0.00     0.115 A 
ATOM     15  C   UNL A   1      33.310  26.684  23.298  1.00  0.00     0.011 A 
ATOM     16  C   UNL A   1      33.419  25.722  22.294  1.00  0.00     0.021 A 
BRANCH  12  17
ATOM     17  O   UNL A   1      30.171  28.194  22.272  1.00  0.00    -0.481 OA
ATOM     18  C   UNL A   1      29.145  27.706  23.131  1.00  0.00     0.280 C 
ENDBRANCH  12  17
ENDBRANCH  10  11
ENDBRANCH   9  10
BRANCH   9  19
ATOM     19  C   UNL A   1      33.400  29.139  26.781  1.00  0.00    -0.033 A 
ATOM     20  C   UNL A   1      32.758  30.370  26.987  1.00  0.00     0.007 A 
ATOM     21  C   UNL A   1      34.755  29.053  27.172  1.00  0.00     0.007 A 
ATOM     22  C   UNL A   1      33.459  31.493  27.437  1.00  0.00     0.039 A 
ATOM     23  C   UNL A   1      35.439  30.155  27.697  1.00  0.00     0.039 A 
ATOM     24  C   UNL A   1      34.795  31.377  27.785  1.00  0.00     0.123 A 
ATOM     25  F   UNL A   1      35.472  32.457  28.193  1.00  0.00    -0.207 F 
ENDBRANCH   9  19
ENDBRANCH   7   9
ENDBRANCH   6   7
ENDBRANCH   5   6
ENDBRANCH   4   5
ENDBRANCH   3   4
ENDBRANCH   2   3
ENDBRANCH   1   2
BRANCH   1  26
ATOM     26  O   UNL A   1      34.304  20.704  25.128  1.00  0.00    -0.377 OA
BRANCH  26  27
ATOM     27  C   UNL A   1      35.385  21.423  25.716  1.00  0.00     0.188 C 
BRANCH  27  28
ATOM     28  C   UNL A   1      36.492  22.092  24.870  1.00  0.00     0.188 C 
BRANCH  28  29
ATOM     29  O   UNL A   1      37.472  21.199  24.370  1.00  0.00    -0.376 OA
BRANCH  29  30
ATOM     30  C   UNL A   1      37.480  19.881  24.886  1.00  0.00     0.202 C 
BRANCH  30  31
ATOM     31  C   UNL A   1      38.766  19.426  25.591  1.00  0.00     0.261 C 
BRANCH  31  32
ATOM     32  O   UNL A   1      39.843  20.378  25.622  1.00  0.00    -0.460 OA
BRANCH  32  33
ATOM     33  C   UNL A   1      40.667  20.351  26.691  1.00  0.00     0.338 C 
ATOM     34  O   UNL A   1      41.263  19.383  27.138  1.00  0.00    -0.246 OA
BRANCH  33  35
ATOM     35  C   UNL A   1      40.892  21.747  27.124  1.00  0.00     0.060 A 
ATOM     36  C   UNL A   1      40.222  22.784  26.459  1.00  0.00     0.016 A 
ATOM     37  C   UNL A   1      41.741  22.031  28.196  1.00  0.00     0.016 A 
ATOM     38  C   UNL A   1      40.428  24.110  26.844  1.00  0.00     0.010 A 
ATOM     39  C   UNL A   1      41.965  23.360  28.565  1.00  0.00     0.010 A 
ATOM     40  C   UNL A   1      41.337  24.408  27.866  1.00  0.00    -0.014 A 
BRANCH  40  41
ATOM     41  C   UNL A   1      41.787  25.808  28.062  1.00  0.00     0.031 A 
ATOM     42  C   UNL A   1      43.132  26.206  27.516  1.00  0.00     0.074 A 
ATOM     43  C   UNL A   1      41.015  26.718  28.680  1.00  0.00     0.049 A 
ATOM     44  N   UNL A   1      43.753  27.355  27.582  1.00  0.00    -0.248 NA
ATOM     45  C   UNL A   1      43.879  25.159  26.798  1.00  0.00     0.031 C 
ATOM     46  C   UNL A   1      39.677  26.473  29.215  1.00  0.00     0.029 A 
ATOM     47  N   UNL A   1      41.254  28.041  28.964  1.00  0.00    -0.354 N 
ATOM     48  C   UNL A   1      44.962  27.169  26.924  1.00  0.00     0.074 A 
ATOM     49  C   UNL A   1      45.004  25.788  26.494  1.00  0.00     0.031 C 
ATOM     50  C   UNL A   1      39.216  27.609  29.768  1.00  0.00     0.029 A 
ATOM     51  C   UNL A   1      40.237  28.650  29.656  1.00  0.00     0.049 A 
ATOM     52  H   UNL A   1      42.079  28.508  28.696  1.00  0.00     0.167 HD
ATOM     53  C   UNL A   1      45.947  28.068  26.690  1.00  0.00     0.037 A 
ATOM     54  C   UNL A   1      40.152  29.898  30.159  1.00  0.00     0.037 A 
ATOM     55  C   UNL A   1      45.906  29.441  27.118  1.00  0.00     0.049 A 
ATOM     56  C   UNL A   1      41.298  30.857  29.955  1.00  0.00     0.074 A 
ATOM     57  C   UNL A   1      46.843  30.436  26.909  1.00  0.00     0.029 A 
ATOM     58  N   UNL A   1      44.875  30.008  27.854  1.00  0.00    -0.354 N 
ATOM     59  N   UNL A   1      42.422  30.683  29.303  1.00  0.00    -0.248 NA
ATOM     60  C   UNL A   1      41.159  32.193  30.556  1.00  0.00     0.031 C 
ATOM     61  C   UNL A   1      46.411  31.589  27.573  1.00  0.00     0.029 A 
ATOM     62  C   UNL A   1      45.172  31.332  28.137  1.00  0.00     0.049 A 
ATOM     63  H   UNL A   1      44.056  29.539  28.134  1.00  0.00     0.167 HD
ATOM     64  C   UNL A   1      43.105  31.891  29.385  1.00  0.00     0.074 A 
ATOM     65  C   UNL A   1      42.262  32.796  30.138  1.00  0.00     0.031 C 
ATOM     66  C   UNL A   1      44.320  32.224  28.882  1.00  0.00     0.037 A 
BRANCH  53  67
ATOM     67  C   UNL A   1      47.169  27.584  25.965  1.00  0.00     0.057 A 
ATOM     68  C   UNL A   1      48.289  27.082  26.644  1.00  0.00     0.134 A 
ATOM     69  C   UNL A   1      47.215  27.594  24.565  1.00  0.00     0.134 A 
ATOM     70  F   UNL A   1      48.318  27.060  27.984  1.00  0.00    -0.206 F 
ATOM     71  C   UNL A   1      49.417  26.630  25.956  1.00  0.00     0.040 A 
ATOM     72  C   UNL A   1      48.325  27.116  23.867  1.00  0.00     0.040 A 
ATOM     73  F   UNL A   1      46.178  28.059  23.853  1.00  0.00    -0.206 F 
ATOM     74  C   UNL A   1      49.432  26.638  24.563  1.00  0.00     0.006 A 
ENDBRANCH  53  67
BRANCH  54  75
ATOM     75  C   UNL A   1      38.945  30.323  30.915  1.00  0.00     0.057 A 
ATOM     76  C   UNL A   1      38.746  29.934  32.246  1.00  0.00     0.134 A 
ATOM     77  C   UNL A   1      37.939  31.090  30.314  1.00  0.00     0.134 A 
ATOM     78  F   UNL A   1      39.660  29.176  32.870  1.00  0.00    -0.206 F 
ATOM     79  C   UNL A   1      37.585  30.271  32.943  1.00  0.00     0.040 A 
ATOM     80  C   UNL A   1      36.785  31.459  31.008  1.00  0.00     0.040 A 
ATOM     81  F   UNL A   1      38.064  31.494  29.041  1.00  0.00    -0.206 F 
ATOM     82  C   UNL A   1      36.601  31.040  32.324  1.00  0.00     0.006 A 
ENDBRANCH  54  75
BRANCH  66  83
ATOM     83  C   UNL A   1      44.791  33.637  29.086  1.00  0.00     0.057 A 
ATOM     84  C   UNL A   1      45.588  34.008  30.177  1.00  0.00     0.134 A 
ATOM     85  C   UNL A   1      44.469  34.636  28.156  1.00  0.00     0.134 A 
ATOM     86  F   UNL A   1      45.926  33.105  31.110  1.00  0.00    -0.206 F 
ATOM     87  C   UNL A   1      46.020  35.324  30.353  1.00  0.00     0.040 A 
ATOM     88  C   UNL A   1      44.922  35.947  28.304  1.00  0.00     0.040 A 
ATOM     89  F   UNL A   1      43.720  34.349  27.080  1.00  0.00    -0.206 F 
ATOM     90  C   UNL A   1      45.692  36.296  29.411  1.00  0.00     0.006 A 
ENDBRANCH  66  83
ENDBRANCH  40  41
ENDBRANCH  33  35
ENDBRANCH  32  33
ENDBRANCH  31  32
ENDBRANCH  30  31
ENDBRANCH  29  30
ENDBRANCH  28  29
ENDBRANCH  27  28
ENDBRANCH  26  27
ENDBRANCH   1  26
TORSDOF 24
ENDMDL
MODEL 3
REMARK VINA RESULT:      -9.4      2.003      3.515
REMARK SMILES COc1ncccc1C[C@H](C(=O)OCCOCCOCCOCCOC(=O)c1ccc(-c2c3nc(c(-c4c(F)cccc4F)c4ccc([nH]4)c(-c4c(F)cccc4F)c4nc(c(-c5c(F)cccc5F)c5ccc2[nH]5)C=C4)C=C3)cc1)c1ccc(F)cc1
REMARK SMILES IDX 18 1 17 2 16 3 15 4 14 5 13 6 11 7 12 8 10 9 9 10 8 11 3 12
REMARK SMILES IDX 4 13 5 14 7 15 6 16 2 17 1 18 82 19 83 20 88 21 84 22 87 23
REMARK SMILES IDX 85 24 86 25 19 26 20 27 21 28 22 29 23 30 24 31 25 32 26 33
REMARK SMILES IDX 27 34 28 35 29 36 81 37 30 38 80 39 31 40 32 41 33 42 74 43
REMARK SMILES IDX 34 44 79 45 73 46 75 47 35 48 78 49 72 50 71 51 36 53 62 54
REMARK SMILES IDX 45 55 61 56 46 57 49 58 60 59 76 60 47 61 48 62 59 64 77 65
REMARK SMILES IDX 50 66 37 67 38 68 43 69 39 70 40 71 42 72 44 73 41 74 63 75
REMARK SMILES IDX 64 76 69 77 65 78 66 79 68 80 70 81 67 82 51 83 52 84 57 85
REMARK SMILES IDX 53 86 54 87 56 88 58 89 55 90
REMARK H PARENT 75 52 49 63
REMARK Flexibility Score: inf
ROOT
ATOM      1  C   UNL A   1      33.318  22.698  25.059  1.00  0.00     0.188 C 
ENDROOT
BRANCH   1   2
ATOM      2  C   UNL A   1      32.440  22.305  23.850  1.00  0.00     0.188 C 
BRANCH   2   3
ATOM      3  O   UNL A   1      31.298  23.131  23.657  1.00  0.00    -0.376 OA
BRANCH   3   4
ATOM      4  C   UNL A   1      31.482  24.540  23.710  1.00  0.00     0.202 C 
BRANCH   4   5
ATOM      5  C   UNL A   1      30.236  25.388  23.999  1.00  0.00     0.261 C 
BRANCH   5   6
ATOM      6  O   UNL A   1      30.310  26.679  23.374  1.00  0.00    -0.463 OA
BRANCH   6   7
ATOM      7  C   UNL A   1      29.245  27.510  23.535  1.00  0.00     0.313 C 
ATOM      8  O   UNL A   1      28.084  27.130  23.525  1.00  0.00    -0.252 OA
BRANCH   7   9
ATOM      9  C   UNL A   1      29.757  28.941  23.808  1.00  0.00     0.134 C 
BRANCH   9  10
ATOM     10  C   UNL A   1      31.309  28.918  23.736  1.00  0.00     0.061 C 
BRANCH  10  11
ATOM     11  C   UNL A   1      32.159  29.020  25.004  1.00  0.00     0.015 A 
ATOM     12  C   UNL A   1      32.210  30.105  25.878  1.00  0.00     0.216 A 
ATOM     13  N   UNL A   1      33.155  30.286  26.834  1.00  0.00    -0.222 NA
ATOM     14  C   UNL A   1      34.072  29.316  26.989  1.00  0.00     0.115 A 
ATOM     15  C   UNL A   1      33.088  27.998  25.270  1.00  0.00     0.011 A 
ATOM     16  C   UNL A   1      34.054  28.143  26.267  1.00  0.00     0.021 A 
BRANCH  12  17
ATOM     17  O   UNL A   1      31.325  31.135  25.751  1.00  0.00    -0.481 OA
ATOM     18  C   UNL A   1      31.493  32.085  26.798  1.00  0.00     0.280 C 
ENDBRANCH  12  17
ENDBRANCH  10  11
ENDBRANCH   9  10
BRANCH   9  19
ATOM     19  C   UNL A   1      28.978  30.030  23.045  1.00  0.00    -0.033 A 
ATOM     20  C   UNL A   1      28.778  29.952  21.658  1.00  0.00     0.007 A 
ATOM     21  C   UNL A   1      28.626  31.246  23.673  1.00  0.00     0.007 A 
ATOM     22  C   UNL A   1      28.373  31.064  20.915  1.00  0.00     0.039 A 
ATOM     23  C   UNL A   1      28.145  32.337  22.941  1.00  0.00     0.039 A 
ATOM     24  C   UNL A   1      28.062  32.249  21.562  1.00  0.00     0.123 A 
ATOM     25  F   UNL A   1      27.697  33.321  20.849  1.00  0.00    -0.207 F 
ENDBRANCH   9  19
ENDBRANCH   7   9
ENDBRANCH   6   7
ENDBRANCH   5   6
ENDBRANCH   4   5
ENDBRANCH   3   4
ENDBRANCH   2   3
ENDBRANCH   1   2
BRANCH   1  26
ATOM     26  O   UNL A   1      34.724  22.729  24.874  1.00  0.00    -0.377 OA
BRANCH  26  27
ATOM     27  C   UNL A   1      35.581  22.943  25.991  1.00  0.00     0.188 C 
BRANCH  27  28
ATOM     28  C   UNL A   1      37.076  23.305  25.831  1.00  0.00     0.188 C 
BRANCH  28  29
ATOM     29  O   UNL A   1      37.797  22.457  24.956  1.00  0.00    -0.376 OA
BRANCH  29  30
ATOM     30  C   UNL A   1      38.035  21.128  25.380  1.00  0.00     0.202 C 
BRANCH  30  31
ATOM     31  C   UNL A   1      39.379  20.855  26.070  1.00  0.00     0.261 C 
BRANCH  31  32
ATOM     32  O   UNL A   1      40.093  19.688  25.629  1.00  0.00    -0.460 OA
BRANCH  32  33
ATOM     33  C   UNL A   1      41.344  19.509  26.101  1.00  0.00     0.338 C 
ATOM     34  O   UNL A   1      41.976  18.464  26.138  1.00  0.00    -0.246 OA
BRANCH  33  35
ATOM     35  C   UNL A   1      41.914  20.843  26.391  1.00  0.00     0.060 A 
ATOM     36  C   UNL A   1      42.147  21.211  27.723  1.00  0.00     0.016 A 
ATOM     37  C   UNL A   1      42.240  21.717  25.351  1.00  0.00     0.016 A 
ATOM     38  C   UNL A   1      42.674  22.469  28.020  1.00  0.00     0.010 A 
ATOM     39  C   UNL A   1      42.744  22.986  25.650  1.00  0.00     0.010 A 
ATOM     40  C   UNL A   1      42.930  23.380  26.988  1.00  0.00    -0.014 A 
BRANCH  40  41
ATOM     41  C   UNL A   1      43.188  24.805  27.315  1.00  0.00     0.031 A 
ATOM     42  C   UNL A   1      44.573  25.348  27.088  1.00  0.00     0.074 A 
ATOM     43  C   UNL A   1      42.215  25.612  27.773  1.00  0.00     0.049 A 
ATOM     44  N   UNL A   1      45.049  26.544  27.320  1.00  0.00    -0.248 NA
ATOM     45  C   UNL A   1      45.556  24.407  26.524  1.00  0.00     0.031 C 
ATOM     46  C   UNL A   1      40.824  25.222  27.995  1.00  0.00     0.029 A 
ATOM     47  N   UNL A   1      42.256  26.936  28.138  1.00  0.00    -0.354 N 
ATOM     48  C   UNL A   1      46.384  26.498  26.938  1.00  0.00     0.074 A 
ATOM     49  C   UNL A   1      46.653  25.149  26.492  1.00  0.00     0.031 C 
ATOM     50  C   UNL A   1      40.145  26.284  28.464  1.00  0.00     0.029 A 
ATOM     51  C   UNL A   1      41.059  27.416  28.607  1.00  0.00     0.049 A 
ATOM     52  H   UNL A   1      43.069  27.487  28.070  1.00  0.00     0.167 HD
ATOM     53  C   UNL A   1      47.304  27.492  26.950  1.00  0.00     0.037 A 
ATOM     54  C   UNL A   1      40.745  28.627  29.112  1.00  0.00     0.037 A 
ATOM     55  C   UNL A   1      47.036  28.834  27.396  1.00  0.00     0.049 A 
ATOM     56  C   UNL A   1      41.809  29.694  29.190  1.00  0.00     0.074 A 
ATOM     57  C   UNL A   1      47.894  29.918  27.425  1.00  0.00     0.029 A 
ATOM     58  N   UNL A   1      45.821  29.270  27.903  1.00  0.00    -0.354 N 
ATOM     59  N   UNL A   1      43.059  29.652  28.796  1.00  0.00    -0.248 NA
ATOM     60  C   UNL A   1      41.413  30.981  29.782  1.00  0.00     0.031 C 
ATOM     61  C   UNL A   1      47.218  30.994  28.009  1.00  0.00     0.029 A 
ATOM     62  C   UNL A   1      45.918  30.600  28.280  1.00  0.00     0.049 A 
ATOM     63  H   UNL A   1      45.011  28.717  27.983  1.00  0.00     0.167 HD
ATOM     64  C   UNL A   1      43.586  30.911  29.059  1.00  0.00     0.074 A 
ATOM     65  C   UNL A   1      42.516  31.700  29.632  1.00  0.00     0.031 C 
ATOM     66  C   UNL A   1      44.842  31.376  28.844  1.00  0.00     0.037 A 
BRANCH  53  67
ATOM     67  C   UNL A   1      48.695  27.155  26.499  1.00  0.00     0.057 A 
ATOM     68  C   UNL A   1      49.694  26.753  27.397  1.00  0.00     0.134 A 
ATOM     69  C   UNL A   1      49.032  27.206  25.140  1.00  0.00     0.134 A 
ATOM     70  F   UNL A   1      49.444  26.700  28.714  1.00  0.00    -0.206 F 
ATOM     71  C   UNL A   1      50.983  26.437  26.962  1.00  0.00     0.040 A 
ATOM     72  C   UNL A   1      50.308  26.862  24.691  1.00  0.00     0.040 A 
ATOM     73  F   UNL A   1      48.124  27.580  24.226  1.00  0.00    -0.206 F 
ATOM     74  C   UNL A   1      51.289  26.483  25.603  1.00  0.00     0.006 A 
ENDBRANCH  53  67
BRANCH  54  75
ATOM     75  C   UNL A   1      39.368  28.904  29.596  1.00  0.00     0.057 A 
ATOM     76  C   UNL A   1      38.995  28.639  30.919  1.00  0.00     0.134 A 
ATOM     77  C   UNL A   1      38.378  29.399  28.738  1.00  0.00     0.134 A 
ATOM     78  F   UNL A   1      39.889  28.138  31.785  1.00  0.00    -0.206 F 
ATOM     79  C   UNL A   1      37.686  28.833  31.365  1.00  0.00     0.040 A 
ATOM     80  C   UNL A   1      37.072  29.626  29.177  1.00  0.00     0.040 A 
ATOM     81  F   UNL A   1      38.667  29.673  27.457  1.00  0.00    -0.206 F 
ATOM     82  C   UNL A   1      36.721  29.333  30.493  1.00  0.00     0.006 A 
ENDBRANCH  54  75
BRANCH  66  83
ATOM     83  C   UNL A   1      45.117  32.814  29.184  1.00  0.00     0.057 A 
ATOM     84  C   UNL A   1      45.655  33.199  30.419  1.00  0.00     0.134 A 
ATOM     85  C   UNL A   1      44.869  33.827  28.246  1.00  0.00     0.134 A 
ATOM     86  F   UNL A   1      45.908  32.282  31.365  1.00  0.00    -0.206 F 
ATOM     87  C   UNL A   1      45.908  34.539  30.721  1.00  0.00     0.040 A 
ATOM     88  C   UNL A   1      45.148  35.166  28.525  1.00  0.00     0.040 A 
ATOM     89  F   UNL A   1      44.366  33.530  27.039  1.00  0.00    -0.206 F 
ATOM     90  C   UNL A   1      45.660  35.526  29.769  1.00  0.00     0.006 A 
ENDBRANCH  66  83
ENDBRANCH  40  41
ENDBRANCH  33  35
ENDBRANCH  32  33
ENDBRANCH  31  32
ENDBRANCH  30  31
ENDBRANCH  29  30
ENDBRANCH  28  29
ENDBRANCH  27  28
ENDBRANCH  26  27
ENDBRANCH   1  26
TORSDOF 24
ENDMDL
