MODEL 1
REMARK VINA RESULT:     -10.7      0.000      0.000
REMARK SMILES C[C@@H](C(=O)OCCOCCOCCOCCOC(=O)c1ccc(-c2c3nc(c(-c4c(F)cccc4F)c4ccc([nH]4)c(-c4c(F)cccc4F)c4nc(c(-c5c(F)cccc5F)c5ccc2[nH]5)C=C4)C=C3)cc1)c1ccc2c(c1)[nH]c1ccc(Cl)cc12
REMARK SMILES IDX 12 1 11 2 10 3 9 4 8 5 7 6 6 7 5 8 3 9 4 10 2 11 1 12 74 13
REMARK SMILES IDX 75 14 79 15 76 16 78 17 77 18 80 19 87 20 81 21 86 23 82 24
REMARK SMILES IDX 84 25 83 26 85 27 13 28 14 29 15 30 16 31 17 32 18 33 19 34
REMARK SMILES IDX 20 35 21 36 73 37 22 38 72 39 23 40 24 41 25 42 66 43 26 44
REMARK SMILES IDX 71 45 65 46 67 47 27 48 70 49 64 50 63 51 28 53 54 54 37 55
REMARK SMILES IDX 53 56 38 57 41 58 52 59 68 60 39 61 40 62 51 64 69 65 42 66
REMARK SMILES IDX 29 67 30 68 35 69 31 70 32 71 34 72 36 73 33 74 55 75 56 76
REMARK SMILES IDX 61 77 57 78 58 79 60 80 62 81 59 82 43 83 44 84 49 85 45 86
REMARK SMILES IDX 46 87 48 88 50 89 47 90
REMARK H PARENT 80 22 67 52 41 63
REMARK Flexibility Score: inf
ROOT
ATOM      1  C   UNL A   1      39.913  21.711  26.424  1.00  0.00     0.188 C 
ENDROOT
BRANCH   1   2
ATOM      2  O   UNL A   1      39.093  20.735  25.800  1.00  0.00    -0.377 OA
BRANCH   2   3
ATOM      3  C   UNL A   1      38.019  21.184  25.001  1.00  0.00     0.188 C 
BRANCH   3   4
ATOM      4  C   UNL A   1      37.408  22.533  25.406  1.00  0.00     0.188 C 
BRANCH   4   5
ATOM      5  O   UNL A   1      36.744  23.317  24.434  1.00  0.00    -0.376 OA
BRANCH   5   6
ATOM      6  C   UNL A   1      35.546  24.015  24.731  1.00  0.00     0.202 C 
BRANCH   6   7
ATOM      7  C   UNL A   1      34.681  24.776  23.704  1.00  0.00     0.261 C 
BRANCH   7   8
ATOM      8  O   UNL A   1      34.029  25.983  24.127  1.00  0.00    -0.463 OA
BRANCH   8   9
ATOM      9  C   UNL A   1      33.001  25.821  24.994  1.00  0.00     0.313 C 
ATOM     10  O   UNL A   1      33.052  26.177  26.168  1.00  0.00    -0.252 OA
BRANCH   9  11
ATOM     11  C   UNL A   1      31.772  25.108  24.395  1.00  0.00     0.126 C 
ATOM     12  C   UNL A   1      30.372  25.711  24.530  1.00  0.00     0.025 C 
BRANCH  11  13
ATOM     13  C   UNL A   1      31.847  23.612  24.704  1.00  0.00    -0.032 A 
ATOM     14  C   UNL A   1      32.177  23.053  25.950  1.00  0.00     0.005 A 
ATOM     15  C   UNL A   1      31.737  22.770  23.593  1.00  0.00     0.031 A 
ATOM     16  C   UNL A   1      32.394  21.662  26.099  1.00  0.00     0.011 A 
ATOM     17  C   UNL A   1      32.035  21.421  23.744  1.00  0.00     0.047 A 
ATOM     18  C   UNL A   1      32.338  20.825  24.963  1.00  0.00     0.007 A 
ATOM     19  N   UNL A   1      32.145  20.470  22.770  1.00  0.00    -0.355 N 
ATOM     20  C   UNL A   1      32.552  19.426  24.693  1.00  0.00     0.009 A 
ATOM     21  C   UNL A   1      32.524  19.271  23.304  1.00  0.00     0.047 A 
ATOM     22  H   UNL A   1      31.973  20.628  21.814  1.00  0.00     0.167 HD
ATOM     23  C   UNL A   1      32.807  18.279  25.475  1.00  0.00     0.031 A 
ATOM     24  C   UNL A   1      32.834  18.080  22.646  1.00  0.00     0.028 A 
ATOM     25  C   UNL A   1      33.057  17.059  24.826  1.00  0.00     0.041 A 
ATOM     26  C   UNL A   1      33.106  16.968  23.437  1.00  0.00     0.022 A 
ATOM     27  Cl  UNL A   1      33.307  15.634  25.762  1.00  0.00    -0.084 Cl
ENDBRANCH  11  13
ENDBRANCH   9  11
ENDBRANCH   8   9
ENDBRANCH   7   8
ENDBRANCH   6   7
ENDBRANCH   5   6
ENDBRANCH   4   5
ENDBRANCH   3   4
ENDBRANCH   2   3
ENDBRANCH   1   2
BRANCH   1  28
ATOM     28  C   UNL A   1      40.788  21.315  27.629  1.00  0.00     0.188 C 
BRANCH  28  29
ATOM     29  O   UNL A   1      42.167  21.153  27.334  1.00  0.00    -0.376 OA
BRANCH  29  30
ATOM     30  C   UNL A   1      42.560  20.834  26.008  1.00  0.00     0.202 C 
BRANCH  30  31
ATOM     31  C   UNL A   1      43.757  21.590  25.406  1.00  0.00     0.261 C 
BRANCH  31  32
ATOM     32  O   UNL A   1      44.271  22.689  26.174  1.00  0.00    -0.460 OA
BRANCH  32  33
ATOM     33  C   UNL A   1      44.295  23.906  25.597  1.00  0.00     0.338 C 
ATOM     34  O   UNL A   1      44.716  24.189  24.487  1.00  0.00    -0.246 OA
BRANCH  33  35
ATOM     35  C   UNL A   1      43.533  24.830  26.461  1.00  0.00     0.060 A 
ATOM     36  C   UNL A   1      43.769  26.207  26.355  1.00  0.00     0.016 A 
ATOM     37  C   UNL A   1      42.588  24.341  27.366  1.00  0.00     0.016 A 
ATOM     38  C   UNL A   1      43.089  27.097  27.185  1.00  0.00     0.010 A 
ATOM     39  C   UNL A   1      41.926  25.232  28.213  1.00  0.00     0.010 A 
ATOM     40  C   UNL A   1      42.201  26.610  28.152  1.00  0.00    -0.014 A 
BRANCH  40  41
ATOM     41  C   UNL A   1      41.730  27.509  29.232  1.00  0.00     0.031 A 
ATOM     42  C   UNL A   1      42.451  27.469  30.552  1.00  0.00     0.074 A 
ATOM     43  C   UNL A   1      40.707  28.360  29.044  1.00  0.00     0.049 A 
ATOM     44  N   UNL A   1      42.196  28.114  31.661  1.00  0.00    -0.248 NA
ATOM     45  C   UNL A   1      43.618  26.576  30.631  1.00  0.00     0.031 C 
ATOM     46  C   UNL A   1      39.963  28.530  27.799  1.00  0.00     0.029 A 
ATOM     47  N   UNL A   1      40.112  29.239  29.916  1.00  0.00    -0.354 N 
ATOM     48  C   UNL A   1      43.160  27.697  32.569  1.00  0.00     0.074 A 
ATOM     49  C   UNL A   1      43.988  26.722  31.893  1.00  0.00     0.031 C 
ATOM     50  C   UNL A   1      39.001  29.450  27.989  1.00  0.00     0.029 A 
ATOM     51  C   UNL A   1      39.038  29.905  29.378  1.00  0.00     0.049 A 
ATOM     52  H   UNL A   1      40.426  29.377  30.839  1.00  0.00     0.167 HD
ATOM     53  C   UNL A   1      43.344  28.094  33.850  1.00  0.00     0.037 A 
ATOM     54  C   UNL A   1      38.171  30.762  29.953  1.00  0.00     0.037 A 
ATOM     55  C   UNL A   1      42.518  29.064  34.519  1.00  0.00     0.049 A 
ATOM     56  C   UNL A   1      38.345  31.124  31.407  1.00  0.00     0.074 A 
ATOM     57  C   UNL A   1      42.633  29.548  35.809  1.00  0.00     0.029 A 
ATOM     58  N   UNL A   1      41.417  29.687  33.952  1.00  0.00    -0.354 N 
ATOM     59  N   UNL A   1      39.274  30.744  32.252  1.00  0.00    -0.248 NA
ATOM     60  C   UNL A   1      37.349  32.036  31.986  1.00  0.00     0.031 C 
ATOM     61  C   UNL A   1      41.563  30.417  36.045  1.00  0.00     0.029 A 
ATOM     62  C   UNL A   1      40.822  30.527  34.879  1.00  0.00     0.049 A 
ATOM     63  H   UNL A   1      41.103  29.552  33.030  1.00  0.00     0.167 HD
ATOM     64  C   UNL A   1      38.995  31.398  33.447  1.00  0.00     0.074 A 
ATOM     65  C   UNL A   1      37.817  32.207  33.215  1.00  0.00     0.031 C 
ATOM     66  C   UNL A   1      39.656  31.336  34.630  1.00  0.00     0.037 A 
BRANCH  53  67
ATOM     67  C   UNL A   1      44.459  27.450  34.623  1.00  0.00     0.057 A 
ATOM     68  C   UNL A   1      44.281  26.253  35.329  1.00  0.00     0.134 A 
ATOM     69  C   UNL A   1      45.737  28.023  34.637  1.00  0.00     0.134 A 
ATOM     70  F   UNL A   1      43.079  25.659  35.371  1.00  0.00    -0.206 F 
ATOM     71  C   UNL A   1      45.328  25.663  36.040  1.00  0.00     0.040 A 
ATOM     72  C   UNL A   1      46.798  27.427  35.319  1.00  0.00     0.040 A 
ATOM     73  F   UNL A   1      45.977  29.168  33.980  1.00  0.00    -0.206 F 
ATOM     74  C   UNL A   1      46.594  26.247  36.030  1.00  0.00     0.006 A 
ENDBRANCH  53  67
BRANCH  54  75
ATOM     75  C   UNL A   1      37.046  31.330  29.166  1.00  0.00     0.057 A 
ATOM     76  C   UNL A   1      37.077  32.652  28.706  1.00  0.00     0.134 A 
ATOM     77  C   UNL A   1      35.896  30.580  28.889  1.00  0.00     0.134 A 
ATOM     78  F   UNL A   1      38.138  33.431  28.962  1.00  0.00    -0.206 F 
ATOM     79  C   UNL A   1      35.999  33.213  28.019  1.00  0.00     0.040 A 
ATOM     80  C   UNL A   1      34.824  31.120  28.177  1.00  0.00     0.040 A 
ATOM     81  F   UNL A   1      35.801  29.308  29.303  1.00  0.00    -0.206 F 
ATOM     82  C   UNL A   1      34.869  32.444  27.748  1.00  0.00     0.006 A 
ENDBRANCH  54  75
BRANCH  66  83
ATOM     83  C   UNL A   1      39.155  32.203  35.752  1.00  0.00     0.057 A 
ATOM     84  C   UNL A   1      39.547  33.540  35.895  1.00  0.00     0.134 A 
ATOM     85  C   UNL A   1      38.229  31.702  36.677  1.00  0.00     0.134 A 
ATOM     86  F   UNL A   1      40.438  34.082  35.049  1.00  0.00    -0.206 F 
ATOM     87  C   UNL A   1      39.058  34.338  36.931  1.00  0.00     0.040 A 
ATOM     88  C   UNL A   1      37.708  32.498  37.697  1.00  0.00     0.040 A 
ATOM     89  F   UNL A   1      37.800  30.433  36.592  1.00  0.00    -0.206 F 
ATOM     90  C   UNL A   1      38.130  33.818  37.831  1.00  0.00     0.006 A 
ENDBRANCH  66  83
ENDBRANCH  40  41
ENDBRANCH  33  35
ENDBRANCH  32  33
ENDBRANCH  31  32
ENDBRANCH  30  31
ENDBRANCH  29  30
ENDBRANCH  28  29
ENDBRANCH   1  28
TORSDOF 21
ENDMDL
MODEL 2
REMARK VINA RESULT:     -10.6      4.375      7.963
REMARK SMILES C[C@@H](C(=O)OCCOCCOCCOCCOC(=O)c1ccc(-c2c3nc(c(-c4c(F)cccc4F)c4ccc([nH]4)c(-c4c(F)cccc4F)c4nc(c(-c5c(F)cccc5F)c5ccc2[nH]5)C=C4)C=C3)cc1)c1ccc2c(c1)[nH]c1ccc(Cl)cc12
REMARK SMILES IDX 12 1 11 2 10 3 9 4 8 5 7 6 6 7 5 8 3 9 4 10 2 11 1 12 74 13
REMARK SMILES IDX 75 14 79 15 76 16 78 17 77 18 80 19 87 20 81 21 86 23 82 24
REMARK SMILES IDX 84 25 83 26 85 27 13 28 14 29 15 30 16 31 17 32 18 33 19 34
REMARK SMILES IDX 20 35 21 36 73 37 22 38 72 39 23 40 24 41 25 42 66 43 26 44
REMARK SMILES IDX 71 45 65 46 67 47 27 48 70 49 64 50 63 51 28 53 54 54 37 55
REMARK SMILES IDX 53 56 38 57 41 58 52 59 68 60 39 61 40 62 51 64 69 65 42 66
REMARK SMILES IDX 29 67 30 68 35 69 31 70 32 71 34 72 36 73 33 74 55 75 56 76
REMARK SMILES IDX 61 77 57 78 58 79 60 80 62 81 59 82 43 83 44 84 49 85 45 86
REMARK SMILES IDX 46 87 48 88 50 89 47 90
REMARK H PARENT 80 22 67 52 41 63
REMARK Flexibility Score: inf
ROOT
ATOM      1  C   UNL A   1      35.498  22.745  24.304  1.00  0.00     0.188 C 
ENDROOT
BRANCH   1   2
ATOM      2  O   UNL A   1      34.295  22.009  24.460  1.00  0.00    -0.377 OA
BRANCH   2   3
ATOM      3  C   UNL A   1      34.264  20.991  25.437  1.00  0.00     0.188 C 
BRANCH   3   4
ATOM      4  C   UNL A   1      33.875  21.440  26.853  1.00  0.00     0.188 C 
BRANCH   4   5
ATOM      5  O   UNL A   1      33.385  22.750  27.058  1.00  0.00    -0.376 OA
BRANCH   5   6
ATOM      6  C   UNL A   1      32.017  22.999  27.335  1.00  0.00     0.202 C 
BRANCH   6   7
ATOM      7  C   UNL A   1      31.119  23.989  26.564  1.00  0.00     0.261 C 
BRANCH   7   8
ATOM      8  O   UNL A   1      31.336  25.395  26.754  1.00  0.00    -0.463 OA
BRANCH   8   9
ATOM      9  C   UNL A   1      31.537  26.116  25.626  1.00  0.00     0.313 C 
ATOM     10  O   UNL A   1      30.706  26.195  24.725  1.00  0.00    -0.252 OA
BRANCH   9  11
ATOM     11  C   UNL A   1      32.919  26.795  25.544  1.00  0.00     0.126 C 
ATOM     12  C   UNL A   1      34.199  26.004  25.819  1.00  0.00     0.025 C 
BRANCH  11  13
ATOM     13  C   UNL A   1      32.860  28.159  26.234  1.00  0.00    -0.032 A 
ATOM     14  C   UNL A   1      31.729  28.991  26.301  1.00  0.00     0.005 A 
ATOM     15  C   UNL A   1      34.091  28.656  26.674  1.00  0.00     0.031 A 
ATOM     16  C   UNL A   1      31.815  30.311  26.807  1.00  0.00     0.011 A 
ATOM     17  C   UNL A   1      34.169  29.980  27.088  1.00  0.00     0.047 A 
ATOM     18  C   UNL A   1      33.072  30.826  27.195  1.00  0.00     0.007 A 
ATOM     19  N   UNL A   1      35.288  30.700  27.398  1.00  0.00    -0.355 N 
ATOM     20  C   UNL A   1      33.571  32.086  27.679  1.00  0.00     0.009 A 
ATOM     21  C   UNL A   1      34.965  31.995  27.692  1.00  0.00     0.047 A 
ATOM     22  H   UNL A   1      36.202  30.334  27.408  1.00  0.00     0.167 HD
ATOM     23  C   UNL A   1      32.992  33.313  28.072  1.00  0.00     0.031 A 
ATOM     24  C   UNL A   1      35.816  33.066  27.967  1.00  0.00     0.028 A 
ATOM     25  C   UNL A   1      33.837  34.381  28.413  1.00  0.00     0.041 A 
ATOM     26  C   UNL A   1      35.223  34.273  28.327  1.00  0.00     0.022 A 
ATOM     27  Cl  UNL A   1      33.152  35.867  28.956  1.00  0.00    -0.084 Cl
ENDBRANCH  11  13
ENDBRANCH   9  11
ENDBRANCH   8   9
ENDBRANCH   7   8
ENDBRANCH   6   7
ENDBRANCH   5   6
ENDBRANCH   4   5
ENDBRANCH   3   4
ENDBRANCH   2   3
ENDBRANCH   1   2
BRANCH   1  28
ATOM     28  C   UNL A   1      36.774  22.030  23.820  1.00  0.00     0.188 C 
BRANCH  28  29
ATOM     29  O   UNL A   1      37.708  21.723  24.845  1.00  0.00    -0.376 OA
BRANCH  29  30
ATOM     30  C   UNL A   1      37.740  20.410  25.384  1.00  0.00     0.202 C 
BRANCH  30  31
ATOM     31  C   UNL A   1      39.103  19.707  25.496  1.00  0.00     0.261 C 
BRANCH  31  32
ATOM     32  O   UNL A   1      40.239  20.550  25.742  1.00  0.00    -0.460 OA
BRANCH  32  33
ATOM     33  C   UNL A   1      40.773  20.545  26.978  1.00  0.00     0.338 C 
ATOM     34  O   UNL A   1      41.178  19.579  27.605  1.00  0.00    -0.246 OA
BRANCH  33  35
ATOM     35  C   UNL A   1      40.976  21.950  27.387  1.00  0.00     0.060 A 
ATOM     36  C   UNL A   1      40.285  22.961  26.707  1.00  0.00     0.016 A 
ATOM     37  C   UNL A   1      41.840  22.267  28.438  1.00  0.00     0.016 A 
ATOM     38  C   UNL A   1      40.486  24.297  27.049  1.00  0.00     0.010 A 
ATOM     39  C   UNL A   1      42.059  23.607  28.763  1.00  0.00     0.010 A 
ATOM     40  C   UNL A   1      41.412  24.629  28.045  1.00  0.00    -0.014 A 
BRANCH  40  41
ATOM     41  C   UNL A   1      41.863  26.034  28.187  1.00  0.00     0.031 A 
ATOM     42  C   UNL A   1      43.197  26.413  27.604  1.00  0.00     0.074 A 
ATOM     43  C   UNL A   1      41.100  26.960  28.793  1.00  0.00     0.049 A 
ATOM     44  N   UNL A   1      43.830  27.557  27.647  1.00  0.00    -0.248 NA
ATOM     45  C   UNL A   1      43.916  25.354  26.877  1.00  0.00     0.031 C 
ATOM     46  C   UNL A   1      39.770  26.731  29.350  1.00  0.00     0.029 A 
ATOM     47  N   UNL A   1      41.348  28.287  29.046  1.00  0.00    -0.354 N 
ATOM     48  C   UNL A   1      45.023  27.351  26.964  1.00  0.00     0.074 A 
ATOM     49  C   UNL A   1      45.040  25.967  26.544  1.00  0.00     0.031 C 
ATOM     50  C   UNL A   1      39.322  27.877  29.891  1.00  0.00     0.029 A 
ATOM     51  C   UNL A   1      40.348  28.909  29.752  1.00  0.00     0.049 A 
ATOM     52  H   UNL A   1      42.166  28.748  28.750  1.00  0.00     0.167 HD
ATOM     53  C   UNL A   1      46.013  28.238  26.706  1.00  0.00     0.037 A 
ATOM     54  C   UNL A   1      40.285  30.160  30.249  1.00  0.00     0.037 A 
ATOM     55  C   UNL A   1      45.993  29.614  27.127  1.00  0.00     0.049 A 
ATOM     56  C   UNL A   1      41.439  31.104  30.023  1.00  0.00     0.074 A 
ATOM     57  C   UNL A   1      46.938  30.597  26.899  1.00  0.00     0.029 A 
ATOM     58  N   UNL A   1      44.979  30.195  27.874  1.00  0.00    -0.354 N 
ATOM     59  N   UNL A   1      42.552  30.910  29.355  1.00  0.00    -0.248 NA
ATOM     60  C   UNL A   1      41.326  32.443  30.617  1.00  0.00     0.031 C 
ATOM     61  C   UNL A   1      46.527  31.758  27.562  1.00  0.00     0.029 A 
ATOM     62  C   UNL A   1      45.292  31.517  28.144  1.00  0.00     0.049 A 
ATOM     63  H   UNL A   1      44.160  29.737  28.168  1.00  0.00     0.167 HD
ATOM     64  C   UNL A   1      43.251  32.110  29.420  1.00  0.00     0.074 A 
ATOM     65  C   UNL A   1      42.432  33.029  30.182  1.00  0.00     0.031 C 
ATOM     66  C   UNL A   1      44.462  32.424  28.894  1.00  0.00     0.037 A 
BRANCH  53  67
ATOM     67  C   UNL A   1      47.218  27.735  25.966  1.00  0.00     0.057 A 
ATOM     68  C   UNL A   1      47.258  27.661  24.567  1.00  0.00     0.134 A 
ATOM     69  C   UNL A   1      48.369  27.345  26.665  1.00  0.00     0.134 A 
ATOM     70  F   UNL A   1      46.185  28.003  23.837  1.00  0.00    -0.206 F 
ATOM     71  C   UNL A   1      48.388  27.195  23.892  1.00  0.00     0.040 A 
ATOM     72  C   UNL A   1      49.514  26.906  26.000  1.00  0.00     0.040 A 
ATOM     73  F   UNL A   1      48.400  27.393  28.005  1.00  0.00    -0.206 F 
ATOM     74  C   UNL A   1      49.524  26.823  24.609  1.00  0.00     0.006 A 
ENDBRANCH  53  67
BRANCH  54  75
ATOM     75  C   UNL A   1      39.097  30.598  31.027  1.00  0.00     0.057 A 
ATOM     76  C   UNL A   1      39.003  30.362  32.404  1.00  0.00     0.134 A 
ATOM     77  C   UNL A   1      38.010  31.228  30.408  1.00  0.00     0.134 A 
ATOM     78  F   UNL A   1      39.999  29.739  33.052  1.00  0.00    -0.206 F 
ATOM     79  C   UNL A   1      37.865  30.716  33.132  1.00  0.00     0.040 A 
ATOM     80  C   UNL A   1      36.879  31.613  31.129  1.00  0.00     0.040 A 
ATOM     81  F   UNL A   1      38.034  31.482  29.091  1.00  0.00    -0.206 F 
ATOM     82  C   UNL A   1      36.800  31.348  32.494  1.00  0.00     0.006 A 
ENDBRANCH  54  75
BRANCH  66  83
ATOM     83  C   UNL A   1      44.955  33.833  29.078  1.00  0.00     0.057 A 
ATOM     84  C   UNL A   1      45.770  34.204  30.154  1.00  0.00     0.134 A 
ATOM     85  C   UNL A   1      44.642  34.822  28.136  1.00  0.00     0.134 A 
ATOM     86  F   UNL A   1      46.101  33.308  31.098  1.00  0.00    -0.206 F 
ATOM     87  C   UNL A   1      46.236  35.513  30.301  1.00  0.00     0.040 A 
ATOM     88  C   UNL A   1      45.127  36.125  28.254  1.00  0.00     0.040 A 
ATOM     89  F   UNL A   1      43.875  34.534  27.074  1.00  0.00    -0.206 F 
ATOM     90  C   UNL A   1      45.920  36.475  29.344  1.00  0.00     0.006 A 
ENDBRANCH  66  83
ENDBRANCH  40  41
ENDBRANCH  33  35
ENDBRANCH  32  33
ENDBRANCH  31  32
ENDBRANCH  30  31
ENDBRANCH  29  30
ENDBRANCH  28  29
ENDBRANCH   1  28
TORSDOF 21
ENDMDL
MODEL 3
REMARK VINA RESULT:     -10.6      2.266      4.304
REMARK SMILES C[C@@H](C(=O)OCCOCCOCCOCCOC(=O)c1ccc(-c2c3nc(c(-c4c(F)cccc4F)c4ccc([nH]4)c(-c4c(F)cccc4F)c4nc(c(-c5c(F)cccc5F)c5ccc2[nH]5)C=C4)C=C3)cc1)c1ccc2c(c1)[nH]c1ccc(Cl)cc12
REMARK SMILES IDX 12 1 11 2 10 3 9 4 8 5 7 6 6 7 5 8 3 9 4 10 2 11 1 12 74 13
REMARK SMILES IDX 75 14 79 15 76 16 78 17 77 18 80 19 87 20 81 21 86 23 82 24
REMARK SMILES IDX 84 25 83 26 85 27 13 28 14 29 15 30 16 31 17 32 18 33 19 34
REMARK SMILES IDX 20 35 21 36 73 37 22 38 72 39 23 40 24 41 25 42 66 43 26 44
REMARK SMILES IDX 71 45 65 46 67 47 27 48 70 49 64 50 63 51 28 53 54 54 37 55
REMARK SMILES IDX 53 56 38 57 41 58 52 59 68 60 39 61 40 62 51 64 69 65 42 66
REMARK SMILES IDX 29 67 30 68 35 69 31 70 32 71 34 72 36 73 33 74 55 75 56 76
REMARK SMILES IDX 61 77 57 78 58 79 60 80 62 81 59 82 43 83 44 84 49 85 45 86
REMARK SMILES IDX 46 87 48 88 50 89 47 90
REMARK H PARENT 80 22 67 52 41 63
REMARK Flexibility Score: inf
ROOT
ATOM      1  C   UNL A   1      44.155  19.473  24.735  1.00  0.00     0.188 C 
ENDROOT
BRANCH   1   2
ATOM      2  O   UNL A   1      43.321  19.842  25.822  1.00  0.00    -0.377 OA
BRANCH   2   3
ATOM      3  C   UNL A   1      42.140  19.097  26.034  1.00  0.00     0.188 C 
BRANCH   3   4
ATOM      4  C   UNL A   1      40.936  19.894  26.556  1.00  0.00     0.188 C 
BRANCH   4   5
ATOM      5  O   UNL A   1      40.709  21.206  26.079  1.00  0.00    -0.376 OA
BRANCH   5   6
ATOM      6  C   UNL A   1      39.653  22.008  26.579  1.00  0.00     0.202 C 
BRANCH   6   7
ATOM      7  C   UNL A   1      38.406  22.439  25.777  1.00  0.00     0.261 C 
BRANCH   7   8
ATOM      8  O   UNL A   1      37.217  21.643  25.890  1.00  0.00    -0.463 OA
BRANCH   8   9
ATOM      9  C   UNL A   1      36.320  21.783  24.886  1.00  0.00     0.313 C 
ATOM     10  O   UNL A   1      36.622  22.201  23.771  1.00  0.00    -0.252 OA
BRANCH   9  11
ATOM     11  C   UNL A   1      34.872  21.419  25.273  1.00  0.00     0.126 C 
ATOM     12  C   UNL A   1      34.236  20.114  24.790  1.00  0.00     0.025 C 
BRANCH  11  13
ATOM     13  C   UNL A   1      33.977  22.650  25.123  1.00  0.00    -0.032 A 
ATOM     14  C   UNL A   1      32.894  22.769  24.236  1.00  0.00     0.005 A 
ATOM     15  C   UNL A   1      34.407  23.785  25.819  1.00  0.00     0.031 A 
ATOM     16  C   UNL A   1      32.233  24.006  24.041  1.00  0.00     0.011 A 
ATOM     17  C   UNL A   1      33.799  25.005  25.551  1.00  0.00     0.047 A 
ATOM     18  C   UNL A   1      32.709  25.159  24.703  1.00  0.00     0.007 A 
ATOM     19  N   UNL A   1      34.168  26.243  25.993  1.00  0.00    -0.355 N 
ATOM     20  C   UNL A   1      32.369  26.558  24.722  1.00  0.00     0.009 A 
ATOM     21  C   UNL A   1      33.366  27.209  25.454  1.00  0.00     0.047 A 
ATOM     22  H   UNL A   1      34.910  26.415  26.617  1.00  0.00     0.167 HD
ATOM     23  C   UNL A   1      31.345  27.352  24.162  1.00  0.00     0.031 A 
ATOM     24  C   UNL A   1      33.465  28.596  25.577  1.00  0.00     0.028 A 
ATOM     25  C   UNL A   1      31.397  28.744  24.332  1.00  0.00     0.041 A 
ATOM     26  C   UNL A   1      32.456  29.359  24.996  1.00  0.00     0.022 A 
ATOM     27  Cl  UNL A   1      30.123  29.726  23.712  1.00  0.00    -0.084 Cl
ENDBRANCH  11  13
ENDBRANCH   9  11
ENDBRANCH   8   9
ENDBRANCH   7   8
ENDBRANCH   6   7
ENDBRANCH   5   6
ENDBRANCH   4   5
ENDBRANCH   3   4
ENDBRANCH   2   3
ENDBRANCH   1   2
BRANCH   1  28
ATOM     28  C   UNL A   1      45.674  19.331  24.952  1.00  0.00     0.188 C 
BRANCH  28  29
ATOM     29  O   UNL A   1      46.317  20.501  25.434  1.00  0.00    -0.376 OA
BRANCH  29  30
ATOM     30  C   UNL A   1      45.998  21.757  24.853  1.00  0.00     0.202 C 
BRANCH  30  31
ATOM     31  C   UNL A   1      45.682  22.930  25.794  1.00  0.00     0.261 C 
BRANCH  31  32
ATOM     32  O   UNL A   1      44.954  24.029  25.225  1.00  0.00    -0.460 OA
BRANCH  32  33
ATOM     33  C   UNL A   1      43.624  24.081  25.433  1.00  0.00     0.338 C 
ATOM     34  O   UNL A   1      42.760  23.435  24.862  1.00  0.00    -0.246 OA
BRANCH  33  35
ATOM     35  C   UNL A   1      43.387  24.919  26.626  1.00  0.00     0.060 A 
ATOM     36  C   UNL A   1      42.575  24.422  27.654  1.00  0.00     0.016 A 
ATOM     37  C   UNL A   1      43.967  26.185  26.732  1.00  0.00     0.016 A 
ATOM     38  C   UNL A   1      42.307  25.208  28.774  1.00  0.00     0.010 A 
ATOM     39  C   UNL A   1      43.678  26.981  27.843  1.00  0.00     0.010 A 
ATOM     40  C   UNL A   1      42.816  26.509  28.850  1.00  0.00    -0.014 A 
BRANCH  40  41
ATOM     41  C   UNL A   1      42.279  27.447  29.864  1.00  0.00     0.031 A 
ATOM     42  C   UNL A   1      42.957  27.503  31.207  1.00  0.00     0.074 A 
ATOM     43  C   UNL A   1      41.235  28.251  29.598  1.00  0.00     0.049 A 
ATOM     44  N   UNL A   1      42.643  28.197  32.271  1.00  0.00    -0.248 NA
ATOM     45  C   UNL A   1      44.149  26.656  31.371  1.00  0.00     0.031 C 
ATOM     46  C   UNL A   1      40.529  28.328  28.323  1.00  0.00     0.029 A 
ATOM     47  N   UNL A   1      40.582  29.153  30.402  1.00  0.00    -0.354 N 
ATOM     48  C   UNL A   1      43.590  27.862  33.230  1.00  0.00     0.074 A 
ATOM     49  C   UNL A   1      44.471  26.882  32.635  1.00  0.00     0.031 C 
ATOM     50  C   UNL A   1      39.531  29.223  28.432  1.00  0.00     0.029 A 
ATOM     51  C   UNL A   1      39.506  29.752  29.795  1.00  0.00     0.049 A 
ATOM     52  H   UNL A   1      40.860  29.352  31.326  1.00  0.00     0.167 HD
ATOM     53  C   UNL A   1      43.717  28.333  34.493  1.00  0.00     0.037 A 
ATOM     54  C   UNL A   1      38.592  30.607  30.295  1.00  0.00     0.037 A 
ATOM     55  C   UNL A   1      42.837  29.308  35.082  1.00  0.00     0.049 A 
ATOM     56  C   UNL A   1      38.705  31.052  31.732  1.00  0.00     0.074 A 
ATOM     57  C   UNL A   1      42.893  29.864  36.347  1.00  0.00     0.029 A 
ATOM     58  N   UNL A   1      41.735  29.860  34.448  1.00  0.00    -0.354 N 
ATOM     59  N   UNL A   1      39.617  30.750  32.626  1.00  0.00    -0.248 NA
ATOM     60  C   UNL A   1      37.660  31.958  32.229  1.00  0.00     0.031 C 
ATOM     61  C   UNL A   1      41.787  30.706  36.502  1.00  0.00     0.029 A 
ATOM     62  C   UNL A   1      41.082  30.727  35.308  1.00  0.00     0.049 A 
ATOM     63  H   UNL A   1      41.458  29.666  33.524  1.00  0.00     0.167 HD
ATOM     64  C   UNL A   1      39.276  31.456  33.774  1.00  0.00     0.074 A 
ATOM     65  C   UNL A   1      38.081  32.210  33.461  1.00  0.00     0.031 C 
ATOM     66  C   UNL A   1      39.899  31.481  34.979  1.00  0.00     0.037 A 
BRANCH  53  67
ATOM     67  C   UNL A   1      44.826  27.771  35.334  1.00  0.00     0.057 A 
ATOM     68  C   UNL A   1      46.095  28.362  35.388  1.00  0.00     0.134 A 
ATOM     69  C   UNL A   1      44.610  26.635  36.126  1.00  0.00     0.134 A 
ATOM     70  F   UNL A   1      46.375  29.442  34.643  1.00  0.00    -0.206 F 
ATOM     71  C   UNL A   1      47.116  27.830  36.179  1.00  0.00     0.040 A 
ATOM     72  C   UNL A   1      45.613  26.112  36.943  1.00  0.00     0.040 A 
ATOM     73  F   UNL A   1      43.417  26.021  36.124  1.00  0.00    -0.206 F 
ATOM     74  C   UNL A   1      46.873  26.706  36.966  1.00  0.00     0.006 A 
ENDBRANCH  53  67
BRANCH  54  75
ATOM     75  C   UNL A   1      37.475  31.094  29.443  1.00  0.00     0.057 A 
ATOM     76  C   UNL A   1      36.380  30.274  29.143  1.00  0.00     0.134 A 
ATOM     77  C   UNL A   1      37.494  32.375  28.877  1.00  0.00     0.134 A 
ATOM     78  F   UNL A   1      36.316  29.027  29.633  1.00  0.00    -0.206 F 
ATOM     79  C   UNL A   1      35.357  30.701  28.295  1.00  0.00     0.040 A 
ATOM     80  C   UNL A   1      36.463  32.825  28.051  1.00  0.00     0.040 A 
ATOM     81  F   UNL A   1      38.514  33.209  29.122  1.00  0.00    -0.206 F 
ATOM     82  C   UNL A   1      35.394  31.983  27.749  1.00  0.00     0.006 A 
ENDBRANCH  54  75
BRANCH  66  83
ATOM     83  C   UNL A   1      39.332  32.388  36.035  1.00  0.00     0.057 A 
ATOM     84  C   UNL A   1      38.358  31.958  36.944  1.00  0.00     0.134 A 
ATOM     85  C   UNL A   1      39.803  33.701  36.170  1.00  0.00     0.134 A 
ATOM     86  F   UNL A   1      37.855  30.716  36.866  1.00  0.00    -0.206 F 
ATOM     87  C   UNL A   1      37.854  32.808  37.932  1.00  0.00     0.040 A 
ATOM     88  C   UNL A   1      39.333  34.549  37.172  1.00  0.00     0.040 A 
ATOM     89  F   UNL A   1      40.745  34.176  35.340  1.00  0.00    -0.206 F 
ATOM     90  C   UNL A   1      38.349  34.105  38.052  1.00  0.00     0.006 A 
ENDBRANCH  66  83
ENDBRANCH  40  41
ENDBRANCH  33  35
ENDBRANCH  32  33
ENDBRANCH  31  32
ENDBRANCH  30  31
ENDBRANCH  29  30
ENDBRANCH  28  29
ENDBRANCH   1  28
TORSDOF 21
ENDMDL
