MODEL 1
REMARK VINA RESULT:     -11.5      0.000      0.000
REMARK SMILES Cc1ccc(C)c(-c2cc(C(=O)OCCOCCOCCOCCOC(=O)c3ccc(-c4c5nc(c(-c6c(F)cccc6F)c6ccc([nH]6)c(-c6c(F)cccc6F)c6nc(c(-c7c(F)cccc7F)c7ccc4[nH]7)C=C6)C=C5)cc3)c3cc(C)ccc3n2)c1
REMARK SMILES IDX 20 1 19 2 18 3 17 4 16 5 15 6 14 7 13 8 11 9 12 10 10 11
REMARK SMILES IDX 8 12 9 13 89 14 88 15 82 16 87 17 83 18 86 19 84 20 85 21
REMARK SMILES IDX 7 22 1 23 2 24 3 25 90 26 4 27 5 28 6 29 21 30 22 31 23 32
REMARK SMILES IDX 24 33 25 34 26 35 27 36 28 37 29 38 81 39 30 40 80 41 31 42
REMARK SMILES IDX 32 43 33 44 74 45 34 46 79 47 73 48 75 49 35 50 78 51 72 52
REMARK SMILES IDX 71 53 36 55 62 56 45 57 61 58 46 59 49 60 60 61 76 62 47 63
REMARK SMILES IDX 48 64 59 66 77 67 50 68 37 69 38 70 43 71 39 72 40 73 42 74
REMARK SMILES IDX 44 75 41 76 63 77 64 78 69 79 65 80 66 81 68 82 70 83 67 84
REMARK SMILES IDX 51 85 52 86 57 87 53 88 54 89 56 90 58 91 55 92
REMARK H PARENT 75 54 49 65
REMARK Flexibility Score: inf
ROOT
ATOM      1  C   UNL A   1      41.000  19.938  26.348  1.00  0.00     0.188 C 
ENDROOT
BRANCH   1   2
ATOM      2  O   UNL A   1      41.236  21.264  25.897  1.00  0.00    -0.377 OA
BRANCH   2   3
ATOM      3  C   UNL A   1      40.748  22.287  26.772  1.00  0.00     0.188 C 
BRANCH   3   4
ATOM      4  C   UNL A   1      39.312  22.803  26.527  1.00  0.00     0.188 C 
BRANCH   4   5
ATOM      5  O   UNL A   1      38.582  21.780  25.860  1.00  0.00    -0.376 OA
BRANCH   5   6
ATOM      6  C   UNL A   1      37.362  22.203  25.275  1.00  0.00     0.202 C 
BRANCH   6   7
ATOM      7  C   UNL A   1      37.192  23.722  25.140  1.00  0.00     0.261 C 
BRANCH   7   8
ATOM      8  O   UNL A   1      35.823  24.177  25.196  1.00  0.00    -0.460 OA
BRANCH   8   9
ATOM      9  C   UNL A   1      34.961  23.795  24.220  1.00  0.00     0.338 C 
ATOM     10  O   UNL A   1      35.001  24.093  23.036  1.00  0.00    -0.246 OA
BRANCH   9  11
ATOM     11  C   UNL A   1      33.848  22.956  24.665  1.00  0.00     0.071 A 
ATOM     12  C   UNL A   1      32.978  20.731  24.690  1.00  0.00     0.072 A 
ATOM     13  C   UNL A   1      34.008  21.595  24.418  1.00  0.00     0.045 A 
ATOM     14  N   UNL A   1      31.830  21.193  25.263  1.00  0.00    -0.248 NA
ATOM     15  C   UNL A   1      31.703  22.522  25.570  1.00  0.00     0.072 A 
ATOM     16  C   UNL A   1      32.724  23.446  25.318  1.00  0.00     0.015 A 
ATOM     17  C   UNL A   1      30.539  23.052  26.137  1.00  0.00     0.029 A 
ATOM     18  C   UNL A   1      32.609  24.793  25.730  1.00  0.00     0.014 A 
ATOM     19  C   UNL A   1      30.391  24.422  26.461  1.00  0.00     0.005 A 
ATOM     20  C   UNL A   1      31.444  25.304  26.273  1.00  0.00    -0.050 A 
ATOM     21  C   UNL A   1      31.407  26.774  26.566  1.00  0.00     0.044 C 
BRANCH  12  22
ATOM     22  C   UNL A   1      33.095  19.311  24.250  1.00  0.00     0.003 A 
ATOM     23  C   UNL A   1      35.213  16.225  25.203  1.00  0.00     0.044 C 
ATOM     24  C   UNL A   1      34.162  17.084  24.556  1.00  0.00    -0.050 A 
ATOM     25  C   UNL A   1      33.503  16.617  23.425  1.00  0.00     0.004 A 
ATOM     26  C   UNL A   1      33.912  18.401  24.984  1.00  0.00     0.014 A 
ATOM     27  C   UNL A   1      32.727  17.490  22.665  1.00  0.00     0.004 A 
ATOM     28  C   UNL A   1      32.569  18.843  23.028  1.00  0.00    -0.042 A 
ATOM     29  C   UNL A   1      32.027  19.761  21.963  1.00  0.00     0.045 C 
ENDBRANCH  12  22
ENDBRANCH   9  11
ENDBRANCH   8   9
ENDBRANCH   7   8
ENDBRANCH   6   7
ENDBRANCH   5   6
ENDBRANCH   4   5
ENDBRANCH   3   4
ENDBRANCH   2   3
ENDBRANCH   1   2
BRANCH   1  30
ATOM     30  C   UNL A   1      42.271  19.248  26.850  1.00  0.00     0.188 C 
BRANCH  30  31
ATOM     31  O   UNL A   1      42.805  18.386  25.849  1.00  0.00    -0.376 OA
BRANCH  31  32
ATOM     32  C   UNL A   1      44.207  18.445  25.662  1.00  0.00     0.202 C 
BRANCH  32  33
ATOM     33  C   UNL A   1      44.497  18.779  24.204  1.00  0.00     0.261 C 
BRANCH  33  34
ATOM     34  O   UNL A   1      44.641  20.200  23.951  1.00  0.00    -0.460 OA
BRANCH  34  35
ATOM     35  C   UNL A   1      45.619  20.863  24.625  1.00  0.00     0.338 C 
ATOM     36  O   UNL A   1      46.732  20.409  24.871  1.00  0.00    -0.246 OA
BRANCH  35  37
ATOM     37  C   UNL A   1      45.124  22.210  25.047  1.00  0.00     0.060 A 
ATOM     38  C   UNL A   1      44.053  22.826  24.393  1.00  0.00     0.016 A 
ATOM     39  C   UNL A   1      45.823  22.933  26.022  1.00  0.00     0.016 A 
ATOM     40  C   UNL A   1      43.756  24.178  24.665  1.00  0.00     0.010 A 
ATOM     41  C   UNL A   1      45.578  24.288  26.232  1.00  0.00     0.010 A 
ATOM     42  C   UNL A   1      44.553  24.944  25.551  1.00  0.00    -0.014 A 
BRANCH  42  43
ATOM     43  C   UNL A   1      44.124  26.216  26.212  1.00  0.00     0.031 A 
ATOM     44  C   UNL A   1      45.257  27.128  26.074  1.00  0.00     0.074 A 
ATOM     45  C   UNL A   1      43.339  26.545  27.275  1.00  0.00     0.049 A 
ATOM     46  N   UNL A   1      46.169  27.244  26.985  1.00  0.00    -0.248 NA
ATOM     47  C   UNL A   1      45.601  27.705  24.774  1.00  0.00     0.031 C 
ATOM     48  C   UNL A   1      43.181  25.809  28.495  1.00  0.00     0.029 A 
ATOM     49  N   UNL A   1      42.416  27.586  27.460  1.00  0.00    -0.354 N 
ATOM     50  C   UNL A   1      46.934  28.287  26.536  1.00  0.00     0.074 A 
ATOM     51  C   UNL A   1      46.717  28.362  25.105  1.00  0.00     0.031 C 
ATOM     52  C   UNL A   1      42.076  26.178  29.152  1.00  0.00     0.029 A 
ATOM     53  C   UNL A   1      41.468  27.322  28.481  1.00  0.00     0.049 A 
ATOM     54  H   UNL A   1      42.426  28.418  26.933  1.00  0.00     0.167 HD
ATOM     55  C   UNL A   1      47.121  29.283  27.436  1.00  0.00     0.037 A 
ATOM     56  C   UNL A   1      40.780  28.165  29.300  1.00  0.00     0.037 A 
ATOM     57  C   UNL A   1      47.122  28.823  28.807  1.00  0.00     0.049 A 
ATOM     58  C   UNL A   1      41.740  28.800  30.243  1.00  0.00     0.074 A 
ATOM     59  C   UNL A   1      47.975  28.091  29.610  1.00  0.00     0.029 A 
ATOM     60  N   UNL A   1      45.898  28.786  29.423  1.00  0.00    -0.354 N 
ATOM     61  N   UNL A   1      42.359  28.208  31.228  1.00  0.00    -0.248 NA
ATOM     62  C   UNL A   1      42.319  30.068  29.801  1.00  0.00     0.031 C 
ATOM     63  C   UNL A   1      47.241  27.694  30.768  1.00  0.00     0.029 A 
ATOM     64  C   UNL A   1      45.953  28.198  30.664  1.00  0.00     0.049 A 
ATOM     65  H   UNL A   1      45.071  29.142  29.021  1.00  0.00     0.167 HD
ATOM     66  C   UNL A   1      43.626  28.763  31.179  1.00  0.00     0.074 A 
ATOM     67  C   UNL A   1      43.506  29.984  30.398  1.00  0.00     0.031 C 
ATOM     68  C   UNL A   1      44.740  28.023  31.428  1.00  0.00     0.037 A 
BRANCH  55  69
ATOM     69  C   UNL A   1      46.686  30.661  27.047  1.00  0.00     0.057 A 
ATOM     70  C   UNL A   1      47.598  31.711  27.035  1.00  0.00     0.134 A 
ATOM     71  C   UNL A   1      45.329  31.016  26.860  1.00  0.00     0.134 A 
ATOM     72  F   UNL A   1      48.890  31.492  27.320  1.00  0.00    -0.206 F 
ATOM     73  C   UNL A   1      47.193  33.024  26.772  1.00  0.00     0.040 A 
ATOM     74  C   UNL A   1      44.922  32.299  26.515  1.00  0.00     0.040 A 
ATOM     75  F   UNL A   1      44.331  30.154  27.102  1.00  0.00    -0.206 F 
ATOM     76  C   UNL A   1      45.861  33.315  26.477  1.00  0.00     0.006 A 
ENDBRANCH  55  69
BRANCH  56  77
ATOM     77  C   UNL A   1      39.422  28.689  29.069  1.00  0.00     0.057 A 
ATOM     78  C   UNL A   1      38.443  28.605  30.073  1.00  0.00     0.134 A 
ATOM     79  C   UNL A   1      39.019  29.246  27.853  1.00  0.00     0.134 A 
ATOM     80  F   UNL A   1      38.732  28.055  31.262  1.00  0.00    -0.206 F 
ATOM     81  C   UNL A   1      37.132  29.062  29.880  1.00  0.00     0.040 A 
ATOM     82  C   UNL A   1      37.716  29.716  27.649  1.00  0.00     0.040 A 
ATOM     83  F   UNL A   1      39.885  29.363  26.835  1.00  0.00    -0.206 F 
ATOM     84  C   UNL A   1      36.767  29.623  28.661  1.00  0.00     0.006 A 
ENDBRANCH  56  77
BRANCH  68  85
ATOM     85  C   UNL A   1      44.670  27.018  32.528  1.00  0.00     0.057 A 
ATOM     86  C   UNL A   1      44.549  25.636  32.370  1.00  0.00     0.134 A 
ATOM     87  C   UNL A   1      44.785  27.497  33.838  1.00  0.00     0.134 A 
ATOM     88  F   UNL A   1      44.502  25.076  31.159  1.00  0.00    -0.206 F 
ATOM     89  C   UNL A   1      44.517  24.768  33.467  1.00  0.00     0.040 A 
ATOM     90  C   UNL A   1      44.777  26.643  34.942  1.00  0.00     0.040 A 
ATOM     91  F   UNL A   1      44.939  28.811  34.064  1.00  0.00    -0.206 F 
ATOM     92  C   UNL A   1      44.633  25.271  34.759  1.00  0.00     0.006 A 
ENDBRANCH  68  85
ENDBRANCH  42  43
ENDBRANCH  35  37
ENDBRANCH  34  35
ENDBRANCH  33  34
ENDBRANCH  32  33
ENDBRANCH  31  32
ENDBRANCH  30  31
ENDBRANCH   1  30
TORSDOF 21
ENDMDL
MODEL 2
REMARK VINA RESULT:     -11.1      1.055      3.546
REMARK SMILES Cc1ccc(C)c(-c2cc(C(=O)OCCOCCOCCOCCOC(=O)c3ccc(-c4c5nc(c(-c6c(F)cccc6F)c6ccc([nH]6)c(-c6c(F)cccc6F)c6nc(c(-c7c(F)cccc7F)c7ccc4[nH]7)C=C6)C=C5)cc3)c3cc(C)ccc3n2)c1
REMARK SMILES IDX 20 1 19 2 18 3 17 4 16 5 15 6 14 7 13 8 11 9 12 10 10 11
REMARK SMILES IDX 8 12 9 13 89 14 88 15 82 16 87 17 83 18 86 19 84 20 85 21
REMARK SMILES IDX 7 22 1 23 2 24 3 25 90 26 4 27 5 28 6 29 21 30 22 31 23 32
REMARK SMILES IDX 24 33 25 34 26 35 27 36 28 37 29 38 81 39 30 40 80 41 31 42
REMARK SMILES IDX 32 43 33 44 74 45 34 46 79 47 73 48 75 49 35 50 78 51 72 52
REMARK SMILES IDX 71 53 36 55 62 56 45 57 61 58 46 59 49 60 60 61 76 62 47 63
REMARK SMILES IDX 48 64 59 66 77 67 50 68 37 69 38 70 43 71 39 72 40 73 42 74
REMARK SMILES IDX 44 75 41 76 63 77 64 78 69 79 65 80 66 81 68 82 70 83 67 84
REMARK SMILES IDX 51 85 52 86 57 87 53 88 54 89 56 90 58 91 55 92
REMARK H PARENT 75 54 49 65
REMARK Flexibility Score: inf
ROOT
ATOM      1  C   UNL A   1      41.736  19.651  27.135  1.00  0.00     0.188 C 
ENDROOT
BRANCH   1   2
ATOM      2  O   UNL A   1      42.388  20.839  26.708  1.00  0.00    -0.377 OA
BRANCH   2   3
ATOM      3  C   UNL A   1      41.944  22.031  27.366  1.00  0.00     0.188 C 
BRANCH   3   4
ATOM      4  C   UNL A   1      40.421  22.286  27.419  1.00  0.00     0.188 C 
BRANCH   4   5
ATOM      5  O   UNL A   1      39.824  21.630  26.306  1.00  0.00    -0.376 OA
BRANCH   5   6
ATOM      6  C   UNL A   1      38.506  22.054  26.001  1.00  0.00     0.202 C 
BRANCH   6   7
ATOM      7  C   UNL A   1      38.279  23.571  26.046  1.00  0.00     0.261 C 
BRANCH   7   8
ATOM      8  O   UNL A   1      36.904  23.975  25.868  1.00  0.00    -0.460 OA
BRANCH   8   9
ATOM      9  C   UNL A   1      36.297  23.740  24.677  1.00  0.00     0.338 C 
ATOM     10  O   UNL A   1      36.831  23.455  23.616  1.00  0.00    -0.246 OA
BRANCH   9  11
ATOM     11  C   UNL A   1      34.841  23.881  24.681  1.00  0.00     0.071 A 
ATOM     12  C   UNL A   1      33.038  25.448  24.750  1.00  0.00     0.072 A 
ATOM     13  C   UNL A   1      34.382  25.195  24.636  1.00  0.00     0.045 A 
ATOM     14  N   UNL A   1      32.152  24.415  24.836  1.00  0.00    -0.248 NA
ATOM     15  C   UNL A   1      32.602  23.122  24.808  1.00  0.00     0.072 A 
ATOM     16  C   UNL A   1      33.960  22.807  24.690  1.00  0.00     0.015 A 
ATOM     17  C   UNL A   1      31.738  22.026  24.917  1.00  0.00     0.029 A 
ATOM     18  C   UNL A   1      34.392  21.467  24.567  1.00  0.00     0.014 A 
ATOM     19  C   UNL A   1      32.185  20.683  24.891  1.00  0.00     0.005 A 
ATOM     20  C   UNL A   1      33.528  20.395  24.695  1.00  0.00    -0.050 A 
ATOM     21  C   UNL A   1      34.123  19.020  24.657  1.00  0.00     0.044 C 
BRANCH  12  22
ATOM     22  C   UNL A   1      32.581  26.861  24.886  1.00  0.00     0.003 A 
ATOM     23  C   UNL A   1      32.981  29.721  27.451  1.00  0.00     0.044 C 
ATOM     24  C   UNL A   1      32.613  28.974  26.199  1.00  0.00    -0.050 A 
ATOM     25  C   UNL A   1      31.679  29.524  25.328  1.00  0.00     0.004 A 
ATOM     26  C   UNL A   1      33.091  27.677  25.940  1.00  0.00     0.014 A 
ATOM     27  C   UNL A   1      31.134  28.742  24.312  1.00  0.00     0.004 A 
ATOM     28  C   UNL A   1      31.526  27.401  24.123  1.00  0.00    -0.042 A 
ATOM     29  C   UNL A   1      30.628  26.560  23.254  1.00  0.00     0.045 C 
ENDBRANCH  12  22
ENDBRANCH   9  11
ENDBRANCH   8   9
ENDBRANCH   7   8
ENDBRANCH   6   7
ENDBRANCH   5   6
ENDBRANCH   4   5
ENDBRANCH   3   4
ENDBRANCH   2   3
ENDBRANCH   1   2
BRANCH   1  30
ATOM     30  C   UNL A   1      42.654  18.426  27.099  1.00  0.00     0.188 C 
BRANCH  30  31
ATOM     31  O   UNL A   1      43.106  18.175  25.771  1.00  0.00    -0.376 OA
BRANCH  31  32
ATOM     32  C   UNL A   1      44.477  18.431  25.523  1.00  0.00     0.202 C 
BRANCH  32  33
ATOM     33  C   UNL A   1      44.643  18.859  24.070  1.00  0.00     0.261 C 
BRANCH  33  34
ATOM     34  O   UNL A   1      44.676  20.297  23.888  1.00  0.00    -0.460 OA
BRANCH  34  35
ATOM     35  C   UNL A   1      45.661  20.989  24.523  1.00  0.00     0.338 C 
ATOM     36  O   UNL A   1      46.796  20.570  24.721  1.00  0.00    -0.246 OA
BRANCH  35  37
ATOM     37  C   UNL A   1      45.141  22.319  24.970  1.00  0.00     0.060 A 
ATOM     38  C   UNL A   1      44.009  22.890  24.382  1.00  0.00     0.016 A 
ATOM     39  C   UNL A   1      45.873  23.074  25.896  1.00  0.00     0.016 A 
ATOM     40  C   UNL A   1      43.678  24.231  24.666  1.00  0.00     0.010 A 
ATOM     41  C   UNL A   1      45.589  24.420  26.115  1.00  0.00     0.010 A 
ATOM     42  C   UNL A   1      44.498  25.033  25.497  1.00  0.00    -0.014 A 
BRANCH  42  43
ATOM     43  C   UNL A   1      44.063  26.291  26.178  1.00  0.00     0.031 A 
ATOM     44  C   UNL A   1      45.205  27.198  26.086  1.00  0.00     0.074 A 
ATOM     45  C   UNL A   1      43.258  26.601  27.232  1.00  0.00     0.049 A 
ATOM     46  N   UNL A   1      46.097  27.287  27.020  1.00  0.00    -0.248 NA
ATOM     47  C   UNL A   1      45.581  27.803  24.808  1.00  0.00     0.031 C 
ATOM     48  C   UNL A   1      43.068  25.837  28.430  1.00  0.00     0.029 A 
ATOM     49  N   UNL A   1      42.338  27.644  27.422  1.00  0.00    -0.354 N 
ATOM     50  C   UNL A   1      46.878  28.335  26.612  1.00  0.00     0.074 A 
ATOM     51  C   UNL A   1      46.694  28.445  25.179  1.00  0.00     0.031 C 
ATOM     52  C   UNL A   1      41.952  26.198  29.071  1.00  0.00     0.029 A 
ATOM     53  C   UNL A   1      41.365  27.362  28.415  1.00  0.00     0.049 A 
ATOM     54  H   UNL A   1      42.365  28.488  26.915  1.00  0.00     0.167 HD
ATOM     55  C   UNL A   1      47.052  29.308  27.540  1.00  0.00     0.037 A 
ATOM     56  C   UNL A   1      40.665  28.190  29.239  1.00  0.00     0.037 A 
ATOM     57  C   UNL A   1      47.020  28.816  28.899  1.00  0.00     0.049 A 
ATOM     58  C   UNL A   1      41.608  28.797  30.216  1.00  0.00     0.074 A 
ATOM     59  C   UNL A   1      47.851  28.059  29.703  1.00  0.00     0.029 A 
ATOM     60  N   UNL A   1      45.783  28.773  29.487  1.00  0.00    -0.354 N 
ATOM     61  N   UNL A   1      42.202  28.178  31.201  1.00  0.00    -0.248 NA
ATOM     62  C   UNL A   1      42.205  30.070  29.818  1.00  0.00     0.031 C 
ATOM     63  C   UNL A   1      47.089  27.640  30.835  1.00  0.00     0.029 A 
ATOM     64  C   UNL A   1      45.807  28.156  30.715  1.00  0.00     0.049 A 
ATOM     65  H   UNL A   1      44.968  29.144  29.076  1.00  0.00     0.167 HD
ATOM     66  C   UNL A   1      43.473  28.724  31.193  1.00  0.00     0.074 A 
ATOM     67  C   UNL A   1      43.378  29.964  30.438  1.00  0.00     0.031 C 
ATOM     68  C   UNL A   1      44.577  27.971  31.448  1.00  0.00     0.037 A 
BRANCH  55  69
ATOM     69  C   UNL A   1      46.635  30.698  27.174  1.00  0.00     0.057 A 
ATOM     70  C   UNL A   1      47.552  31.743  27.213  1.00  0.00     0.134 A 
ATOM     71  C   UNL A   1      45.285  31.065  26.959  1.00  0.00     0.134 A 
ATOM     72  F   UNL A   1      48.834  31.510  27.527  1.00  0.00    -0.206 F 
ATOM     73  C   UNL A   1      47.160  33.064  26.972  1.00  0.00     0.040 A 
ATOM     74  C   UNL A   1      44.894  32.359  26.636  1.00  0.00     0.040 A 
ATOM     75  F   UNL A   1      44.277  30.203  27.153  1.00  0.00    -0.206 F 
ATOM     76  C   UNL A   1      45.839  33.370  26.648  1.00  0.00     0.006 A 
ENDBRANCH  55  69
BRANCH  56  77
ATOM     77  C   UNL A   1      39.316  28.729  28.991  1.00  0.00     0.057 A 
ATOM     78  C   UNL A   1      38.325  28.658  29.984  1.00  0.00     0.134 A 
ATOM     79  C   UNL A   1      38.933  29.287  27.768  1.00  0.00     0.134 A 
ATOM     80  F   UNL A   1      38.594  28.108  31.177  1.00  0.00    -0.206 F 
ATOM     81  C   UNL A   1      37.022  29.129  29.775  1.00  0.00     0.040 A 
ATOM     82  C   UNL A   1      37.638  29.772  27.548  1.00  0.00     0.040 A 
ATOM     83  F   UNL A   1      39.812  29.393  26.761  1.00  0.00    -0.206 F 
ATOM     84  C   UNL A   1      36.676  29.692  28.550  1.00  0.00     0.006 A 
ENDBRANCH  56  77
BRANCH  68  85
ATOM     85  C   UNL A   1      44.477  26.941  32.522  1.00  0.00     0.057 A 
ATOM     86  C   UNL A   1      44.428  25.558  32.331  1.00  0.00     0.134 A 
ATOM     87  C   UNL A   1      44.481  27.397  33.846  1.00  0.00     0.134 A 
ATOM     88  F   UNL A   1      44.489  25.023  31.110  1.00  0.00    -0.206 F 
ATOM     89  C   UNL A   1      44.360  24.667  33.408  1.00  0.00     0.040 A 
ATOM     90  C   UNL A   1      44.435  26.520  34.931  1.00  0.00     0.040 A 
ATOM     91  F   UNL A   1      44.560  28.712  34.105  1.00  0.00    -0.206 F 
ATOM     92  C   UNL A   1      44.365  25.148  34.714  1.00  0.00     0.006 A 
ENDBRANCH  68  85
ENDBRANCH  42  43
ENDBRANCH  35  37
ENDBRANCH  34  35
ENDBRANCH  33  34
ENDBRANCH  32  33
ENDBRANCH  31  32
ENDBRANCH  30  31
ENDBRANCH   1  30
TORSDOF 21
ENDMDL
MODEL 3
REMARK VINA RESULT:     -10.8      1.814      4.911
REMARK SMILES Cc1ccc(C)c(-c2cc(C(=O)OCCOCCOCCOCCOC(=O)c3ccc(-c4c5nc(c(-c6c(F)cccc6F)c6ccc([nH]6)c(-c6c(F)cccc6F)c6nc(c(-c7c(F)cccc7F)c7ccc4[nH]7)C=C6)C=C5)cc3)c3cc(C)ccc3n2)c1
REMARK SMILES IDX 20 1 19 2 18 3 17 4 16 5 15 6 14 7 13 8 11 9 12 10 10 11
REMARK SMILES IDX 8 12 9 13 89 14 88 15 82 16 87 17 83 18 86 19 84 20 85 21
REMARK SMILES IDX 7 22 1 23 2 24 3 25 90 26 4 27 5 28 6 29 21 30 22 31 23 32
REMARK SMILES IDX 24 33 25 34 26 35 27 36 28 37 29 38 81 39 30 40 80 41 31 42
REMARK SMILES IDX 32 43 33 44 74 45 34 46 79 47 73 48 75 49 35 50 78 51 72 52
REMARK SMILES IDX 71 53 36 55 62 56 45 57 61 58 46 59 49 60 60 61 76 62 47 63
REMARK SMILES IDX 48 64 59 66 77 67 50 68 37 69 38 70 43 71 39 72 40 73 42 74
REMARK SMILES IDX 44 75 41 76 63 77 64 78 69 79 65 80 66 81 68 82 70 83 67 84
REMARK SMILES IDX 51 85 52 86 57 87 53 88 54 89 56 90 58 91 55 92
REMARK H PARENT 75 54 49 65
REMARK Flexibility Score: inf
ROOT
ATOM      1  C   UNL A   1      41.776  19.603  27.097  1.00  0.00     0.188 C 
ENDROOT
BRANCH   1   2
ATOM      2  O   UNL A   1      41.158  20.865  27.314  1.00  0.00    -0.377 OA
BRANCH   2   3
ATOM      3  C   UNL A   1      40.658  21.493  26.129  1.00  0.00     0.188 C 
BRANCH   3   4
ATOM      4  C   UNL A   1      39.182  21.949  26.138  1.00  0.00     0.188 C 
BRANCH   4   5
ATOM      5  O   UNL A   1      39.140  23.309  26.552  1.00  0.00    -0.376 OA
BRANCH   5   6
ATOM      6  C   UNL A   1      37.885  23.947  26.382  1.00  0.00     0.202 C 
BRANCH   6   7
ATOM      7  C   UNL A   1      37.051  23.444  25.196  1.00  0.00     0.261 C 
BRANCH   7   8
ATOM      8  O   UNL A   1      35.831  24.181  24.969  1.00  0.00    -0.460 OA
BRANCH   8   9
ATOM      9  C   UNL A   1      34.948  23.725  24.045  1.00  0.00     0.338 C 
ATOM     10  O   UNL A   1      34.933  23.971  22.848  1.00  0.00    -0.246 OA
BRANCH   9  11
ATOM     11  C   UNL A   1      33.884  22.868  24.568  1.00  0.00     0.071 A 
ATOM     12  C   UNL A   1      33.084  20.619  24.699  1.00  0.00     0.072 A 
ATOM     13  C   UNL A   1      34.073  21.505  24.351  1.00  0.00     0.045 A 
ATOM     14  N   UNL A   1      31.953  21.065  25.316  1.00  0.00    -0.248 NA
ATOM     15  C   UNL A   1      31.801  22.398  25.592  1.00  0.00     0.072 A 
ATOM     16  C   UNL A   1      32.779  23.343  25.263  1.00  0.00     0.015 A 
ATOM     17  C   UNL A   1      30.651  22.911  26.202  1.00  0.00     0.029 A 
ATOM     18  C   UNL A   1      32.644  24.698  25.643  1.00  0.00     0.014 A 
ATOM     19  C   UNL A   1      30.477  24.285  26.494  1.00  0.00     0.005 A 
ATOM     20  C   UNL A   1      31.493  25.191  26.230  1.00  0.00    -0.050 A 
ATOM     21  C   UNL A   1      31.426  26.667  26.483  1.00  0.00     0.044 C 
BRANCH  12  22
ATOM     22  C   UNL A   1      33.222  19.191  24.292  1.00  0.00     0.003 A 
ATOM     23  C   UNL A   1      35.382  16.159  25.323  1.00  0.00     0.044 C 
ATOM     24  C   UNL A   1      34.321  16.988  24.654  1.00  0.00    -0.050 A 
ATOM     25  C   UNL A   1      33.670  16.485  23.533  1.00  0.00     0.004 A 
ATOM     26  C   UNL A   1      34.051  18.311  25.050  1.00  0.00     0.014 A 
ATOM     27  C   UNL A   1      32.884  17.328  22.750  1.00  0.00     0.004 A 
ATOM     28  C   UNL A   1      32.706  18.687  23.081  1.00  0.00    -0.042 A 
ATOM     29  C   UNL A   1      32.154  19.571  21.993  1.00  0.00     0.045 C 
ENDBRANCH  12  22
ENDBRANCH   9  11
ENDBRANCH   8   9
ENDBRANCH   7   8
ENDBRANCH   6   7
ENDBRANCH   5   6
ENDBRANCH   4   5
ENDBRANCH   3   4
ENDBRANCH   2   3
ENDBRANCH   1   2
BRANCH   1  30
ATOM     30  C   UNL A   1      42.437  19.497  25.721  1.00  0.00     0.188 C 
BRANCH  30  31
ATOM     31  O   UNL A   1      43.736  18.923  25.829  1.00  0.00    -0.376 OA
BRANCH  31  32
ATOM     32  C   UNL A   1      44.475  18.826  24.624  1.00  0.00     0.202 C 
BRANCH  32  33
ATOM     33  C   UNL A   1      45.916  19.241  24.894  1.00  0.00     0.261 C 
BRANCH  33  34
ATOM     34  O   UNL A   1      46.034  20.407  25.749  1.00  0.00    -0.460 OA
BRANCH  34  35
ATOM     35  C   UNL A   1      45.952  21.630  25.159  1.00  0.00     0.338 C 
ATOM     36  O   UNL A   1      46.261  21.870  23.997  1.00  0.00    -0.246 OA
BRANCH  35  37
ATOM     37  C   UNL A   1      45.458  22.640  26.147  1.00  0.00     0.060 A 
ATOM     38  C   UNL A   1      46.198  23.789  26.440  1.00  0.00     0.016 A 
ATOM     39  C   UNL A   1      44.304  22.372  26.895  1.00  0.00     0.016 A 
ATOM     40  C   UNL A   1      45.819  24.602  27.529  1.00  0.00     0.010 A 
ATOM     41  C   UNL A   1      43.977  23.132  28.015  1.00  0.00     0.010 A 
ATOM     42  C   UNL A   1      44.731  24.252  28.366  1.00  0.00    -0.014 A 
BRANCH  42  43
ATOM     43  C   UNL A   1      44.002  25.197  29.267  1.00  0.00     0.031 A 
ATOM     44  C   UNL A   1      42.966  25.806  28.436  1.00  0.00     0.074 A 
ATOM     45  C   UNL A   1      44.336  25.995  30.320  1.00  0.00     0.049 A 
ATOM     46  N   UNL A   1      43.148  26.924  27.809  1.00  0.00    -0.248 NA
ATOM     47  C   UNL A   1      41.802  25.033  28.002  1.00  0.00     0.031 C 
ATOM     48  C   UNL A   1      45.572  26.694  30.518  1.00  0.00     0.029 A 
ATOM     49  N   UNL A   1      43.662  26.282  31.517  1.00  0.00    -0.354 N 
ATOM     50  C   UNL A   1      41.910  27.202  27.294  1.00  0.00     0.074 A 
ATOM     51  C   UNL A   1      41.210  25.936  27.214  1.00  0.00     0.031 C 
ATOM     52  C   UNL A   1      45.732  27.057  31.795  1.00  0.00     0.029 A 
ATOM     53  C   UNL A   1      44.519  26.751  32.546  1.00  0.00     0.049 A 
ATOM     54  H   UNL A   1      42.691  26.169  31.631  1.00  0.00     0.167 HD
ATOM     55  C   UNL A   1      41.436  28.437  27.592  1.00  0.00     0.037 A 
ATOM     56  C   UNL A   1      44.277  27.577  33.601  1.00  0.00     0.037 A 
ATOM     57  C   UNL A   1      42.477  29.427  27.751  1.00  0.00     0.049 A 
ATOM     58  C   UNL A   1      44.014  28.946  33.083  1.00  0.00     0.074 A 
ATOM     59  C   UNL A   1      43.355  30.091  26.915  1.00  0.00     0.029 A 
ATOM     60  N   UNL A   1      42.989  29.554  29.016  1.00  0.00    -0.354 N 
ATOM     61  N   UNL A   1      44.892  29.749  32.545  1.00  0.00    -0.248 NA
ATOM     62  C   UNL A   1      42.614  29.263  32.806  1.00  0.00     0.031 C 
ATOM     63  C   UNL A   1      44.357  30.692  27.735  1.00  0.00     0.029 A 
ATOM     64  C   UNL A   1      44.072  30.399  29.061  1.00  0.00     0.049 A 
ATOM     65  H   UNL A   1      42.622  29.091  29.804  1.00  0.00     0.167 HD
ATOM     66  C   UNL A   1      44.188  30.332  31.506  1.00  0.00     0.074 A 
ATOM     67  C   UNL A   1      42.779  30.117  31.799  1.00  0.00     0.031 C 
ATOM     68  C   UNL A   1      44.772  30.600  30.308  1.00  0.00     0.037 A 
BRANCH  55  69
ATOM     69  C   UNL A   1      40.123  28.522  28.306  1.00  0.00     0.057 A 
ATOM     70  C   UNL A   1      39.045  29.180  27.724  1.00  0.00     0.134 A 
ATOM     71  C   UNL A   1      39.952  28.123  29.652  1.00  0.00     0.134 A 
ATOM     72  F   UNL A   1      39.151  29.702  26.493  1.00  0.00    -0.206 F 
ATOM     73  C   UNL A   1      37.842  29.359  28.415  1.00  0.00     0.040 A 
ATOM     74  C   UNL A   1      38.738  28.217  30.322  1.00  0.00     0.040 A 
ATOM     75  F   UNL A   1      40.983  27.716  30.407  1.00  0.00    -0.206 F 
ATOM     76  C   UNL A   1      37.674  28.846  29.701  1.00  0.00     0.006 A 
ENDBRANCH  55  69
BRANCH  56  77
ATOM     77  C   UNL A   1      43.926  27.161  34.971  1.00  0.00     0.057 A 
ATOM     78  C   UNL A   1      44.864  27.266  36.012  1.00  0.00     0.134 A 
ATOM     79  C   UNL A   1      42.688  26.605  35.303  1.00  0.00     0.134 A 
ATOM     80  F   UNL A   1      46.090  27.757  35.777  1.00  0.00    -0.206 F 
ATOM     81  C   UNL A   1      44.580  26.850  37.319  1.00  0.00     0.040 A 
ATOM     82  C   UNL A   1      42.385  26.195  36.607  1.00  0.00     0.040 A 
ATOM     83  F   UNL A   1      41.732  26.462  34.373  1.00  0.00    -0.206 F 
ATOM     84  C   UNL A   1      43.332  26.313  37.620  1.00  0.00     0.006 A 
ENDBRANCH  56  77
BRANCH  68  85
ATOM     85  C   UNL A   1      46.172  31.115  30.321  1.00  0.00     0.057 A 
ATOM     86  C   UNL A   1      47.316  30.395  29.970  1.00  0.00     0.134 A 
ATOM     87  C   UNL A   1      46.354  32.458  30.673  1.00  0.00     0.134 A 
ATOM     88  F   UNL A   1      47.239  29.128  29.554  1.00  0.00    -0.206 F 
ATOM     89  C   UNL A   1      48.589  30.975  29.990  1.00  0.00     0.040 A 
ATOM     90  C   UNL A   1      47.614  33.058  30.677  1.00  0.00     0.040 A 
ATOM     91  F   UNL A   1      45.295  33.220  30.990  1.00  0.00    -0.206 F 
ATOM     92  C   UNL A   1      48.740  32.313  30.343  1.00  0.00     0.006 A 
ENDBRANCH  68  85
ENDBRANCH  42  43
ENDBRANCH  35  37
ENDBRANCH  34  35
ENDBRANCH  33  34
ENDBRANCH  32  33
ENDBRANCH  31  32
ENDBRANCH  30  31
ENDBRANCH   1  30
TORSDOF 21
ENDMDL
