MODEL 1
REMARK VINA RESULT:      -9.2      0.000      0.000
REMARK SMILES O=C(CC[C@H]1CC[C@@H](O)CC1)OCCOCCOCCOCCOC(=O)c1ccc(-c2c3nc(c(-c4c(F)cccc4F)c4ccc([nH]4)c(-c4c(F)cccc4F)c4nc(c(-c5c(F)cccc5F)c5ccc2[nH]5)C=C4)C=C3)cc1
REMARK SMILES IDX 17 1 16 2 15 3 14 4 13 5 12 6 2 7 1 8 3 9 4 10 5 11 6 12
REMARK SMILES IDX 11 13 7 14 10 15 8 16 9 17 18 19 19 20 20 21 21 22 22 23
REMARK SMILES IDX 23 24 24 25 25 26 26 27 27 28 28 29 80 30 29 31 79 32 30 33
REMARK SMILES IDX 31 34 32 35 73 36 33 37 78 38 72 39 74 40 34 41 77 42 71 43
REMARK SMILES IDX 70 44 35 46 61 47 44 48 60 49 45 50 48 51 59 52 75 53 46 54
REMARK SMILES IDX 47 55 58 57 76 58 49 59 36 60 37 61 42 62 38 63 39 64 41 65
REMARK SMILES IDX 43 66 40 67 62 68 63 69 68 70 64 71 65 72 67 73 69 74 66 75
REMARK SMILES IDX 50 76 51 77 56 78 52 79 53 80 55 81 57 82 54 83
REMARK H PARENT 9 18 74 45 48 56
REMARK Flexibility Score: inf
ROOT
ATOM      1  C   UNL A   1      33.846  31.429  27.642  1.00  0.00     0.188 C 
ENDROOT
BRANCH   1   2
ATOM      2  C   UNL A   1      34.978  30.409  27.700  1.00  0.00     0.188 C 
BRANCH   2   3
ATOM      3  O   UNL A   1      34.696  29.070  27.321  1.00  0.00    -0.376 OA
BRANCH   3   4
ATOM      4  C   UNL A   1      33.988  28.718  26.149  1.00  0.00     0.202 C 
BRANCH   4   5
ATOM      5  C   UNL A   1      33.801  27.263  25.718  1.00  0.00     0.261 C 
BRANCH   5   6
ATOM      6  O   UNL A   1      32.832  26.476  26.425  1.00  0.00    -0.463 OA
BRANCH   6   7
ATOM      7  C   UNL A   1      32.635  25.160  26.195  1.00  0.00     0.305 C 
ATOM      8  O   UNL A   1      33.513  24.342  26.451  1.00  0.00    -0.252 OA
BRANCH   7   9
ATOM      9  C   UNL A   1      31.399  24.778  25.423  1.00  0.00     0.123 C 
BRANCH   9  10
ATOM     10  C   UNL A   1      30.408  25.919  25.249  1.00  0.00     0.015 C 
BRANCH  10  11
ATOM     11  C   UNL A   1      29.812  25.943  23.829  1.00  0.00    -0.010 C 
ATOM     12  C   UNL A   1      30.864  25.732  22.737  1.00  0.00     0.006 C 
ATOM     13  C   UNL A   1      28.974  27.191  23.554  1.00  0.00     0.006 C 
ATOM     14  C   UNL A   1      31.746  26.953  22.551  1.00  0.00     0.032 C 
ATOM     15  C   UNL A   1      29.845  28.424  23.416  1.00  0.00     0.032 C 
ATOM     16  C   UNL A   1      30.930  28.231  22.358  1.00  0.00     0.114 C 
BRANCH  16  17
ATOM     17  O   UNL A   1      31.810  29.348  22.392  1.00  0.00    -0.393 OA
ATOM     18  H   UNL A   1      32.090  29.512  23.306  1.00  0.00     0.210 HD
ENDBRANCH  16  17
ENDBRANCH  10  11
ENDBRANCH   9  10
ENDBRANCH   7   9
ENDBRANCH   6   7
ENDBRANCH   5   6
ENDBRANCH   4   5
ENDBRANCH   3   4
ENDBRANCH   2   3
ENDBRANCH   1   2
BRANCH   1  19
ATOM     19  O   UNL A   1      34.019  32.527  28.519  1.00  0.00    -0.377 OA
BRANCH  19  20
ATOM     20  C   UNL A   1      33.531  33.764  28.032  1.00  0.00     0.188 C 
BRANCH  20  21
ATOM     21  C   UNL A   1      33.221  34.852  29.088  1.00  0.00     0.188 C 
BRANCH  21  22
ATOM     22  O   UNL A   1      34.116  35.163  30.145  1.00  0.00    -0.376 OA
BRANCH  22  23
ATOM     23  C   UNL A   1      33.662  35.180  31.487  1.00  0.00     0.202 C 
BRANCH  23  24
ATOM     24  C   UNL A   1      34.147  34.072  32.430  1.00  0.00     0.261 C 
BRANCH  24  25
ATOM     25  O   UNL A   1      35.121  33.180  31.863  1.00  0.00    -0.460 OA
BRANCH  25  26
ATOM     26  C   UNL A   1      35.975  32.592  32.738  1.00  0.00     0.338 C 
ATOM     27  O   UNL A   1      35.865  32.537  33.951  1.00  0.00    -0.246 OA
BRANCH  26  28
ATOM     28  C   UNL A   1      36.989  31.811  31.986  1.00  0.00     0.060 A 
ATOM     29  C   UNL A   1      37.853  30.980  32.716  1.00  0.00     0.016 A 
ATOM     30  C   UNL A   1      37.057  31.834  30.590  1.00  0.00     0.016 A 
ATOM     31  C   UNL A   1      38.797  30.188  32.060  1.00  0.00     0.010 A 
ATOM     32  C   UNL A   1      38.028  31.066  29.933  1.00  0.00     0.010 A 
ATOM     33  C   UNL A   1      38.920  30.264  30.667  1.00  0.00    -0.014 A 
BRANCH  33  34
ATOM     34  C   UNL A   1      40.132  29.710  30.012  1.00  0.00     0.031 A 
ATOM     35  C   UNL A   1      41.297  30.639  29.805  1.00  0.00     0.074 A 
ATOM     36  C   UNL A   1      40.215  28.426  29.618  1.00  0.00     0.049 A 
ATOM     37  N   UNL A   1      42.438  30.424  29.204  1.00  0.00    -0.248 NA
ATOM     38  C   UNL A   1      41.152  31.999  30.353  1.00  0.00     0.031 C 
ATOM     39  C   UNL A   1      39.182  27.410  29.802  1.00  0.00     0.029 A 
ATOM     40  N   UNL A   1      41.226  27.765  28.964  1.00  0.00    -0.354 N 
ATOM     41  C   UNL A   1      43.142  31.617  29.298  1.00  0.00     0.074 A 
ATOM     42  C   UNL A   1      42.296  32.560  29.996  1.00  0.00     0.031 C 
ATOM     43  C   UNL A   1      39.602  26.257  29.248  1.00  0.00     0.029 A 
ATOM     44  C   UNL A   1      40.920  26.462  28.647  1.00  0.00     0.049 A 
ATOM     45  H   UNL A   1      42.089  28.183  28.743  1.00  0.00     0.167 HD
ATOM     46  C   UNL A   1      44.382  31.906  28.845  1.00  0.00     0.037 A 
ATOM     47  C   UNL A   1      41.614  25.557  27.927  1.00  0.00     0.037 A 
ATOM     48  C   UNL A   1      45.225  30.978  28.142  1.00  0.00     0.049 A 
ATOM     49  C   UNL A   1      42.959  25.933  27.354  1.00  0.00     0.074 A 
ATOM     50  C   UNL A   1      46.506  31.175  27.659  1.00  0.00     0.029 A 
ATOM     51  N   UNL A   1      44.864  29.683  27.810  1.00  0.00    -0.354 N 
ATOM     52  N   UNL A   1      43.629  27.054  27.477  1.00  0.00    -0.248 NA
ATOM     53  C   UNL A   1      43.641  24.917  26.537  1.00  0.00     0.031 C 
ATOM     54  C   UNL A   1      46.903  30.012  26.991  1.00  0.00     0.029 A 
ATOM     55  C   UNL A   1      45.886  29.077  27.101  1.00  0.00     0.049 A 
ATOM     56  H   UNL A   1      44.007  29.257  28.044  1.00  0.00     0.167 HD
ATOM     57  C   UNL A   1      44.817  26.867  26.777  1.00  0.00     0.074 A 
ATOM     58  C   UNL A   1      44.785  25.522  26.247  1.00  0.00     0.031 C 
ATOM     59  C   UNL A   1      45.842  27.733  26.588  1.00  0.00     0.037 A 
BRANCH  46  60
ATOM     60  C   UNL A   1      44.894  33.296  29.070  1.00  0.00     0.057 A 
ATOM     61  C   UNL A   1      44.560  34.352  28.214  1.00  0.00     0.134 A 
ATOM     62  C   UNL A   1      45.697  33.586  30.179  1.00  0.00     0.134 A 
ATOM     63  F   UNL A   1      43.811  34.133  27.122  1.00  0.00    -0.206 F 
ATOM     64  C   UNL A   1      45.016  35.650  28.448  1.00  0.00     0.040 A 
ATOM     65  C   UNL A   1      46.141  34.884  30.436  1.00  0.00     0.040 A 
ATOM     66  F   UNL A   1      46.053  32.616  31.034  1.00  0.00    -0.206 F 
ATOM     67  C   UNL A   1      45.802  35.919  29.567  1.00  0.00     0.006 A 
ENDBRANCH  46  60
BRANCH  47  68
ATOM     68  C   UNL A   1      41.045  24.210  27.657  1.00  0.00     0.057 A 
ATOM     69  C   UNL A   1      41.544  23.067  28.293  1.00  0.00     0.134 A 
ATOM     70  C   UNL A   1      40.035  24.026  26.703  1.00  0.00     0.134 A 
ATOM     71  F   UNL A   1      42.533  23.173  29.193  1.00  0.00    -0.206 F 
ATOM     72  C   UNL A   1      41.080  21.789  27.973  1.00  0.00     0.040 A 
ATOM     73  C   UNL A   1      39.544  22.757  26.392  1.00  0.00     0.040 A 
ATOM     74  F   UNL A   1      39.518  25.079  26.053  1.00  0.00    -0.206 F 
ATOM     75  C   UNL A   1      40.074  21.633  27.021  1.00  0.00     0.006 A 
ENDBRANCH  47  68
BRANCH  59  76
ATOM     76  C   UNL A   1      47.026  27.247  25.803  1.00  0.00     0.057 A 
ATOM     77  C   UNL A   1      47.162  27.507  24.434  1.00  0.00     0.134 A 
ATOM     78  C   UNL A   1      48.068  26.557  26.437  1.00  0.00     0.134 A 
ATOM     79  F   UNL A   1      46.195  28.155  23.766  1.00  0.00    -0.206 F 
ATOM     80  C   UNL A   1      48.281  27.080  23.719  1.00  0.00     0.040 A 
ATOM     81  C   UNL A   1      49.204  26.147  25.738  1.00  0.00     0.040 A 
ATOM     82  F   UNL A   1      48.007  26.286  27.750  1.00  0.00    -0.206 F 
ATOM     83  C   UNL A   1      49.310  26.404  24.373  1.00  0.00     0.006 A 
ENDBRANCH  59  76
ENDBRANCH  33  34
ENDBRANCH  26  28
ENDBRANCH  25  26
ENDBRANCH  24  25
ENDBRANCH  23  24
ENDBRANCH  22  23
ENDBRANCH  21  22
ENDBRANCH  20  21
ENDBRANCH  19  20
ENDBRANCH   1  19
TORSDOF 23
ENDMDL
MODEL 2
REMARK VINA RESULT:      -8.9      3.359      6.786
REMARK SMILES O=C(CC[C@H]1CC[C@@H](O)CC1)OCCOCCOCCOCCOC(=O)c1ccc(-c2c3nc(c(-c4c(F)cccc4F)c4ccc([nH]4)c(-c4c(F)cccc4F)c4nc(c(-c5c(F)cccc5F)c5ccc2[nH]5)C=C4)C=C3)cc1
REMARK SMILES IDX 17 1 16 2 15 3 14 4 13 5 12 6 2 7 1 8 3 9 4 10 5 11 6 12
REMARK SMILES IDX 11 13 7 14 10 15 8 16 9 17 18 19 19 20 20 21 21 22 22 23
REMARK SMILES IDX 23 24 24 25 25 26 26 27 27 28 28 29 80 30 29 31 79 32 30 33
REMARK SMILES IDX 31 34 32 35 73 36 33 37 78 38 72 39 74 40 34 41 77 42 71 43
REMARK SMILES IDX 70 44 35 46 61 47 44 48 60 49 45 50 48 51 59 52 75 53 46 54
REMARK SMILES IDX 47 55 58 57 76 58 49 59 36 60 37 61 42 62 38 63 39 64 41 65
REMARK SMILES IDX 43 66 40 67 62 68 63 69 68 70 64 71 65 72 67 73 69 74 66 75
REMARK SMILES IDX 50 76 51 77 56 78 52 79 53 80 55 81 57 82 54 83
REMARK H PARENT 9 18 74 45 48 56
REMARK Flexibility Score: inf
ROOT
ATOM      1  C   UNL A   1      33.005  37.043  31.506  1.00  0.00     0.188 C 
ENDROOT
BRANCH   1   2
ATOM      2  C   UNL A   1      33.574  35.826  32.227  1.00  0.00     0.188 C 
BRANCH   2   3
ATOM      3  O   UNL A   1      34.693  36.014  33.080  1.00  0.00    -0.376 OA
BRANCH   3   4
ATOM      4  C   UNL A   1      35.170  35.034  33.980  1.00  0.00     0.202 C 
BRANCH   4   5
ATOM      5  C   UNL A   1      36.453  34.244  33.718  1.00  0.00     0.261 C 
BRANCH   5   6
ATOM      6  O   UNL A   1      37.673  34.745  34.282  1.00  0.00    -0.463 OA
BRANCH   6   7
ATOM      7  C   UNL A   1      38.215  34.266  35.422  1.00  0.00     0.305 C 
ATOM      8  O   UNL A   1      39.175  34.825  35.943  1.00  0.00    -0.252 OA
BRANCH   7   9
ATOM      9  C   UNL A   1      37.733  32.918  35.893  1.00  0.00     0.123 C 
BRANCH   9  10
ATOM     10  C   UNL A   1      38.696  31.781  35.586  1.00  0.00     0.015 C 
BRANCH  10  11
ATOM     11  C   UNL A   1      39.261  31.887  34.157  1.00  0.00    -0.010 C 
ATOM     12  C   UNL A   1      38.420  31.131  33.125  1.00  0.00     0.006 C 
ATOM     13  C   UNL A   1      40.733  31.487  34.066  1.00  0.00     0.006 C 
ATOM     14  C   UNL A   1      38.587  29.626  33.244  1.00  0.00     0.032 C 
ATOM     15  C   UNL A   1      40.914  29.991  34.233  1.00  0.00     0.032 C 
ATOM     16  C   UNL A   1      40.057  29.207  33.241  1.00  0.00     0.114 C 
BRANCH  16  17
ATOM     17  O   UNL A   1      40.140  27.822  33.554  1.00  0.00    -0.393 OA
ATOM     18  H   UNL A   1      39.600  27.635  34.338  1.00  0.00     0.210 HD
ENDBRANCH  16  17
ENDBRANCH  10  11
ENDBRANCH   9  10
ENDBRANCH   7   9
ENDBRANCH   6   7
ENDBRANCH   5   6
ENDBRANCH   4   5
ENDBRANCH   3   4
ENDBRANCH   2   3
ENDBRANCH   1   2
BRANCH   1  19
ATOM     19  O   UNL A   1      32.960  36.905  30.097  1.00  0.00    -0.377 OA
BRANCH  19  20
ATOM     20  C   UNL A   1      33.235  35.603  29.615  1.00  0.00     0.188 C 
BRANCH  20  21
ATOM     21  C   UNL A   1      34.193  35.498  28.403  1.00  0.00     0.188 C 
BRANCH  21  22
ATOM     22  O   UNL A   1      34.953  34.330  28.134  1.00  0.00    -0.376 OA
BRANCH  22  23
ATOM     23  C   UNL A   1      35.255  33.416  29.172  1.00  0.00     0.202 C 
BRANCH  23  24
ATOM     24  C   UNL A   1      34.543  32.056  29.170  1.00  0.00     0.261 C 
BRANCH  24  25
ATOM     25  O   UNL A   1      34.499  31.400  27.891  1.00  0.00    -0.460 OA
BRANCH  25  26
ATOM     26  C   UNL A   1      34.717  30.062  27.898  1.00  0.00     0.338 C 
ATOM     27  O   UNL A   1      33.967  29.189  27.494  1.00  0.00    -0.246 OA
BRANCH  26  28
ATOM     28  C   UNL A   1      36.128  29.796  28.280  1.00  0.00     0.060 A 
ATOM     29  C   UNL A   1      37.129  30.091  27.341  1.00  0.00     0.016 A 
ATOM     30  C   UNL A   1      36.477  29.329  29.550  1.00  0.00     0.016 A 
ATOM     31  C   UNL A   1      38.475  29.904  27.659  1.00  0.00     0.010 A 
ATOM     32  C   UNL A   1      37.826  29.108  29.857  1.00  0.00     0.010 A 
ATOM     33  C   UNL A   1      38.827  29.367  28.904  1.00  0.00    -0.014 A 
BRANCH  33  34
ATOM     34  C   UNL A   1      40.200  28.841  29.108  1.00  0.00     0.031 A 
ATOM     35  C   UNL A   1      41.210  29.760  29.740  1.00  0.00     0.074 A 
ATOM     36  C   UNL A   1      40.552  27.590  28.759  1.00  0.00     0.049 A 
ATOM     37  N   UNL A   1      42.483  29.569  29.968  1.00  0.00    -0.248 NA
ATOM     38  C   UNL A   1      40.711  31.076  30.176  1.00  0.00     0.031 C 
ATOM     39  C   UNL A   1      39.663  26.584  28.184  1.00  0.00     0.029 A 
ATOM     40  N   UNL A   1      41.772  26.961  28.831  1.00  0.00    -0.354 N 
ATOM     41  C   UNL A   1      42.937  30.737  30.566  1.00  0.00     0.074 A 
ATOM     42  C   UNL A   1      41.810  31.640  30.652  1.00  0.00     0.031 C 
ATOM     43  C   UNL A   1      40.374  25.469  27.932  1.00  0.00     0.029 A 
ATOM     44  C   UNL A   1      41.772  25.694  28.299  1.00  0.00     0.049 A 
ATOM     45  H   UNL A   1      42.570  27.378  29.227  1.00  0.00     0.167 HD
ATOM     46  C   UNL A   1      44.179  31.035  31.007  1.00  0.00     0.037 A 
ATOM     47  C   UNL A   1      42.792  24.833  28.105  1.00  0.00     0.037 A 
ATOM     48  C   UNL A   1      45.306  30.147  30.917  1.00  0.00     0.049 A 
ATOM     49  C   UNL A   1      44.189  25.225  28.524  1.00  0.00     0.074 A 
ATOM     50  C   UNL A   1      46.602  30.355  31.353  1.00  0.00     0.029 A 
ATOM     51  N   UNL A   1      45.272  28.889  30.339  1.00  0.00    -0.354 N 
ATOM     52  N   UNL A   1      44.600  26.319  29.118  1.00  0.00    -0.248 NA
ATOM     53  C   UNL A   1      45.263  24.261  28.238  1.00  0.00     0.031 C 
ATOM     54  C   UNL A   1      47.365  29.240  30.996  1.00  0.00     0.029 A 
ATOM     55  C   UNL A   1      46.533  28.320  30.379  1.00  0.00     0.049 A 
ATOM     56  H   UNL A   1      44.471  28.464  29.957  1.00  0.00     0.167 HD
ATOM     57  C   UNL A   1      45.970  26.163  29.300  1.00  0.00     0.074 A 
ATOM     58  C   UNL A   1      46.319  24.864  28.768  1.00  0.00     0.031 C 
ATOM     59  C   UNL A   1      46.861  27.020  29.855  1.00  0.00     0.037 A 
BRANCH  46  60
ATOM     60  C   UNL A   1      44.394  32.393  31.602  1.00  0.00     0.057 A 
ATOM     61  C   UNL A   1      44.295  32.618  32.980  1.00  0.00     0.134 A 
ATOM     62  C   UNL A   1      44.742  33.477  30.789  1.00  0.00     0.134 A 
ATOM     63  F   UNL A   1      43.944  31.623  33.809  1.00  0.00    -0.206 F 
ATOM     64  C   UNL A   1      44.526  33.880  33.529  1.00  0.00     0.040 A 
ATOM     65  C   UNL A   1      44.997  34.739  31.328  1.00  0.00     0.040 A 
ATOM     66  F   UNL A   1      44.850  33.326  29.460  1.00  0.00    -0.206 F 
ATOM     67  C   UNL A   1      44.887  34.943  32.702  1.00  0.00     0.006 A 
ENDBRANCH  46  60
BRANCH  47  68
ATOM     68  C   UNL A   1      42.559  23.522  27.441  1.00  0.00     0.057 A 
ATOM     69  C   UNL A   1      42.290  22.367  28.184  1.00  0.00     0.134 A 
ATOM     70  C   UNL A   1      42.670  23.382  26.052  1.00  0.00     0.134 A 
ATOM     71  F   UNL A   1      42.204  22.429  29.521  1.00  0.00    -0.206 F 
ATOM     72  C   UNL A   1      42.166  21.116  27.575  1.00  0.00     0.040 A 
ATOM     73  C   UNL A   1      42.522  22.142  25.427  1.00  0.00     0.040 A 
ATOM     74  F   UNL A   1      42.932  24.448  25.282  1.00  0.00    -0.206 F 
ATOM     75  C   UNL A   1      42.279  21.003  26.190  1.00  0.00     0.006 A 
ENDBRANCH  47  68
BRANCH  59  76
ATOM     76  C   UNL A   1      48.291  26.573  29.945  1.00  0.00     0.057 A 
ATOM     77  C   UNL A   1      49.232  26.903  28.962  1.00  0.00     0.134 A 
ATOM     78  C   UNL A   1      48.743  25.848  31.056  1.00  0.00     0.134 A 
ATOM     79  F   UNL A   1      48.862  27.587  27.869  1.00  0.00    -0.206 F 
ATOM     80  C   UNL A   1      50.567  26.511  29.071  1.00  0.00     0.040 A 
ATOM     81  C   UNL A   1      50.081  25.473  31.189  1.00  0.00     0.040 A 
ATOM     82  F   UNL A   1      47.896  25.510  32.040  1.00  0.00    -0.206 F 
ATOM     83  C   UNL A   1      50.996  25.800  30.191  1.00  0.00     0.006 A 
ENDBRANCH  59  76
ENDBRANCH  33  34
ENDBRANCH  26  28
ENDBRANCH  25  26
ENDBRANCH  24  25
ENDBRANCH  23  24
ENDBRANCH  22  23
ENDBRANCH  21  22
ENDBRANCH  20  21
ENDBRANCH  19  20
ENDBRANCH   1  19
TORSDOF 23
ENDMDL
MODEL 3
REMARK VINA RESULT:      -8.8      1.299      2.360
REMARK SMILES O=C(CC[C@H]1CC[C@@H](O)CC1)OCCOCCOCCOCCOC(=O)c1ccc(-c2c3nc(c(-c4c(F)cccc4F)c4ccc([nH]4)c(-c4c(F)cccc4F)c4nc(c(-c5c(F)cccc5F)c5ccc2[nH]5)C=C4)C=C3)cc1
REMARK SMILES IDX 17 1 16 2 15 3 14 4 13 5 12 6 2 7 1 8 3 9 4 10 5 11 6 12
REMARK SMILES IDX 11 13 7 14 10 15 8 16 9 17 18 19 19 20 20 21 21 22 22 23
REMARK SMILES IDX 23 24 24 25 25 26 26 27 27 28 28 29 80 30 29 31 79 32 30 33
REMARK SMILES IDX 31 34 32 35 73 36 33 37 78 38 72 39 74 40 34 41 77 42 71 43
REMARK SMILES IDX 70 44 35 46 61 47 44 48 60 49 45 50 48 51 59 52 75 53 46 54
REMARK SMILES IDX 47 55 58 57 76 58 49 59 36 60 37 61 42 62 38 63 39 64 41 65
REMARK SMILES IDX 43 66 40 67 62 68 63 69 68 70 64 71 65 72 67 73 69 74 66 75
REMARK SMILES IDX 50 76 51 77 56 78 52 79 53 80 55 81 57 82 54 83
REMARK H PARENT 9 18 74 45 48 56
REMARK Flexibility Score: inf
ROOT
ATOM      1  C   UNL A   1      33.196  31.165  27.603  1.00  0.00     0.188 C 
ENDROOT
BRANCH   1   2
ATOM      2  C   UNL A   1      34.004  30.131  26.826  1.00  0.00     0.188 C 
BRANCH   2   3
ATOM      3  O   UNL A   1      33.362  28.922  26.450  1.00  0.00    -0.376 OA
BRANCH   3   4
ATOM      4  C   UNL A   1      34.036  27.690  26.292  1.00  0.00     0.202 C 
BRANCH   4   5
ATOM      5  C   UNL A   1      33.288  26.372  26.090  1.00  0.00     0.261 C 
BRANCH   5   6
ATOM      6  O   UNL A   1      32.555  26.200  24.868  1.00  0.00    -0.463 OA
BRANCH   6   7
ATOM      7  C   UNL A   1      32.090  25.006  24.443  1.00  0.00     0.305 C 
ATOM      8  O   UNL A   1      31.199  24.427  25.056  1.00  0.00    -0.252 OA
BRANCH   7   9
ATOM      9  C   UNL A   1      32.854  24.331  23.333  1.00  0.00     0.123 C 
BRANCH   9  10
ATOM     10  C   UNL A   1      34.361  24.512  23.427  1.00  0.00     0.015 C 
BRANCH  10  11
ATOM     11  C   UNL A   1      35.094  23.158  23.478  1.00  0.00    -0.010 C 
ATOM     12  C   UNL A   1      34.189  22.007  23.927  1.00  0.00     0.006 C 
ATOM     13  C   UNL A   1      36.378  23.205  24.305  1.00  0.00     0.006 C 
ATOM     14  C   UNL A   1      33.882  22.070  25.413  1.00  0.00     0.032 C 
ATOM     15  C   UNL A   1      36.080  23.317  25.787  1.00  0.00     0.032 C 
ATOM     16  C   UNL A   1      35.148  22.203  26.259  1.00  0.00     0.114 C 
BRANCH  16  17
ATOM     17  O   UNL A   1      34.775  22.454  27.608  1.00  0.00    -0.393 OA
ATOM     18  H   UNL A   1      35.015  21.692  28.158  1.00  0.00     0.210 HD
ENDBRANCH  16  17
ENDBRANCH  10  11
ENDBRANCH   9  10
ENDBRANCH   7   9
ENDBRANCH   6   7
ENDBRANCH   5   6
ENDBRANCH   4   5
ENDBRANCH   3   4
ENDBRANCH   2   3
ENDBRANCH   1   2
BRANCH   1  19
ATOM     19  O   UNL A   1      33.989  32.136  28.260  1.00  0.00    -0.377 OA
BRANCH  19  20
ATOM     20  C   UNL A   1      33.938  33.432  27.695  1.00  0.00     0.188 C 
BRANCH  20  21
ATOM     21  C   UNL A   1      33.760  34.613  28.680  1.00  0.00     0.188 C 
BRANCH  21  22
ATOM     22  O   UNL A   1      34.500  34.715  29.887  1.00  0.00    -0.376 OA
BRANCH  22  23
ATOM     23  C   UNL A   1      33.832  34.863  31.127  1.00  0.00     0.202 C 
BRANCH  23  24
ATOM     24  C   UNL A   1      34.288  33.991  32.305  1.00  0.00     0.261 C 
BRANCH  24  25
ATOM     25  O   UNL A   1      34.968  32.780  31.931  1.00  0.00    -0.460 OA
BRANCH  25  26
ATOM     26  C   UNL A   1      35.928  32.345  32.786  1.00  0.00     0.338 C 
ATOM     27  O   UNL A   1      35.910  32.400  34.004  1.00  0.00    -0.246 OA
BRANCH  26  28
ATOM     28  C   UNL A   1      36.946  31.572  32.029  1.00  0.00     0.060 A 
ATOM     29  C   UNL A   1      37.874  30.816  32.762  1.00  0.00     0.016 A 
ATOM     30  C   UNL A   1      36.958  31.531  30.632  1.00  0.00     0.016 A 
ATOM     31  C   UNL A   1      38.826  30.035  32.105  1.00  0.00     0.010 A 
ATOM     32  C   UNL A   1      37.936  30.775  29.973  1.00  0.00     0.010 A 
ATOM     33  C   UNL A   1      38.891  30.047  30.706  1.00  0.00    -0.014 A 
BRANCH  33  34
ATOM     34  C   UNL A   1      40.099  29.515  30.028  1.00  0.00     0.031 A 
ATOM     35  C   UNL A   1      41.250  30.461  29.812  1.00  0.00     0.074 A 
ATOM     36  C   UNL A   1      40.193  28.236  29.622  1.00  0.00     0.049 A 
ATOM     37  N   UNL A   1      42.384  30.266  29.193  1.00  0.00    -0.248 NA
ATOM     38  C   UNL A   1      41.095  31.814  30.374  1.00  0.00     0.031 C 
ATOM     39  C   UNL A   1      39.176  27.205  29.812  1.00  0.00     0.029 A 
ATOM     40  N   UNL A   1      41.202  27.593  28.947  1.00  0.00    -0.354 N 
ATOM     41  C   UNL A   1      43.074  31.467  29.286  1.00  0.00     0.074 A 
ATOM     42  C   UNL A   1      42.227  32.393  30.006  1.00  0.00     0.031 C 
ATOM     43  C   UNL A   1      39.603  26.063  29.243  1.00  0.00     0.029 A 
ATOM     44  C   UNL A   1      40.909  26.290  28.623  1.00  0.00     0.049 A 
ATOM     45  H   UNL A   1      42.056  28.025  28.717  1.00  0.00     0.167 HD
ATOM     46  C   UNL A   1      44.304  31.776  28.817  1.00  0.00     0.037 A 
ATOM     47  C   UNL A   1      41.603  25.400  27.886  1.00  0.00     0.037 A 
ATOM     48  C   UNL A   1      45.148  30.865  28.094  1.00  0.00     0.049 A 
ATOM     49  C   UNL A   1      42.935  25.798  27.296  1.00  0.00     0.074 A 
ATOM     50  C   UNL A   1      46.419  31.082  27.593  1.00  0.00     0.029 A 
ATOM     51  N   UNL A   1      44.798  29.568  27.756  1.00  0.00    -0.354 N 
ATOM     52  N   UNL A   1      43.592  26.926  27.418  1.00  0.00    -0.248 NA
ATOM     53  C   UNL A   1      43.618  24.798  26.460  1.00  0.00     0.031 C 
ATOM     54  C   UNL A   1      46.820  29.931  26.910  1.00  0.00     0.029 A 
ATOM     55  C   UNL A   1      45.817  28.982  27.026  1.00  0.00     0.049 A 
ATOM     56  H   UNL A   1      43.951  29.129  27.999  1.00  0.00     0.167 HD
ATOM     57  C   UNL A   1      44.771  26.761  26.699  1.00  0.00     0.074 A 
ATOM     58  C   UNL A   1      44.749  25.420  26.158  1.00  0.00     0.031 C 
ATOM     59  C   UNL A   1      45.783  27.641  26.503  1.00  0.00     0.037 A 
BRANCH  46  60
ATOM     60  C   UNL A   1      44.800  33.170  29.047  1.00  0.00     0.057 A 
ATOM     61  C   UNL A   1      44.624  34.182  28.096  1.00  0.00     0.134 A 
ATOM     62  C   UNL A   1      45.428  33.511  30.251  1.00  0.00     0.134 A 
ATOM     63  F   UNL A   1      44.048  33.913  26.914  1.00  0.00    -0.206 F 
ATOM     64  C   UNL A   1      45.063  35.486  28.330  1.00  0.00     0.040 A 
ATOM     65  C   UNL A   1      45.851  34.816  30.507  1.00  0.00     0.040 A 
ATOM     66  F   UNL A   1      45.629  32.585  31.200  1.00  0.00    -0.206 F 
ATOM     67  C   UNL A   1      45.671  35.807  29.543  1.00  0.00     0.006 A 
ENDBRANCH  46  60
BRANCH  47  68
ATOM     68  C   UNL A   1      41.047  24.047  27.612  1.00  0.00     0.057 A 
ATOM     69  C   UNL A   1      41.581  22.904  28.218  1.00  0.00     0.134 A 
ATOM     70  C   UNL A   1      40.015  23.861  26.683  1.00  0.00     0.134 A 
ATOM     71  F   UNL A   1      42.591  23.013  29.093  1.00  0.00    -0.206 F 
ATOM     72  C   UNL A   1      41.128  21.624  27.894  1.00  0.00     0.040 A 
ATOM     73  C   UNL A   1      39.535  22.589  26.368  1.00  0.00     0.040 A 
ATOM     74  F   UNL A   1      39.465  24.914  26.062  1.00  0.00    -0.206 F 
ATOM     75  C   UNL A   1      40.099  21.465  26.967  1.00  0.00     0.006 A 
ENDBRANCH  47  68
BRANCH  59  76
ATOM     76  C   UNL A   1      46.960  27.177  25.696  1.00  0.00     0.057 A 
ATOM     77  C   UNL A   1      47.103  27.503  24.342  1.00  0.00     0.134 A 
ATOM     78  C   UNL A   1      47.991  26.441  26.296  1.00  0.00     0.134 A 
ATOM     79  F   UNL A   1      46.148  28.198  23.705  1.00  0.00    -0.206 F 
ATOM     80  C   UNL A   1      48.218  27.096  23.608  1.00  0.00     0.040 A 
ATOM     81  C   UNL A   1      49.122  26.050  25.579  1.00  0.00     0.040 A 
ATOM     82  F   UNL A   1      47.923  26.106  27.594  1.00  0.00    -0.206 F 
ATOM     83  C   UNL A   1      49.235  26.373  24.229  1.00  0.00     0.006 A 
ENDBRANCH  59  76
ENDBRANCH  33  34
ENDBRANCH  26  28
ENDBRANCH  25  26
ENDBRANCH  24  25
ENDBRANCH  23  24
ENDBRANCH  22  23
ENDBRANCH  21  22
ENDBRANCH  20  21
ENDBRANCH  19  20
ENDBRANCH   1  19
TORSDOF 23
ENDMDL
