MODEL 1
REMARK VINA RESULT:      -8.8      0.000      0.000
REMARK SMILES O=C(OCCOCCOCCOCCOC(=O)[C@]1([NH2+]C2CC2)CCC[C@H](SC[C@H](O)CO)C1)c1ccc(-c2c3nc(c(-c4c(F)cccc4F)c4ccc([nH]4)c(-c4c(F)cccc4F)c4nc(c(-c5c(F)cccc5F)c5ccc2[nH]5)C=C4)C=C3)cc1
REMARK SMILES IDX 10 1 9 2 8 3 7 4 6 5 5 6 4 7 3 8 2 9 1 10 34 11 35 12 87 13
REMARK SMILES IDX 36 14 86 15 37 16 38 17 39 18 80 19 40 20 85 21 79 22 81 23
REMARK SMILES IDX 41 24 84 25 78 26 77 27 42 29 68 30 51 31 67 32 52 33 55 34
REMARK SMILES IDX 66 35 82 36 53 37 54 38 65 40 83 41 56 42 43 43 44 44 49 45
REMARK SMILES IDX 45 46 46 47 48 48 50 49 47 50 69 51 70 52 75 53 71 54 72 55
REMARK SMILES IDX 74 56 76 57 73 58 57 59 58 60 63 61 59 62 60 63 62 64 64 65
REMARK SMILES IDX 61 66 11 67 12 68 13 69 14 70 15 71 16 72 17 73 18 74 23 75
REMARK SMILES IDX 33 76 24 77 26 78 25 79 19 80 20 83 21 84 22 85 27 86 28 87
REMARK SMILES IDX 29 88 31 89 32 90 30 92
REMARK H PARENT 81 28 55 39 19 81 19 82 32 91 30 93
REMARK Flexibility Score: inf
ROOT
ATOM      1  C   UNL A   1      35.321  30.755  28.493  1.00  0.00     0.188 C 
ENDROOT
BRANCH   1   2
ATOM      2  O   UNL A   1      35.679  32.103  28.707  1.00  0.00    -0.377 OA
BRANCH   2   3
ATOM      3  C   UNL A   1      34.894  32.930  29.551  1.00  0.00     0.188 C 
BRANCH   3   4
ATOM      4  C   UNL A   1      34.719  32.289  30.898  1.00  0.00     0.188 C 
BRANCH   4   5
ATOM      5  O   UNL A   1      34.242  33.195  31.886  1.00  0.00    -0.376 OA
BRANCH   5   6
ATOM      6  C   UNL A   1      34.615  34.560  31.789  1.00  0.00     0.202 C 
BRANCH   6   7
ATOM      7  C   UNL A   1      35.749  35.010  32.714  1.00  0.00     0.261 C 
BRANCH   7   8
ATOM      8  O   UNL A   1      36.600  33.892  33.075  1.00  0.00    -0.460 OA
BRANCH   8   9
ATOM      9  C   UNL A   1      37.908  33.892  32.689  1.00  0.00     0.338 C 
ATOM     10  O   UNL A   1      38.770  34.689  33.013  1.00  0.00    -0.246 OA
BRANCH   9  11
ATOM     11  C   UNL A   1      38.085  32.751  31.762  1.00  0.00     0.060 A 
ATOM     12  C   UNL A   1      38.177  31.488  32.317  1.00  0.00     0.016 A 
ATOM     13  C   UNL A   1      38.534  32.956  30.468  1.00  0.00     0.016 A 
ATOM     14  C   UNL A   1      39.158  30.636  31.840  1.00  0.00     0.010 A 
ATOM     15  C   UNL A   1      39.257  31.940  29.838  1.00  0.00     0.010 A 
ATOM     16  C   UNL A   1      39.736  30.850  30.594  1.00  0.00    -0.014 A 
BRANCH  16  17
ATOM     17  C   UNL A   1      40.953  30.102  30.156  1.00  0.00     0.031 A 
ATOM     18  C   UNL A   1      42.281  30.813  30.258  1.00  0.00     0.074 A 
ATOM     19  C   UNL A   1      40.939  28.808  29.769  1.00  0.00     0.049 A 
ATOM     20  N   UNL A   1      43.369  30.655  29.556  1.00  0.00    -0.248 NA
ATOM     21  C   UNL A   1      42.373  31.889  31.264  1.00  0.00     0.031 C 
ATOM     22  C   UNL A   1      39.790  27.900  29.807  1.00  0.00     0.029 A 
ATOM     23  N   UNL A   1      41.948  28.020  29.263  1.00  0.00    -0.354 N 
ATOM     24  C   UNL A   1      44.217  31.689  29.941  1.00  0.00     0.074 A 
ATOM     25  C   UNL A   1      43.526  32.460  30.950  1.00  0.00     0.031 C 
ATOM     26  C   UNL A   1      40.166  26.678  29.404  1.00  0.00     0.029 A 
ATOM     27  C   UNL A   1      41.520  26.766  28.891  1.00  0.00     0.049 A 
ATOM     28  H   UNL A   1      42.881  28.324  29.178  1.00  0.00     0.167 HD
ATOM     29  C   UNL A   1      45.453  31.968  29.465  1.00  0.00     0.037 A 
ATOM     30  C   UNL A   1      42.107  25.838  28.112  1.00  0.00     0.037 A 
ATOM     31  C   UNL A   1      46.123  31.107  28.527  1.00  0.00     0.049 A 
ATOM     32  C   UNL A   1      43.440  26.189  27.513  1.00  0.00     0.074 A 
ATOM     33  C   UNL A   1      47.332  31.278  27.884  1.00  0.00     0.029 A 
ATOM     34  N   UNL A   1      45.626  29.868  28.134  1.00  0.00    -0.354 N 
ATOM     35  N   UNL A   1      44.164  27.271  27.686  1.00  0.00    -0.248 NA
ATOM     36  C   UNL A   1      44.018  25.216  26.582  1.00  0.00     0.031 C 
ATOM     37  C   UNL A   1      47.551  30.153  27.078  1.00  0.00     0.029 A 
ATOM     38  C   UNL A   1      46.505  29.259  27.261  1.00  0.00     0.049 A 
ATOM     39  H   UNL A   1      44.773  29.482  28.435  1.00  0.00     0.167 HD
ATOM     40  C   UNL A   1      45.290  27.106  26.894  1.00  0.00     0.074 A 
ATOM     41  C   UNL A   1      45.163  25.802  26.267  1.00  0.00     0.031 C 
ATOM     42  C   UNL A   1      46.331  27.950  26.683  1.00  0.00     0.037 A 
BRANCH  29  43
ATOM     43  C   UNL A   1      46.088  33.262  29.889  1.00  0.00     0.057 A 
ATOM     44  C   UNL A   1      45.890  34.468  29.203  1.00  0.00     0.134 A 
ATOM     45  C   UNL A   1      46.963  33.289  30.984  1.00  0.00     0.134 A 
ATOM     46  F   UNL A   1      45.090  34.513  28.126  1.00  0.00    -0.206 F 
ATOM     47  C   UNL A   1      46.565  35.638  29.565  1.00  0.00     0.040 A 
ATOM     48  C   UNL A   1      47.621  34.457  31.374  1.00  0.00     0.040 A 
ATOM     49  F   UNL A   1      47.208  32.173  31.687  1.00  0.00    -0.206 F 
ATOM     50  C   UNL A   1      47.433  35.635  30.656  1.00  0.00     0.006 A 
ENDBRANCH  29  43
BRANCH  30  51
ATOM     51  C   UNL A   1      41.389  24.583  27.744  1.00  0.00     0.057 A 
ATOM     52  C   UNL A   1      40.386  24.573  26.767  1.00  0.00     0.134 A 
ATOM     53  C   UNL A   1      41.672  23.360  28.372  1.00  0.00     0.134 A 
ATOM     54  F   UNL A   1      40.045  25.707  26.138  1.00  0.00    -0.206 F 
ATOM     55  C   UNL A   1      39.683  23.408  26.445  1.00  0.00     0.040 A 
ATOM     56  C   UNL A   1      41.007  22.180  28.032  1.00  0.00     0.040 A 
ATOM     57  F   UNL A   1      42.618  23.287  29.320  1.00  0.00    -0.206 F 
ATOM     58  C   UNL A   1      39.999  22.204  27.074  1.00  0.00     0.006 A 
ENDBRANCH  30  51
BRANCH  42  59
ATOM     59  C   UNL A   1      47.419  27.448  25.788  1.00  0.00     0.057 A 
ATOM     60  C   UNL A   1      48.545  26.784  26.291  1.00  0.00     0.134 A 
ATOM     61  C   UNL A   1      47.324  27.618  24.402  1.00  0.00     0.134 A 
ATOM     62  F   UNL A   1      48.698  26.610  27.613  1.00  0.00    -0.206 F 
ATOM     63  C   UNL A   1      49.556  26.334  25.445  1.00  0.00     0.040 A 
ATOM     64  C   UNL A   1      48.313  27.142  23.544  1.00  0.00     0.040 A 
ATOM     65  F   UNL A   1      46.264  28.240  23.862  1.00  0.00    -0.206 F 
ATOM     66  C   UNL A   1      49.438  26.506  24.066  1.00  0.00     0.006 A 
ENDBRANCH  42  59
ENDBRANCH  16  17
ENDBRANCH   9  11
ENDBRANCH   8   9
ENDBRANCH   7   8
ENDBRANCH   6   7
ENDBRANCH   5   6
ENDBRANCH   4   5
ENDBRANCH   3   4
ENDBRANCH   2   3
ENDBRANCH   1   2
BRANCH   1  67
ATOM     67  C   UNL A   1      34.449  30.767  27.247  1.00  0.00     0.188 C 
BRANCH  67  68
ATOM     68  O   UNL A   1      33.087  31.029  27.610  1.00  0.00    -0.376 OA
BRANCH  68  69
ATOM     69  C   UNL A   1      32.151  30.280  26.841  1.00  0.00     0.202 C 
BRANCH  69  70
ATOM     70  C   UNL A   1      31.926  28.831  27.301  1.00  0.00     0.261 C 
BRANCH  70  71
ATOM     71  O   UNL A   1      31.792  27.874  26.219  1.00  0.00    -0.459 OA
BRANCH  71  72
ATOM     72  C   UNL A   1      32.858  27.049  26.033  1.00  0.00     0.368 C 
ATOM     73  O   UNL A   1      33.987  27.342  26.428  1.00  0.00    -0.245 OA
BRANCH  72  74
ATOM     74  C   UNL A   1      32.528  25.645  25.402  1.00  0.00     0.195 C 
ATOM     75  C   UNL A   1      33.654  25.324  24.385  1.00  0.00     0.081 C 
ATOM     76  C   UNL A   1      31.244  25.400  24.568  1.00  0.00     0.095 C 
ATOM     77  C   UNL A   1      33.531  26.225  23.134  1.00  0.00     0.008 C 
ATOM     78  C   UNL A   1      30.991  26.133  23.222  1.00  0.00     0.053 C 
ATOM     79  C   UNL A   1      32.241  25.986  22.349  1.00  0.00     0.015 C 
BRANCH  74  80
ATOM     80  N   UNL A   1      32.407  24.640  26.516  1.00  0.00    -0.330 N 
ATOM     81  H   UNL A   1      31.454  24.278  26.494  1.00  0.00     0.347 HD
ATOM     82  H   UNL A   1      32.669  25.160  27.353  1.00  0.00     0.347 HD
BRANCH  80  83
ATOM     83  C   UNL A   1      33.308  23.486  26.512  1.00  0.00     0.183 C 
ATOM     84  C   UNL A   1      33.300  22.488  27.636  1.00  0.00     0.071 C 
ATOM     85  C   UNL A   1      32.678  22.122  26.327  1.00  0.00     0.071 C 
ENDBRANCH  80  83
ENDBRANCH  74  80
BRANCH  78  86
ATOM     86  S   UNL A   1      30.256  27.803  22.807  1.00  0.00    -0.156 SA
BRANCH  86  87
ATOM     87  C   UNL A   1      28.498  27.780  23.244  1.00  0.00     0.104 C 
BRANCH  87  88
ATOM     88  C   UNL A   1      27.684  29.078  23.100  1.00  0.00     0.149 C 
BRANCH  88  89
ATOM     89  C   UNL A   1      28.312  29.939  22.009  1.00  0.00     0.188 C 
BRANCH  89  90
ATOM     90  O   UNL A   1      27.694  30.160  20.755  1.00  0.00    -0.394 OA
ATOM     91  H   UNL A   1      27.235  31.014  20.768  1.00  0.00     0.210 HD
ENDBRANCH  89  90
ENDBRANCH  88  89
BRANCH  88  92
ATOM     92  O   UNL A   1      26.350  28.634  22.824  1.00  0.00    -0.390 OA
ATOM     93  H   UNL A   1      26.309  28.272  21.926  1.00  0.00     0.211 HD
ENDBRANCH  88  92
ENDBRANCH  87  88
ENDBRANCH  86  87
ENDBRANCH  78  86
ENDBRANCH  72  74
ENDBRANCH  71  72
ENDBRANCH  70  71
ENDBRANCH  69  70
ENDBRANCH  68  69
ENDBRANCH  67  68
ENDBRANCH   1  67
TORSDOF 28
ENDMDL
MODEL 2
REMARK VINA RESULT:      -8.4      1.525      3.346
REMARK SMILES O=C(OCCOCCOCCOCCOC(=O)[C@]1([NH2+]C2CC2)CCC[C@H](SC[C@H](O)CO)C1)c1ccc(-c2c3nc(c(-c4c(F)cccc4F)c4ccc([nH]4)c(-c4c(F)cccc4F)c4nc(c(-c5c(F)cccc5F)c5ccc2[nH]5)C=C4)C=C3)cc1
REMARK SMILES IDX 10 1 9 2 8 3 7 4 6 5 5 6 4 7 3 8 2 9 1 10 34 11 35 12 87 13
REMARK SMILES IDX 36 14 86 15 37 16 38 17 39 18 80 19 40 20 85 21 79 22 81 23
REMARK SMILES IDX 41 24 84 25 78 26 77 27 42 29 68 30 51 31 67 32 52 33 55 34
REMARK SMILES IDX 66 35 82 36 53 37 54 38 65 40 83 41 56 42 43 43 44 44 49 45
REMARK SMILES IDX 45 46 46 47 48 48 50 49 47 50 69 51 70 52 75 53 71 54 72 55
REMARK SMILES IDX 74 56 76 57 73 58 57 59 58 60 63 61 59 62 60 63 62 64 64 65
REMARK SMILES IDX 61 66 11 67 12 68 13 69 14 70 15 71 16 72 17 73 18 74 23 75
REMARK SMILES IDX 33 76 24 77 26 78 25 79 19 80 20 83 21 84 22 85 27 86 28 87
REMARK SMILES IDX 29 88 31 89 32 90 30 92
REMARK H PARENT 81 28 55 39 19 81 19 82 32 91 30 93
REMARK Flexibility Score: inf
ROOT
ATOM      1  C   UNL A   1      36.235  29.705  29.195  1.00  0.00     0.188 C 
ENDROOT
BRANCH   1   2
ATOM      2  O   UNL A   1      36.030  30.867  29.969  1.00  0.00    -0.377 OA
BRANCH   2   3
ATOM      3  C   UNL A   1      35.322  31.973  29.433  1.00  0.00     0.188 C 
BRANCH   3   4
ATOM      4  C   UNL A   1      34.587  32.703  30.520  1.00  0.00     0.188 C 
BRANCH   4   5
ATOM      5  O   UNL A   1      35.042  34.039  30.696  1.00  0.00    -0.376 OA
BRANCH   5   6
ATOM      6  C   UNL A   1      34.699  34.717  31.895  1.00  0.00     0.202 C 
BRANCH   6   7
ATOM      7  C   UNL A   1      35.874  35.125  32.789  1.00  0.00     0.261 C 
BRANCH   7   8
ATOM      8  O   UNL A   1      36.709  33.981  33.105  1.00  0.00    -0.460 OA
BRANCH   8   9
ATOM      9  C   UNL A   1      38.014  33.974  32.710  1.00  0.00     0.338 C 
ATOM     10  O   UNL A   1      38.885  34.763  33.034  1.00  0.00    -0.246 OA
BRANCH   9  11
ATOM     11  C   UNL A   1      38.176  32.839  31.773  1.00  0.00     0.060 A 
ATOM     12  C   UNL A   1      38.242  31.570  32.317  1.00  0.00     0.016 A 
ATOM     13  C   UNL A   1      38.637  33.049  30.484  1.00  0.00     0.016 A 
ATOM     14  C   UNL A   1      39.211  30.705  31.837  1.00  0.00     0.010 A 
ATOM     15  C   UNL A   1      39.345  32.026  29.849  1.00  0.00     0.010 A 
ATOM     16  C   UNL A   1      39.800  30.920  30.597  1.00  0.00    -0.014 A 
BRANCH  16  17
ATOM     17  C   UNL A   1      41.006  30.154  30.160  1.00  0.00     0.031 A 
ATOM     18  C   UNL A   1      42.345  30.844  30.266  1.00  0.00     0.074 A 
ATOM     19  C   UNL A   1      40.973  28.861  29.769  1.00  0.00     0.049 A 
ATOM     20  N   UNL A   1      43.432  30.671  29.565  1.00  0.00    -0.248 NA
ATOM     21  C   UNL A   1      42.452  31.915  31.275  1.00  0.00     0.031 C 
ATOM     22  C   UNL A   1      39.810  27.971  29.803  1.00  0.00     0.029 A 
ATOM     23  N   UNL A   1      41.970  28.060  29.263  1.00  0.00    -0.354 N 
ATOM     24  C   UNL A   1      44.295  31.691  29.955  1.00  0.00     0.074 A 
ATOM     25  C   UNL A   1      43.614  32.469  30.964  1.00  0.00     0.031 C 
ATOM     26  C   UNL A   1      40.167  26.745  29.397  1.00  0.00     0.029 A 
ATOM     27  C   UNL A   1      41.524  26.813  28.887  1.00  0.00     0.049 A 
ATOM     28  H   UNL A   1      42.908  28.349  29.180  1.00  0.00     0.167 HD
ATOM     29  C   UNL A   1      45.536  31.952  29.482  1.00  0.00     0.037 A 
ATOM     30  C   UNL A   1      42.097  25.879  28.106  1.00  0.00     0.037 A 
ATOM     31  C   UNL A   1      46.194  31.083  28.543  1.00  0.00     0.049 A 
ATOM     32  C   UNL A   1      43.437  26.210  27.511  1.00  0.00     0.074 A 
ATOM     33  C   UNL A   1      47.407  31.236  27.903  1.00  0.00     0.029 A 
ATOM     34  N   UNL A   1      45.679  29.853  28.146  1.00  0.00    -0.354 N 
ATOM     35  N   UNL A   1      44.177  27.280  27.688  1.00  0.00    -0.248 NA
ATOM     36  C   UNL A   1      44.002  25.230  26.578  1.00  0.00     0.031 C 
ATOM     37  C   UNL A   1      47.611  30.111  27.094  1.00  0.00     0.029 A 
ATOM     38  C   UNL A   1      46.550  29.232  27.273  1.00  0.00     0.049 A 
ATOM     39  H   UNL A   1      44.819  29.479  28.444  1.00  0.00     0.167 HD
ATOM     40  C   UNL A   1      45.302  27.100  26.897  1.00  0.00     0.074 A 
ATOM     41  C   UNL A   1      45.156  25.800  26.267  1.00  0.00     0.031 C 
ATOM     42  C   UNL A   1      46.357  27.928  26.691  1.00  0.00     0.037 A 
BRANCH  29  43
ATOM     43  C   UNL A   1      46.190  33.235  29.910  1.00  0.00     0.057 A 
ATOM     44  C   UNL A   1      46.111  34.417  29.163  1.00  0.00     0.134 A 
ATOM     45  C   UNL A   1      46.965  33.271  31.079  1.00  0.00     0.134 A 
ATOM     46  F   UNL A   1      45.413  34.449  28.016  1.00  0.00    -0.206 F 
ATOM     47  C   UNL A   1      46.804  35.571  29.538  1.00  0.00     0.040 A 
ATOM     48  C   UNL A   1      47.639  34.426  31.481  1.00  0.00     0.040 A 
ATOM     49  F   UNL A   1      47.094  32.177  31.845  1.00  0.00    -0.206 F 
ATOM     50  C   UNL A   1      47.570  35.579  30.703  1.00  0.00     0.006 A 
ENDBRANCH  29  43
BRANCH  30  51
ATOM     51  C   UNL A   1      41.360  24.636  27.733  1.00  0.00     0.057 A 
ATOM     52  C   UNL A   1      40.364  24.642  26.749  1.00  0.00     0.134 A 
ATOM     53  C   UNL A   1      41.619  23.408  28.364  1.00  0.00     0.134 A 
ATOM     54  F   UNL A   1      40.048  25.782  26.118  1.00  0.00    -0.206 F 
ATOM     55  C   UNL A   1      39.644  23.489  26.423  1.00  0.00     0.040 A 
ATOM     56  C   UNL A   1      40.936  22.239  28.019  1.00  0.00     0.040 A 
ATOM     57  F   UNL A   1      42.557  23.319  29.318  1.00  0.00    -0.206 F 
ATOM     58  C   UNL A   1      39.935  22.281  27.054  1.00  0.00     0.006 A 
ENDBRANCH  30  51
BRANCH  42  59
ATOM     59  C   UNL A   1      47.439  27.411  25.797  1.00  0.00     0.057 A 
ATOM     60  C   UNL A   1      47.423  27.627  24.413  1.00  0.00     0.134 A 
ATOM     61  C   UNL A   1      48.519  26.704  26.338  1.00  0.00     0.134 A 
ATOM     62  F   UNL A   1      46.404  28.282  23.838  1.00  0.00    -0.206 F 
ATOM     63  C   UNL A   1      48.433  27.128  23.593  1.00  0.00     0.040 A 
ATOM     64  C   UNL A   1      49.551  26.229  25.532  1.00  0.00     0.040 A 
ATOM     65  F   UNL A   1      48.591  26.473  27.658  1.00  0.00    -0.206 F 
ATOM     66  C   UNL A   1      49.504  26.432  24.153  1.00  0.00     0.006 A 
ENDBRANCH  42  59
ENDBRANCH  16  17
ENDBRANCH   9  11
ENDBRANCH   8   9
ENDBRANCH   7   8
ENDBRANCH   6   7
ENDBRANCH   5   6
ENDBRANCH   4   5
ENDBRANCH   3   4
ENDBRANCH   2   3
ENDBRANCH   1   2
BRANCH   1  67
ATOM     67  C   UNL A   1      35.597  30.006  27.848  1.00  0.00     0.188 C 
BRANCH  67  68
ATOM     68  O   UNL A   1      34.395  29.240  27.696  1.00  0.00    -0.376 OA
BRANCH  68  69
ATOM     69  C   UNL A   1      34.293  28.607  26.425  1.00  0.00     0.202 C 
BRANCH  69  70
ATOM     70  C   UNL A   1      33.025  28.938  25.621  1.00  0.00     0.261 C 
BRANCH  70  71
ATOM     71  O   UNL A   1      32.094  27.835  25.489  1.00  0.00    -0.459 OA
BRANCH  71  72
ATOM     72  C   UNL A   1      32.290  27.031  24.407  1.00  0.00     0.368 C 
ATOM     73  O   UNL A   1      33.414  26.797  23.963  1.00  0.00    -0.245 OA
BRANCH  72  74
ATOM     74  C   UNL A   1      31.002  26.320  23.849  1.00  0.00     0.195 C 
ATOM     75  C   UNL A   1      30.078  26.029  25.060  1.00  0.00     0.081 C 
ATOM     76  C   UNL A   1      31.065  24.944  23.138  1.00  0.00     0.095 C 
ATOM     77  C   UNL A   1      30.664  24.893  25.931  1.00  0.00     0.008 C 
ATOM     78  C   UNL A   1      31.526  23.660  23.881  1.00  0.00     0.053 C 
ATOM     79  C   UNL A   1      30.746  23.556  25.196  1.00  0.00     0.015 C 
BRANCH  74  80
ATOM     80  N   UNL A   1      30.380  27.211  22.807  1.00  0.00    -0.330 N 
ATOM     81  H   UNL A   1      29.894  26.609  22.145  1.00  0.00     0.347 HD
ATOM     82  H   UNL A   1      31.165  27.745  22.434  1.00  0.00     0.347 HD
BRANCH  80  83
ATOM     83  C   UNL A   1      29.427  28.232  23.246  1.00  0.00     0.183 C 
ATOM     84  C   UNL A   1      29.850  29.661  23.443  1.00  0.00     0.071 C 
ATOM     85  C   UNL A   1      29.046  29.295  22.238  1.00  0.00     0.071 C 
ENDBRANCH  80  83
ENDBRANCH  74  80
BRANCH  78  86
ATOM     86  S   UNL A   1      33.214  22.925  24.215  1.00  0.00    -0.156 SA
BRANCH  86  87
ATOM     87  C   UNL A   1      34.024  23.910  25.502  1.00  0.00     0.104 C 
BRANCH  87  88
ATOM     88  C   UNL A   1      34.358  23.239  26.846  1.00  0.00     0.149 C 
BRANCH  88  89
ATOM     89  C   UNL A   1      33.347  22.128  27.110  1.00  0.00     0.188 C 
BRANCH  89  90
ATOM     90  O   UNL A   1      32.440  22.158  28.196  1.00  0.00    -0.394 OA
ATOM     91  H   UNL A   1      32.426  21.289  28.628  1.00  0.00     0.210 HD
ENDBRANCH  89  90
ENDBRANCH  88  89
BRANCH  88  92
ATOM     92  O   UNL A   1      35.713  22.797  26.696  1.00  0.00    -0.390 OA
ATOM     93  H   UNL A   1      35.730  21.834  26.594  1.00  0.00     0.211 HD
ENDBRANCH  88  92
ENDBRANCH  87  88
ENDBRANCH  86  87
ENDBRANCH  78  86
ENDBRANCH  72  74
ENDBRANCH  71  72
ENDBRANCH  70  71
ENDBRANCH  69  70
ENDBRANCH  68  69
ENDBRANCH  67  68
ENDBRANCH   1  67
TORSDOF 28
ENDMDL
MODEL 3
REMARK VINA RESULT:      -8.0      6.553     10.364
REMARK SMILES O=C(OCCOCCOCCOCCOC(=O)[C@]1([NH2+]C2CC2)CCC[C@H](SC[C@H](O)CO)C1)c1ccc(-c2c3nc(c(-c4c(F)cccc4F)c4ccc([nH]4)c(-c4c(F)cccc4F)c4nc(c(-c5c(F)cccc5F)c5ccc2[nH]5)C=C4)C=C3)cc1
REMARK SMILES IDX 10 1 9 2 8 3 7 4 6 5 5 6 4 7 3 8 2 9 1 10 34 11 35 12 87 13
REMARK SMILES IDX 36 14 86 15 37 16 38 17 39 18 80 19 40 20 85 21 79 22 81 23
REMARK SMILES IDX 41 24 84 25 78 26 77 27 42 29 68 30 51 31 67 32 52 33 55 34
REMARK SMILES IDX 66 35 82 36 53 37 54 38 65 40 83 41 56 42 43 43 44 44 49 45
REMARK SMILES IDX 45 46 46 47 48 48 50 49 47 50 69 51 70 52 75 53 71 54 72 55
REMARK SMILES IDX 74 56 76 57 73 58 57 59 58 60 63 61 59 62 60 63 62 64 64 65
REMARK SMILES IDX 61 66 11 67 12 68 13 69 14 70 15 71 16 72 17 73 18 74 23 75
REMARK SMILES IDX 33 76 24 77 26 78 25 79 19 80 20 83 21 84 22 85 27 86 28 87
REMARK SMILES IDX 29 88 31 89 32 90 30 92
REMARK H PARENT 81 28 55 39 19 81 19 82 32 91 30 93
REMARK Flexibility Score: inf
ROOT
ATOM      1  C   UNL A   1      40.765  30.165  29.915  1.00  0.00     0.188 C 
ENDROOT
BRANCH   1   2
ATOM      2  O   UNL A   1      40.245  30.368  31.210  1.00  0.00    -0.377 OA
BRANCH   2   3
ATOM      3  C   UNL A   1      40.382  29.365  32.205  1.00  0.00     0.188 C 
BRANCH   3   4
ATOM      4  C   UNL A   1      39.947  29.891  33.542  1.00  0.00     0.188 C 
BRANCH   4   5
ATOM      5  O   UNL A   1      40.226  28.992  34.609  1.00  0.00    -0.376 OA
BRANCH   5   6
ATOM      6  C   UNL A   1      41.546  28.946  35.128  1.00  0.00     0.202 C 
BRANCH   6   7
ATOM      7  C   UNL A   1      41.783  27.943  36.261  1.00  0.00     0.261 C 
BRANCH   7   8
ATOM      8  O   UNL A   1      40.848  26.837  36.180  1.00  0.00    -0.460 OA
BRANCH   8   9
ATOM      9  C   UNL A   1      40.940  25.814  37.077  1.00  0.00     0.338 C 
ATOM     10  O   UNL A   1      40.249  25.638  38.065  1.00  0.00    -0.246 OA
BRANCH   9  11
ATOM     11  C   UNL A   1      42.074  24.963  36.648  1.00  0.00     0.060 A 
ATOM     12  C   UNL A   1      43.332  25.298  37.111  1.00  0.00     0.016 A 
ATOM     13  C   UNL A   1      41.956  24.137  35.542  1.00  0.00     0.016 A 
ATOM     14  C   UNL A   1      44.383  25.286  36.209  1.00  0.00     0.010 A 
ATOM     15  C   UNL A   1      43.102  23.839  34.802  1.00  0.00     0.010 A 
ATOM     16  C   UNL A   1      44.289  24.568  35.023  1.00  0.00    -0.014 A 
BRANCH  16  17
ATOM     17  C   UNL A   1      45.295  24.728  33.930  1.00  0.00     0.031 A 
ATOM     18  C   UNL A   1      46.548  23.889  34.009  1.00  0.00     0.074 A 
ATOM     19  C   UNL A   1      45.102  25.502  32.840  1.00  0.00     0.049 A 
ATOM     20  N   UNL A   1      47.743  24.127  33.544  1.00  0.00    -0.248 NA
ATOM     21  C   UNL A   1      46.445  22.627  34.767  1.00  0.00     0.031 C 
ATOM     22  C   UNL A   1      43.874  26.218  32.487  1.00  0.00     0.029 A 
ATOM     23  N   UNL A   1      45.957  25.814  31.808  1.00  0.00    -0.354 N 
ATOM     24  C   UNL A   1      48.554  23.120  34.061  1.00  0.00     0.074 A 
ATOM     25  C   UNL A   1      47.714  22.261  34.863  1.00  0.00     0.031 C 
ATOM     26  C   UNL A   1      44.031  26.831  31.306  1.00  0.00     0.029 A 
ATOM     27  C   UNL A   1      45.426  26.721  30.920  1.00  0.00     0.049 A 
ATOM     28  H   UNL A   1      46.858  25.426  31.715  1.00  0.00     0.167 HD
ATOM     29  C   UNL A   1      49.886  22.960  33.889  1.00  0.00     0.037 A 
ATOM     30  C   UNL A   1      46.024  27.477  29.981  1.00  0.00     0.037 A 
ATOM     31  C   UNL A   1      50.649  23.798  33.002  1.00  0.00     0.049 A 
ATOM     32  C   UNL A   1      47.517  27.361  29.854  1.00  0.00     0.074 A 
ATOM     33  C   UNL A   1      52.010  23.827  32.772  1.00  0.00     0.029 A 
ATOM     34  N   UNL A   1      50.075  24.745  32.160  1.00  0.00    -0.354 N 
ATOM     35  N   UNL A   1      48.341  26.569  30.501  1.00  0.00    -0.248 NA
ATOM     36  C   UNL A   1      48.168  28.266  28.903  1.00  0.00     0.031 C 
ATOM     37  C   UNL A   1      52.260  24.815  31.810  1.00  0.00     0.029 A 
ATOM     38  C   UNL A   1      51.051  25.362  31.403  1.00  0.00     0.049 A 
ATOM     39  H   UNL A   1      49.113  24.945  32.109  1.00  0.00     0.167 HD
ATOM     40  C   UNL A   1      49.609  26.871  30.028  1.00  0.00     0.074 A 
ATOM     41  C   UNL A   1      49.436  27.898  29.016  1.00  0.00     0.031 C 
ATOM     42  C   UNL A   1      50.813  26.367  30.397  1.00  0.00     0.037 A 
BRANCH  29  43
ATOM     43  C   UNL A   1      50.576  21.915  34.720  1.00  0.00     0.057 A 
ATOM     44  C   UNL A   1      50.665  20.572  34.333  1.00  0.00     0.134 A 
ATOM     45  C   UNL A   1      51.118  22.256  35.968  1.00  0.00     0.134 A 
ATOM     46  F   UNL A   1      50.141  20.164  33.166  1.00  0.00    -0.206 F 
ATOM     47  C   UNL A   1      51.233  19.604  35.167  1.00  0.00     0.040 A 
ATOM     48  C   UNL A   1      51.713  21.304  36.798  1.00  0.00     0.040 A 
ATOM     49  F   UNL A   1      51.065  23.522  36.410  1.00  0.00    -0.206 F 
ATOM     50  C   UNL A   1      51.761  19.970  36.404  1.00  0.00     0.006 A 
ENDBRANCH  29  43
BRANCH  30  51
ATOM     51  C   UNL A   1      45.250  28.494  29.209  1.00  0.00     0.057 A 
ATOM     52  C   UNL A   1      45.202  29.835  29.608  1.00  0.00     0.134 A 
ATOM     53  C   UNL A   1      44.519  28.148  28.061  1.00  0.00     0.134 A 
ATOM     54  F   UNL A   1      45.857  30.236  30.706  1.00  0.00    -0.206 F 
ATOM     55  C   UNL A   1      44.446  30.784  28.911  1.00  0.00     0.040 A 
ATOM     56  C   UNL A   1      43.794  29.093  27.332  1.00  0.00     0.040 A 
ATOM     57  F   UNL A   1      44.512  26.883  27.616  1.00  0.00    -0.206 F 
ATOM     58  C   UNL A   1      43.746  30.414  27.764  1.00  0.00     0.006 A 
ENDBRANCH  30  51
BRANCH  42  59
ATOM     59  C   UNL A   1      52.004  26.886  29.655  1.00  0.00     0.057 A 
ATOM     60  C   UNL A   1      52.352  26.408  28.386  1.00  0.00     0.134 A 
ATOM     61  C   UNL A   1      52.798  27.892  30.217  1.00  0.00     0.134 A 
ATOM     62  F   UNL A   1      51.637  25.431  27.807  1.00  0.00    -0.206 F 
ATOM     63  C   UNL A   1      53.471  26.893  27.713  1.00  0.00     0.040 A 
ATOM     64  C   UNL A   1      53.900  28.408  29.539  1.00  0.00     0.040 A 
ATOM     65  F   UNL A   1      52.509  28.393  31.428  1.00  0.00    -0.206 F 
ATOM     66  C   UNL A   1      54.245  27.901  28.287  1.00  0.00     0.006 A 
ENDBRANCH  42  59
ENDBRANCH  16  17
ENDBRANCH   9  11
ENDBRANCH   8   9
ENDBRANCH   7   8
ENDBRANCH   6   7
ENDBRANCH   5   6
ENDBRANCH   4   5
ENDBRANCH   3   4
ENDBRANCH   2   3
ENDBRANCH   1   2
BRANCH   1  67
ATOM     67  C   UNL A   1      40.886  28.657  29.765  1.00  0.00     0.188 C 
BRANCH  67  68
ATOM     68  O   UNL A   1      40.623  28.280  28.406  1.00  0.00    -0.376 OA
BRANCH  68  69
ATOM     69  C   UNL A   1      40.848  26.897  28.157  1.00  0.00     0.202 C 
BRANCH  69  70
ATOM     70  C   UNL A   1      41.169  26.530  26.699  1.00  0.00     0.261 C 
BRANCH  70  71
ATOM     71  O   UNL A   1      41.158  25.107  26.423  1.00  0.00    -0.459 OA
BRANCH  71  72
ATOM     72  C   UNL A   1      42.368  24.560  26.123  1.00  0.00     0.368 C 
ATOM     73  O   UNL A   1      43.218  25.172  25.476  1.00  0.00    -0.245 OA
BRANCH  72  74
ATOM     74  C   UNL A   1      42.655  23.153  26.768  1.00  0.00     0.195 C 
ATOM     75  C   UNL A   1      42.254  23.245  28.263  1.00  0.00     0.081 C 
ATOM     76  C   UNL A   1      44.086  22.559  26.841  1.00  0.00     0.095 C 
ATOM     77  C   UNL A   1      43.263  24.119  29.045  1.00  0.00     0.008 C 
ATOM     78  C   UNL A   1      45.212  23.238  27.669  1.00  0.00     0.053 C 
ATOM     79  C   UNL A   1      44.672  23.527  29.074  1.00  0.00     0.015 C 
BRANCH  74  80
ATOM     80  N   UNL A   1      41.894  22.111  25.994  1.00  0.00    -0.330 N 
ATOM     81  H   UNL A   1      42.579  21.471  25.595  1.00  0.00     0.347 HD
ATOM     82  H   UNL A   1      41.341  22.649  25.326  1.00  0.00     0.347 HD
BRANCH  80  83
ATOM     83  C   UNL A   1      40.907  21.299  26.708  1.00  0.00     0.183 C 
ATOM     84  C   UNL A   1      40.499  19.944  26.200  1.00  0.00     0.071 C 
ATOM     85  C   UNL A   1      41.409  20.040  27.381  1.00  0.00     0.071 C 
ENDBRANCH  80  83
ENDBRANCH  74  80
BRANCH  78  86
ATOM     86  S   UNL A   1      46.419  24.613  27.280  1.00  0.00    -0.156 SA
BRANCH  86  87
ATOM     87  C   UNL A   1      46.853  24.515  25.523  1.00  0.00     0.104 C 
BRANCH  87  88
ATOM     88  C   UNL A   1      47.708  25.637  24.910  1.00  0.00     0.149 C 
BRANCH  88  89
ATOM     89  C   UNL A   1      46.840  26.877  24.725  1.00  0.00     0.188 C 
BRANCH  89  90
ATOM     90  O   UNL A   1      45.431  26.816  24.607  1.00  0.00    -0.394 OA
ATOM     91  H   UNL A   1      45.030  27.489  25.180  1.00  0.00     0.210 HD
ENDBRANCH  89  90
ENDBRANCH  88  89
BRANCH  88  92
ATOM     92  O   UNL A   1      48.798  25.796  25.828  1.00  0.00    -0.390 OA
ATOM     93  H   UNL A   1      49.633  25.836  25.335  1.00  0.00     0.211 HD
ENDBRANCH  88  92
ENDBRANCH  87  88
ENDBRANCH  86  87
ENDBRANCH  78  86
ENDBRANCH  72  74
ENDBRANCH  71  72
ENDBRANCH  70  71
ENDBRANCH  69  70
ENDBRANCH  68  69
ENDBRANCH  67  68
ENDBRANCH   1  67
TORSDOF 28
ENDMDL
