MODEL 1
REMARK VINA RESULT:      -8.3      0.000      0.000
REMARK SMILES CCN(Cc1cn(CC)nc1C)C(=O)c1ccn([C@@H](C)C(=O)OCCOCCOCCOCCOC(=O)c2ccc(-c3c4nc(c(-c5c(F)cccc5F)c5ccc([nH]5)c(-c5c(F)cccc5F)c5nc(c(-c6c(F)cccc6F)c6ccc3[nH]6)C=C5)C=C4)cc2)n1
REMARK SMILES IDX 27 1 26 2 25 3 24 4 23 5 21 6 22 7 19 8 20 9 18 10 15 11
REMARK SMILES IDX 16 12 92 13 17 14 13 15 14 16 3 17 2 18 1 19 4 20 5 21 6 22
REMARK SMILES IDX 11 23 7 24 10 25 12 26 8 27 9 28 28 29 29 30 30 31 31 32
REMARK SMILES IDX 32 33 33 34 34 35 35 36 36 37 37 38 38 39 39 40 91 41 40 42
REMARK SMILES IDX 90 43 41 44 42 45 43 46 84 47 44 48 89 49 83 50 85 51 45 52
REMARK SMILES IDX 88 53 82 54 81 55 46 57 72 58 55 59 71 60 56 61 59 62 70 63
REMARK SMILES IDX 86 64 57 65 58 66 69 68 87 69 60 70 47 71 48 72 53 73 49 74
REMARK SMILES IDX 50 75 52 76 54 77 51 78 73 79 74 80 79 81 75 82 76 83 78 84
REMARK SMILES IDX 80 85 77 86 61 87 62 88 67 89 63 90 64 91 66 92 68 93 65 94
REMARK H PARENT 85 56 59 67
REMARK Flexibility Score: inf
ROOT
ATOM      1  C   UNL A   1      41.679  24.334  26.297  1.00  0.00     0.188 C 
ENDROOT
BRANCH   1   2
ATOM      2  O   UNL A   1      41.028  23.125  26.673  1.00  0.00    -0.376 OA
BRANCH   2   3
ATOM      3  C   UNL A   1      39.612  23.035  26.645  1.00  0.00     0.202 C 
BRANCH   3   4
ATOM      4  C   UNL A   1      38.967  21.779  26.046  1.00  0.00     0.261 C 
BRANCH   4   5
ATOM      5  O   UNL A   1      37.872  22.016  25.135  1.00  0.00    -0.462 OA
BRANCH   5   6
ATOM      6  C   UNL A   1      36.770  21.239  25.284  1.00  0.00     0.330 C 
ATOM      7  O   UNL A   1      36.757  20.036  25.021  1.00  0.00    -0.250 OA
BRANCH   6   8
ATOM      8  C   UNL A   1      35.499  21.949  25.728  1.00  0.00     0.213 C 
ATOM      9  C   UNL A   1      34.363  20.941  25.820  1.00  0.00     0.046 C 
BRANCH   8  10
ATOM     10  N   UNL A   1      35.084  23.159  25.010  1.00  0.00    -0.258 N 
ATOM     11  C   UNL A   1      34.023  24.255  23.501  1.00  0.00     0.150 A 
ATOM     12  C   UNL A   1      34.388  25.167  24.520  1.00  0.00     0.056 A 
ATOM     13  N   UNL A   1      34.490  23.023  23.794  1.00  0.00    -0.167 NA
ATOM     14  C   UNL A   1      35.202  24.467  25.381  1.00  0.00     0.110 A 
BRANCH  11  15
ATOM     15  C   UNL A   1      33.138  24.525  22.349  1.00  0.00     0.274 C 
ATOM     16  O   UNL A   1      33.313  23.923  21.288  1.00  0.00    -0.267 OA
BRANCH  15  17
ATOM     17  N   UNL A   1      32.071  25.435  22.501  1.00  0.00    -0.333 N 
BRANCH  17  18
ATOM     18  C   UNL A   1      30.860  24.948  23.162  1.00  0.00     0.117 C 
ATOM     19  C   UNL A   1      30.986  24.894  24.678  1.00  0.00     0.027 C 
ENDBRANCH  17  18
BRANCH  17  20
ATOM     20  C   UNL A   1      32.030  26.779  21.918  1.00  0.00     0.159 C 
BRANCH  20  21
ATOM     21  C   UNL A   1      31.918  27.826  22.979  1.00  0.00     0.012 A 
ATOM     22  C   UNL A   1      32.972  28.378  23.685  1.00  0.00     0.114 A 
ATOM     23  C   UNL A   1      30.772  28.470  23.533  1.00  0.00     0.064 A 
ATOM     24  N   UNL A   1      32.418  29.050  24.734  1.00  0.00    -0.272 N 
ATOM     25  N   UNL A   1      31.086  29.188  24.622  1.00  0.00    -0.178 NA
ATOM     26  C   UNL A   1      29.354  28.390  23.107  1.00  0.00     0.069 C 
BRANCH  24  27
ATOM     27  C   UNL A   1      33.083  29.361  25.986  1.00  0.00     0.141 C 
ATOM     28  C   UNL A   1      34.123  28.337  26.388  1.00  0.00     0.029 C 
ENDBRANCH  24  27
ENDBRANCH  20  21
ENDBRANCH  17  20
ENDBRANCH  15  17
ENDBRANCH  11  15
ENDBRANCH   8  10
ENDBRANCH   6   8
ENDBRANCH   5   6
ENDBRANCH   4   5
ENDBRANCH   3   4
ENDBRANCH   2   3
ENDBRANCH   1   2
BRANCH   1  29
ATOM     29  C   UNL A   1      41.460  25.628  27.097  1.00  0.00     0.188 C 
BRANCH  29  30
ATOM     30  O   UNL A   1      41.975  26.808  26.503  1.00  0.00    -0.377 OA
BRANCH  30  31
ATOM     31  C   UNL A   1      41.561  28.021  27.121  1.00  0.00     0.188 C 
BRANCH  31  32
ATOM     32  C   UNL A   1      40.062  28.152  27.450  1.00  0.00     0.188 C 
BRANCH  32  33
ATOM     33  O   UNL A   1      39.790  28.794  28.698  1.00  0.00    -0.376 OA
BRANCH  33  34
ATOM     34  C   UNL A   1      38.432  28.947  29.094  1.00  0.00     0.202 C 
BRANCH  34  35
ATOM     35  C   UNL A   1      37.626  29.921  28.231  1.00  0.00     0.261 C 
BRANCH  35  36
ATOM     36  O   UNL A   1      36.301  30.164  28.697  1.00  0.00    -0.460 OA
BRANCH  36  37
ATOM     37  C   UNL A   1      35.905  31.451  28.745  1.00  0.00     0.338 C 
ATOM     38  O   UNL A   1      35.430  32.112  27.842  1.00  0.00    -0.246 OA
BRANCH  37  39
ATOM     39  C   UNL A   1      36.225  32.000  30.069  1.00  0.00     0.060 A 
ATOM     40  C   UNL A   1      37.230  32.967  30.092  1.00  0.00     0.016 A 
ATOM     41  C   UNL A   1      35.767  31.374  31.239  1.00  0.00     0.016 A 
ATOM     42  C   UNL A   1      37.981  33.087  31.235  1.00  0.00     0.010 A 
ATOM     43  C   UNL A   1      36.511  31.508  32.388  1.00  0.00     0.010 A 
ATOM     44  C   UNL A   1      37.679  32.260  32.320  1.00  0.00    -0.014 A 
BRANCH  44  45
ATOM     45  C   UNL A   1      38.721  32.090  33.307  1.00  0.00     0.031 A 
ATOM     46  C   UNL A   1      38.648  32.972  34.479  1.00  0.00     0.074 A 
ATOM     47  C   UNL A   1      39.690  31.169  33.156  1.00  0.00     0.049 A 
ATOM     48  N   UNL A   1      39.488  33.885  34.837  1.00  0.00    -0.248 NA
ATOM     49  C   UNL A   1      37.450  32.867  35.320  1.00  0.00     0.031 C 
ATOM     50  C   UNL A   1      39.734  30.042  32.220  1.00  0.00     0.029 A 
ATOM     51  N   UNL A   1      40.817  31.005  33.900  1.00  0.00    -0.354 N 
ATOM     52  C   UNL A   1      39.019  34.357  36.054  1.00  0.00     0.074 A 
ATOM     53  C   UNL A   1      37.708  33.789  36.246  1.00  0.00     0.031 C 
ATOM     54  C   UNL A   1      40.723  29.199  32.595  1.00  0.00     0.029 A 
ATOM     55  C   UNL A   1      41.447  29.789  33.709  1.00  0.00     0.049 A 
ATOM     56  H   UNL A   1      41.155  31.692  34.518  1.00  0.00     0.167 HD
ATOM     57  C   UNL A   1      39.827  35.016  36.924  1.00  0.00     0.037 A 
ATOM     58  C   UNL A   1      42.436  29.276  34.478  1.00  0.00     0.037 A 
ATOM     59  C   UNL A   1      40.999  35.556  36.294  1.00  0.00     0.049 A 
ATOM     60  C   UNL A   1      43.056  30.391  35.237  1.00  0.00     0.074 A 
ATOM     61  C   UNL A   1      41.220  36.444  35.258  1.00  0.00     0.029 A 
ATOM     62  N   UNL A   1      42.208  34.945  36.518  1.00  0.00    -0.354 N 
ATOM     63  N   UNL A   1      43.805  31.321  34.712  1.00  0.00    -0.248 NA
ATOM     64  C   UNL A   1      42.522  30.696  36.557  1.00  0.00     0.031 C 
ATOM     65  C   UNL A   1      42.407  35.986  34.615  1.00  0.00     0.029 A 
ATOM     66  C   UNL A   1      42.838  34.851  35.303  1.00  0.00     0.049 A 
ATOM     67  H   UNL A   1      42.557  34.636  37.385  1.00  0.00     0.167 HD
ATOM     68  C   UNL A   1      43.511  32.467  35.438  1.00  0.00     0.074 A 
ATOM     69  C   UNL A   1      42.808  31.997  36.625  1.00  0.00     0.031 C 
ATOM     70  C   UNL A   1      43.617  33.710  34.880  1.00  0.00     0.037 A 
BRANCH  57  71
ATOM     71  C   UNL A   1      39.679  34.885  38.410  1.00  0.00     0.057 A 
ATOM     72  C   UNL A   1      39.779  33.626  39.018  1.00  0.00     0.134 A 
ATOM     73  C   UNL A   1      39.190  35.923  39.231  1.00  0.00     0.134 A 
ATOM     74  F   UNL A   1      40.183  32.556  38.319  1.00  0.00    -0.206 F 
ATOM     75  C   UNL A   1      39.398  33.411  40.348  1.00  0.00     0.040 A 
ATOM     76  C   UNL A   1      38.860  35.733  40.573  1.00  0.00     0.040 A 
ATOM     77  F   UNL A   1      38.919  37.143  38.748  1.00  0.00    -0.206 F 
ATOM     78  C   UNL A   1      38.942  34.466  41.130  1.00  0.00     0.006 A 
ENDBRANCH  57  71
BRANCH  58  79
ATOM     79  C   UNL A   1      42.686  27.854  34.799  1.00  0.00     0.057 A 
ATOM     80  C   UNL A   1      41.929  27.187  35.770  1.00  0.00     0.134 A 
ATOM     81  C   UNL A   1      43.507  27.044  33.993  1.00  0.00     0.134 A 
ATOM     82  F   UNL A   1      41.077  27.864  36.554  1.00  0.00    -0.206 F 
ATOM     83  C   UNL A   1      41.978  25.795  35.925  1.00  0.00     0.040 A 
ATOM     84  C   UNL A   1      43.577  25.657  34.147  1.00  0.00     0.040 A 
ATOM     85  F   UNL A   1      44.205  27.558  32.971  1.00  0.00    -0.206 F 
ATOM     86  C   UNL A   1      42.801  25.026  35.109  1.00  0.00     0.006 A 
ENDBRANCH  58  79
BRANCH  70  87
ATOM     87  C   UNL A   1      44.338  33.831  33.569  1.00  0.00     0.057 A 
ATOM     88  C   UNL A   1      45.721  34.040  33.463  1.00  0.00     0.134 A 
ATOM     89  C   UNL A   1      43.641  33.580  32.381  1.00  0.00     0.134 A 
ATOM     90  F   UNL A   1      46.485  34.180  34.555  1.00  0.00    -0.206 F 
ATOM     91  C   UNL A   1      46.372  34.046  32.225  1.00  0.00     0.040 A 
ATOM     92  C   UNL A   1      44.285  33.552  31.141  1.00  0.00     0.040 A 
ATOM     93  F   UNL A   1      42.326  33.309  32.412  1.00  0.00    -0.206 F 
ATOM     94  C   UNL A   1      45.654  33.798  31.059  1.00  0.00     0.006 A 
ENDBRANCH  70  87
ENDBRANCH  44  45
ENDBRANCH  37  39
ENDBRANCH  36  37
ENDBRANCH  35  36
ENDBRANCH  34  35
ENDBRANCH  33  34
ENDBRANCH  32  33
ENDBRANCH  31  32
ENDBRANCH  30  31
ENDBRANCH  29  30
ENDBRANCH   1  29
TORSDOF 27
ENDMDL
MODEL 2
REMARK VINA RESULT:      -8.2      4.205      9.723
REMARK SMILES CCN(Cc1cn(CC)nc1C)C(=O)c1ccn([C@@H](C)C(=O)OCCOCCOCCOCCOC(=O)c2ccc(-c3c4nc(c(-c5c(F)cccc5F)c5ccc([nH]5)c(-c5c(F)cccc5F)c5nc(c(-c6c(F)cccc6F)c6ccc3[nH]6)C=C5)C=C4)cc2)n1
REMARK SMILES IDX 27 1 26 2 25 3 24 4 23 5 21 6 22 7 19 8 20 9 18 10 15 11
REMARK SMILES IDX 16 12 92 13 17 14 13 15 14 16 3 17 2 18 1 19 4 20 5 21 6 22
REMARK SMILES IDX 11 23 7 24 10 25 12 26 8 27 9 28 28 29 29 30 30 31 31 32
REMARK SMILES IDX 32 33 33 34 34 35 35 36 36 37 37 38 38 39 39 40 91 41 40 42
REMARK SMILES IDX 90 43 41 44 42 45 43 46 84 47 44 48 89 49 83 50 85 51 45 52
REMARK SMILES IDX 88 53 82 54 81 55 46 57 72 58 55 59 71 60 56 61 59 62 70 63
REMARK SMILES IDX 86 64 57 65 58 66 69 68 87 69 60 70 47 71 48 72 53 73 49 74
REMARK SMILES IDX 50 75 52 76 54 77 51 78 73 79 74 80 79 81 75 82 76 83 78 84
REMARK SMILES IDX 80 85 77 86 61 87 62 88 67 89 63 90 64 91 66 92 68 93 65 94
REMARK H PARENT 85 56 59 67
REMARK Flexibility Score: inf
ROOT
ATOM      1  C   UNL A   1      39.274  29.557  29.142  1.00  0.00     0.188 C 
ENDROOT
BRANCH   1   2
ATOM      2  O   UNL A   1      38.162  29.043  28.419  1.00  0.00    -0.376 OA
BRANCH   2   3
ATOM      3  C   UNL A   1      37.238  29.926  27.801  1.00  0.00     0.202 C 
BRANCH   3   4
ATOM      4  C   UNL A   1      35.848  30.091  28.427  1.00  0.00     0.261 C 
BRANCH   4   5
ATOM      5  O   UNL A   1      34.792  29.326  27.806  1.00  0.00    -0.462 OA
BRANCH   5   6
ATOM      6  C   UNL A   1      33.674  30.005  27.443  1.00  0.00     0.330 C 
ATOM      7  O   UNL A   1      33.476  31.181  27.745  1.00  0.00    -0.250 OA
BRANCH   6   8
ATOM      8  C   UNL A   1      32.615  29.207  26.694  1.00  0.00     0.213 C 
ATOM      9  C   UNL A   1      31.644  28.597  27.693  1.00  0.00     0.046 C 
BRANCH   8  10
ATOM     10  N   UNL A   1      33.052  28.220  25.701  1.00  0.00    -0.258 N 
ATOM     11  C   UNL A   1      32.809  26.518  24.418  1.00  0.00     0.150 A 
ATOM     12  C   UNL A   1      33.918  27.260  23.945  1.00  0.00     0.056 A 
ATOM     13  N   UNL A   1      32.303  27.098  25.525  1.00  0.00    -0.167 NA
ATOM     14  C   UNL A   1      34.143  28.243  24.881  1.00  0.00     0.110 A 
BRANCH  11  15
ATOM     15  C   UNL A   1      32.170  25.365  23.751  1.00  0.00     0.274 C 
ATOM     16  O   UNL A   1      31.472  24.588  24.407  1.00  0.00    -0.267 OA
BRANCH  15  17
ATOM     17  N   UNL A   1      32.327  25.202  22.359  1.00  0.00    -0.333 N 
BRANCH  17  18
ATOM     18  C   UNL A   1      31.522  26.056  21.486  1.00  0.00     0.117 C 
ATOM     19  C   UNL A   1      30.669  27.059  22.249  1.00  0.00     0.027 C 
ENDBRANCH  17  18
BRANCH  17  20
ATOM     20  C   UNL A   1      33.123  24.145  21.727  1.00  0.00     0.159 C 
BRANCH  20  21
ATOM     21  C   UNL A   1      33.370  23.014  22.671  1.00  0.00     0.012 A 
ATOM     22  C   UNL A   1      32.578  21.887  22.807  1.00  0.00     0.114 A 
ATOM     23  C   UNL A   1      34.397  22.818  23.640  1.00  0.00     0.064 A 
ATOM     24  N   UNL A   1      32.982  21.274  23.956  1.00  0.00    -0.272 N 
ATOM     25  N   UNL A   1      34.133  21.773  24.439  1.00  0.00    -0.178 NA
ATOM     26  C   UNL A   1      35.616  23.626  23.892  1.00  0.00     0.069 C 
BRANCH  24  27
ATOM     27  C   UNL A   1      32.177  20.379  24.766  1.00  0.00     0.141 C 
ATOM     28  C   UNL A   1      32.967  19.242  25.378  1.00  0.00     0.029 C 
ENDBRANCH  24  27
ENDBRANCH  20  21
ENDBRANCH  17  20
ENDBRANCH  15  17
ENDBRANCH  11  15
ENDBRANCH   8  10
ENDBRANCH   6   8
ENDBRANCH   5   6
ENDBRANCH   4   5
ENDBRANCH   3   4
ENDBRANCH   2   3
ENDBRANCH   1   2
BRANCH   1  29
ATOM     29  C   UNL A   1      39.158  29.879  30.641  1.00  0.00     0.188 C 
BRANCH  29  30
ATOM     30  O   UNL A   1      39.117  28.756  31.506  1.00  0.00    -0.377 OA
BRANCH  30  31
ATOM     31  C   UNL A   1      38.965  29.065  32.886  1.00  0.00     0.188 C 
BRANCH  31  32
ATOM     32  C   UNL A   1      40.221  28.925  33.767  1.00  0.00     0.188 C 
BRANCH  32  33
ATOM     33  O   UNL A   1      41.118  30.034  33.689  1.00  0.00    -0.376 OA
BRANCH  33  34
ATOM     34  C   UNL A   1      40.931  31.116  34.593  1.00  0.00     0.202 C 
BRANCH  34  35
ATOM     35  C   UNL A   1      40.288  32.358  33.972  1.00  0.00     0.261 C 
BRANCH  35  36
ATOM     36  O   UNL A   1      40.483  32.482  32.566  1.00  0.00    -0.460 OA
BRANCH  36  37
ATOM     37  C   UNL A   1      41.329  33.449  32.158  1.00  0.00     0.338 C 
ATOM     38  O   UNL A   1      41.251  34.642  32.380  1.00  0.00    -0.246 OA
BRANCH  37  39
ATOM     39  C   UNL A   1      42.354  32.851  31.292  1.00  0.00     0.060 A 
ATOM     40  C   UNL A   1      41.889  32.316  30.090  1.00  0.00     0.016 A 
ATOM     41  C   UNL A   1      43.640  32.573  31.781  1.00  0.00     0.016 A 
ATOM     42  C   UNL A   1      42.588  31.273  29.536  1.00  0.00     0.010 A 
ATOM     43  C   UNL A   1      44.347  31.538  31.216  1.00  0.00     0.010 A 
ATOM     44  C   UNL A   1      43.741  30.825  30.187  1.00  0.00    -0.014 A 
BRANCH  44  45
ATOM     45  C   UNL A   1      44.190  29.493  29.851  1.00  0.00     0.031 A 
ATOM     46  C   UNL A   1      44.961  29.368  28.607  1.00  0.00     0.074 A 
ATOM     47  C   UNL A   1      43.922  28.439  30.643  1.00  0.00     0.049 A 
ATOM     48  N   UNL A   1      44.637  28.722  27.537  1.00  0.00    -0.248 NA
ATOM     49  C   UNL A   1      46.221  30.115  28.524  1.00  0.00     0.031 C 
ATOM     50  C   UNL A   1      43.438  28.442  32.027  1.00  0.00     0.029 A 
ATOM     51  N   UNL A   1      44.126  27.119  30.383  1.00  0.00    -0.354 N 
ATOM     52  C   UNL A   1      45.736  28.830  26.697  1.00  0.00     0.074 A 
ATOM     53  C   UNL A   1      46.629  29.791  27.298  1.00  0.00     0.031 C 
ATOM     54  C   UNL A   1      43.588  27.203  32.546  1.00  0.00     0.029 A 
ATOM     55  C   UNL A   1      44.055  26.307  31.501  1.00  0.00     0.049 A 
ATOM     56  H   UNL A   1      44.306  26.773  29.480  1.00  0.00     0.167 HD
ATOM     57  C   UNL A   1      45.940  27.964  25.671  1.00  0.00     0.037 A 
ATOM     58  C   UNL A   1      44.443  25.012  31.569  1.00  0.00     0.037 A 
ATOM     59  C   UNL A   1      44.742  27.278  25.278  1.00  0.00     0.049 A 
ATOM     60  C   UNL A   1      44.496  24.474  30.187  1.00  0.00     0.074 A 
ATOM     61  C   UNL A   1      43.498  27.680  24.827  1.00  0.00     0.029 A 
ATOM     62  N   UNL A   1      44.599  25.955  25.615  1.00  0.00    -0.354 N 
ATOM     63  N   UNL A   1      43.452  24.230  29.443  1.00  0.00    -0.248 NA
ATOM     64  C   UNL A   1      45.761  24.559  29.470  1.00  0.00     0.031 C 
ATOM     65  C   UNL A   1      42.579  26.726  25.354  1.00  0.00     0.029 A 
ATOM     66  C   UNL A   1      43.321  25.800  26.088  1.00  0.00     0.049 A 
ATOM     67  H   UNL A   1      45.283  25.252  25.532  1.00  0.00     0.167 HD
ATOM     68  C   UNL A   1      43.857  24.531  28.150  1.00  0.00     0.074 A 
ATOM     69  C   UNL A   1      45.310  24.616  28.215  1.00  0.00     0.031 C 
ATOM     70  C   UNL A   1      42.966  24.957  27.206  1.00  0.00     0.037 A 
BRANCH  57  71
ATOM     71  C   UNL A   1      47.312  27.532  25.248  1.00  0.00     0.057 A 
ATOM     72  C   UNL A   1      47.692  27.621  23.902  1.00  0.00     0.134 A 
ATOM     73  C   UNL A   1      48.179  26.794  26.081  1.00  0.00     0.134 A 
ATOM     74  F   UNL A   1      46.917  28.254  23.010  1.00  0.00    -0.206 F 
ATOM     75  C   UNL A   1      48.848  27.000  23.415  1.00  0.00     0.040 A 
ATOM     76  C   UNL A   1      49.362  26.218  25.618  1.00  0.00     0.040 A 
ATOM     77  F   UNL A   1      47.874  26.516  27.356  1.00  0.00    -0.206 F 
ATOM     78  C   UNL A   1      49.689  26.301  24.274  1.00  0.00     0.006 A 
ENDBRANCH  57  71
BRANCH  58  79
ATOM     79  C   UNL A   1      45.034  24.305  32.725  1.00  0.00     0.057 A 
ATOM     80  C   UNL A   1      46.186  24.787  33.358  1.00  0.00     0.134 A 
ATOM     81  C   UNL A   1      44.347  23.276  33.396  1.00  0.00     0.134 A 
ATOM     82  F   UNL A   1      46.882  25.802  32.825  1.00  0.00    -0.206 F 
ATOM     83  C   UNL A   1      46.626  24.282  34.589  1.00  0.00     0.040 A 
ATOM     84  C   UNL A   1      44.783  22.752  34.616  1.00  0.00     0.040 A 
ATOM     85  F   UNL A   1      43.181  22.800  32.935  1.00  0.00    -0.206 F 
ATOM     86  C   UNL A   1      45.921  23.264  35.223  1.00  0.00     0.006 A 
ENDBRANCH  58  79
BRANCH  70  87
ATOM     87  C   UNL A   1      41.502  24.810  27.506  1.00  0.00     0.057 A 
ATOM     88  C   UNL A   1      40.774  25.730  28.275  1.00  0.00     0.134 A 
ATOM     89  C   UNL A   1      40.775  23.793  26.875  1.00  0.00     0.134 A 
ATOM     90  F   UNL A   1      41.370  26.796  28.826  1.00  0.00    -0.206 F 
ATOM     91  C   UNL A   1      39.391  25.612  28.447  1.00  0.00     0.040 A 
ATOM     92  C   UNL A   1      39.389  23.684  27.014  1.00  0.00     0.040 A 
ATOM     93  F   UNL A   1      41.397  22.914  26.072  1.00  0.00    -0.206 F 
ATOM     94  C   UNL A   1      38.694  24.590  27.812  1.00  0.00     0.006 A 
ENDBRANCH  70  87
ENDBRANCH  44  45
ENDBRANCH  37  39
ENDBRANCH  36  37
ENDBRANCH  35  36
ENDBRANCH  34  35
ENDBRANCH  33  34
ENDBRANCH  32  33
ENDBRANCH  31  32
ENDBRANCH  30  31
ENDBRANCH  29  30
ENDBRANCH   1  29
TORSDOF 27
ENDMDL
MODEL 3
REMARK VINA RESULT:      -8.2      4.530      8.852
REMARK SMILES CCN(Cc1cn(CC)nc1C)C(=O)c1ccn([C@@H](C)C(=O)OCCOCCOCCOCCOC(=O)c2ccc(-c3c4nc(c(-c5c(F)cccc5F)c5ccc([nH]5)c(-c5c(F)cccc5F)c5nc(c(-c6c(F)cccc6F)c6ccc3[nH]6)C=C5)C=C4)cc2)n1
REMARK SMILES IDX 27 1 26 2 25 3 24 4 23 5 21 6 22 7 19 8 20 9 18 10 15 11
REMARK SMILES IDX 16 12 92 13 17 14 13 15 14 16 3 17 2 18 1 19 4 20 5 21 6 22
REMARK SMILES IDX 11 23 7 24 10 25 12 26 8 27 9 28 28 29 29 30 30 31 31 32
REMARK SMILES IDX 32 33 33 34 34 35 35 36 36 37 37 38 38 39 39 40 91 41 40 42
REMARK SMILES IDX 90 43 41 44 42 45 43 46 84 47 44 48 89 49 83 50 85 51 45 52
REMARK SMILES IDX 88 53 82 54 81 55 46 57 72 58 55 59 71 60 56 61 59 62 70 63
REMARK SMILES IDX 86 64 57 65 58 66 69 68 87 69 60 70 47 71 48 72 53 73 49 74
REMARK SMILES IDX 50 75 52 76 54 77 51 78 73 79 74 80 79 81 75 82 76 83 78 84
REMARK SMILES IDX 80 85 77 86 61 87 62 88 67 89 63 90 64 91 66 92 68 93 65 94
REMARK H PARENT 85 56 59 67
REMARK Flexibility Score: inf
ROOT
ATOM      1  C   UNL A   1      32.887  33.346  27.822  1.00  0.00     0.188 C 
ENDROOT
BRANCH   1   2
ATOM      2  O   UNL A   1      31.661  33.240  27.107  1.00  0.00    -0.376 OA
BRANCH   2   3
ATOM      3  C   UNL A   1      31.388  32.091  26.319  1.00  0.00     0.202 C 
BRANCH   3   4
ATOM      4  C   UNL A   1      30.213  32.138  25.334  1.00  0.00     0.261 C 
BRANCH   4   5
ATOM      5  O   UNL A   1      30.092  30.998  24.457  1.00  0.00    -0.462 OA
BRANCH   5   6
ATOM      6  C   UNL A   1      29.053  31.003  23.583  1.00  0.00     0.330 C 
ATOM      7  O   UNL A   1      28.029  31.661  23.763  1.00  0.00    -0.250 OA
BRANCH   6   8
ATOM      8  C   UNL A   1      29.180  30.079  22.380  1.00  0.00     0.213 C 
ATOM      9  C   UNL A   1      27.903  30.144  21.556  1.00  0.00     0.046 C 
BRANCH   8  10
ATOM     10  N   UNL A   1      29.604  28.692  22.601  1.00  0.00    -0.258 N 
ATOM     11  C   UNL A   1      30.970  27.040  22.511  1.00  0.00     0.150 A 
ATOM     12  C   UNL A   1      29.991  26.739  23.489  1.00  0.00     0.056 A 
ATOM     13  N   UNL A   1      30.701  28.233  21.941  1.00  0.00    -0.167 NA
ATOM     14  C   UNL A   1      29.048  27.736  23.401  1.00  0.00     0.110 A 
BRANCH  11  15
ATOM     15  C   UNL A   1      32.200  26.273  22.228  1.00  0.00     0.274 C 
ATOM     16  O   UNL A   1      32.195  25.413  21.345  1.00  0.00    -0.267 OA
BRANCH  15  17
ATOM     17  N   UNL A   1      33.378  26.576  22.940  1.00  0.00    -0.333 N 
BRANCH  17  18
ATOM     18  C   UNL A   1      34.127  27.765  22.529  1.00  0.00     0.117 C 
ATOM     19  C   UNL A   1      33.658  29.037  23.219  1.00  0.00     0.027 C 
ENDBRANCH  17  18
BRANCH  17  20
ATOM     20  C   UNL A   1      33.984  25.714  23.959  1.00  0.00     0.159 C 
BRANCH  20  21
ATOM     21  C   UNL A   1      33.059  25.510  25.116  1.00  0.00     0.012 A 
ATOM     22  C   UNL A   1      32.377  24.343  25.409  1.00  0.00     0.114 A 
ATOM     23  C   UNL A   1      32.635  26.409  26.138  1.00  0.00     0.064 A 
ATOM     24  N   UNL A   1      31.439  24.673  26.342  1.00  0.00    -0.272 N 
ATOM     25  N   UNL A   1      31.625  25.899  26.858  1.00  0.00    -0.178 NA
ATOM     26  C   UNL A   1      33.111  27.783  26.436  1.00  0.00     0.069 C 
BRANCH  24  27
ATOM     27  C   UNL A   1      30.204  23.953  26.592  1.00  0.00     0.141 C 
ATOM     28  C   UNL A   1      30.297  22.472  26.294  1.00  0.00     0.029 C 
ENDBRANCH  24  27
ENDBRANCH  20  21
ENDBRANCH  17  20
ENDBRANCH  15  17
ENDBRANCH  11  15
ENDBRANCH   8  10
ENDBRANCH   6   8
ENDBRANCH   5   6
ENDBRANCH   4   5
ENDBRANCH   3   4
ENDBRANCH   2   3
ENDBRANCH   1   2
BRANCH   1  29
ATOM     29  C   UNL A   1      33.360  34.700  28.376  1.00  0.00     0.188 C 
BRANCH  29  30
ATOM     30  O   UNL A   1      32.657  35.176  29.511  1.00  0.00    -0.377 OA
BRANCH  30  31
ATOM     31  C   UNL A   1      33.479  35.586  30.599  1.00  0.00     0.188 C 
BRANCH  31  32
ATOM     32  C   UNL A   1      34.491  34.552  31.127  1.00  0.00     0.188 C 
BRANCH  32  33
ATOM     33  O   UNL A   1      34.579  34.494  32.552  1.00  0.00    -0.376 OA
BRANCH  33  34
ATOM     34  C   UNL A   1      34.620  33.214  33.172  1.00  0.00     0.202 C 
BRANCH  34  35
ATOM     35  C   UNL A   1      35.517  32.196  32.465  1.00  0.00     0.261 C 
BRANCH  35  36
ATOM     36  O   UNL A   1      36.908  32.505  32.508  1.00  0.00    -0.460 OA
BRANCH  36  37
ATOM     37  C   UNL A   1      37.583  32.093  33.599  1.00  0.00     0.338 C 
ATOM     38  O   UNL A   1      37.639  32.639  34.684  1.00  0.00    -0.246 OA
BRANCH  37  39
ATOM     39  C   UNL A   1      38.353  30.889  33.257  1.00  0.00     0.060 A 
ATOM     40  C   UNL A   1      39.365  30.548  34.154  1.00  0.00     0.016 A 
ATOM     41  C   UNL A   1      38.268  30.318  31.978  1.00  0.00     0.016 A 
ATOM     42  C   UNL A   1      40.456  29.872  33.666  1.00  0.00     0.010 A 
ATOM     43  C   UNL A   1      39.355  29.627  31.496  1.00  0.00     0.010 A 
ATOM     44  C   UNL A   1      40.478  29.535  32.310  1.00  0.00    -0.014 A 
BRANCH  44  45
ATOM     45  C   UNL A   1      41.775  29.239  31.744  1.00  0.00     0.031 A 
ATOM     46  C   UNL A   1      42.224  30.126  30.663  1.00  0.00     0.074 A 
ATOM     47  C   UNL A   1      42.524  28.216  32.197  1.00  0.00     0.049 A 
ATOM     48  N   UNL A   1      42.444  29.820  29.428  1.00  0.00    -0.248 NA
ATOM     49  C   UNL A   1      42.381  31.548  30.987  1.00  0.00     0.031 C 
ATOM     50  C   UNL A   1      42.356  27.445  33.433  1.00  0.00     0.029 A 
ATOM     51  N   UNL A   1      43.670  27.714  31.664  1.00  0.00    -0.354 N 
ATOM     52  C   UNL A   1      42.942  30.977  28.848  1.00  0.00     0.074 A 
ATOM     53  C   UNL A   1      42.771  32.036  29.811  1.00  0.00     0.031 C 
ATOM     54  C   UNL A   1      43.478  26.723  33.653  1.00  0.00     0.029 A 
ATOM     55  C   UNL A   1      44.374  26.887  32.520  1.00  0.00     0.049 A 
ATOM     56  H   UNL A   1      43.971  27.920  30.750  1.00  0.00     0.167 HD
ATOM     57  C   UNL A   1      43.658  30.947  27.694  1.00  0.00     0.037 A 
ATOM     58  C   UNL A   1      45.642  26.449  32.339  1.00  0.00     0.037 A 
ATOM     59  C   UNL A   1      43.447  29.742  26.941  1.00  0.00     0.049 A 
ATOM     60  C   UNL A   1      45.975  26.585  30.899  1.00  0.00     0.074 A 
ATOM     61  C   UNL A   1      42.339  29.125  26.390  1.00  0.00     0.029 A 
ATOM     62  N   UNL A   1      44.443  28.797  26.916  1.00  0.00    -0.354 N 
ATOM     63  N   UNL A   1      45.474  25.848  29.946  1.00  0.00    -0.248 NA
ATOM     64  C   UNL A   1      46.602  27.824  30.458  1.00  0.00     0.031 C 
ATOM     65  C   UNL A   1      42.593  27.727  26.498  1.00  0.00     0.029 A 
ATOM     66  C   UNL A   1      43.841  27.579  27.104  1.00  0.00     0.049 A 
ATOM     67  H   UNL A   1      45.405  28.963  26.787  1.00  0.00     0.167 HD
ATOM     68  C   UNL A   1      45.360  26.700  28.857  1.00  0.00     0.074 A 
ATOM     69  C   UNL A   1      46.172  27.862  29.196  1.00  0.00     0.031 C 
ATOM     70  C   UNL A   1      44.399  26.513  27.904  1.00  0.00     0.037 A 
BRANCH  57  71
ATOM     71  C   UNL A   1      44.788  31.896  27.427  1.00  0.00     0.057 A 
ATOM     72  C   UNL A   1      45.862  31.979  28.323  1.00  0.00     0.134 A 
ATOM     73  C   UNL A   1      44.727  32.911  26.449  1.00  0.00     0.134 A 
ATOM     74  F   UNL A   1      45.991  31.098  29.325  1.00  0.00    -0.206 F 
ATOM     75  C   UNL A   1      46.801  33.015  28.261  1.00  0.00     0.040 A 
ATOM     76  C   UNL A   1      45.688  33.916  26.343  1.00  0.00     0.040 A 
ATOM     77  F   UNL A   1      43.686  33.031  25.613  1.00  0.00    -0.206 F 
ATOM     78  C   UNL A   1      46.719  33.984  27.267  1.00  0.00     0.006 A 
ENDBRANCH  57  71
BRANCH  58  79
ATOM     79  C   UNL A   1      46.664  26.184  33.374  1.00  0.00     0.057 A 
ATOM     80  C   UNL A   1      46.945  24.879  33.798  1.00  0.00     0.134 A 
ATOM     81  C   UNL A   1      47.565  27.179  33.799  1.00  0.00     0.134 A 
ATOM     82  F   UNL A   1      46.175  23.854  33.405  1.00  0.00    -0.206 F 
ATOM     83  C   UNL A   1      48.061  24.579  34.591  1.00  0.00     0.040 A 
ATOM     84  C   UNL A   1      48.673  26.895  34.601  1.00  0.00     0.040 A 
ATOM     85  F   UNL A   1      47.453  28.447  33.379  1.00  0.00    -0.206 F 
ATOM     86  C   UNL A   1      48.931  25.587  34.991  1.00  0.00     0.006 A 
ENDBRANCH  58  79
BRANCH  70  87
ATOM     87  C   UNL A   1      43.664  25.205  27.896  1.00  0.00     0.057 A 
ATOM     88  C   UNL A   1      42.454  24.993  28.574  1.00  0.00     0.134 A 
ATOM     89  C   UNL A   1      44.111  24.175  27.059  1.00  0.00     0.134 A 
ATOM     90  F   UNL A   1      41.895  25.963  29.311  1.00  0.00    -0.206 F 
ATOM     91  C   UNL A   1      41.747  23.792  28.460  1.00  0.00     0.040 A 
ATOM     92  C   UNL A   1      43.398  22.983  26.913  1.00  0.00     0.040 A 
ATOM     93  F   UNL A   1      45.228  24.332  26.331  1.00  0.00    -0.206 F 
ATOM     94  C   UNL A   1      42.216  22.784  27.624  1.00  0.00     0.006 A 
ENDBRANCH  70  87
ENDBRANCH  44  45
ENDBRANCH  37  39
ENDBRANCH  36  37
ENDBRANCH  35  36
ENDBRANCH  34  35
ENDBRANCH  33  34
ENDBRANCH  32  33
ENDBRANCH  31  32
ENDBRANCH  30  31
ENDBRANCH  29  30
ENDBRANCH   1  29
TORSDOF 27
ENDMDL
