MODEL 1
REMARK VINA RESULT:      -9.0      0.000      0.000
REMARK SMILES COC[C@@H](C)Nc1ccc([N+](=O)[O-])c(C(=O)OCCOCCOCCOCCOC(=O)c2ccc(-c3c4nc(c(-c5c(F)cccc5F)c5ccc([nH]5)c(-c5c(F)cccc5F)c5nc(c(-c6c(F)cccc6F)c6ccc3[nH]6)C=C5)C=C4)cc2)c1
REMARK SMILES IDX 22 1 21 2 20 3 19 4 18 5 17 6 15 7 16 8 14 9 7 10 8 11 86 12
REMARK SMILES IDX 9 13 10 14 6 15 4 17 5 18 3 19 2 20 1 21 11 22 12 23 13 24
REMARK SMILES IDX 23 25 24 26 25 27 26 28 27 29 28 30 29 31 30 32 31 33 32 34
REMARK SMILES IDX 33 35 85 36 34 37 84 38 35 39 36 40 37 41 78 42 38 43 83 44
REMARK SMILES IDX 77 45 79 46 39 47 82 48 76 49 75 50 40 52 66 53 49 54 65 55
REMARK SMILES IDX 50 56 53 57 64 58 80 59 51 60 52 61 63 63 81 64 54 65 41 66
REMARK SMILES IDX 42 67 47 68 43 69 44 70 46 71 48 72 45 73 67 74 68 75 73 76
REMARK SMILES IDX 69 77 70 78 72 79 74 80 71 81 55 82 56 83 61 84 57 85 58 86
REMARK SMILES IDX 60 87 62 88 59 89
REMARK H PARENT 6 16 79 51 53 62
REMARK Flexibility Score: inf
ROOT
ATOM      1  C   UNL A   1      34.831  23.954  24.003  1.00  0.00     0.188 C 
ENDROOT
BRANCH   1   2
ATOM      2  C   UNL A   1      33.997  24.349  22.772  1.00  0.00     0.188 C 
BRANCH   2   3
ATOM      3  O   UNL A   1      33.128  25.464  22.967  1.00  0.00    -0.376 OA
BRANCH   3   4
ATOM      4  C   UNL A   1      33.490  26.647  22.262  1.00  0.00     0.202 C 
BRANCH   4   5
ATOM      5  C   UNL A   1      33.931  27.765  23.203  1.00  0.00     0.261 C 
BRANCH   5   6
ATOM      6  O   UNL A   1      32.913  28.768  23.340  1.00  0.00    -0.459 OA
BRANCH   6   7
ATOM      7  C   UNL A   1      32.341  28.936  24.552  1.00  0.00     0.345 C 
ATOM      8  O   UNL A   1      32.639  29.739  25.414  1.00  0.00    -0.246 OA
BRANCH   7   9
ATOM      9  C   UNL A   1      31.247  27.946  24.622  1.00  0.00     0.139 A 
ATOM     10  C   UNL A   1      30.534  25.817  25.626  1.00  0.00     0.036 A 
ATOM     11  C   UNL A   1      29.392  25.870  24.819  1.00  0.00     0.033 A 
ATOM     12  C   UNL A   1      31.445  26.869  25.514  1.00  0.00     0.048 A 
ATOM     13  C   UNL A   1      29.166  26.931  23.935  1.00  0.00     0.089 A 
ATOM     14  C   UNL A   1      30.094  27.980  23.837  1.00  0.00     0.284 A 
BRANCH  10  15
ATOM     15  N   UNL A   1      30.682  24.768  26.507  1.00  0.00    -0.380 N 
ATOM     16  H   UNL A   1      30.977  24.990  27.420  1.00  0.00     0.160 HD
BRANCH  15  17
ATOM     17  C   UNL A   1      30.441  23.352  26.210  1.00  0.00     0.102 C 
ATOM     18  C   UNL A   1      29.612  22.764  27.353  1.00  0.00     0.033 C 
BRANCH  17  19
ATOM     19  C   UNL A   1      31.804  22.643  26.027  1.00  0.00     0.184 C 
BRANCH  19  20
ATOM     20  O   UNL A   1      32.858  23.180  26.829  1.00  0.00    -0.383 OA
ATOM     21  C   UNL A   1      33.324  22.307  27.845  1.00  0.00     0.194 C 
ENDBRANCH  19  20
ENDBRANCH  17  19
ENDBRANCH  15  17
ENDBRANCH  10  15
BRANCH  14  22
ATOM     22  N   UNL A   1      29.824  29.030  22.852  1.00  0.00     0.063 N 
ATOM     23  O   UNL A   1      29.228  30.040  23.254  1.00  0.00    -0.258 OA
ATOM     24  O   UNL A   1      30.127  28.831  21.673  1.00  0.00    -0.258 OA
ENDBRANCH  14  22
ENDBRANCH   7   9
ENDBRANCH   6   7
ENDBRANCH   5   6
ENDBRANCH   4   5
ENDBRANCH   3   4
ENDBRANCH   2   3
ENDBRANCH   1   2
BRANCH   1  25
ATOM     25  O   UNL A   1      35.554  22.735  23.984  1.00  0.00    -0.377 OA
BRANCH  25  26
ATOM     26  C   UNL A   1      36.203  22.292  25.169  1.00  0.00     0.188 C 
BRANCH  26  27
ATOM     27  C   UNL A   1      37.725  22.044  25.193  1.00  0.00     0.188 C 
BRANCH  27  28
ATOM     28  O   UNL A   1      38.370  22.406  26.408  1.00  0.00    -0.376 OA
BRANCH  28  29
ATOM     29  C   UNL A   1      39.700  21.941  26.579  1.00  0.00     0.202 C 
BRANCH  29  30
ATOM     30  C   UNL A   1      40.744  23.060  26.515  1.00  0.00     0.261 C 
BRANCH  30  31
ATOM     31  O   UNL A   1      40.202  24.366  26.264  1.00  0.00    -0.460 OA
BRANCH  31  32
ATOM     32  C   UNL A   1      41.085  25.377  26.118  1.00  0.00     0.338 C 
ATOM     33  O   UNL A   1      41.712  25.681  25.121  1.00  0.00    -0.246 OA
BRANCH  32  34
ATOM     34  C   UNL A   1      41.043  26.181  27.351  1.00  0.00     0.060 A 
ATOM     35  C   UNL A   1      39.930  26.070  28.196  1.00  0.00     0.016 A 
ATOM     36  C   UNL A   1      42.103  27.031  27.671  1.00  0.00     0.016 A 
ATOM     37  C   UNL A   1      39.863  26.842  29.354  1.00  0.00     0.010 A 
ATOM     38  C   UNL A   1      42.025  27.818  28.819  1.00  0.00     0.010 A 
ATOM     39  C   UNL A   1      40.891  27.750  29.645  1.00  0.00    -0.014 A 
BRANCH  39  40
ATOM     40  C   UNL A   1      40.686  28.788  30.680  1.00  0.00     0.031 A 
ATOM     41  C   UNL A   1      41.545  28.731  31.911  1.00  0.00     0.074 A 
ATOM     42  C   UNL A   1      39.764  29.753  30.535  1.00  0.00     0.049 A 
ATOM     43  N   UNL A   1      41.518  29.481  32.981  1.00  0.00    -0.248 NA
ATOM     44  C   UNL A   1      42.577  27.679  31.938  1.00  0.00     0.031 C 
ATOM     45  C   UNL A   1      38.899  29.935  29.371  1.00  0.00     0.029 A 
ATOM     46  N   UNL A   1      39.397  30.761  31.391  1.00  0.00    -0.354 N 
ATOM     47  C   UNL A   1      42.527  28.997  33.803  1.00  0.00     0.074 A 
ATOM     48  C   UNL A   1      43.126  27.868  33.128  1.00  0.00     0.031 C 
ATOM     49  C   UNL A   1      38.091  30.988  29.591  1.00  0.00     0.029 A 
ATOM     50  C   UNL A   1      38.362  31.533  30.921  1.00  0.00     0.049 A 
ATOM     51  H   UNL A   1      39.834  30.917  32.259  1.00  0.00     0.167 HD
ATOM     52  C   UNL A   1      42.928  29.460  35.010  1.00  0.00     0.037 A 
ATOM     53  C   UNL A   1      37.703  32.547  31.512  1.00  0.00     0.037 A 
ATOM     54  C   UNL A   1      42.320  30.569  35.691  1.00  0.00     0.049 A 
ATOM     55  C   UNL A   1      38.107  32.984  32.898  1.00  0.00     0.074 A 
ATOM     56  C   UNL A   1      42.644  31.109  36.922  1.00  0.00     0.029 A 
ATOM     57  N   UNL A   1      41.254  31.305  35.197  1.00  0.00    -0.354 N 
ATOM     58  N   UNL A   1      39.074  32.533  33.662  1.00  0.00    -0.248 NA
ATOM     59  C   UNL A   1      37.326  34.073  33.504  1.00  0.00     0.031 C 
ATOM     60  C   UNL A   1      41.747  32.148  37.192  1.00  0.00     0.029 A 
ATOM     61  C   UNL A   1      40.895  32.284  36.108  1.00  0.00     0.049 A 
ATOM     62  H   UNL A   1      40.817  31.154  34.328  1.00  0.00     0.167 HD
ATOM     63  C   UNL A   1      39.038  33.303  34.818  1.00  0.00     0.074 A 
ATOM     64  C   UNL A   1      37.958  34.254  34.654  1.00  0.00     0.031 C 
ATOM     65  C   UNL A   1      39.827  33.232  35.918  1.00  0.00     0.037 A 
BRANCH  52  66
ATOM     66  C   UNL A   1      44.067  28.745  35.672  1.00  0.00     0.057 A 
ATOM     67  C   UNL A   1      45.399  29.106  35.434  1.00  0.00     0.134 A 
ATOM     68  C   UNL A   1      43.829  27.693  36.564  1.00  0.00     0.134 A 
ATOM     69  F   UNL A   1      45.693  30.093  34.572  1.00  0.00    -0.206 F 
ATOM     70  C   UNL A   1      46.457  28.433  36.046  1.00  0.00     0.040 A 
ATOM     71  C   UNL A   1      44.878  27.028  37.201  1.00  0.00     0.040 A 
ATOM     72  F   UNL A   1      42.576  27.297  36.832  1.00  0.00    -0.206 F 
ATOM     73  C   UNL A   1      46.196  27.394  36.938  1.00  0.00     0.006 A 
ENDBRANCH  52  66
BRANCH  53  74
ATOM     74  C   UNL A   1      36.581  33.224  30.812  1.00  0.00     0.057 A 
ATOM     75  C   UNL A   1      35.250  32.952  31.148  1.00  0.00     0.134 A 
ATOM     76  C   UNL A   1      36.812  34.121  29.762  1.00  0.00     0.134 A 
ATOM     77  F   UNL A   1      34.965  32.080  32.126  1.00  0.00    -0.206 F 
ATOM     78  C   UNL A   1      34.188  33.530  30.451  1.00  0.00     0.040 A 
ATOM     79  C   UNL A   1      35.759  34.725  29.073  1.00  0.00     0.040 A 
ATOM     80  F   UNL A   1      38.065  34.421  29.391  1.00  0.00    -0.206 F 
ATOM     81  C   UNL A   1      34.442  34.423  29.412  1.00  0.00     0.006 A 
ENDBRANCH  53  74
BRANCH  65  82
ATOM     82  C   UNL A   1      39.587  34.235  37.007  1.00  0.00     0.057 A 
ATOM     83  C   UNL A   1      38.826  33.928  38.142  1.00  0.00     0.134 A 
ATOM     84  C   UNL A   1      40.166  35.509  36.941  1.00  0.00     0.134 A 
ATOM     85  F   UNL A   1      38.236  32.729  38.261  1.00  0.00    -0.206 F 
ATOM     86  C   UNL A   1      38.633  34.860  39.163  1.00  0.00     0.040 A 
ATOM     87  C   UNL A   1      40.001  36.440  37.966  1.00  0.00     0.040 A 
ATOM     88  F   UNL A   1      40.915  35.862  35.885  1.00  0.00    -0.206 F 
ATOM     89  C   UNL A   1      39.228  36.118  39.079  1.00  0.00     0.006 A 
ENDBRANCH  65  82
ENDBRANCH  39  40
ENDBRANCH  32  34
ENDBRANCH  31  32
ENDBRANCH  30  31
ENDBRANCH  29  30
ENDBRANCH  28  29
ENDBRANCH  27  28
ENDBRANCH  26  27
ENDBRANCH  25  26
ENDBRANCH   1  25
TORSDOF 25
ENDMDL
MODEL 2
REMARK VINA RESULT:      -8.9      3.029      7.906
REMARK SMILES COC[C@@H](C)Nc1ccc([N+](=O)[O-])c(C(=O)OCCOCCOCCOCCOC(=O)c2ccc(-c3c4nc(c(-c5c(F)cccc5F)c5ccc([nH]5)c(-c5c(F)cccc5F)c5nc(c(-c6c(F)cccc6F)c6ccc3[nH]6)C=C5)C=C4)cc2)c1
REMARK SMILES IDX 22 1 21 2 20 3 19 4 18 5 17 6 15 7 16 8 14 9 7 10 8 11 86 12
REMARK SMILES IDX 9 13 10 14 6 15 4 17 5 18 3 19 2 20 1 21 11 22 12 23 13 24
REMARK SMILES IDX 23 25 24 26 25 27 26 28 27 29 28 30 29 31 30 32 31 33 32 34
REMARK SMILES IDX 33 35 85 36 34 37 84 38 35 39 36 40 37 41 78 42 38 43 83 44
REMARK SMILES IDX 77 45 79 46 39 47 82 48 76 49 75 50 40 52 66 53 49 54 65 55
REMARK SMILES IDX 50 56 53 57 64 58 80 59 51 60 52 61 63 63 81 64 54 65 41 66
REMARK SMILES IDX 42 67 47 68 43 69 44 70 46 71 48 72 45 73 67 74 68 75 73 76
REMARK SMILES IDX 69 77 70 78 72 79 74 80 71 81 55 82 56 83 61 84 57 85 58 86
REMARK SMILES IDX 60 87 62 88 59 89
REMARK H PARENT 6 16 79 51 53 62
REMARK Flexibility Score: inf
ROOT
ATOM      1  C   UNL A   1      31.829  26.423  25.586  1.00  0.00     0.188 C 
ENDROOT
BRANCH   1   2
ATOM      2  C   UNL A   1      31.157  25.314  26.416  1.00  0.00     0.188 C 
BRANCH   2   3
ATOM      3  O   UNL A   1      31.490  23.984  26.023  1.00  0.00    -0.376 OA
BRANCH   3   4
ATOM      4  C   UNL A   1      32.448  23.329  26.849  1.00  0.00     0.202 C 
BRANCH   4   5
ATOM      5  C   UNL A   1      33.878  23.743  26.511  1.00  0.00     0.261 C 
BRANCH   5   6
ATOM      6  O   UNL A   1      34.589  22.684  25.853  1.00  0.00    -0.459 OA
BRANCH   6   7
ATOM      7  C   UNL A   1      34.787  22.778  24.519  1.00  0.00     0.345 C 
ATOM      8  O   UNL A   1      35.632  23.425  23.933  1.00  0.00    -0.246 OA
BRANCH   7   9
ATOM      9  C   UNL A   1      33.765  21.910  23.899  1.00  0.00     0.139 A 
ATOM     10  C   UNL A   1      32.879  19.619  23.797  1.00  0.00     0.036 A 
ATOM     11  C   UNL A   1      32.025  20.041  22.772  1.00  0.00     0.033 A 
ATOM     12  C   UNL A   1      33.735  20.572  24.350  1.00  0.00     0.048 A 
ATOM     13  C   UNL A   1      32.026  21.364  22.314  1.00  0.00     0.089 A 
ATOM     14  C   UNL A   1      32.896  22.309  22.883  1.00  0.00     0.284 A 
BRANCH  10  15
ATOM     15  N   UNL A   1      32.804  18.314  24.233  1.00  0.00    -0.380 N 
ATOM     16  H   UNL A   1      31.904  17.950  24.401  1.00  0.00     0.160 HD
BRANCH  15  17
ATOM     17  C   UNL A   1      33.940  17.418  24.470  1.00  0.00     0.102 C 
ATOM     18  C   UNL A   1      34.348  16.805  23.129  1.00  0.00     0.033 C 
BRANCH  17  19
ATOM     19  C   UNL A   1      33.527  16.356  25.517  1.00  0.00     0.184 C 
BRANCH  19  20
ATOM     20  O   UNL A   1      33.145  15.098  24.957  1.00  0.00    -0.383 OA
ATOM     21  C   UNL A   1      32.505  14.221  25.870  1.00  0.00     0.194 C 
ENDBRANCH  19  20
ENDBRANCH  17  19
ENDBRANCH  15  17
ENDBRANCH  10  15
BRANCH  14  22
ATOM     22  N   UNL A   1      32.885  23.661  22.319  1.00  0.00     0.063 N 
ATOM     23  O   UNL A   1      33.593  23.860  21.321  1.00  0.00    -0.258 OA
ATOM     24  O   UNL A   1      32.245  24.542  22.898  1.00  0.00    -0.258 OA
ENDBRANCH  14  22
ENDBRANCH   7   9
ENDBRANCH   6   7
ENDBRANCH   5   6
ENDBRANCH   4   5
ENDBRANCH   3   4
ENDBRANCH   2   3
ENDBRANCH   1   2
BRANCH   1  25
ATOM     25  O   UNL A   1      31.017  27.376  24.924  1.00  0.00    -0.377 OA
BRANCH  25  26
ATOM     26  C   UNL A   1      31.631  28.375  24.119  1.00  0.00     0.188 C 
BRANCH  26  27
ATOM     27  C   UNL A   1      32.441  29.522  24.758  1.00  0.00     0.188 C 
BRANCH  27  28
ATOM     28  O   UNL A   1      31.715  30.324  25.680  1.00  0.00    -0.376 OA
BRANCH  28  29
ATOM     29  C   UNL A   1      32.443  30.827  26.790  1.00  0.00     0.202 C 
BRANCH  29  30
ATOM     30  C   UNL A   1      32.387  32.353  26.907  1.00  0.00     0.261 C 
BRANCH  30  31
ATOM     31  O   UNL A   1      32.930  32.877  28.129  1.00  0.00    -0.460 OA
BRANCH  31  32
ATOM     32  C   UNL A   1      34.030  33.652  28.026  1.00  0.00     0.338 C 
ATOM     33  O   UNL A   1      34.083  34.843  27.784  1.00  0.00    -0.246 OA
BRANCH  32  34
ATOM     34  C   UNL A   1      35.186  32.833  28.432  1.00  0.00     0.060 A 
ATOM     35  C   UNL A   1      34.961  31.545  28.936  1.00  0.00     0.016 A 
ATOM     36  C   UNL A   1      36.481  33.337  28.305  1.00  0.00     0.016 A 
ATOM     37  C   UNL A   1      36.042  30.767  29.347  1.00  0.00     0.010 A 
ATOM     38  C   UNL A   1      37.560  32.565  28.736  1.00  0.00     0.010 A 
ATOM     39  C   UNL A   1      37.339  31.293  29.289  1.00  0.00    -0.014 A 
BRANCH  39  40
ATOM     40  C   UNL A   1      38.442  30.616  30.006  1.00  0.00     0.031 A 
ATOM     41  C   UNL A   1      38.681  30.990  31.441  1.00  0.00     0.074 A 
ATOM     42  C   UNL A   1      39.214  29.696  29.403  1.00  0.00     0.049 A 
ATOM     43  N   UNL A   1      39.616  30.590  32.262  1.00  0.00    -0.248 NA
ATOM     44  C   UNL A   1      37.733  31.953  32.030  1.00  0.00     0.031 C 
ATOM     45  C   UNL A   1      39.055  29.222  28.030  1.00  0.00     0.029 A 
ATOM     46  N   UNL A   1      40.298  29.003  29.878  1.00  0.00    -0.354 N 
ATOM     47  C   UNL A   1      39.367  31.244  33.461  1.00  0.00     0.074 A 
ATOM     48  C   UNL A   1      38.217  32.095  33.255  1.00  0.00     0.031 C 
ATOM     49  C   UNL A   1      40.019  28.321  27.768  1.00  0.00     0.029 A 
ATOM     50  C   UNL A   1      40.876  28.178  28.944  1.00  0.00     0.049 A 
ATOM     51  H   UNL A   1      40.631  29.088  30.801  1.00  0.00     0.167 HD
ATOM     52  C   UNL A   1      40.032  31.137  34.635  1.00  0.00     0.037 A 
ATOM     53  C   UNL A   1      41.983  27.415  29.032  1.00  0.00     0.037 A 
ATOM     54  C   UNL A   1      41.187  30.308  34.836  1.00  0.00     0.049 A 
ATOM     55  C   UNL A   1      42.761  27.386  30.323  1.00  0.00     0.074 A 
ATOM     56  C   UNL A   1      41.939  30.139  35.984  1.00  0.00     0.029 A 
ATOM     57  N   UNL A   1      41.761  29.511  33.857  1.00  0.00    -0.354 N 
ATOM     58  N   UNL A   1      42.509  27.993  31.458  1.00  0.00    -0.248 NA
ATOM     59  C   UNL A   1      43.979  26.562  30.345  1.00  0.00     0.031 C 
ATOM     60  C   UNL A   1      42.994  29.269  35.688  1.00  0.00     0.029 A 
ATOM     61  C   UNL A   1      42.872  28.862  34.370  1.00  0.00     0.049 A 
ATOM     62  H   UNL A   1      41.430  29.422  32.935  1.00  0.00     0.167 HD
ATOM     63  C   UNL A   1      43.514  27.600  32.334  1.00  0.00     0.074 A 
ATOM     64  C   UNL A   1      44.376  26.696  31.602  1.00  0.00     0.031 C 
ATOM     65  C   UNL A   1      43.707  27.953  33.629  1.00  0.00     0.037 A 
BRANCH  52  66
ATOM     66  C   UNL A   1      39.527  31.960  35.783  1.00  0.00     0.057 A 
ATOM     67  C   UNL A   1      40.100  33.195  36.110  1.00  0.00     0.134 A 
ATOM     68  C   UNL A   1      38.452  31.518  36.561  1.00  0.00     0.134 A 
ATOM     69  F   UNL A   1      41.149  33.664  35.415  1.00  0.00    -0.206 F 
ATOM     70  C   UNL A   1      39.633  33.954  37.183  1.00  0.00     0.040 A 
ATOM     71  C   UNL A   1      37.959  32.279  37.622  1.00  0.00     0.040 A 
ATOM     72  F   UNL A   1      37.860  30.342  36.302  1.00  0.00    -0.206 F 
ATOM     73  C   UNL A   1      38.555  33.498  37.939  1.00  0.00     0.006 A 
ENDBRANCH  52  66
BRANCH  53  74
ATOM     74  C   UNL A   1      42.440  26.618  27.865  1.00  0.00     0.057 A 
ATOM     75  C   UNL A   1      43.250  27.184  26.874  1.00  0.00     0.134 A 
ATOM     76  C   UNL A   1      42.041  25.287  27.690  1.00  0.00     0.134 A 
ATOM     77  F   UNL A   1      43.641  28.464  26.973  1.00  0.00    -0.206 F 
ATOM     78  C   UNL A   1      43.628  26.465  25.740  1.00  0.00     0.040 A 
ATOM     79  C   UNL A   1      42.432  24.549  26.572  1.00  0.00     0.040 A 
ATOM     80  F   UNL A   1      41.262  24.687  28.602  1.00  0.00    -0.206 F 
ATOM     81  C   UNL A   1      43.222  25.141  25.588  1.00  0.00     0.006 A 
ENDBRANCH  53  74
BRANCH  65  82
ATOM     82  C   UNL A   1      44.863  27.327  34.350  1.00  0.00     0.057 A 
ATOM     83  C   UNL A   1      44.753  26.087  34.991  1.00  0.00     0.134 A 
ATOM     84  C   UNL A   1      46.117  27.953  34.362  1.00  0.00     0.134 A 
ATOM     85  F   UNL A   1      43.578  25.442  35.026  1.00  0.00    -0.206 F 
ATOM     86  C   UNL A   1      45.844  25.502  35.636  1.00  0.00     0.040 A 
ATOM     87  C   UNL A   1      47.220  27.366  34.981  1.00  0.00     0.040 A 
ATOM     88  F   UNL A   1      46.292  29.138  33.757  1.00  0.00    -0.206 F 
ATOM     89  C   UNL A   1      47.084  26.138  35.625  1.00  0.00     0.006 A 
ENDBRANCH  65  82
ENDBRANCH  39  40
ENDBRANCH  32  34
ENDBRANCH  31  32
ENDBRANCH  30  31
ENDBRANCH  29  30
ENDBRANCH  28  29
ENDBRANCH  27  28
ENDBRANCH  26  27
ENDBRANCH  25  26
ENDBRANCH   1  25
TORSDOF 25
ENDMDL
MODEL 3
REMARK VINA RESULT:      -8.7      4.054      6.551
REMARK SMILES COC[C@@H](C)Nc1ccc([N+](=O)[O-])c(C(=O)OCCOCCOCCOCCOC(=O)c2ccc(-c3c4nc(c(-c5c(F)cccc5F)c5ccc([nH]5)c(-c5c(F)cccc5F)c5nc(c(-c6c(F)cccc6F)c6ccc3[nH]6)C=C5)C=C4)cc2)c1
REMARK SMILES IDX 22 1 21 2 20 3 19 4 18 5 17 6 15 7 16 8 14 9 7 10 8 11 86 12
REMARK SMILES IDX 9 13 10 14 6 15 4 17 5 18 3 19 2 20 1 21 11 22 12 23 13 24
REMARK SMILES IDX 23 25 24 26 25 27 26 28 27 29 28 30 29 31 30 32 31 33 32 34
REMARK SMILES IDX 33 35 85 36 34 37 84 38 35 39 36 40 37 41 78 42 38 43 83 44
REMARK SMILES IDX 77 45 79 46 39 47 82 48 76 49 75 50 40 52 66 53 49 54 65 55
REMARK SMILES IDX 50 56 53 57 64 58 80 59 51 60 52 61 63 63 81 64 54 65 41 66
REMARK SMILES IDX 42 67 47 68 43 69 44 70 46 71 48 72 45 73 67 74 68 75 73 76
REMARK SMILES IDX 69 77 70 78 72 79 74 80 71 81 55 82 56 83 61 84 57 85 58 86
REMARK SMILES IDX 60 87 62 88 59 89
REMARK H PARENT 6 16 79 51 53 62
REMARK Flexibility Score: inf
ROOT
ATOM      1  C   UNL A   1      32.945  25.039  26.366  1.00  0.00     0.188 C 
ENDROOT
BRANCH   1   2
ATOM      2  C   UNL A   1      33.392  26.442  25.920  1.00  0.00     0.188 C 
BRANCH   2   3
ATOM      3  O   UNL A   1      33.107  27.487  26.848  1.00  0.00    -0.376 OA
BRANCH   3   4
ATOM      4  C   UNL A   1      33.957  28.626  26.760  1.00  0.00     0.202 C 
BRANCH   4   5
ATOM      5  C   UNL A   1      33.173  29.911  26.511  1.00  0.00     0.261 C 
BRANCH   5   6
ATOM      6  O   UNL A   1      31.813  29.635  26.144  1.00  0.00    -0.459 OA
BRANCH   6   7
ATOM      7  C   UNL A   1      31.132  30.578  25.457  1.00  0.00     0.345 C 
ATOM      8  O   UNL A   1      31.010  31.756  25.726  1.00  0.00    -0.246 OA
BRANCH   7   9
ATOM      9  C   UNL A   1      30.565  29.888  24.280  1.00  0.00     0.139 A 
ATOM     10  C   UNL A   1      30.842  27.982  22.751  1.00  0.00     0.036 A 
ATOM     11  C   UNL A   1      29.774  28.486  22.000  1.00  0.00     0.033 A 
ATOM     12  C   UNL A   1      31.216  28.697  23.890  1.00  0.00     0.048 A 
ATOM     13  C   UNL A   1      29.104  29.658  22.370  1.00  0.00     0.089 A 
ATOM     14  C   UNL A   1      29.495  30.362  23.521  1.00  0.00     0.284 A 
BRANCH  10  15
ATOM     15  N   UNL A   1      31.436  26.802  22.360  1.00  0.00    -0.380 N 
ATOM     16  H   UNL A   1      30.850  26.115  21.967  1.00  0.00     0.160 HD
BRANCH  15  17
ATOM     17  C   UNL A   1      32.861  26.475  22.474  1.00  0.00     0.102 C 
ATOM     18  C   UNL A   1      33.665  27.692  22.013  1.00  0.00     0.033 C 
BRANCH  17  19
ATOM     19  C   UNL A   1      33.150  25.209  21.633  1.00  0.00     0.184 C 
BRANCH  19  20
ATOM     20  O   UNL A   1      32.620  24.003  22.186  1.00  0.00    -0.383 OA
ATOM     21  C   UNL A   1      33.539  23.268  22.978  1.00  0.00     0.194 C 
ENDBRANCH  19  20
ENDBRANCH  17  19
ENDBRANCH  15  17
ENDBRANCH  10  15
BRANCH  14  22
ATOM     22  N   UNL A   1      28.789  31.611  23.819  1.00  0.00     0.063 N 
ATOM     23  O   UNL A   1      27.630  31.513  24.250  1.00  0.00    -0.258 OA
ATOM     24  O   UNL A   1      29.341  32.683  23.561  1.00  0.00    -0.258 OA
ENDBRANCH  14  22
ENDBRANCH   7   9
ENDBRANCH   6   7
ENDBRANCH   5   6
ENDBRANCH   4   5
ENDBRANCH   3   4
ENDBRANCH   2   3
ENDBRANCH   1   2
BRANCH   1  25
ATOM     25  O   UNL A   1      33.909  24.004  26.453  1.00  0.00    -0.377 OA
BRANCH  25  26
ATOM     26  C   UNL A   1      33.544  22.760  27.037  1.00  0.00     0.188 C 
BRANCH  26  27
ATOM     27  C   UNL A   1      34.175  21.439  26.550  1.00  0.00     0.188 C 
BRANCH  27  28
ATOM     28  O   UNL A   1      35.452  21.577  25.939  1.00  0.00    -0.376 OA
BRANCH  28  29
ATOM     29  C   UNL A   1      35.815  20.574  25.003  1.00  0.00     0.202 C 
BRANCH  29  30
ATOM     30  C   UNL A   1      37.315  20.264  25.004  1.00  0.00     0.261 C 
BRANCH  30  31
ATOM     31  O   UNL A   1      38.159  21.400  25.254  1.00  0.00    -0.460 OA
BRANCH  31  32
ATOM     32  C   UNL A   1      39.250  21.193  26.020  1.00  0.00     0.338 C 
ATOM     33  O   UNL A   1      39.886  20.165  26.151  1.00  0.00    -0.246 OA
BRANCH  32  34
ATOM     34  C   UNL A   1      39.661  22.500  26.563  1.00  0.00     0.060 A 
ATOM     35  C   UNL A   1      39.058  23.662  26.064  1.00  0.00     0.016 A 
ATOM     36  C   UNL A   1      40.631  22.570  27.564  1.00  0.00     0.016 A 
ATOM     37  C   UNL A   1      39.453  24.908  26.548  1.00  0.00     0.010 A 
ATOM     38  C   UNL A   1      41.040  23.818  28.033  1.00  0.00     0.010 A 
ATOM     39  C   UNL A   1      40.476  24.990  27.502  1.00  0.00    -0.014 A 
BRANCH  39  40
ATOM     40  C   UNL A   1      41.117  26.293  27.786  1.00  0.00     0.031 A 
ATOM     41  C   UNL A   1      42.536  26.491  27.334  1.00  0.00     0.074 A 
ATOM     42  C   UNL A   1      40.462  27.274  28.428  1.00  0.00     0.049 A 
ATOM     43  N   UNL A   1      43.334  27.510  27.516  1.00  0.00    -0.248 NA
ATOM     44  C   UNL A   1      43.138  25.382  26.572  1.00  0.00     0.031 C 
ATOM     45  C   UNL A   1      39.074  27.215  28.881  1.00  0.00     0.029 A 
ATOM     46  N   UNL A   1      40.894  28.516  28.820  1.00  0.00    -0.354 N 
ATOM     47  C   UNL A   1      44.525  27.170  26.889  1.00  0.00     0.074 A 
ATOM     48  C   UNL A   1      44.362  25.837  26.352  1.00  0.00     0.031 C 
ATOM     49  C   UNL A   1      38.770  28.369  29.502  1.00  0.00     0.029 A 
ATOM     50  C   UNL A   1      39.950  29.233  29.514  1.00  0.00     0.049 A 
ATOM     51  H   UNL A   1      41.795  28.861  28.623  1.00  0.00     0.167 HD
ATOM     52  C   UNL A   1      45.653  27.907  26.761  1.00  0.00     0.037 A 
ATOM     53  C   UNL A   1      40.044  30.439  30.106  1.00  0.00     0.037 A 
ATOM     54  C   UNL A   1      45.823  29.223  27.312  1.00  0.00     0.049 A 
ATOM     55  C   UNL A   1      41.343  31.201  30.030  1.00  0.00     0.074 A 
ATOM     56  C   UNL A   1      46.931  30.048  27.248  1.00  0.00     0.029 A 
ATOM     57  N   UNL A   1      44.855  29.902  28.035  1.00  0.00    -0.354 N 
ATOM     58  N   UNL A   1      42.460  30.881  29.420  1.00  0.00    -0.248 NA
ATOM     59  C   UNL A   1      41.394  32.496  30.726  1.00  0.00     0.031 C 
ATOM     60  C   UNL A   1      46.647  31.213  27.968  1.00  0.00     0.029 A 
ATOM     61  C   UNL A   1      45.347  31.131  28.441  1.00  0.00     0.049 A 
ATOM     62  H   UNL A   1      43.953  29.562  28.231  1.00  0.00     0.167 HD
ATOM     63  C   UNL A   1      43.329  31.944  29.631  1.00  0.00     0.074 A 
ATOM     64  C   UNL A   1      42.610  32.924  30.419  1.00  0.00     0.031 C 
ATOM     65  C   UNL A   1      44.609  32.099  29.210  1.00  0.00     0.037 A 
BRANCH  52  66
ATOM     66  C   UNL A   1      46.793  27.286  26.012  1.00  0.00     0.057 A 
ATOM     67  C   UNL A   1      46.940  27.451  24.629  1.00  0.00     0.134 A 
ATOM     68  C   UNL A   1      47.760  26.527  26.681  1.00  0.00     0.134 A 
ATOM     69  F   UNL A   1      46.034  28.150  23.927  1.00  0.00    -0.206 F 
ATOM     70  C   UNL A   1      47.998  26.865  23.934  1.00  0.00     0.040 A 
ATOM     71  C   UNL A   1      48.836  25.956  26.000  1.00  0.00     0.040 A 
ATOM     72  F   UNL A   1      47.675  26.329  28.005  1.00  0.00    -0.206 F 
ATOM     73  C   UNL A   1      48.954  26.120  24.622  1.00  0.00     0.006 A 
ENDBRANCH  52  66
BRANCH  53  74
ATOM     74  C   UNL A   1      38.883  31.010  30.835  1.00  0.00     0.057 A 
ATOM     75  C   UNL A   1      38.692  30.762  32.200  1.00  0.00     0.134 A 
ATOM     76  C   UNL A   1      37.915  31.779  30.178  1.00  0.00     0.134 A 
ATOM     77  F   UNL A   1      39.572  30.009  32.877  1.00  0.00    -0.206 F 
ATOM     78  C   UNL A   1      37.570  31.236  32.879  1.00  0.00     0.040 A 
ATOM     79  C   UNL A   1      36.800  32.280  30.851  1.00  0.00     0.040 A 
ATOM     80  F   UNL A   1      38.038  32.051  28.871  1.00  0.00    -0.206 F 
ATOM     81  C   UNL A   1      36.620  32.002  32.205  1.00  0.00     0.006 A 
ENDBRANCH  53  74
BRANCH  65  82
ATOM     82  C   UNL A   1      45.296  33.388  29.549  1.00  0.00     0.057 A 
ATOM     83  C   UNL A   1      46.074  33.531  30.705  1.00  0.00     0.134 A 
ATOM     84  C   UNL A   1      45.217  34.485  28.682  1.00  0.00     0.134 A 
ATOM     85  F   UNL A   1      46.181  32.521  31.581  1.00  0.00    -0.206 F 
ATOM     86  C   UNL A   1      46.732  34.727  30.996  1.00  0.00     0.040 A 
ATOM     87  C   UNL A   1      45.891  35.677  28.949  1.00  0.00     0.040 A 
ATOM     88  F   UNL A   1      44.496  34.410  27.552  1.00  0.00    -0.206 F 
ATOM     89  C   UNL A   1      46.648  35.802  30.112  1.00  0.00     0.006 A 
ENDBRANCH  65  82
ENDBRANCH  39  40
ENDBRANCH  32  34
ENDBRANCH  31  32
ENDBRANCH  30  31
ENDBRANCH  29  30
ENDBRANCH  28  29
ENDBRANCH  27  28
ENDBRANCH  26  27
ENDBRANCH  25  26
ENDBRANCH   1  25
TORSDOF 25
ENDMDL
