MODEL 1
REMARK VINA RESULT:     -10.2      0.000      0.000
REMARK SMILES COc1ccc(C)cc1C(=O)N1CSC[C@H]1C(=O)OCCOCCOCCOCCOC(=O)c1ccc(-c2c3nc(c(-c4c(F)cccc4F)c4ccc([nH]4)c(-c4c(F)cccc4F)c4nc(c(-c5c(F)cccc5F)c5ccc2[nH]5)C=C4)C=C3)cc1
REMARK SMILES IDX 24 1 23 2 22 3 21 4 20 5 19 6 17 7 18 8 16 9 12 10 13 11
REMARK SMILES IDX 14 12 15 13 10 14 11 15 9 16 3 17 4 18 5 19 8 20 6 21 7 22
REMARK SMILES IDX 2 23 1 24 25 25 26 26 27 27 28 28 29 29 30 30 31 31 32 32
REMARK SMILES IDX 33 33 34 34 35 35 87 36 36 37 86 38 37 39 38 40 39 41 80 42
REMARK SMILES IDX 40 43 85 44 79 45 81 46 41 47 84 48 78 49 77 50 42 52 68 53
REMARK SMILES IDX 51 54 67 55 52 56 55 57 66 58 82 59 53 60 54 61 65 63 83 64
REMARK SMILES IDX 56 65 43 66 44 67 49 68 45 69 46 70 48 71 50 72 47 73 69 74
REMARK SMILES IDX 70 75 75 76 71 77 72 78 74 79 76 80 73 81 57 82 58 83 63 84
REMARK SMILES IDX 59 85 60 86 62 87 64 88 61 89
REMARK H PARENT 81 51 55 62
REMARK Flexibility Score: inf
ROOT
ATOM      1  C   UNL A   1      39.657  23.179  26.678  1.00  0.00     0.188 C 
ENDROOT
BRANCH   1   2
ATOM      2  C   UNL A   1      38.296  22.649  26.137  1.00  0.00     0.188 C 
BRANCH   2   3
ATOM      3  O   UNL A   1      37.460  23.470  25.347  1.00  0.00    -0.376 OA
BRANCH   3   4
ATOM      4  C   UNL A   1      36.968  22.879  24.167  1.00  0.00     0.202 C 
BRANCH   4   5
ATOM      5  C   UNL A   1      35.575  23.182  23.649  1.00  0.00     0.261 C 
BRANCH   5   6
ATOM      6  O   UNL A   1      34.723  24.008  24.401  1.00  0.00    -0.462 OA
BRANCH   6   7
ATOM      7  C   UNL A   1      33.969  24.885  23.714  1.00  0.00     0.329 C 
ATOM      8  O   UNL A   1      34.142  25.223  22.545  1.00  0.00    -0.250 OA
BRANCH   7   9
ATOM      9  C   UNL A   1      32.967  25.546  24.639  1.00  0.00     0.206 C 
ATOM     10  N   UNL A   1      31.585  25.229  24.278  1.00  0.00    -0.315 N 
ATOM     11  C   UNL A   1      31.045  24.077  24.966  1.00  0.00     0.191 C 
ATOM     12  S   UNL A   1      31.829  24.058  26.589  1.00  0.00    -0.138 SA
ATOM     13  C   UNL A   1      33.242  25.083  26.067  1.00  0.00     0.108 C 
BRANCH  10  14
ATOM     14  C   UNL A   1      31.088  25.870  23.158  1.00  0.00     0.259 C 
ATOM     15  O   UNL A   1      31.124  25.348  22.041  1.00  0.00    -0.269 OA
BRANCH  14  16
ATOM     16  C   UNL A   1      30.539  27.235  23.202  1.00  0.00     0.082 A 
ATOM     17  C   UNL A   1      31.285  28.285  22.675  1.00  0.00     0.131 A 
ATOM     18  C   UNL A   1      30.632  29.452  22.284  1.00  0.00     0.047 A 
ATOM     19  C   UNL A   1      29.247  29.586  22.458  1.00  0.00     0.007 A 
ATOM     20  C   UNL A   1      29.153  27.388  23.414  1.00  0.00     0.021 A 
ATOM     21  C   UNL A   1      28.495  28.561  23.039  1.00  0.00    -0.050 A 
ATOM     22  C   UNL A   1      27.005  28.668  23.194  1.00  0.00     0.044 C 
BRANCH  17  23
ATOM     23  O   UNL A   1      32.601  28.091  22.359  1.00  0.00    -0.496 OA
ATOM     24  C   UNL A   1      33.463  28.958  23.094  1.00  0.00     0.278 C 
ENDBRANCH  17  23
ENDBRANCH  14  16
ENDBRANCH  10  14
ENDBRANCH   7   9
ENDBRANCH   6   7
ENDBRANCH   5   6
ENDBRANCH   4   5
ENDBRANCH   3   4
ENDBRANCH   2   3
ENDBRANCH   1   2
BRANCH   1  25
ATOM     25  O   UNL A   1      40.703  22.256  26.943  1.00  0.00    -0.377 OA
BRANCH  25  26
ATOM     26  C   UNL A   1      41.105  21.360  25.912  1.00  0.00     0.188 C 
BRANCH  26  27
ATOM     27  C   UNL A   1      41.038  19.870  26.213  1.00  0.00     0.188 C 
BRANCH  27  28
ATOM     28  O   UNL A   1      42.009  19.208  25.417  1.00  0.00    -0.376 OA
BRANCH  28  29
ATOM     29  C   UNL A   1      43.126  18.656  26.109  1.00  0.00     0.202 C 
BRANCH  29  30
ATOM     30  C   UNL A   1      44.347  18.550  25.204  1.00  0.00     0.261 C 
BRANCH  30  31
ATOM     31  O   UNL A   1      44.431  19.754  24.411  1.00  0.00    -0.460 OA
BRANCH  31  32
ATOM     32  C   UNL A   1      45.268  20.707  24.911  1.00  0.00     0.338 C 
ATOM     33  O   UNL A   1      46.435  20.515  25.213  1.00  0.00    -0.246 OA
BRANCH  32  34
ATOM     34  C   UNL A   1      44.506  21.938  25.307  1.00  0.00     0.060 A 
ATOM     35  C   UNL A   1      44.135  22.887  24.336  1.00  0.00     0.016 A 
ATOM     36  C   UNL A   1      44.437  22.300  26.643  1.00  0.00     0.016 A 
ATOM     37  C   UNL A   1      43.865  24.234  24.690  1.00  0.00     0.010 A 
ATOM     38  C   UNL A   1      44.214  23.633  26.969  1.00  0.00     0.010 A 
ATOM     39  C   UNL A   1      43.983  24.652  26.016  1.00  0.00    -0.014 A 
BRANCH  39  40
ATOM     40  C   UNL A   1      44.052  26.069  26.523  1.00  0.00     0.031 A 
ATOM     41  C   UNL A   1      42.744  26.852  26.609  1.00  0.00     0.074 A 
ATOM     42  C   UNL A   1      45.111  26.566  27.243  1.00  0.00     0.049 A 
ATOM     43  N   UNL A   1      42.555  27.842  27.409  1.00  0.00    -0.248 NA
ATOM     44  C   UNL A   1      41.509  26.541  25.891  1.00  0.00     0.031 C 
ATOM     45  C   UNL A   1      44.991  27.581  28.300  1.00  0.00     0.029 A 
ATOM     46  N   UNL A   1      46.463  26.216  27.383  1.00  0.00    -0.354 N 
ATOM     47  C   UNL A   1      41.225  28.115  27.558  1.00  0.00     0.074 A 
ATOM     48  C   UNL A   1      40.605  27.288  26.550  1.00  0.00     0.031 C 
ATOM     49  C   UNL A   1      46.115  27.726  29.011  1.00  0.00     0.029 A 
ATOM     50  C   UNL A   1      47.130  27.222  28.155  1.00  0.00     0.049 A 
ATOM     51  H   UNL A   1      46.886  25.408  27.011  1.00  0.00     0.167 HD
ATOM     52  C   UNL A   1      40.858  28.963  28.569  1.00  0.00     0.037 A 
ATOM     53  C   UNL A   1      48.055  28.090  27.629  1.00  0.00     0.037 A 
ATOM     54  C   UNL A   1      42.023  29.667  29.152  1.00  0.00     0.049 A 
ATOM     55  C   UNL A   1      47.576  29.552  27.585  1.00  0.00     0.074 A 
ATOM     56  C   UNL A   1      42.568  29.849  30.410  1.00  0.00     0.029 A 
ATOM     57  N   UNL A   1      42.913  30.290  28.284  1.00  0.00    -0.354 N 
ATOM     58  N   UNL A   1      46.342  29.877  27.881  1.00  0.00    -0.248 NA
ATOM     59  C   UNL A   1      48.337  30.754  27.252  1.00  0.00     0.031 C 
ATOM     60  C   UNL A   1      43.800  30.569  30.274  1.00  0.00     0.029 A 
ATOM     61  C   UNL A   1      43.970  30.885  28.936  1.00  0.00     0.049 A 
ATOM     62  H   UNL A   1      42.799  30.304  27.307  1.00  0.00     0.167 HD
ATOM     63  C   UNL A   1      46.120  31.211  27.833  1.00  0.00     0.074 A 
ATOM     64  C   UNL A   1      47.394  31.722  27.351  1.00  0.00     0.031 C 
ATOM     65  C   UNL A   1      44.900  31.729  28.181  1.00  0.00     0.037 A 
BRANCH  52  66
ATOM     66  C   UNL A   1      39.449  29.192  29.099  1.00  0.00     0.057 A 
ATOM     67  C   UNL A   1      39.101  28.806  30.415  1.00  0.00     0.134 A 
ATOM     68  C   UNL A   1      38.371  29.715  28.362  1.00  0.00     0.134 A 
ATOM     69  F   UNL A   1      40.003  28.296  31.266  1.00  0.00    -0.206 F 
ATOM     70  C   UNL A   1      37.805  28.925  30.942  1.00  0.00     0.040 A 
ATOM     71  C   UNL A   1      37.081  29.888  28.895  1.00  0.00     0.040 A 
ATOM     72  F   UNL A   1      38.488  30.054  27.074  1.00  0.00    -0.206 F 
ATOM     73  C   UNL A   1      36.790  29.484  30.188  1.00  0.00     0.006 A 
ENDBRANCH  52  66
BRANCH  53  74
ATOM     74  C   UNL A   1      49.033  27.326  26.801  1.00  0.00     0.057 A 
ATOM     75  C   UNL A   1      48.961  27.641  25.422  1.00  0.00     0.134 A 
ATOM     76  C   UNL A   1      50.314  27.156  27.341  1.00  0.00     0.134 A 
ATOM     77  F   UNL A   1      47.764  27.763  24.825  1.00  0.00    -0.206 F 
ATOM     78  C   UNL A   1      50.081  28.101  24.722  1.00  0.00     0.040 A 
ATOM     79  C   UNL A   1      51.445  27.603  26.640  1.00  0.00     0.040 A 
ATOM     80  F   UNL A   1      50.458  26.839  28.635  1.00  0.00    -0.206 F 
ATOM     81  C   UNL A   1      51.318  28.147  25.358  1.00  0.00     0.006 A 
ENDBRANCH  53  74
BRANCH  65  82
ATOM     82  C   UNL A   1      44.425  33.100  27.803  1.00  0.00     0.057 A 
ATOM     83  C   UNL A   1      44.075  33.472  26.508  1.00  0.00     0.134 A 
ATOM     84  C   UNL A   1      44.317  34.121  28.781  1.00  0.00     0.134 A 
ATOM     85  F   UNL A   1      44.270  32.641  25.474  1.00  0.00    -0.206 F 
ATOM     86  C   UNL A   1      43.527  34.729  26.226  1.00  0.00     0.040 A 
ATOM     87  C   UNL A   1      43.839  35.396  28.500  1.00  0.00     0.040 A 
ATOM     88  F   UNL A   1      44.625  33.922  30.070  1.00  0.00    -0.206 F 
ATOM     89  C   UNL A   1      43.399  35.691  27.225  1.00  0.00     0.006 A 
ENDBRANCH  65  82
ENDBRANCH  39  40
ENDBRANCH  32  34
ENDBRANCH  31  32
ENDBRANCH  30  31
ENDBRANCH  29  30
ENDBRANCH  28  29
ENDBRANCH  27  28
ENDBRANCH  26  27
ENDBRANCH  25  26
ENDBRANCH   1  25
TORSDOF 23
ENDMDL
MODEL 2
REMARK VINA RESULT:     -10.1      1.446      2.483
REMARK SMILES COc1ccc(C)cc1C(=O)N1CSC[C@H]1C(=O)OCCOCCOCCOCCOC(=O)c1ccc(-c2c3nc(c(-c4c(F)cccc4F)c4ccc([nH]4)c(-c4c(F)cccc4F)c4nc(c(-c5c(F)cccc5F)c5ccc2[nH]5)C=C4)C=C3)cc1
REMARK SMILES IDX 24 1 23 2 22 3 21 4 20 5 19 6 17 7 18 8 16 9 12 10 13 11
REMARK SMILES IDX 14 12 15 13 10 14 11 15 9 16 3 17 4 18 5 19 8 20 6 21 7 22
REMARK SMILES IDX 2 23 1 24 25 25 26 26 27 27 28 28 29 29 30 30 31 31 32 32
REMARK SMILES IDX 33 33 34 34 35 35 87 36 36 37 86 38 37 39 38 40 39 41 80 42
REMARK SMILES IDX 40 43 85 44 79 45 81 46 41 47 84 48 78 49 77 50 42 52 68 53
REMARK SMILES IDX 51 54 67 55 52 56 55 57 66 58 82 59 53 60 54 61 65 63 83 64
REMARK SMILES IDX 56 65 43 66 44 67 49 68 45 69 46 70 48 71 50 72 47 73 69 74
REMARK SMILES IDX 70 75 75 76 71 77 72 78 74 79 76 80 73 81 57 82 58 83 63 84
REMARK SMILES IDX 59 85 60 86 62 87 64 88 61 89
REMARK H PARENT 81 51 55 62
REMARK Flexibility Score: inf
ROOT
ATOM      1  C   UNL A   1      38.898  22.412  26.141  1.00  0.00     0.188 C 
ENDROOT
BRANCH   1   2
ATOM      2  C   UNL A   1      37.581  21.973  25.435  1.00  0.00     0.188 C 
BRANCH   2   3
ATOM      3  O   UNL A   1      36.454  22.825  25.403  1.00  0.00    -0.376 OA
BRANCH   3   4
ATOM      4  C   UNL A   1      35.451  22.542  26.350  1.00  0.00     0.202 C 
BRANCH   4   5
ATOM      5  C   UNL A   1      34.175  23.359  26.422  1.00  0.00     0.261 C 
BRANCH   5   6
ATOM      6  O   UNL A   1      32.936  22.719  26.256  1.00  0.00    -0.462 OA
BRANCH   6   7
ATOM      7  C   UNL A   1      31.839  23.497  26.310  1.00  0.00     0.329 C 
ATOM      8  O   UNL A   1      31.324  23.945  27.332  1.00  0.00    -0.250 OA
BRANCH   7   9
ATOM      9  C   UNL A   1      31.210  23.606  24.935  1.00  0.00     0.206 C 
ATOM     10  N   UNL A   1      31.460  24.906  24.313  1.00  0.00    -0.315 N 
ATOM     11  C   UNL A   1      32.638  24.942  23.474  1.00  0.00     0.191 C 
ATOM     12  S   UNL A   1      32.789  23.292  22.762  1.00  0.00    -0.138 SA
ATOM     13  C   UNL A   1      31.775  22.498  24.051  1.00  0.00     0.108 C 
BRANCH  10  14
ATOM     14  C   UNL A   1      30.731  25.969  24.814  1.00  0.00     0.259 C 
ATOM     15  O   UNL A   1      29.593  25.822  25.264  1.00  0.00    -0.269 OA
BRANCH  14  16
ATOM     16  C   UNL A   1      31.230  27.354  24.792  1.00  0.00     0.082 A 
ATOM     17  C   UNL A   1      30.577  28.298  24.006  1.00  0.00     0.131 A 
ATOM     18  C   UNL A   1      30.716  29.650  24.314  1.00  0.00     0.047 A 
ATOM     19  C   UNL A   1      31.537  30.058  25.375  1.00  0.00     0.007 A 
ATOM     20  C   UNL A   1      32.088  27.768  25.832  1.00  0.00     0.021 A 
ATOM     21  C   UNL A   1      32.244  29.122  26.136  1.00  0.00    -0.050 A 
ATOM     22  C   UNL A   1      33.094  29.537  27.302  1.00  0.00     0.044 C 
BRANCH  17  23
ATOM     23  O   UNL A   1      29.655  27.893  23.081  1.00  0.00    -0.496 OA
ATOM     24  C   UNL A   1      28.738  28.933  22.745  1.00  0.00     0.278 C 
ENDBRANCH  17  23
ENDBRANCH  14  16
ENDBRANCH  10  14
ENDBRANCH   7   9
ENDBRANCH   6   7
ENDBRANCH   5   6
ENDBRANCH   4   5
ENDBRANCH   3   4
ENDBRANCH   2   3
ENDBRANCH   1   2
BRANCH   1  25
ATOM     25  O   UNL A   1      39.656  21.446  26.854  1.00  0.00    -0.377 OA
BRANCH  25  26
ATOM     26  C   UNL A   1      40.291  20.399  26.128  1.00  0.00     0.188 C 
BRANCH  26  27
ATOM     27  C   UNL A   1      41.748  20.104  26.453  1.00  0.00     0.188 C 
BRANCH  27  28
ATOM     28  O   UNL A   1      42.339  19.474  25.325  1.00  0.00    -0.376 OA
BRANCH  28  29
ATOM     29  C   UNL A   1      43.520  18.715  25.572  1.00  0.00     0.202 C 
BRANCH  29  30
ATOM     30  C   UNL A   1      44.561  18.934  24.482  1.00  0.00     0.261 C 
BRANCH  30  31
ATOM     31  O   UNL A   1      44.525  20.324  24.092  1.00  0.00    -0.460 OA
BRANCH  31  32
ATOM     32  C   UNL A   1      45.328  21.144  24.829  1.00  0.00     0.338 C 
ATOM     33  O   UNL A   1      46.472  20.875  25.163  1.00  0.00    -0.246 OA
BRANCH  32  34
ATOM     34  C   UNL A   1      44.544  22.281  25.415  1.00  0.00     0.060 A 
ATOM     35  C   UNL A   1      43.780  23.120  24.581  1.00  0.00     0.016 A 
ATOM     36  C   UNL A   1      44.809  22.701  26.708  1.00  0.00     0.016 A 
ATOM     37  C   UNL A   1      43.434  24.436  24.982  1.00  0.00     0.010 A 
ATOM     38  C   UNL A   1      44.500  24.007  27.069  1.00  0.00     0.010 A 
ATOM     39  C   UNL A   1      43.864  24.935  26.211  1.00  0.00    -0.014 A 
BRANCH  39  40
ATOM     40  C   UNL A   1      43.872  26.374  26.660  1.00  0.00     0.031 A 
ATOM     41  C   UNL A   1      42.524  27.072  26.812  1.00  0.00     0.074 A 
ATOM     42  C   UNL A   1      44.943  26.968  27.282  1.00  0.00     0.049 A 
ATOM     43  N   UNL A   1      42.324  28.080  27.587  1.00  0.00    -0.248 NA
ATOM     44  C   UNL A   1      41.265  26.653  26.198  1.00  0.00     0.031 C 
ATOM     45  C   UNL A   1      44.829  28.016  28.307  1.00  0.00     0.029 A 
ATOM     46  N   UNL A   1      46.322  26.712  27.336  1.00  0.00    -0.354 N 
ATOM     47  C   UNL A   1      40.992  28.273  27.822  1.00  0.00     0.074 A 
ATOM     48  C   UNL A   1      40.361  27.366  26.893  1.00  0.00     0.031 C 
ATOM     49  C   UNL A   1      45.987  28.263  28.929  1.00  0.00     0.029 A 
ATOM     50  C   UNL A   1      46.971  27.791  28.021  1.00  0.00     0.049 A 
ATOM     51  H   UNL A   1      46.771  25.919  26.964  1.00  0.00     0.167 HD
ATOM     52  C   UNL A   1      40.641  29.136  28.825  1.00  0.00     0.037 A 
ATOM     53  C   UNL A   1      47.796  28.694  27.397  1.00  0.00     0.037 A 
ATOM     54  C   UNL A   1      41.794  29.937  29.296  1.00  0.00     0.049 A 
ATOM     55  C   UNL A   1      47.218  30.119  27.334  1.00  0.00     0.074 A 
ATOM     56  C   UNL A   1      42.412  30.207  30.504  1.00  0.00     0.029 A 
ATOM     57  N   UNL A   1      42.576  30.581  28.344  1.00  0.00    -0.354 N 
ATOM     58  N   UNL A   1      45.989  30.375  27.707  1.00  0.00    -0.248 NA
ATOM     59  C   UNL A   1      47.870  31.353  26.903  1.00  0.00     0.031 C 
ATOM     60  C   UNL A   1      43.580  30.999  30.252  1.00  0.00     0.029 A 
ATOM     61  C   UNL A   1      43.633  31.270  28.895  1.00  0.00     0.049 A 
ATOM     62  H   UNL A   1      42.393  30.547  27.377  1.00  0.00     0.167 HD
ATOM     63  C   UNL A   1      45.674  31.689  27.627  1.00  0.00     0.074 A 
ATOM     64  C   UNL A   1      46.873  32.261  27.035  1.00  0.00     0.031 C 
ATOM     65  C   UNL A   1      44.449  32.140  28.043  1.00  0.00     0.037 A 
BRANCH  52  66
ATOM     66  C   UNL A   1      39.260  29.295  29.448  1.00  0.00     0.057 A 
ATOM     67  C   UNL A   1      38.183  29.813  28.692  1.00  0.00     0.134 A 
ATOM     68  C   UNL A   1      38.931  29.031  30.790  1.00  0.00     0.134 A 
ATOM     69  F   UNL A   1      38.310  30.113  27.391  1.00  0.00    -0.206 F 
ATOM     70  C   UNL A   1      36.905  30.050  29.222  1.00  0.00     0.040 A 
ATOM     71  C   UNL A   1      37.641  29.215  31.320  1.00  0.00     0.040 A 
ATOM     72  F   UNL A   1      39.842  28.618  31.678  1.00  0.00    -0.206 F 
ATOM     73  C   UNL A   1      36.622  29.735  30.539  1.00  0.00     0.006 A 
ENDBRANCH  52  66
BRANCH  53  74
ATOM     74  C   UNL A   1      48.763  27.962  26.528  1.00  0.00     0.057 A 
ATOM     75  C   UNL A   1      49.646  27.129  27.257  1.00  0.00     0.134 A 
ATOM     76  C   UNL A   1      48.262  27.448  25.325  1.00  0.00     0.134 A 
ATOM     77  F   UNL A   1      50.209  27.580  28.390  1.00  0.00    -0.206 F 
ATOM     78  C   UNL A   1      49.739  25.759  26.990  1.00  0.00     0.040 A 
ATOM     79  C   UNL A   1      48.362  26.076  25.043  1.00  0.00     0.040 A 
ATOM     80  F   UNL A   1      47.435  28.188  24.573  1.00  0.00    -0.206 F 
ATOM     81  C   UNL A   1      49.036  25.218  25.918  1.00  0.00     0.006 A 
ENDBRANCH  53  74
BRANCH  65  82
ATOM     82  C   UNL A   1      43.857  33.461  27.651  1.00  0.00     0.057 A 
ATOM     83  C   UNL A   1      43.492  34.449  28.560  1.00  0.00     0.134 A 
ATOM     84  C   UNL A   1      43.623  33.770  26.287  1.00  0.00     0.134 A 
ATOM     85  F   UNL A   1      43.530  34.222  29.881  1.00  0.00    -0.206 F 
ATOM     86  C   UNL A   1      43.052  35.710  28.140  1.00  0.00     0.040 A 
ATOM     87  C   UNL A   1      43.122  34.995  25.860  1.00  0.00     0.040 A 
ATOM     88  F   UNL A   1      43.913  32.920  25.293  1.00  0.00    -0.206 F 
ATOM     89  C   UNL A   1      42.874  35.989  26.786  1.00  0.00     0.006 A 
ENDBRANCH  65  82
ENDBRANCH  39  40
ENDBRANCH  32  34
ENDBRANCH  31  32
ENDBRANCH  30  31
ENDBRANCH  29  30
ENDBRANCH  28  29
ENDBRANCH  27  28
ENDBRANCH  26  27
ENDBRANCH  25  26
ENDBRANCH   1  25
TORSDOF 23
ENDMDL
MODEL 3
REMARK VINA RESULT:      -9.5      5.121     10.619
REMARK SMILES COc1ccc(C)cc1C(=O)N1CSC[C@H]1C(=O)OCCOCCOCCOCCOC(=O)c1ccc(-c2c3nc(c(-c4c(F)cccc4F)c4ccc([nH]4)c(-c4c(F)cccc4F)c4nc(c(-c5c(F)cccc5F)c5ccc2[nH]5)C=C4)C=C3)cc1
REMARK SMILES IDX 24 1 23 2 22 3 21 4 20 5 19 6 17 7 18 8 16 9 12 10 13 11
REMARK SMILES IDX 14 12 15 13 10 14 11 15 9 16 3 17 4 18 5 19 8 20 6 21 7 22
REMARK SMILES IDX 2 23 1 24 25 25 26 26 27 27 28 28 29 29 30 30 31 31 32 32
REMARK SMILES IDX 33 33 34 34 35 35 87 36 36 37 86 38 37 39 38 40 39 41 80 42
REMARK SMILES IDX 40 43 85 44 79 45 81 46 41 47 84 48 78 49 77 50 42 52 68 53
REMARK SMILES IDX 51 54 67 55 52 56 55 57 66 58 82 59 53 60 54 61 65 63 83 64
REMARK SMILES IDX 56 65 43 66 44 67 49 68 45 69 46 70 48 71 50 72 47 73 69 74
REMARK SMILES IDX 70 75 75 76 71 77 72 78 74 79 76 80 73 81 57 82 58 83 63 84
REMARK SMILES IDX 59 85 60 86 62 87 64 88 61 89
REMARK H PARENT 81 51 55 62
REMARK Flexibility Score: inf
ROOT
ATOM      1  C   UNL A   1      36.508  31.029  28.121  1.00  0.00     0.188 C 
ENDROOT
BRANCH   1   2
ATOM      2  C   UNL A   1      35.580  29.783  28.221  1.00  0.00     0.188 C 
BRANCH   2   3
ATOM      3  O   UNL A   1      35.066  29.164  27.059  1.00  0.00    -0.376 OA
BRANCH   3   4
ATOM      4  C   UNL A   1      33.846  29.681  26.583  1.00  0.00     0.202 C 
BRANCH   4   5
ATOM      5  C   UNL A   1      32.893  28.836  25.759  1.00  0.00     0.261 C 
BRANCH   5   6
ATOM      6  O   UNL A   1      33.347  27.629  25.202  1.00  0.00    -0.462 OA
BRANCH   6   7
ATOM      7  C   UNL A   1      33.434  27.577  23.860  1.00  0.00     0.329 C 
ATOM      8  O   UNL A   1      34.122  28.311  23.154  1.00  0.00    -0.250 OA
BRANCH   7   9
ATOM      9  C   UNL A   1      32.420  26.594  23.311  1.00  0.00     0.206 C 
ATOM     10  N   UNL A   1      32.572  25.259  23.890  1.00  0.00    -0.315 N 
ATOM     11  C   UNL A   1      31.753  25.028  25.060  1.00  0.00     0.191 C 
ATOM     12  S   UNL A   1      30.252  25.997  24.813  1.00  0.00    -0.138 SA
ATOM     13  C   UNL A   1      31.019  27.123  23.604  1.00  0.00     0.108 C 
BRANCH  10  14
ATOM     14  C   UNL A   1      33.648  24.519  23.437  1.00  0.00     0.259 C 
ATOM     15  O   UNL A   1      34.096  24.656  22.296  1.00  0.00    -0.269 OA
BRANCH  14  16
ATOM     16  C   UNL A   1      34.295  23.478  24.252  1.00  0.00     0.082 A 
ATOM     17  C   UNL A   1      33.879  22.157  24.121  1.00  0.00     0.131 A 
ATOM     18  C   UNL A   1      34.746  21.132  24.499  1.00  0.00     0.047 A 
ATOM     19  C   UNL A   1      36.003  21.428  25.045  1.00  0.00     0.007 A 
ATOM     20  C   UNL A   1      35.543  23.773  24.839  1.00  0.00     0.021 A 
ATOM     21  C   UNL A   1      36.409  22.752  25.234  1.00  0.00    -0.050 A 
ATOM     22  C   UNL A   1      37.769  23.088  25.776  1.00  0.00     0.044 C 
BRANCH  17  23
ATOM     23  O   UNL A   1      32.726  21.871  23.444  1.00  0.00    -0.496 OA
ATOM     24  C   UNL A   1      32.302  20.525  23.651  1.00  0.00     0.278 C 
ENDBRANCH  17  23
ENDBRANCH  14  16
ENDBRANCH  10  14
ENDBRANCH   7   9
ENDBRANCH   6   7
ENDBRANCH   5   6
ENDBRANCH   4   5
ENDBRANCH   3   4
ENDBRANCH   2   3
ENDBRANCH   1   2
BRANCH   1  25
ATOM     25  O   UNL A   1      36.150  32.217  28.812  1.00  0.00    -0.377 OA
BRANCH  25  26
ATOM     26  C   UNL A   1      34.773  32.481  29.053  1.00  0.00     0.188 C 
BRANCH  26  27
ATOM     27  C   UNL A   1      34.072  33.455  28.116  1.00  0.00     0.188 C 
BRANCH  27  28
ATOM     28  O   UNL A   1      34.124  34.750  28.695  1.00  0.00    -0.376 OA
BRANCH  28  29
ATOM     29  C   UNL A   1      32.875  35.329  29.063  1.00  0.00     0.202 C 
BRANCH  29  30
ATOM     30  C   UNL A   1      32.844  35.697  30.541  1.00  0.00     0.261 C 
BRANCH  30  31
ATOM     31  O   UNL A   1      34.151  35.446  31.099  1.00  0.00    -0.460 OA
BRANCH  31  32
ATOM     32  C   UNL A   1      34.163  34.584  32.157  1.00  0.00     0.338 C 
ATOM     33  O   UNL A   1      33.180  34.287  32.818  1.00  0.00    -0.246 OA
BRANCH  32  34
ATOM     34  C   UNL A   1      35.568  34.271  32.581  1.00  0.00     0.060 A 
ATOM     35  C   UNL A   1      36.636  34.440  31.679  1.00  0.00     0.016 A 
ATOM     36  C   UNL A   1      35.787  33.531  33.731  1.00  0.00     0.016 A 
ATOM     37  C   UNL A   1      37.854  33.733  31.842  1.00  0.00     0.010 A 
ATOM     38  C   UNL A   1      36.970  32.811  33.854  1.00  0.00     0.010 A 
ATOM     39  C   UNL A   1      38.012  32.834  32.897  1.00  0.00    -0.014 A 
BRANCH  39  40
ATOM     40  C   UNL A   1      39.079  31.781  33.047  1.00  0.00     0.031 A 
ATOM     41  C   UNL A   1      38.907  30.485  32.261  1.00  0.00     0.074 A 
ATOM     42  C   UNL A   1      40.340  32.042  33.529  1.00  0.00     0.049 A 
ATOM     43  N   UNL A   1      39.884  29.720  31.918  1.00  0.00    -0.248 NA
ATOM     44  C   UNL A   1      37.653  29.979  31.703  1.00  0.00     0.031 C 
ATOM     45  C   UNL A   1      41.556  31.344  33.086  1.00  0.00     0.029 A 
ATOM     46  N   UNL A   1      40.903  33.044  34.334  1.00  0.00    -0.354 N 
ATOM     47  C   UNL A   1      39.516  28.853  30.929  1.00  0.00     0.074 A 
ATOM     48  C   UNL A   1      38.086  29.031  30.852  1.00  0.00     0.031 C 
ATOM     49  C   UNL A   1      42.677  31.932  33.517  1.00  0.00     0.029 A 
ATOM     50  C   UNL A   1      42.257  32.691  34.641  1.00  0.00     0.049 A 
ATOM     51  H   UNL A   1      40.442  33.859  34.638  1.00  0.00     0.167 HD
ATOM     52  C   UNL A   1      40.508  28.163  30.285  1.00  0.00     0.037 A 
ATOM     53  C   UNL A   1      42.675  32.318  35.896  1.00  0.00     0.037 A 
ATOM     54  C   UNL A   1      41.807  28.276  30.988  1.00  0.00     0.049 A 
ATOM     55  C   UNL A   1      43.093  30.840  35.995  1.00  0.00     0.074 A 
ATOM     56  C   UNL A   1      43.100  28.653  30.669  1.00  0.00     0.029 A 
ATOM     57  N   UNL A   1      41.836  28.022  32.354  1.00  0.00    -0.354 N 
ATOM     58  N   UNL A   1      42.904  30.008  35.002  1.00  0.00    -0.248 NA
ATOM     59  C   UNL A   1      43.736  30.145  37.106  1.00  0.00     0.031 C 
ATOM     60  C   UNL A   1      43.887  28.639  31.866  1.00  0.00     0.029 A 
ATOM     61  C   UNL A   1      43.089  28.185  32.903  1.00  0.00     0.049 A 
ATOM     62  H   UNL A   1      41.045  27.753  32.874  1.00  0.00     0.167 HD
ATOM     63  C   UNL A   1      43.378  28.766  35.255  1.00  0.00     0.074 A 
ATOM     64  C   UNL A   1      43.825  28.877  36.634  1.00  0.00     0.031 C 
ATOM     65  C   UNL A   1      43.323  27.789  34.295  1.00  0.00     0.037 A 
BRANCH  52  66
ATOM     66  C   UNL A   1      40.375  27.371  28.992  1.00  0.00     0.057 A 
ATOM     67  C   UNL A   1      39.549  26.224  28.929  1.00  0.00     0.134 A 
ATOM     68  C   UNL A   1      41.074  27.628  27.798  1.00  0.00     0.134 A 
ATOM     69  F   UNL A   1      38.800  25.833  29.970  1.00  0.00    -0.206 F 
ATOM     70  C   UNL A   1      39.435  25.410  27.791  1.00  0.00     0.040 A 
ATOM     71  C   UNL A   1      40.928  26.851  26.634  1.00  0.00     0.040 A 
ATOM     72  F   UNL A   1      41.966  28.619  27.695  1.00  0.00    -0.206 F 
ATOM     73  C   UNL A   1      40.113  25.731  26.629  1.00  0.00     0.006 A 
ENDBRANCH  52  66
BRANCH  53  74
ATOM     74  C   UNL A   1      42.140  33.282  36.901  1.00  0.00     0.057 A 
ATOM     75  C   UNL A   1      41.145  32.720  37.737  1.00  0.00     0.134 A 
ATOM     76  C   UNL A   1      43.070  34.132  37.514  1.00  0.00     0.134 A 
ATOM     77  F   UNL A   1      40.187  31.942  37.207  1.00  0.00    -0.206 F 
ATOM     78  C   UNL A   1      41.282  32.718  39.129  1.00  0.00     0.040 A 
ATOM     79  C   UNL A   1      43.205  34.146  38.911  1.00  0.00     0.040 A 
ATOM     80  F   UNL A   1      44.030  34.714  36.781  1.00  0.00    -0.206 F 
ATOM     81  C   UNL A   1      42.358  33.377  39.715  1.00  0.00     0.006 A 
ENDBRANCH  53  74
BRANCH  65  82
ATOM     82  C   UNL A   1      43.446  26.322  34.575  1.00  0.00     0.057 A 
ATOM     83  C   UNL A   1      42.416  25.539  35.089  1.00  0.00     0.134 A 
ATOM     84  C   UNL A   1      44.665  25.640  34.331  1.00  0.00     0.134 A 
ATOM     85  F   UNL A   1      41.263  26.093  35.495  1.00  0.00    -0.206 F 
ATOM     86  C   UNL A   1      42.542  24.152  35.224  1.00  0.00     0.040 A 
ATOM     87  C   UNL A   1      44.825  24.273  34.527  1.00  0.00     0.040 A 
ATOM     88  F   UNL A   1      45.752  26.255  33.846  1.00  0.00    -0.206 F 
ATOM     89  C   UNL A   1      43.745  23.513  34.934  1.00  0.00     0.006 A 
ENDBRANCH  65  82
ENDBRANCH  39  40
ENDBRANCH  32  34
ENDBRANCH  31  32
ENDBRANCH  30  31
ENDBRANCH  29  30
ENDBRANCH  28  29
ENDBRANCH  27  28
ENDBRANCH  26  27
ENDBRANCH  25  26
ENDBRANCH   1  25
TORSDOF 23
ENDMDL
