MODEL 1
REMARK VINA RESULT:      -9.8      0.000      0.000
REMARK SMILES C[C@]12C(=O)N(c3ccc(C(=O)OCCOCCOCCOCCOC(=O)c4ccc(-c5c6nc(c(-c7c(F)cccc7F)c7ccc([nH]7)c(-c7c(F)cccc7F)c7nc(c(-c8c(F)cccc8F)c8ccc5[nH]8)C=C7)C=C6)cc4)cc3)C(=O)[C@H]1[C@H]1c3ccccc3[C@@H]2c2ccccc21
REMARK SMILES IDX 19 1 18 2 17 3 16 4 15 5 14 6 13 7 12 8 10 9 11 10 9 11 6 12
REMARK SMILES IDX 7 13 82 14 8 15 81 16 5 17 1 18 2 19 3 20 85 21 93 22 4 23
REMARK SMILES IDX 83 24 86 25 92 26 94 27 84 28 87 29 99 30 91 31 95 32 88 33
REMARK SMILES IDX 98 34 90 35 96 36 89 37 97 38 20 39 21 40 22 41 23 42 24 43
REMARK SMILES IDX 25 44 26 45 27 46 28 47 80 48 29 49 79 50 30 51 31 52 32 53
REMARK SMILES IDX 73 54 33 55 78 56 72 57 74 58 34 59 77 60 71 61 70 62 35 64
REMARK SMILES IDX 61 65 44 66 60 67 45 68 48 69 59 70 75 71 46 72 47 73 58 75
REMARK SMILES IDX 76 76 49 77 36 78 37 79 42 80 38 81 39 82 41 83 43 84 40 85
REMARK SMILES IDX 62 86 63 87 68 88 64 89 65 90 67 91 69 92 66 93 50 94 51 95
REMARK SMILES IDX 56 96 52 97 53 98 55 99 57 100 54 101
REMARK H PARENT 74 63 48 74
REMARK Flexibility Score: inf
ROOT
ATOM      1  C   UNL A   1      32.966  35.923  30.852  1.00  0.00     0.188 C 
ENDROOT
BRANCH   1   2
ATOM      2  O   UNL A   1      32.539  34.953  29.900  1.00  0.00    -0.377 OA
BRANCH   2   3
ATOM      3  C   UNL A   1      33.177  34.914  28.635  1.00  0.00     0.188 C 
BRANCH   3   4
ATOM      4  C   UNL A   1      34.668  34.542  28.698  1.00  0.00     0.188 C 
BRANCH   4   5
ATOM      5  O   UNL A   1      34.871  33.253  29.255  1.00  0.00    -0.376 OA
BRANCH   5   6
ATOM      6  C   UNL A   1      36.027  33.011  30.036  1.00  0.00     0.202 C 
BRANCH   6   7
ATOM      7  C   UNL A   1      37.264  32.258  29.503  1.00  0.00     0.261 C 
BRANCH   7   8
ATOM      8  O   UNL A   1      37.048  31.056  28.758  1.00  0.00    -0.460 OA
BRANCH   8   9
ATOM      9  C   UNL A   1      37.286  29.889  29.387  1.00  0.00     0.338 C 
ATOM     10  O   UNL A   1      36.578  29.335  30.209  1.00  0.00    -0.246 OA
BRANCH   9  11
ATOM     11  C   UNL A   1      38.466  29.264  28.757  1.00  0.00     0.060 A 
ATOM     12  C   UNL A   1      40.844  28.138  27.753  1.00  0.00     0.052 A 
ATOM     13  C   UNL A   1      40.258  27.665  28.943  1.00  0.00     0.028 A 
ATOM     14  C   UNL A   1      40.128  29.084  27.005  1.00  0.00     0.028 A 
ATOM     15  C   UNL A   1      39.117  28.262  29.471  1.00  0.00     0.018 A 
ATOM     16  C   UNL A   1      38.927  29.630  27.491  1.00  0.00     0.018 A 
BRANCH  12  17
ATOM     17  N   UNL A   1      42.218  27.840  27.506  1.00  0.00    -0.250 N 
ATOM     18  C   UNL A   1      45.062  27.305  25.492  1.00  0.00     0.024 C 
ATOM     19  C   UNL A   1      43.793  26.760  26.158  1.00  0.00     0.071 C 
ATOM     20  C   UNL A   1      42.766  27.852  26.245  1.00  0.00     0.241 C 
ATOM     21  C   UNL A   1      44.058  26.372  27.641  1.00  0.00     0.107 C 
ATOM     22  C   UNL A   1      43.135  25.551  25.391  1.00  0.00     0.066 C 
ATOM     23  O   UNL A   1      42.482  28.579  25.300  1.00  0.00    -0.273 OA
ATOM     24  C   UNL A   1      43.060  27.224  28.412  1.00  0.00     0.238 C 
ATOM     25  C   UNL A   1      43.783  24.844  27.849  1.00  0.00     0.063 C 
ATOM     26  C   UNL A   1      41.947  25.021  26.216  1.00  0.00    -0.036 A 
ATOM     27  C   UNL A   1      44.179  24.447  25.436  1.00  0.00    -0.036 A 
ATOM     28  O   UNL A   1      43.035  27.259  29.635  1.00  0.00    -0.274 OA
ATOM     29  C   UNL A   1      42.299  24.640  27.538  1.00  0.00    -0.036 A 
ATOM     30  C   UNL A   1      44.550  24.077  26.758  1.00  0.00    -0.036 A 
ATOM     31  C   UNL A   1      40.627  24.935  25.796  1.00  0.00     0.005 A 
ATOM     32  C   UNL A   1      44.700  23.803  24.323  1.00  0.00     0.005 A 
ATOM     33  C   UNL A   1      41.338  24.213  28.445  1.00  0.00     0.004 A 
ATOM     34  C   UNL A   1      45.443  23.035  26.952  1.00  0.00     0.004 A 
ATOM     35  C   UNL A   1      39.659  24.510  26.712  1.00  0.00     0.000 A 
ATOM     36  C   UNL A   1      45.603  22.763  24.529  1.00  0.00     0.000 A 
ATOM     37  C   UNL A   1      40.010  24.161  28.025  1.00  0.00     0.000 A 
ATOM     38  C   UNL A   1      45.967  22.382  25.831  1.00  0.00     0.000 A 
ENDBRANCH  12  17
ENDBRANCH   9  11
ENDBRANCH   8   9
ENDBRANCH   7   8
ENDBRANCH   6   7
ENDBRANCH   5   6
ENDBRANCH   4   5
ENDBRANCH   3   4
ENDBRANCH   2   3
ENDBRANCH   1   2
BRANCH   1  39
ATOM     39  C   UNL A   1      33.643  35.560  32.197  1.00  0.00     0.188 C 
BRANCH  39  40
ATOM     40  O   UNL A   1      33.094  34.434  32.871  1.00  0.00    -0.376 OA
BRANCH  40  41
ATOM     41  C   UNL A   1      33.977  33.354  33.144  1.00  0.00     0.202 C 
BRANCH  41  42
ATOM     42  C   UNL A   1      35.260  33.763  33.874  1.00  0.00     0.261 C 
BRANCH  42  43
ATOM     43  O   UNL A   1      36.413  32.962  33.574  1.00  0.00    -0.460 OA
BRANCH  43  44
ATOM     44  C   UNL A   1      37.220  32.612  34.600  1.00  0.00     0.338 C 
ATOM     45  O   UNL A   1      36.981  32.698  35.792  1.00  0.00    -0.246 OA
BRANCH  44  46
ATOM     46  C   UNL A   1      38.389  31.920  34.021  1.00  0.00     0.060 A 
ATOM     47  C   UNL A   1      38.214  30.950  33.030  1.00  0.00     0.016 A 
ATOM     48  C   UNL A   1      39.666  32.210  34.516  1.00  0.00     0.016 A 
ATOM     49  C   UNL A   1      39.326  30.287  32.513  1.00  0.00     0.010 A 
ATOM     50  C   UNL A   1      40.778  31.537  34.003  1.00  0.00     0.010 A 
ATOM     51  C   UNL A   1      40.617  30.589  32.981  1.00  0.00    -0.014 A 
BRANCH  51  52
ATOM     52  C   UNL A   1      41.797  30.046  32.268  1.00  0.00     0.031 A 
ATOM     53  C   UNL A   1      42.402  30.730  31.081  1.00  0.00     0.074 A 
ATOM     54  C   UNL A   1      42.321  28.893  32.724  1.00  0.00     0.049 A 
ATOM     55  N   UNL A   1      43.480  30.408  30.411  1.00  0.00    -0.248 NA
ATOM     56  C   UNL A   1      41.708  31.922  30.576  1.00  0.00     0.031 C 
ATOM     57  C   UNL A   1      41.797  28.124  33.855  1.00  0.00     0.029 A 
ATOM     58  N   UNL A   1      43.404  28.170  32.300  1.00  0.00    -0.354 N 
ATOM     59  C   UNL A   1      43.614  31.368  29.418  1.00  0.00     0.074 A 
ATOM     60  C   UNL A   1      42.476  32.258  29.545  1.00  0.00     0.031 C 
ATOM     61  C   UNL A   1      42.571  27.045  34.045  1.00  0.00     0.029 A 
ATOM     62  C   UNL A   1      43.628  27.036  33.041  1.00  0.00     0.049 A 
ATOM     63  H   UNL A   1      43.969  28.438  31.538  1.00  0.00     0.167 HD
ATOM     64  C   UNL A   1      44.603  31.500  28.499  1.00  0.00     0.037 A 
ATOM     65  C   UNL A   1      44.581  26.095  32.924  1.00  0.00     0.037 A 
ATOM     66  C   UNL A   1      45.717  30.592  28.362  1.00  0.00     0.049 A 
ATOM     67  C   UNL A   1      45.628  26.235  31.858  1.00  0.00     0.074 A 
ATOM     68  C   UNL A   1      46.792  30.670  27.491  1.00  0.00     0.029 A 
ATOM     69  N   UNL A   1      45.891  29.431  29.101  1.00  0.00    -0.354 N 
ATOM     70  N   UNL A   1      45.795  27.198  30.985  1.00  0.00    -0.248 NA
ATOM     71  C   UNL A   1      46.623  25.159  31.769  1.00  0.00     0.031 C 
ATOM     72  C   UNL A   1      47.584  29.528  27.665  1.00  0.00     0.029 A 
ATOM     73  C   UNL A   1      47.032  28.764  28.680  1.00  0.00     0.049 A 
ATOM     74  H   UNL A   1      45.290  29.124  29.818  1.00  0.00     0.167 HD
ATOM     75  C   UNL A   1      46.925  26.856  30.256  1.00  0.00     0.074 A 
ATOM     76  C   UNL A   1      47.416  25.608  30.806  1.00  0.00     0.031 C 
ATOM     77  C   UNL A   1      47.505  27.516  29.224  1.00  0.00     0.037 A 
BRANCH  64  78
ATOM     78  C   UNL A   1      44.527  32.671  27.562  1.00  0.00     0.057 A 
ATOM     79  C   UNL A   1      43.982  32.534  26.280  1.00  0.00     0.134 A 
ATOM     80  C   UNL A   1      45.047  33.925  27.910  1.00  0.00     0.134 A 
ATOM     81  F   UNL A   1      43.479  31.358  25.875  1.00  0.00    -0.206 F 
ATOM     82  C   UNL A   1      43.957  33.600  25.377  1.00  0.00     0.040 A 
ATOM     83  C   UNL A   1      45.006  35.006  27.026  1.00  0.00     0.040 A 
ATOM     84  F   UNL A   1      45.582  34.126  29.124  1.00  0.00    -0.206 F 
ATOM     85  C   UNL A   1      44.464  34.842  25.753  1.00  0.00     0.006 A 
ENDBRANCH  64  78
BRANCH  65  86
ATOM     86  C   UNL A   1      44.599  24.942  33.858  1.00  0.00     0.057 A 
ATOM     87  C   UNL A   1      45.042  25.082  35.178  1.00  0.00     0.134 A 
ATOM     88  C   UNL A   1      44.157  23.678  33.451  1.00  0.00     0.134 A 
ATOM     89  F   UNL A   1      45.485  26.266  35.623  1.00  0.00    -0.206 F 
ATOM     90  C   UNL A   1      45.047  24.002  36.062  1.00  0.00     0.040 A 
ATOM     91  C   UNL A   1      44.132  22.597  34.333  1.00  0.00     0.040 A 
ATOM     92  F   UNL A   1      43.707  23.490  32.202  1.00  0.00    -0.206 F 
ATOM     93  C   UNL A   1      44.581  22.759  35.642  1.00  0.00     0.006 A 
ENDBRANCH  65  86
BRANCH  77  94
ATOM     94  C   UNL A   1      48.744  26.901  28.638  1.00  0.00     0.057 A 
ATOM     95  C   UNL A   1      50.012  27.235  29.130  1.00  0.00     0.134 A 
ATOM     96  C   UNL A   1      48.683  25.976  27.587  1.00  0.00     0.134 A 
ATOM     97  F   UNL A   1      50.143  28.117  30.133  1.00  0.00    -0.206 F 
ATOM     98  C   UNL A   1      51.173  26.670  28.600  1.00  0.00     0.040 A 
ATOM     99  C   UNL A   1      49.835  25.382  27.068  1.00  0.00     0.040 A 
ATOM    100  F   UNL A   1      47.498  25.597  27.083  1.00  0.00    -0.206 F 
ATOM    101  C   UNL A   1      51.085  25.733  27.573  1.00  0.00     0.006 A 
ENDBRANCH  77  94
ENDBRANCH  51  52
ENDBRANCH  44  46
ENDBRANCH  43  44
ENDBRANCH  42  43
ENDBRANCH  41  42
ENDBRANCH  40  41
ENDBRANCH  39  40
ENDBRANCH   1  39
TORSDOF 21
ENDMDL
MODEL 2
REMARK VINA RESULT:      -9.5      0.378      5.703
REMARK SMILES C[C@]12C(=O)N(c3ccc(C(=O)OCCOCCOCCOCCOC(=O)c4ccc(-c5c6nc(c(-c7c(F)cccc7F)c7ccc([nH]7)c(-c7c(F)cccc7F)c7nc(c(-c8c(F)cccc8F)c8ccc5[nH]8)C=C7)C=C6)cc4)cc3)C(=O)[C@H]1[C@H]1c3ccccc3[C@@H]2c2ccccc21
REMARK SMILES IDX 19 1 18 2 17 3 16 4 15 5 14 6 13 7 12 8 10 9 11 10 9 11 6 12
REMARK SMILES IDX 7 13 82 14 8 15 81 16 5 17 1 18 2 19 3 20 85 21 93 22 4 23
REMARK SMILES IDX 83 24 86 25 92 26 94 27 84 28 87 29 99 30 91 31 95 32 88 33
REMARK SMILES IDX 98 34 90 35 96 36 89 37 97 38 20 39 21 40 22 41 23 42 24 43
REMARK SMILES IDX 25 44 26 45 27 46 28 47 80 48 29 49 79 50 30 51 31 52 32 53
REMARK SMILES IDX 73 54 33 55 78 56 72 57 74 58 34 59 77 60 71 61 70 62 35 64
REMARK SMILES IDX 61 65 44 66 60 67 45 68 48 69 59 70 75 71 46 72 47 73 58 75
REMARK SMILES IDX 76 76 49 77 36 78 37 79 42 80 38 81 39 82 41 83 43 84 40 85
REMARK SMILES IDX 62 86 63 87 68 88 64 89 65 90 67 91 69 92 66 93 50 94 51 95
REMARK SMILES IDX 56 96 52 97 53 98 55 99 57 100 54 101
REMARK H PARENT 74 63 48 74
REMARK Flexibility Score: inf
ROOT
ATOM      1  C   UNL A   1      33.018  36.041  30.600  1.00  0.00     0.188 C 
ENDROOT
BRANCH   1   2
ATOM      2  O   UNL A   1      32.536  35.012  29.740  1.00  0.00    -0.377 OA
BRANCH   2   3
ATOM      3  C   UNL A   1      33.302  34.665  28.599  1.00  0.00     0.188 C 
BRANCH   3   4
ATOM      4  C   UNL A   1      34.817  34.850  28.782  1.00  0.00     0.188 C 
BRANCH   4   5
ATOM      5  O   UNL A   1      35.477  33.620  29.030  1.00  0.00    -0.376 OA
BRANCH   5   6
ATOM      6  C   UNL A   1      36.852  33.627  29.371  1.00  0.00     0.202 C 
BRANCH   6   7
ATOM      7  C   UNL A   1      37.746  32.372  29.296  1.00  0.00     0.261 C 
BRANCH   7   8
ATOM      8  O   UNL A   1      37.281  31.261  28.525  1.00  0.00    -0.460 OA
BRANCH   8   9
ATOM      9  C   UNL A   1      37.370  30.040  29.085  1.00  0.00     0.338 C 
ATOM     10  O   UNL A   1      36.563  29.505  29.824  1.00  0.00    -0.246 OA
BRANCH   9  11
ATOM     11  C   UNL A   1      38.527  29.347  28.484  1.00  0.00     0.060 A 
ATOM     12  C   UNL A   1      40.868  28.112  27.523  1.00  0.00     0.052 A 
ATOM     13  C   UNL A   1      40.329  27.774  28.778  1.00  0.00     0.028 A 
ATOM     14  C   UNL A   1      40.123  28.971  26.702  1.00  0.00     0.028 A 
ATOM     15  C   UNL A   1      39.207  28.428  29.280  1.00  0.00     0.018 A 
ATOM     16  C   UNL A   1      38.940  29.569  27.170  1.00  0.00     0.018 A 
BRANCH  12  17
ATOM     17  N   UNL A   1      42.233  27.785  27.258  1.00  0.00    -0.250 N 
ATOM     18  C   UNL A   1      45.020  27.107  25.208  1.00  0.00     0.024 C 
ATOM     19  C   UNL A   1      43.763  26.613  25.935  1.00  0.00     0.071 C 
ATOM     20  C   UNL A   1      42.749  27.720  25.986  1.00  0.00     0.241 C 
ATOM     21  C   UNL A   1      44.062  26.307  27.431  1.00  0.00     0.107 C 
ATOM     22  C   UNL A   1      43.075  25.371  25.255  1.00  0.00     0.066 C 
ATOM     23  O   UNL A   1      42.448  28.396  25.008  1.00  0.00    -0.273 OA
ATOM     24  C   UNL A   1      43.092  27.212  28.177  1.00  0.00     0.238 C 
ATOM     25  C   UNL A   1      43.778  24.797  27.732  1.00  0.00     0.063 C 
ATOM     26  C   UNL A   1      41.902  24.901  26.138  1.00  0.00    -0.036 A 
ATOM     27  C   UNL A   1      44.109  24.260  25.336  1.00  0.00    -0.036 A 
ATOM     28  O   UNL A   1      43.099  27.317  29.396  1.00  0.00    -0.274 OA
ATOM     29  C   UNL A   1      42.285  24.591  27.471  1.00  0.00    -0.036 A 
ATOM     30  C   UNL A   1      44.510  23.961  26.668  1.00  0.00    -0.036 A 
ATOM     31  C   UNL A   1      40.572  24.806  25.756  1.00  0.00     0.005 A 
ATOM     32  C   UNL A   1      44.596  23.548  24.249  1.00  0.00     0.005 A 
ATOM     33  C   UNL A   1      41.343  24.227  28.423  1.00  0.00     0.004 A 
ATOM     34  C   UNL A   1      45.397  22.922  26.899  1.00  0.00     0.004 A 
ATOM     35  C   UNL A   1      39.623  24.444  26.719  1.00  0.00     0.000 A 
ATOM     36  C   UNL A   1      45.494  22.512  24.491  1.00  0.00     0.000 A 
ATOM     37  C   UNL A   1      40.004  24.165  28.041  1.00  0.00     0.000 A 
ATOM     38  C   UNL A   1      45.887  22.201  25.803  1.00  0.00     0.000 A 
ENDBRANCH  12  17
ENDBRANCH   9  11
ENDBRANCH   8   9
ENDBRANCH   7   8
ENDBRANCH   6   7
ENDBRANCH   5   6
ENDBRANCH   4   5
ENDBRANCH   3   4
ENDBRANCH   2   3
ENDBRANCH   1   2
BRANCH   1  39
ATOM     39  C   UNL A   1      33.439  35.798  32.070  1.00  0.00     0.188 C 
BRANCH  39  40
ATOM     40  O   UNL A   1      32.903  34.626  32.672  1.00  0.00    -0.376 OA
BRANCH  40  41
ATOM     41  C   UNL A   1      33.782  33.519  32.820  1.00  0.00     0.202 C 
BRANCH  41  42
ATOM     42  C   UNL A   1      35.220  33.904  33.184  1.00  0.00     0.261 C 
BRANCH  42  43
ATOM     43  O   UNL A   1      36.181  32.843  33.076  1.00  0.00    -0.460 OA
BRANCH  43  44
ATOM     44  C   UNL A   1      36.953  32.582  34.153  1.00  0.00     0.338 C 
ATOM     45  O   UNL A   1      36.658  32.722  35.328  1.00  0.00    -0.246 OA
BRANCH  44  46
ATOM     46  C   UNL A   1      38.174  31.910  33.664  1.00  0.00     0.060 A 
ATOM     47  C   UNL A   1      38.086  30.914  32.688  1.00  0.00     0.016 A 
ATOM     48  C   UNL A   1      39.410  32.244  34.231  1.00  0.00     0.016 A 
ATOM     49  C   UNL A   1      39.245  30.270  32.256  1.00  0.00     0.010 A 
ATOM     50  C   UNL A   1      40.568  31.591  33.804  1.00  0.00     0.010 A 
ATOM     51  C   UNL A   1      40.496  30.617  32.797  1.00  0.00    -0.014 A 
BRANCH  51  52
ATOM     52  C   UNL A   1      41.731  30.089  32.172  1.00  0.00     0.031 A 
ATOM     53  C   UNL A   1      42.420  28.857  32.671  1.00  0.00     0.074 A 
ATOM     54  C   UNL A   1      42.232  30.764  31.120  1.00  0.00     0.049 A 
ATOM     55  N   UNL A   1      43.462  28.241  32.172  1.00  0.00    -0.248 NA
ATOM     56  C   UNL A   1      41.878  28.240  33.889  1.00  0.00     0.031 C 
ATOM     57  C   UNL A   1      41.661  31.993  30.565  1.00  0.00     0.029 A 
ATOM     58  N   UNL A   1      43.324  30.515  30.332  1.00  0.00    -0.354 N 
ATOM     59  C   UNL A   1      43.691  27.147  32.995  1.00  0.00     0.074 A 
ATOM     60  C   UNL A   1      42.705  27.214  34.057  1.00  0.00     0.031 C 
ATOM     61  C   UNL A   1      42.398  32.382  29.514  1.00  0.00     0.029 A 
ATOM     62  C   UNL A   1      43.501  31.444  29.336  1.00  0.00     0.049 A 
ATOM     63  H   UNL A   1      43.923  29.745  30.465  1.00  0.00     0.167 HD
ATOM     64  C   UNL A   1      44.626  26.174  32.865  1.00  0.00     0.037 A 
ATOM     65  C   UNL A   1      44.447  31.530  28.385  1.00  0.00     0.037 A 
ATOM     66  C   UNL A   1      45.622  26.131  31.820  1.00  0.00     0.049 A 
ATOM     67  C   UNL A   1      45.507  30.470  28.303  1.00  0.00     0.074 A 
ATOM     68  C   UNL A   1      46.581  25.161  31.581  1.00  0.00     0.029 A 
ATOM     69  N   UNL A   1      45.800  27.110  30.854  1.00  0.00    -0.354 N 
ATOM     70  N   UNL A   1      45.656  29.392  29.033  1.00  0.00    -0.248 NA
ATOM     71  C   UNL A   1      46.525  30.638  27.257  1.00  0.00     0.031 C 
ATOM     72  C   UNL A   1      47.373  25.579  30.505  1.00  0.00     0.029 A 
ATOM     73  C   UNL A   1      46.877  26.785  30.040  1.00  0.00     0.049 A 
ATOM     74  H   UNL A   1      45.245  27.917  30.759  1.00  0.00     0.167 HD
ATOM     75  C   UNL A   1      46.770  28.741  28.523  1.00  0.00     0.074 A 
ATOM     76  C   UNL A   1      47.244  29.534  27.406  1.00  0.00     0.031 C 
ATOM     77  C   UNL A   1      47.349  27.589  28.940  1.00  0.00     0.037 A 
BRANCH  64  78
ATOM     78  C   UNL A   1      44.622  25.068  33.882  1.00  0.00     0.057 A 
ATOM     79  C   UNL A   1      45.139  25.269  35.168  1.00  0.00     0.134 A 
ATOM     80  C   UNL A   1      44.157  23.784  33.568  1.00  0.00     0.134 A 
ATOM     81  F   UNL A   1      45.615  26.470  35.531  1.00  0.00    -0.206 F 
ATOM     82  C   UNL A   1      45.194  24.234  36.105  1.00  0.00     0.040 A 
ATOM     83  C   UNL A   1      44.184  22.747  34.504  1.00  0.00     0.040 A 
ATOM     84  F   UNL A   1      43.648  23.523  32.355  1.00  0.00    -0.206 F 
ATOM     85  C   UNL A   1      44.709  22.971  35.775  1.00  0.00     0.006 A 
ENDBRANCH  64  78
BRANCH  65  86
ATOM     86  C   UNL A   1      44.425  32.656  27.419  1.00  0.00     0.057 A 
ATOM     87  C   UNL A   1      43.896  32.500  26.133  1.00  0.00     0.134 A 
ATOM     88  C   UNL A   1      44.917  33.917  27.770  1.00  0.00     0.134 A 
ATOM     89  F   UNL A   1      43.417  31.312  25.735  1.00  0.00    -0.206 F 
ATOM     90  C   UNL A   1      43.860  33.560  25.227  1.00  0.00     0.040 A 
ATOM     91  C   UNL A   1      44.864  34.992  26.883  1.00  0.00     0.040 A 
ATOM     92  F   UNL A   1      45.421  34.128  28.995  1.00  0.00    -0.206 F 
ATOM     93  C   UNL A   1      44.336  34.813  25.606  1.00  0.00     0.006 A 
ENDBRANCH  65  86
BRANCH  77  94
ATOM     94  C   UNL A   1      48.551  27.117  28.173  1.00  0.00     0.057 A 
ATOM     95  C   UNL A   1      48.430  26.127  27.190  1.00  0.00     0.134 A 
ATOM     96  C   UNL A   1      49.829  27.646  28.404  1.00  0.00     0.134 A 
ATOM     97  F   UNL A   1      47.237  25.576  26.920  1.00  0.00    -0.206 F 
ATOM     98  C   UNL A   1      49.536  25.681  26.463  1.00  0.00     0.040 A 
ATOM     99  C   UNL A   1      50.937  27.228  27.664  1.00  0.00     0.040 A 
ATOM    100  F   UNL A   1      50.009  28.612  29.317  1.00  0.00    -0.206 F 
ATOM    101  C   UNL A   1      50.792  26.239  26.693  1.00  0.00     0.006 A 
ENDBRANCH  77  94
ENDBRANCH  51  52
ENDBRANCH  44  46
ENDBRANCH  43  44
ENDBRANCH  42  43
ENDBRANCH  41  42
ENDBRANCH  40  41
ENDBRANCH  39  40
ENDBRANCH   1  39
TORSDOF 21
ENDMDL
MODEL 3
REMARK VINA RESULT:      -9.1      2.998      9.932
REMARK SMILES C[C@]12C(=O)N(c3ccc(C(=O)OCCOCCOCCOCCOC(=O)c4ccc(-c5c6nc(c(-c7c(F)cccc7F)c7ccc([nH]7)c(-c7c(F)cccc7F)c7nc(c(-c8c(F)cccc8F)c8ccc5[nH]8)C=C7)C=C6)cc4)cc3)C(=O)[C@H]1[C@H]1c3ccccc3[C@@H]2c2ccccc21
REMARK SMILES IDX 19 1 18 2 17 3 16 4 15 5 14 6 13 7 12 8 10 9 11 10 9 11 6 12
REMARK SMILES IDX 7 13 82 14 8 15 81 16 5 17 1 18 2 19 3 20 85 21 93 22 4 23
REMARK SMILES IDX 83 24 86 25 92 26 94 27 84 28 87 29 99 30 91 31 95 32 88 33
REMARK SMILES IDX 98 34 90 35 96 36 89 37 97 38 20 39 21 40 22 41 23 42 24 43
REMARK SMILES IDX 25 44 26 45 27 46 28 47 80 48 29 49 79 50 30 51 31 52 32 53
REMARK SMILES IDX 73 54 33 55 78 56 72 57 74 58 34 59 77 60 71 61 70 62 35 64
REMARK SMILES IDX 61 65 44 66 60 67 45 68 48 69 59 70 75 71 46 72 47 73 58 75
REMARK SMILES IDX 76 76 49 77 36 78 37 79 42 80 38 81 39 82 41 83 43 84 40 85
REMARK SMILES IDX 62 86 63 87 68 88 64 89 65 90 67 91 69 92 66 93 50 94 51 95
REMARK SMILES IDX 56 96 52 97 53 98 55 99 57 100 54 101
REMARK H PARENT 74 63 48 74
REMARK Flexibility Score: inf
ROOT
ATOM      1  C   UNL A   1      43.529  20.006  25.737  1.00  0.00     0.188 C 
ENDROOT
BRANCH   1   2
ATOM      2  O   UNL A   1      42.231  20.521  25.457  1.00  0.00    -0.377 OA
BRANCH   2   3
ATOM      3  C   UNL A   1      41.130  20.030  26.202  1.00  0.00     0.188 C 
BRANCH   3   4
ATOM      4  C   UNL A   1      40.039  21.080  26.472  1.00  0.00     0.188 C 
BRANCH   4   5
ATOM      5  O   UNL A   1      40.340  21.880  27.603  1.00  0.00    -0.376 OA
BRANCH   5   6
ATOM      6  C   UNL A   1      40.319  23.291  27.480  1.00  0.00     0.202 C 
BRANCH   6   7
ATOM      7  C   UNL A   1      39.021  24.101  27.276  1.00  0.00     0.261 C 
BRANCH   7   8
ATOM      8  O   UNL A   1      38.901  25.357  27.950  1.00  0.00    -0.460 OA
BRANCH   8   9
ATOM      9  C   UNL A   1      39.798  26.312  27.639  1.00  0.00     0.338 C 
ATOM     10  O   UNL A   1      40.304  26.525  26.552  1.00  0.00    -0.246 OA
BRANCH   9  11
ATOM     11  C   UNL A   1      39.919  27.218  28.799  1.00  0.00     0.060 A 
ATOM     12  C   UNL A   1      39.911  28.990  30.987  1.00  0.00     0.052 A 
ATOM     13  C   UNL A   1      39.138  27.814  30.999  1.00  0.00     0.028 A 
ATOM     14  C   UNL A   1      40.800  29.176  29.918  1.00  0.00     0.028 A 
ATOM     15  C   UNL A   1      39.094  26.970  29.893  1.00  0.00     0.018 A 
ATOM     16  C   UNL A   1      40.824  28.279  28.836  1.00  0.00     0.018 A 
BRANCH  12  17
ATOM     17  N   UNL A   1      39.575  30.036  31.900  1.00  0.00    -0.250 N 
ATOM     18  C   UNL A   1      37.803  31.501  34.573  1.00  0.00     0.024 C 
ATOM     19  C   UNL A   1      37.903  31.166  33.079  1.00  0.00     0.071 C 
ATOM     20  C   UNL A   1      38.652  29.876  32.906  1.00  0.00     0.241 C 
ATOM     21  C   UNL A   1      38.775  32.212  32.326  1.00  0.00     0.107 C 
ATOM     22  C   UNL A   1      36.510  31.005  32.363  1.00  0.00     0.066 C 
ATOM     23  O   UNL A   1      38.408  28.869  33.561  1.00  0.00    -0.273 OA
ATOM     24  C   UNL A   1      39.882  31.370  31.709  1.00  0.00     0.238 C 
ATOM     25  C   UNL A   1      37.919  32.924  31.225  1.00  0.00     0.063 C 
ATOM     26  C   UNL A   1      36.743  30.790  30.855  1.00  0.00    -0.036 A 
ATOM     27  C   UNL A   1      35.853  32.371  32.477  1.00  0.00    -0.036 A 
ATOM     28  O   UNL A   1      40.825  31.865  31.108  1.00  0.00    -0.274 OA
ATOM     29  C   UNL A   1      37.501  31.826  30.245  1.00  0.00    -0.036 A 
ATOM     30  C   UNL A   1      36.619  33.414  31.885  1.00  0.00    -0.036 A 
ATOM     31  C   UNL A   1      36.326  29.700  30.105  1.00  0.00     0.005 A 
ATOM     32  C   UNL A   1      34.609  32.609  33.044  1.00  0.00     0.005 A 
ATOM     33  C   UNL A   1      37.871  31.755  28.909  1.00  0.00     0.004 A 
ATOM     34  C   UNL A   1      36.111  34.703  31.854  1.00  0.00     0.004 A 
ATOM     35  C   UNL A   1      36.704  29.628  28.760  1.00  0.00     0.000 A 
ATOM     36  C   UNL A   1      34.112  33.910  33.015  1.00  0.00     0.000 A 
ATOM     37  C   UNL A   1      37.476  30.641  28.170  1.00  0.00     0.000 A 
ATOM     38  C   UNL A   1      34.855  34.944  32.423  1.00  0.00     0.000 A 
ENDBRANCH  12  17
ENDBRANCH   9  11
ENDBRANCH   8   9
ENDBRANCH   7   8
ENDBRANCH   6   7
ENDBRANCH   5   6
ENDBRANCH   4   5
ENDBRANCH   3   4
ENDBRANCH   2   3
ENDBRANCH   1   2
BRANCH   1  39
ATOM     39  C   UNL A   1      44.788  20.367  24.910  1.00  0.00     0.188 C 
BRANCH  39  40
ATOM     40  O   UNL A   1      44.543  21.089  23.709  1.00  0.00    -0.376 OA
BRANCH  40  41
ATOM     41  C   UNL A   1      44.620  22.507  23.784  1.00  0.00     0.202 C 
BRANCH  41  42
ATOM     42  C   UNL A   1      45.508  23.027  24.919  1.00  0.00     0.261 C 
BRANCH  42  43
ATOM     43  O   UNL A   1      45.120  24.298  25.462  1.00  0.00    -0.460 OA
BRANCH  43  44
ATOM     44  C   UNL A   1      45.952  25.344  25.271  1.00  0.00     0.338 C 
ATOM     45  O   UNL A   1      46.760  25.494  24.371  1.00  0.00    -0.246 OA
BRANCH  44  46
ATOM     46  C   UNL A   1      45.581  26.383  26.253  1.00  0.00     0.060 A 
ATOM     47  C   UNL A   1      44.273  26.872  26.301  1.00  0.00     0.016 A 
ATOM     48  C   UNL A   1      46.569  26.910  27.095  1.00  0.00     0.016 A 
ATOM     49  C   UNL A   1      43.945  27.872  27.215  1.00  0.00     0.010 A 
ATOM     50  C   UNL A   1      46.240  27.919  28.004  1.00  0.00     0.010 A 
ATOM     51  C   UNL A   1      44.921  28.389  28.086  1.00  0.00    -0.014 A 
BRANCH  51  52
ATOM     52  C   UNL A   1      44.509  29.280  29.196  1.00  0.00     0.031 A 
ATOM     53  C   UNL A   1      44.446  30.769  29.047  1.00  0.00     0.074 A 
ATOM     54  C   UNL A   1      44.188  28.704  30.369  1.00  0.00     0.049 A 
ATOM     55  N   UNL A   1      44.028  31.662  29.909  1.00  0.00    -0.248 NA
ATOM     56  C   UNL A   1      44.917  31.331  27.774  1.00  0.00     0.031 C 
ATOM     57  C   UNL A   1      44.240  27.265  30.637  1.00  0.00     0.029 A 
ATOM     58  N   UNL A   1      43.754  29.249  31.548  1.00  0.00    -0.354 N 
ATOM     59  C   UNL A   1      44.160  32.892  29.280  1.00  0.00     0.074 A 
ATOM     60  C   UNL A   1      44.744  32.632  27.978  1.00  0.00     0.031 C 
ATOM     61  C   UNL A   1      43.837  27.040  31.896  1.00  0.00     0.029 A 
ATOM     62  C   UNL A   1      43.518  28.316  32.527  1.00  0.00     0.049 A 
ATOM     63  H   UNL A   1      43.623  30.217  31.680  1.00  0.00     0.167 HD
ATOM     64  C   UNL A   1      43.811  34.118  29.743  1.00  0.00     0.037 A 
ATOM     65  C   UNL A   1      43.093  28.472  33.792  1.00  0.00     0.037 A 
ATOM     66  C   UNL A   1      43.257  34.370  31.052  1.00  0.00     0.049 A 
ATOM     67  C   UNL A   1      42.772  29.848  34.297  1.00  0.00     0.074 A 
ATOM     68  C   UNL A   1      42.831  35.573  31.592  1.00  0.00     0.029 A 
ATOM     69  N   UNL A   1      43.071  33.409  32.034  1.00  0.00    -0.354 N 
ATOM     70  N   UNL A   1      42.814  30.993  33.660  1.00  0.00    -0.248 NA
ATOM     71  C   UNL A   1      42.336  29.951  35.696  1.00  0.00     0.031 C 
ATOM     72  C   UNL A   1      42.439  35.348  32.917  1.00  0.00     0.029 A 
ATOM     73  C   UNL A   1      42.572  33.996  33.188  1.00  0.00     0.049 A 
ATOM     74  H   UNL A   1      43.265  32.450  31.928  1.00  0.00     0.167 HD
ATOM     75  C   UNL A   1      42.391  31.949  34.573  1.00  0.00     0.074 A 
ATOM     76  C   UNL A   1      42.074  31.246  35.800  1.00  0.00     0.031 C 
ATOM     77  C   UNL A   1      42.274  33.290  34.409  1.00  0.00     0.037 A 
BRANCH  64  78
ATOM     78  C   UNL A   1      44.020  35.290  28.828  1.00  0.00     0.057 A 
ATOM     79  C   UNL A   1      42.965  35.809  28.067  1.00  0.00     0.134 A 
ATOM     80  C   UNL A   1      45.284  35.871  28.655  1.00  0.00     0.134 A 
ATOM     81  F   UNL A   1      41.731  35.292  28.171  1.00  0.00    -0.206 F 
ATOM     82  C   UNL A   1      43.158  36.862  27.169  1.00  0.00     0.040 A 
ATOM     83  C   UNL A   1      45.485  36.940  27.779  1.00  0.00     0.040 A 
ATOM     84  F   UNL A   1      46.338  35.424  29.354  1.00  0.00    -0.206 F 
ATOM     85  C   UNL A   1      44.420  37.434  27.029  1.00  0.00     0.006 A 
ENDBRANCH  64  78
BRANCH  65  86
ATOM     86  C   UNL A   1      42.927  27.286  34.668  1.00  0.00     0.057 A 
ATOM     87  C   UNL A   1      41.717  26.583  34.719  1.00  0.00     0.134 A 
ATOM     88  C   UNL A   1      43.982  26.820  35.459  1.00  0.00     0.134 A 
ATOM     89  F   UNL A   1      40.667  26.986  33.990  1.00  0.00    -0.206 F 
ATOM     90  C   UNL A   1      41.562  25.459  35.531  1.00  0.00     0.040 A 
ATOM     91  C   UNL A   1      43.849  25.682  36.255  1.00  0.00     0.040 A 
ATOM     92  F   UNL A   1      45.168  27.445  35.437  1.00  0.00    -0.206 F 
ATOM     93  C   UNL A   1      42.634  25.001  36.294  1.00  0.00     0.006 A 
ENDBRANCH  65  86
BRANCH  77  94
ATOM     94  C   UNL A   1      41.769  34.074  35.586  1.00  0.00     0.057 A 
ATOM     95  C   UNL A   1      40.427  34.466  35.664  1.00  0.00     0.134 A 
ATOM     96  C   UNL A   1      42.611  34.440  36.646  1.00  0.00     0.134 A 
ATOM     97  F   UNL A   1      39.567  34.152  34.684  1.00  0.00    -0.206 F 
ATOM     98  C   UNL A   1      39.940  35.191  36.754  1.00  0.00     0.040 A 
ATOM     99  C   UNL A   1      42.130  35.140  37.753  1.00  0.00     0.040 A 
ATOM    100  F   UNL A   1      43.904  34.078  36.642  1.00  0.00    -0.206 F 
ATOM    101  C   UNL A   1      40.791  35.521  37.807  1.00  0.00     0.006 A 
ENDBRANCH  77  94
ENDBRANCH  51  52
ENDBRANCH  44  46
ENDBRANCH  43  44
ENDBRANCH  42  43
ENDBRANCH  41  42
ENDBRANCH  40  41
ENDBRANCH  39  40
ENDBRANCH   1  39
TORSDOF 21
ENDMDL
