MODEL 1
REMARK VINA RESULT:     -12.0      0.000      0.000
REMARK SMILES O=C(OCCOCCOCCOCCOC(=O)c1ccc(-c2c3nc(c(-c4c(F)cccc4F)c4ccc([nH]4)c(-c4c(F)cccc4F)c4nc(c(-c5c(F)cccc5F)c5ccc2[nH]5)C=C4)C=C3)cc1)c1ccc(NC(=O)[C@@H]2CC=CC[C@H]2C(=O)Nc2cccc([N+](=O)[O-])c2)cc1
REMARK SMILES IDX 7 1 6 2 5 3 4 4 3 5 2 6 1 7 72 8 73 9 98 10 74 11 97 12
REMARK SMILES IDX 75 13 76 14 77 15 78 17 79 18 80 19 84 20 81 21 83 22 82 23
REMARK SMILES IDX 85 24 86 25 87 26 88 28 89 29 96 30 90 31 92 32 91 33 93 34
REMARK SMILES IDX 94 35 95 36 8 37 9 38 10 39 11 40 12 41 13 42 14 43 15 44
REMARK SMILES IDX 16 45 17 46 18 47 19 48 71 49 20 50 70 51 21 52 22 53 23 54
REMARK SMILES IDX 64 55 24 56 69 57 63 58 65 59 25 60 68 61 62 62 61 63 26 65
REMARK SMILES IDX 52 66 35 67 51 68 36 69 39 70 50 71 66 72 37 73 38 74 49 76
REMARK SMILES IDX 67 77 40 78 27 79 28 80 33 81 29 82 30 83 32 84 34 85 31 86
REMARK SMILES IDX 53 87 54 88 59 89 55 90 56 91 58 92 60 93 57 94 41 95 42 96
REMARK SMILES IDX 47 97 43 98 44 99 46 100 48 101 45 102
REMARK H PARENT 76 16 87 27 65 64 39 75
REMARK Flexibility Score: inf
ROOT
ATOM      1  C   UNL A   1      33.393  35.327  29.095  1.00  0.00     0.188 C 
ENDROOT
BRANCH   1   2
ATOM      2  O   UNL A   1      32.645  34.274  28.480  1.00  0.00    -0.376 OA
BRANCH   2   3
ATOM      3  C   UNL A   1      33.428  33.441  27.621  1.00  0.00     0.202 C 
BRANCH   3   4
ATOM      4  C   UNL A   1      33.580  31.982  28.087  1.00  0.00     0.261 C 
BRANCH   4   5
ATOM      5  O   UNL A   1      33.708  31.042  27.002  1.00  0.00    -0.460 OA
BRANCH   5   6
ATOM      6  C   UNL A   1      34.241  29.792  27.013  1.00  0.00     0.338 C 
ATOM      7  O   UNL A   1      35.427  29.664  27.312  1.00  0.00    -0.246 OA
BRANCH   6   8
ATOM      8  C   UNL A   1      33.482  28.555  26.643  1.00  0.00     0.060 A 
ATOM      9  C   UNL A   1      34.065  27.411  26.128  1.00  0.00     0.018 A 
ATOM     10  C   UNL A   1      32.103  28.495  26.903  1.00  0.00     0.018 A 
ATOM     11  C   UNL A   1      33.340  26.260  25.874  1.00  0.00     0.027 A 
ATOM     12  C   UNL A   1      31.369  27.312  26.677  1.00  0.00     0.027 A 
ATOM     13  C   UNL A   1      32.006  26.164  26.197  1.00  0.00     0.041 A 
BRANCH  13  14
ATOM     14  N   UNL A   1      31.283  24.976  26.072  1.00  0.00    -0.326 N 
ATOM     15  C   UNL A   1      31.603  23.713  25.686  1.00  0.00     0.228 C 
ATOM     16  H   UNL A   1      30.334  25.075  26.318  1.00  0.00     0.169 HD
ATOM     17  O   UNL A   1      30.651  22.923  25.588  1.00  0.00    -0.274 OA
BRANCH  15  18
ATOM     18  C   UNL A   1      33.007  23.171  25.393  1.00  0.00     0.095 C 
ATOM     19  C   UNL A   1      33.828  22.730  26.618  1.00  0.00     0.041 C 
ATOM     20  C   UNL A   1      33.735  23.919  24.256  1.00  0.00     0.095 C 
ATOM     21  C   UNL A   1      35.269  22.455  26.314  1.00  0.00    -0.030 C 
ATOM     22  C   UNL A   1      35.277  23.814  24.219  1.00  0.00     0.041 C 
ATOM     23  C   UNL A   1      35.912  22.932  25.245  1.00  0.00    -0.030 C 
BRANCH  20  24
ATOM     24  C   UNL A   1      33.144  23.665  22.855  1.00  0.00     0.228 C 
ATOM     25  O   UNL A   1      33.125  22.505  22.423  1.00  0.00    -0.274 OA
ATOM     26  N   UNL A   1      32.493  24.614  22.111  1.00  0.00    -0.326 N 
ATOM     27  H   UNL A   1      32.058  24.271  21.296  1.00  0.00     0.169 HD
BRANCH  26  28
ATOM     28  C   UNL A   1      32.346  25.988  22.320  1.00  0.00     0.048 A 
ATOM     29  C   UNL A   1      33.491  26.781  22.403  1.00  0.00     0.026 A 
ATOM     30  C   UNL A   1      31.100  26.577  22.495  1.00  0.00     0.111 A 
ATOM     31  C   UNL A   1      33.377  28.173  22.492  1.00  0.00     0.009 A 
ATOM     32  C   UNL A   1      30.978  27.969  22.512  1.00  0.00     0.271 A 
ATOM     33  C   UNL A   1      32.117  28.775  22.506  1.00  0.00     0.086 A 
BRANCH  32  34
ATOM     34  N   UNL A   1      29.641  28.572  22.484  1.00  0.00     0.062 N 
ATOM     35  O   UNL A   1      28.780  28.098  23.238  1.00  0.00    -0.258 OA
ATOM     36  O   UNL A   1      29.457  29.537  21.728  1.00  0.00    -0.258 OA
ENDBRANCH  32  34
ENDBRANCH  26  28
ENDBRANCH  20  24
ENDBRANCH  15  18
ENDBRANCH  13  14
ENDBRANCH   6   8
ENDBRANCH   5   6
ENDBRANCH   4   5
ENDBRANCH   3   4
ENDBRANCH   2   3
ENDBRANCH   1   2
BRANCH   1  37
ATOM     37  C   UNL A   1      32.842  35.723  30.464  1.00  0.00     0.188 C 
BRANCH  37  38
ATOM     38  O   UNL A   1      32.848  37.116  30.756  1.00  0.00    -0.377 OA
BRANCH  38  39
ATOM     39  C   UNL A   1      33.277  37.513  32.052  1.00  0.00     0.188 C 
BRANCH  39  40
ATOM     40  C   UNL A   1      33.495  36.442  33.141  1.00  0.00     0.188 C 
BRANCH  40  41
ATOM     41  O   UNL A   1      34.825  36.322  33.628  1.00  0.00    -0.376 OA
BRANCH  41  42
ATOM     42  C   UNL A   1      35.553  35.176  33.193  1.00  0.00     0.202 C 
BRANCH  42  43
ATOM     43  C   UNL A   1      35.263  33.901  33.993  1.00  0.00     0.261 C 
BRANCH  43  44
ATOM     44  O   UNL A   1      35.894  32.719  33.475  1.00  0.00    -0.460 OA
BRANCH  44  45
ATOM     45  C   UNL A   1      35.378  32.168  32.355  1.00  0.00     0.338 C 
ATOM     46  O   UNL A   1      34.293  32.396  31.849  1.00  0.00    -0.246 OA
BRANCH  45  47
ATOM     47  C   UNL A   1      36.463  31.409  31.699  1.00  0.00     0.060 A 
ATOM     48  C   UNL A   1      37.364  30.700  32.506  1.00  0.00     0.016 A 
ATOM     49  C   UNL A   1      36.532  31.307  30.304  1.00  0.00     0.016 A 
ATOM     50  C   UNL A   1      38.359  29.918  31.920  1.00  0.00     0.010 A 
ATOM     51  C   UNL A   1      37.534  30.534  29.718  1.00  0.00     0.010 A 
ATOM     52  C   UNL A   1      38.476  29.869  30.524  1.00  0.00    -0.014 A 
BRANCH  52  53
ATOM     53  C   UNL A   1      39.731  29.373  29.913  1.00  0.00     0.031 A 
ATOM     54  C   UNL A   1      40.867  30.353  29.789  1.00  0.00     0.074 A 
ATOM     55  C   UNL A   1      39.878  28.107  29.489  1.00  0.00     0.049 A 
ATOM     56  N   UNL A   1      42.057  30.191  29.274  1.00  0.00    -0.248 NA
ATOM     57  C   UNL A   1      40.618  31.706  30.318  1.00  0.00     0.031 C 
ATOM     58  C   UNL A   1      38.866  27.056  29.574  1.00  0.00     0.029 A 
ATOM     59  N   UNL A   1      40.951  27.495  28.888  1.00  0.00    -0.354 N 
ATOM     60  C   UNL A   1      42.694  31.416  29.418  1.00  0.00     0.074 A 
ATOM     61  C   UNL A   1      41.751  32.323  30.030  1.00  0.00     0.031 C 
ATOM     62  C   UNL A   1      39.367  25.928  29.036  1.00  0.00     0.029 A 
ATOM     63  C   UNL A   1      40.721  26.184  28.548  1.00  0.00     0.049 A 
ATOM     64  H   UNL A   1      41.805  27.953  28.717  1.00  0.00     0.167 HD
ATOM     65  C   UNL A   1      43.960  31.758  29.081  1.00  0.00     0.037 A 
ATOM     66  C   UNL A   1      41.514  25.306  27.904  1.00  0.00     0.037 A 
ATOM     67  C   UNL A   1      44.895  30.865  28.459  1.00  0.00     0.049 A 
ATOM     68  C   UNL A   1      42.895  25.730  27.469  1.00  0.00     0.074 A 
ATOM     69  C   UNL A   1      46.204  31.111  28.085  1.00  0.00     0.029 A 
ATOM     70  N   UNL A   1      44.616  29.554  28.106  1.00  0.00    -0.354 N 
ATOM     71  N   UNL A   1      43.504  26.879  27.644  1.00  0.00    -0.248 NA
ATOM     72  C   UNL A   1      43.699  24.733  26.746  1.00  0.00     0.031 C 
ATOM     73  C   UNL A   1      46.702  29.962  27.463  1.00  0.00     0.029 A 
ATOM     74  C   UNL A   1      45.720  28.984  27.498  1.00  0.00     0.049 A 
ATOM     75  H   UNL A   1      43.758  29.097  28.264  1.00  0.00     0.167 HD
ATOM     76  C   UNL A   1      44.769  26.731  27.088  1.00  0.00     0.074 A 
ATOM     77  C   UNL A   1      44.845  25.378  26.577  1.00  0.00     0.031 C 
ATOM     78  C   UNL A   1      45.781  27.630  27.009  1.00  0.00     0.037 A 
BRANCH  65  79
ATOM     79  C   UNL A   1      44.381  33.168  29.360  1.00  0.00     0.057 A 
ATOM     80  C   UNL A   1      44.217  34.190  28.414  1.00  0.00     0.134 A 
ATOM     81  C   UNL A   1      44.963  33.509  30.587  1.00  0.00     0.134 A 
ATOM     82  F   UNL A   1      43.690  33.923  27.210  1.00  0.00    -0.206 F 
ATOM     83  C   UNL A   1      44.638  35.495  28.671  1.00  0.00     0.040 A 
ATOM     84  C   UNL A   1      45.363  34.816  30.865  1.00  0.00     0.040 A 
ATOM     85  F   UNL A   1      45.152  32.577  31.533  1.00  0.00    -0.206 F 
ATOM     86  C   UNL A   1      45.208  35.811  29.903  1.00  0.00     0.006 A 
ENDBRANCH  65  79
BRANCH  66  87
ATOM     87  C   UNL A   1      41.035  23.927  27.621  1.00  0.00     0.057 A 
ATOM     88  C   UNL A   1      41.542  22.825  28.318  1.00  0.00     0.134 A 
ATOM     89  C   UNL A   1      40.092  23.674  26.616  1.00  0.00     0.134 A 
ATOM     90  F   UNL A   1      42.468  22.999  29.272  1.00  0.00    -0.206 F 
ATOM     91  C   UNL A   1      41.149  21.520  28.014  1.00  0.00     0.040 A 
ATOM     92  C   UNL A   1      39.671  22.377  26.318  1.00  0.00     0.040 A 
ATOM     93  F   UNL A   1      39.569  24.685  25.909  1.00  0.00    -0.206 F 
ATOM     94  C   UNL A   1      40.206  21.294  27.013  1.00  0.00     0.006 A 
ENDBRANCH  66  87
BRANCH  78  95
ATOM     95  C   UNL A   1      47.071  27.172  26.392  1.00  0.00     0.057 A 
ATOM     96  C   UNL A   1      48.082  26.564  27.146  1.00  0.00     0.134 A 
ATOM     97  C   UNL A   1      47.281  27.299  25.012  1.00  0.00     0.134 A 
ATOM     98  F   UNL A   1      47.948  26.421  28.474  1.00  0.00    -0.206 F 
ATOM     99  C   UNL A   1      49.266  26.120  26.554  1.00  0.00     0.040 A 
ATOM    100  C   UNL A   1      48.448  26.833  24.404  1.00  0.00     0.040 A 
ATOM    101  F   UNL A   1      46.348  27.861  24.229  1.00  0.00    -0.206 F 
ATOM    102  C   UNL A   1      49.448  26.247  25.178  1.00  0.00     0.006 A 
ENDBRANCH  78  95
ENDBRANCH  52  53
ENDBRANCH  45  47
ENDBRANCH  44  45
ENDBRANCH  43  44
ENDBRANCH  42  43
ENDBRANCH  41  42
ENDBRANCH  40  41
ENDBRANCH  39  40
ENDBRANCH  38  39
ENDBRANCH  37  38
ENDBRANCH   1  37
TORSDOF 25
ENDMDL
MODEL 2
REMARK VINA RESULT:     -11.2      1.296      3.024
REMARK SMILES O=C(OCCOCCOCCOCCOC(=O)c1ccc(-c2c3nc(c(-c4c(F)cccc4F)c4ccc([nH]4)c(-c4c(F)cccc4F)c4nc(c(-c5c(F)cccc5F)c5ccc2[nH]5)C=C4)C=C3)cc1)c1ccc(NC(=O)[C@@H]2CC=CC[C@H]2C(=O)Nc2cccc([N+](=O)[O-])c2)cc1
REMARK SMILES IDX 7 1 6 2 5 3 4 4 3 5 2 6 1 7 72 8 73 9 98 10 74 11 97 12
REMARK SMILES IDX 75 13 76 14 77 15 78 17 79 18 80 19 84 20 81 21 83 22 82 23
REMARK SMILES IDX 85 24 86 25 87 26 88 28 89 29 96 30 90 31 92 32 91 33 93 34
REMARK SMILES IDX 94 35 95 36 8 37 9 38 10 39 11 40 12 41 13 42 14 43 15 44
REMARK SMILES IDX 16 45 17 46 18 47 19 48 71 49 20 50 70 51 21 52 22 53 23 54
REMARK SMILES IDX 64 55 24 56 69 57 63 58 65 59 25 60 68 61 62 62 61 63 26 65
REMARK SMILES IDX 52 66 35 67 51 68 36 69 39 70 50 71 66 72 37 73 38 74 49 76
REMARK SMILES IDX 67 77 40 78 27 79 28 80 33 81 29 82 30 83 32 84 34 85 31 86
REMARK SMILES IDX 53 87 54 88 59 89 55 90 56 91 58 92 60 93 57 94 41 95 42 96
REMARK SMILES IDX 47 97 43 98 44 99 46 100 48 101 45 102
REMARK H PARENT 76 16 87 27 65 64 39 75
REMARK Flexibility Score: inf
ROOT
ATOM      1  C   UNL A   1      33.790  35.203  28.759  1.00  0.00     0.188 C 
ENDROOT
BRANCH   1   2
ATOM      2  O   UNL A   1      32.543  34.688  28.283  1.00  0.00    -0.376 OA
BRANCH   2   3
ATOM      3  C   UNL A   1      32.661  33.437  27.602  1.00  0.00     0.202 C 
BRANCH   3   4
ATOM      4  C   UNL A   1      33.643  32.437  28.238  1.00  0.00     0.261 C 
BRANCH   4   5
ATOM      5  O   UNL A   1      34.203  31.501  27.296  1.00  0.00    -0.460 OA
BRANCH   5   6
ATOM      6  C   UNL A   1      34.178  30.143  27.323  1.00  0.00     0.338 C 
ATOM      7  O   UNL A   1      35.023  29.555  27.997  1.00  0.00    -0.246 OA
BRANCH   6   8
ATOM      8  C   UNL A   1      33.207  29.307  26.547  1.00  0.00     0.060 A 
ATOM      9  C   UNL A   1      33.148  29.264  25.166  1.00  0.00     0.018 A 
ATOM     10  C   UNL A   1      32.345  28.439  27.240  1.00  0.00     0.018 A 
ATOM     11  C   UNL A   1      32.290  28.418  24.486  1.00  0.00     0.027 A 
ATOM     12  C   UNL A   1      31.494  27.553  26.548  1.00  0.00     0.027 A 
ATOM     13  C   UNL A   1      31.499  27.511  25.151  1.00  0.00     0.041 A 
BRANCH  13  14
ATOM     14  N   UNL A   1      30.722  26.559  24.488  1.00  0.00    -0.326 N 
ATOM     15  C   UNL A   1      30.803  25.210  24.341  1.00  0.00     0.228 C 
ATOM     16  H   UNL A   1      29.945  26.950  24.026  1.00  0.00     0.169 HD
ATOM     17  O   UNL A   1      29.976  24.703  23.567  1.00  0.00    -0.274 OA
BRANCH  15  18
ATOM     18  C   UNL A   1      31.784  24.268  25.049  1.00  0.00     0.095 C 
ATOM     19  C   UNL A   1      31.246  23.553  26.301  1.00  0.00     0.041 C 
ATOM     20  C   UNL A   1      33.236  24.789  25.072  1.00  0.00     0.095 C 
ATOM     21  C   UNL A   1      32.302  22.852  27.100  1.00  0.00    -0.030 C 
ATOM     22  C   UNL A   1      34.174  24.210  26.157  1.00  0.00     0.041 C 
ATOM     23  C   UNL A   1      33.605  23.141  27.033  1.00  0.00    -0.030 C 
BRANCH  20  24
ATOM     24  C   UNL A   1      33.932  24.778  23.697  1.00  0.00     0.228 C 
ATOM     25  O   UNL A   1      33.888  25.804  23.005  1.00  0.00    -0.274 OA
ATOM     26  N   UNL A   1      34.732  23.762  23.247  1.00  0.00    -0.326 N 
ATOM     27  H   UNL A   1      35.211  23.954  22.408  1.00  0.00     0.169 HD
BRANCH  26  28
ATOM     28  C   UNL A   1      34.981  22.496  23.787  1.00  0.00     0.048 A 
ATOM     29  C   UNL A   1      36.254  22.215  24.282  1.00  0.00     0.026 A 
ATOM     30  C   UNL A   1      34.013  21.499  23.800  1.00  0.00     0.111 A 
ATOM     31  C   UNL A   1      36.502  21.002  24.936  1.00  0.00     0.009 A 
ATOM     32  C   UNL A   1      34.234  20.318  24.512  1.00  0.00     0.271 A 
ATOM     33  C   UNL A   1      35.479  20.065  25.089  1.00  0.00     0.086 A 
BRANCH  32  34
ATOM     34  N   UNL A   1      33.127  19.371  24.691  1.00  0.00     0.062 N 
ATOM     35  O   UNL A   1      33.272  18.224  24.247  1.00  0.00    -0.258 OA
ATOM     36  O   UNL A   1      32.121  19.765  25.300  1.00  0.00    -0.258 OA
ENDBRANCH  32  34
ENDBRANCH  26  28
ENDBRANCH  20  24
ENDBRANCH  15  18
ENDBRANCH  13  14
ENDBRANCH   6   8
ENDBRANCH   5   6
ENDBRANCH   4   5
ENDBRANCH   3   4
ENDBRANCH   2   3
ENDBRANCH   1   2
BRANCH   1  37
ATOM     37  C   UNL A   1      33.867  35.257  30.283  1.00  0.00     0.188 C 
BRANCH  37  38
ATOM     38  O   UNL A   1      32.825  35.977  30.933  1.00  0.00    -0.377 OA
BRANCH  38  39
ATOM     39  C   UNL A   1      33.192  36.850  31.992  1.00  0.00     0.188 C 
BRANCH  39  40
ATOM     40  C   UNL A   1      33.900  36.278  33.238  1.00  0.00     0.188 C 
BRANCH  40  41
ATOM     41  O   UNL A   1      35.244  35.860  33.044  1.00  0.00    -0.376 OA
BRANCH  41  42
ATOM     42  C   UNL A   1      35.790  35.011  34.051  1.00  0.00     0.202 C 
BRANCH  42  43
ATOM     43  C   UNL A   1      35.154  33.618  34.118  1.00  0.00     0.261 C 
BRANCH  43  44
ATOM     44  O   UNL A   1      35.913  32.586  33.468  1.00  0.00    -0.460 OA
BRANCH  44  45
ATOM     45  C   UNL A   1      35.438  32.094  32.304  1.00  0.00     0.338 C 
ATOM     46  O   UNL A   1      34.377  32.359  31.764  1.00  0.00    -0.246 OA
BRANCH  45  47
ATOM     47  C   UNL A   1      36.541  31.351  31.658  1.00  0.00     0.060 A 
ATOM     48  C   UNL A   1      37.470  30.693  32.476  1.00  0.00     0.016 A 
ATOM     49  C   UNL A   1      36.602  31.214  30.266  1.00  0.00     0.016 A 
ATOM     50  C   UNL A   1      38.485  29.927  31.903  1.00  0.00     0.010 A 
ATOM     51  C   UNL A   1      37.624  30.457  29.692  1.00  0.00     0.010 A 
ATOM     52  C   UNL A   1      38.592  29.845  30.507  1.00  0.00    -0.014 A 
BRANCH  52  53
ATOM     53  C   UNL A   1      39.858  29.372  29.899  1.00  0.00     0.031 A 
ATOM     54  C   UNL A   1      40.979  30.370  29.786  1.00  0.00     0.074 A 
ATOM     55  C   UNL A   1      40.026  28.110  29.467  1.00  0.00     0.049 A 
ATOM     56  N   UNL A   1      42.174  30.229  29.276  1.00  0.00    -0.248 NA
ATOM     57  C   UNL A   1      40.706  31.715  30.322  1.00  0.00     0.031 C 
ATOM     58  C   UNL A   1      39.030  27.044  29.541  1.00  0.00     0.029 A 
ATOM     59  N   UNL A   1      41.111  27.519  28.868  1.00  0.00    -0.354 N 
ATOM     60  C   UNL A   1      42.791  31.463  29.430  1.00  0.00     0.074 A 
ATOM     61  C   UNL A   1      41.831  32.351  30.044  1.00  0.00     0.031 C 
ATOM     62  C   UNL A   1      39.550  25.927  28.999  1.00  0.00     0.029 A 
ATOM     63  C   UNL A   1      40.903  26.207  28.519  1.00  0.00     0.049 A 
ATOM     64  H   UNL A   1      41.959  27.992  28.704  1.00  0.00     0.167 HD
ATOM     65  C   UNL A   1      44.053  31.827  29.101  1.00  0.00     0.037 A 
ATOM     66  C   UNL A   1      41.712  25.345  27.873  1.00  0.00     0.037 A 
ATOM     67  C   UNL A   1      45.005  30.952  28.478  1.00  0.00     0.049 A 
ATOM     68  C   UNL A   1      43.088  25.794  27.447  1.00  0.00     0.074 A 
ATOM     69  C   UNL A   1      46.311  31.221  28.112  1.00  0.00     0.029 A 
ATOM     70  N   UNL A   1      44.747  29.639  28.115  1.00  0.00    -0.354 N 
ATOM     71  N   UNL A   1      43.679  26.951  27.632  1.00  0.00    -0.248 NA
ATOM     72  C   UNL A   1      43.911  24.814  26.721  1.00  0.00     0.031 C 
ATOM     73  C   UNL A   1      46.829  30.083  27.484  1.00  0.00     0.029 A 
ATOM     74  C   UNL A   1      45.863  29.090  27.509  1.00  0.00     0.049 A 
ATOM     75  H   UNL A   1      43.895  29.168  28.267  1.00  0.00     0.167 HD
ATOM     76  C   UNL A   1      44.949  26.825  27.080  1.00  0.00     0.074 A 
ATOM     77  C   UNL A   1      45.048  25.477  26.561  1.00  0.00     0.031 C 
ATOM     78  C   UNL A   1      45.947  27.741  27.012  1.00  0.00     0.037 A 
BRANCH  65  79
ATOM     79  C   UNL A   1      44.451  33.242  29.392  1.00  0.00     0.057 A 
ATOM     80  C   UNL A   1      44.219  34.277  28.476  1.00  0.00     0.134 A 
ATOM     81  C   UNL A   1      45.078  33.573  30.598  1.00  0.00     0.134 A 
ATOM     82  F   UNL A   1      43.646  34.021  27.290  1.00  0.00    -0.206 F 
ATOM     83  C   UNL A   1      44.619  35.587  28.740  1.00  0.00     0.040 A 
ATOM     84  C   UNL A   1      45.458  34.884  30.886  1.00  0.00     0.040 A 
ATOM     85  F   UNL A   1      45.332  32.627  31.515  1.00  0.00    -0.206 F 
ATOM     86  C   UNL A   1      45.236  35.894  29.952  1.00  0.00     0.006 A 
ENDBRANCH  65  79
BRANCH  66  87
ATOM     87  C   UNL A   1      41.256  23.961  27.579  1.00  0.00     0.057 A 
ATOM     88  C   UNL A   1      40.212  23.718  26.679  1.00  0.00     0.134 A 
ATOM     89  C   UNL A   1      41.821  22.854  28.223  1.00  0.00     0.134 A 
ATOM     90  F   UNL A   1      39.610  24.739  26.051  1.00  0.00    -0.206 F 
ATOM     91  C   UNL A   1      39.731  22.427  26.445  1.00  0.00     0.040 A 
ATOM     92  C   UNL A   1      41.367  21.556  27.981  1.00  0.00     0.040 A 
ATOM     93  F   UNL A   1      42.822  23.019  29.098  1.00  0.00    -0.206 F 
ATOM     94  C   UNL A   1      40.312  21.341  27.095  1.00  0.00     0.006 A 
ENDBRANCH  66  87
BRANCH  78  95
ATOM     95  C   UNL A   1      47.247  27.306  26.397  1.00  0.00     0.057 A 
ATOM     96  C   UNL A   1      47.519  27.478  25.034  1.00  0.00     0.134 A 
ATOM     97  C   UNL A   1      48.258  26.753  27.195  1.00  0.00     0.134 A 
ATOM     98  F   UNL A   1      46.589  27.992  24.215  1.00  0.00    -0.206 F 
ATOM     99  C   UNL A   1      48.741  27.092  24.482  1.00  0.00     0.040 A 
ATOM    100  C   UNL A   1      49.494  26.390  26.659  1.00  0.00     0.040 A 
ATOM    101  F   UNL A   1      48.067  26.573  28.510  1.00  0.00    -0.206 F 
ATOM    102  C   UNL A   1      49.736  26.553  25.296  1.00  0.00     0.006 A 
ENDBRANCH  78  95
ENDBRANCH  52  53
ENDBRANCH  45  47
ENDBRANCH  44  45
ENDBRANCH  43  44
ENDBRANCH  42  43
ENDBRANCH  41  42
ENDBRANCH  40  41
ENDBRANCH  39  40
ENDBRANCH  38  39
ENDBRANCH  37  38
ENDBRANCH   1  37
TORSDOF 25
ENDMDL
MODEL 3
REMARK VINA RESULT:     -11.1      1.313      2.404
REMARK SMILES O=C(OCCOCCOCCOCCOC(=O)c1ccc(-c2c3nc(c(-c4c(F)cccc4F)c4ccc([nH]4)c(-c4c(F)cccc4F)c4nc(c(-c5c(F)cccc5F)c5ccc2[nH]5)C=C4)C=C3)cc1)c1ccc(NC(=O)[C@@H]2CC=CC[C@H]2C(=O)Nc2cccc([N+](=O)[O-])c2)cc1
REMARK SMILES IDX 7 1 6 2 5 3 4 4 3 5 2 6 1 7 72 8 73 9 98 10 74 11 97 12
REMARK SMILES IDX 75 13 76 14 77 15 78 17 79 18 80 19 84 20 81 21 83 22 82 23
REMARK SMILES IDX 85 24 86 25 87 26 88 28 89 29 96 30 90 31 92 32 91 33 93 34
REMARK SMILES IDX 94 35 95 36 8 37 9 38 10 39 11 40 12 41 13 42 14 43 15 44
REMARK SMILES IDX 16 45 17 46 18 47 19 48 71 49 20 50 70 51 21 52 22 53 23 54
REMARK SMILES IDX 64 55 24 56 69 57 63 58 65 59 25 60 68 61 62 62 61 63 26 65
REMARK SMILES IDX 52 66 35 67 51 68 36 69 39 70 50 71 66 72 37 73 38 74 49 76
REMARK SMILES IDX 67 77 40 78 27 79 28 80 33 81 29 82 30 83 32 84 34 85 31 86
REMARK SMILES IDX 53 87 54 88 59 89 55 90 56 91 58 92 60 93 57 94 41 95 42 96
REMARK SMILES IDX 47 97 43 98 44 99 46 100 48 101 45 102
REMARK H PARENT 76 16 87 27 65 64 39 75
REMARK Flexibility Score: inf
ROOT
ATOM      1  C   UNL A   1      35.796  29.953  27.967  1.00  0.00     0.188 C 
ENDROOT
BRANCH   1   2
ATOM      2  O   UNL A   1      34.689  29.116  27.618  1.00  0.00    -0.376 OA
BRANCH   2   3
ATOM      3  C   UNL A   1      34.370  29.139  26.224  1.00  0.00     0.202 C 
BRANCH   3   4
ATOM      4  C   UNL A   1      32.895  29.428  25.896  1.00  0.00     0.261 C 
BRANCH   4   5
ATOM      5  O   UNL A   1      32.100  28.238  25.726  1.00  0.00    -0.460 OA
BRANCH   5   6
ATOM      6  C   UNL A   1      31.553  27.433  26.675  1.00  0.00     0.338 C 
ATOM      7  O   UNL A   1      31.128  27.949  27.707  1.00  0.00    -0.246 OA
BRANCH   6   8
ATOM      8  C   UNL A   1      31.470  25.942  26.560  1.00  0.00     0.060 A 
ATOM      9  C   UNL A   1      30.347  25.257  26.132  1.00  0.00     0.018 A 
ATOM     10  C   UNL A   1      32.616  25.171  26.817  1.00  0.00     0.018 A 
ATOM     11  C   UNL A   1      30.336  23.884  25.963  1.00  0.00     0.027 A 
ATOM     12  C   UNL A   1      32.616  23.776  26.612  1.00  0.00     0.027 A 
ATOM     13  C   UNL A   1      31.472  23.129  26.137  1.00  0.00     0.041 A 
BRANCH  13  14
ATOM     14  N   UNL A   1      31.523  21.763  25.848  1.00  0.00    -0.326 N 
ATOM     15  C   UNL A   1      32.374  20.980  25.135  1.00  0.00     0.228 C 
ATOM     16  H   UNL A   1      30.779  21.258  26.250  1.00  0.00     0.169 HD
ATOM     17  O   UNL A   1      32.029  19.796  25.000  1.00  0.00    -0.274 OA
BRANCH  15  18
ATOM     18  C   UNL A   1      33.711  21.405  24.517  1.00  0.00     0.095 C 
ATOM     19  C   UNL A   1      34.966  21.117  25.360  1.00  0.00     0.041 C 
ATOM     20  C   UNL A   1      33.640  22.740  23.746  1.00  0.00     0.095 C 
ATOM     21  C   UNL A   1      36.209  21.773  24.842  1.00  0.00    -0.030 C 
ATOM     22  C   UNL A   1      34.970  23.500  23.531  1.00  0.00     0.041 C 
ATOM     23  C   UNL A   1      36.211  22.830  24.025  1.00  0.00    -0.030 C 
BRANCH  20  24
ATOM     24  C   UNL A   1      32.844  22.666  22.428  1.00  0.00     0.228 C 
ATOM     25  O   UNL A   1      32.620  21.553  21.935  1.00  0.00    -0.274 OA
ATOM     26  N   UNL A   1      32.230  23.739  21.838  1.00  0.00    -0.326 N 
ATOM     27  H   UNL A   1      31.651  23.514  21.074  1.00  0.00     0.169 HD
BRANCH  26  28
ATOM     28  C   UNL A   1      32.290  25.102  22.147  1.00  0.00     0.048 A 
ATOM     29  C   UNL A   1      33.533  25.734  22.151  1.00  0.00     0.026 A 
ATOM     30  C   UNL A   1      31.158  25.828  22.493  1.00  0.00     0.111 A 
ATOM     31  C   UNL A   1      33.615  27.119  22.337  1.00  0.00     0.009 A 
ATOM     32  C   UNL A   1      31.225  27.219  22.609  1.00  0.00     0.271 A 
ATOM     33  C   UNL A   1      32.455  27.873  22.527  1.00  0.00     0.086 A 
BRANCH  32  34
ATOM     34  N   UNL A   1      29.985  27.986  22.765  1.00  0.00     0.062 N 
ATOM     35  O   UNL A   1      29.280  27.746  23.755  1.00  0.00    -0.258 OA
ATOM     36  O   UNL A   1      29.727  28.850  21.914  1.00  0.00    -0.258 OA
ENDBRANCH  32  34
ENDBRANCH  26  28
ENDBRANCH  20  24
ENDBRANCH  15  18
ENDBRANCH  13  14
ENDBRANCH   6   8
ENDBRANCH   5   6
ENDBRANCH   4   5
ENDBRANCH   3   4
ENDBRANCH   2   3
ENDBRANCH   1   2
BRANCH   1  37
ATOM     37  C   UNL A   1      35.491  31.440  27.801  1.00  0.00     0.188 C 
BRANCH  37  38
ATOM     38  O   UNL A   1      34.281  31.896  28.396  1.00  0.00    -0.377 OA
BRANCH  38  39
ATOM     39  C   UNL A   1      33.872  33.228  28.113  1.00  0.00     0.188 C 
BRANCH  39  40
ATOM     40  C   UNL A   1      34.288  34.368  29.066  1.00  0.00     0.188 C 
BRANCH  40  41
ATOM     41  O   UNL A   1      33.653  34.370  30.337  1.00  0.00    -0.376 OA
BRANCH  41  42
ATOM     42  C   UNL A   1      34.316  33.648  31.372  1.00  0.00     0.202 C 
BRANCH  42  43
ATOM     43  C   UNL A   1      35.200  34.512  32.280  1.00  0.00     0.261 C 
BRANCH  43  44
ATOM     44  O   UNL A   1      36.551  34.043  32.413  1.00  0.00    -0.460 OA
BRANCH  44  45
ATOM     45  C   UNL A   1      36.750  32.871  33.054  1.00  0.00     0.338 C 
ATOM     46  O   UNL A   1      36.138  32.437  34.015  1.00  0.00    -0.246 OA
BRANCH  45  47
ATOM     47  C   UNL A   1      37.692  32.078  32.236  1.00  0.00     0.060 A 
ATOM     48  C   UNL A   1      38.554  31.185  32.888  1.00  0.00     0.016 A 
ATOM     49  C   UNL A   1      37.655  32.132  30.837  1.00  0.00     0.016 A 
ATOM     50  C   UNL A   1      39.409  30.372  32.144  1.00  0.00     0.010 A 
ATOM     51  C   UNL A   1      38.518  31.326  30.093  1.00  0.00     0.010 A 
ATOM     52  C   UNL A   1      39.426  30.473  30.746  1.00  0.00    -0.014 A 
BRANCH  52  53
ATOM     53  C   UNL A   1      40.570  29.916  29.987  1.00  0.00     0.031 A 
ATOM     54  C   UNL A   1      41.731  30.838  29.723  1.00  0.00     0.074 A 
ATOM     55  C   UNL A   1      40.599  28.645  29.551  1.00  0.00     0.049 A 
ATOM     56  N   UNL A   1      42.839  30.616  29.068  1.00  0.00    -0.248 NA
ATOM     57  C   UNL A   1      41.617  32.199  30.275  1.00  0.00     0.031 C 
ATOM     58  C   UNL A   1      39.553  27.647  29.762  1.00  0.00     0.029 A 
ATOM     59  N   UNL A   1      41.558  27.982  28.826  1.00  0.00    -0.354 N 
ATOM     60  C   UNL A   1      43.551  31.807  29.129  1.00  0.00     0.074 A 
ATOM     61  C   UNL A   1      42.737  32.758  29.849  1.00  0.00     0.031 C 
ATOM     62  C   UNL A   1      39.925  26.497  29.170  1.00  0.00     0.029 A 
ATOM     63  C   UNL A   1      41.222  26.686  28.519  1.00  0.00     0.049 A 
ATOM     64  H   UNL A   1      42.407  28.397  28.551  1.00  0.00     0.167 HD
ATOM     65  C   UNL A   1      44.781  32.085  28.639  1.00  0.00     0.037 A 
ATOM     66  C   UNL A   1      41.884  25.770  27.786  1.00  0.00     0.037 A 
ATOM     67  C   UNL A   1      45.588  31.148  27.910  1.00  0.00     0.049 A 
ATOM     68  C   UNL A   1      43.221  26.126  27.184  1.00  0.00     0.074 A 
ATOM     69  C   UNL A   1      46.852  31.329  27.379  1.00  0.00     0.029 A 
ATOM     70  N   UNL A   1      45.200  29.854  27.597  1.00  0.00    -0.354 N 
ATOM     71  N   UNL A   1      43.905  27.241  27.281  1.00  0.00    -0.248 NA
ATOM     72  C   UNL A   1      43.879  25.092  26.371  1.00  0.00     0.031 C 
ATOM     73  C   UNL A   1      47.210  30.157  26.703  1.00  0.00     0.029 A 
ATOM     74  C   UNL A   1      46.191  29.231  26.860  1.00  0.00     0.049 A 
ATOM     75  H   UNL A   1      44.346  29.441  27.860  1.00  0.00     0.167 HD
ATOM     76  C   UNL A   1      45.084  27.031  26.574  1.00  0.00     0.074 A 
ATOM     77  C   UNL A   1      45.027  25.678  26.061  1.00  0.00     0.031 C 
ATOM     78  C   UNL A   1      46.124  27.878  26.371  1.00  0.00     0.037 A 
BRANCH  65  79
ATOM     79  C   UNL A   1      45.305  33.471  28.862  1.00  0.00     0.057 A 
ATOM     80  C   UNL A   1      45.047  34.512  27.960  1.00  0.00     0.134 A 
ATOM     81  C   UNL A   1      46.082  33.768  29.988  1.00  0.00     0.134 A 
ATOM     82  F   UNL A   1      44.332  34.287  26.847  1.00  0.00    -0.206 F 
ATOM     83  C   UNL A   1      45.563  35.793  28.158  1.00  0.00     0.040 A 
ATOM     84  C   UNL A   1      46.580  35.052  30.212  1.00  0.00     0.040 A 
ATOM     85  F   UNL A   1      46.368  32.815  30.888  1.00  0.00    -0.206 F 
ATOM     86  C   UNL A   1      46.327  36.066  29.292  1.00  0.00     0.006 A 
ENDBRANCH  65  79
BRANCH  66  87
ATOM     87  C   UNL A   1      41.304  24.419  27.566  1.00  0.00     0.057 A 
ATOM     88  C   UNL A   1      40.237  24.223  26.682  1.00  0.00     0.134 A 
ATOM     89  C   UNL A   1      41.772  23.302  28.268  1.00  0.00     0.134 A 
ATOM     90  F   UNL A   1      39.725  25.259  26.002  1.00  0.00    -0.206 F 
ATOM     91  C   UNL A   1      39.641  22.970  26.518  1.00  0.00     0.040 A 
ATOM     92  C   UNL A   1      41.203  22.039  28.096  1.00  0.00     0.040 A 
ATOM     93  F   UNL A   1      42.790  23.422  29.132  1.00  0.00    -0.206 F 
ATOM     94  C   UNL A   1      40.128  21.872  27.225  1.00  0.00     0.006 A 
ENDBRANCH  66  87
BRANCH  78  95
ATOM     95  C   UNL A   1      47.303  27.357  25.601  1.00  0.00     0.057 A 
ATOM     96  C   UNL A   1      48.320  26.614  26.213  1.00  0.00     0.134 A 
ATOM     97  C   UNL A   1      47.394  27.562  24.218  1.00  0.00     0.134 A 
ATOM     98  F   UNL A   1      48.298  26.390  27.536  1.00  0.00    -0.206 F 
ATOM     99  C   UNL A   1      49.398  26.114  25.480  1.00  0.00     0.040 A 
ATOM    100  C   UNL A   1      48.452  27.043  23.470  1.00  0.00     0.040 A 
ATOM    101  F   UNL A   1      46.447  28.254  23.568  1.00  0.00    -0.206 F 
ATOM    102  C   UNL A   1      49.463  26.322  24.103  1.00  0.00     0.006 A 
ENDBRANCH  78  95
ENDBRANCH  52  53
ENDBRANCH  45  47
ENDBRANCH  44  45
ENDBRANCH  43  44
ENDBRANCH  42  43
ENDBRANCH  41  42
ENDBRANCH  40  41
ENDBRANCH  39  40
ENDBRANCH  38  39
ENDBRANCH  37  38
ENDBRANCH   1  37
TORSDOF 25
ENDMDL
