MODEL 1
REMARK VINA RESULT:      -8.5      0.000      0.000
REMARK SMILES CC[C@H]1CCC[C@H]([N@H+]2[C@@H](C(=O)OCCOCCOCCOCCOC(=O)c3ccc(-c4c5nc(c(-c6c(F)cccc6F)c6ccc([nH]6)c(-c6c(F)cccc6F)c6nc(c(-c7c(F)cccc7F)c7ccc4[nH]7)C=C6)C=C5)cc3)CC[C@@H]3CCCC[C@H]32)C1
REMARK SMILES IDX 18 1 17 2 16 3 15 4 14 5 13 6 12 7 10 8 11 9 9 10 8 11 88 12
REMARK SMILES IDX 81 14 83 15 87 16 82 17 84 18 86 19 85 20 7 21 3 22 4 23
REMARK SMILES IDX 89 24 5 25 6 26 2 27 1 28 19 29 20 30 21 31 22 32 23 33
REMARK SMILES IDX 24 34 25 35 26 36 27 37 28 38 80 39 29 40 79 41 30 42 31 43
REMARK SMILES IDX 32 44 73 45 33 46 78 47 72 48 74 49 34 50 77 51 71 52 70 53
REMARK SMILES IDX 35 55 61 56 44 57 60 58 45 59 48 60 59 61 75 62 46 63 47 64
REMARK SMILES IDX 58 66 76 67 49 68 36 69 37 70 42 71 38 72 39 73 41 74 43 75
REMARK SMILES IDX 40 76 62 77 63 78 68 79 64 80 65 81 67 82 69 83 66 84 50 85
REMARK SMILES IDX 51 86 56 87 52 88 53 89 55 90 57 91 54 92
REMARK H PARENT 8 13 74 54 48 65
REMARK Flexibility Score: inf
ROOT
ATOM      1  O   UNL A   1      32.129  36.476  31.529  1.00  0.00    -0.377 OA
ENDROOT
BRANCH   1   2
ATOM      2  C   UNL A   1      32.690  36.749  32.806  1.00  0.00     0.188 C 
BRANCH   2   3
ATOM      3  C   UNL A   1      34.207  36.592  32.803  1.00  0.00     0.188 C 
BRANCH   3   4
ATOM      4  O   UNL A   1      34.787  35.885  33.895  1.00  0.00    -0.376 OA
BRANCH   4   5
ATOM      5  C   UNL A   1      35.266  34.566  33.671  1.00  0.00     0.202 C 
BRANCH   5   6
ATOM      6  C   UNL A   1      36.760  34.275  33.845  1.00  0.00     0.261 C 
BRANCH   6   7
ATOM      7  O   UNL A   1      37.141  33.305  34.836  1.00  0.00    -0.459 OA
BRANCH   7   8
ATOM      8  C   UNL A   1      38.437  33.338  35.245  1.00  0.00     0.365 C 
ATOM      9  O   UNL A   1      38.773  33.332  36.431  1.00  0.00    -0.245 OA
BRANCH   8  10
ATOM     10  C   UNL A   1      39.451  33.693  34.159  1.00  0.00     0.295 C 
ATOM     11  N   UNL A   1      39.837  32.704  33.097  1.00  0.00    -0.318 N 
ATOM     12  C   UNL A   1      40.095  33.650  31.943  1.00  0.00     0.188 C 
ATOM     13  H   UNL A   1      39.127  31.999  32.899  1.00  0.00     0.349 HD
ATOM     14  C   UNL A   1      40.574  34.723  34.464  1.00  0.00     0.078 C 
ATOM     15  C   UNL A   1      41.513  34.175  31.968  1.00  0.00     0.048 C 
ATOM     16  C   UNL A   1      39.337  33.463  30.630  1.00  0.00     0.065 C 
ATOM     17  C   UNL A   1      41.613  35.031  33.287  1.00  0.00     0.016 C 
ATOM     18  C   UNL A   1      42.014  34.883  30.699  1.00  0.00     0.010 C 
ATOM     19  C   UNL A   1      39.733  34.610  29.687  1.00  0.00     0.006 C 
ATOM     20  C   UNL A   1      41.228  34.529  29.434  1.00  0.00     0.001 C 
BRANCH  11  21
ATOM     21  C   UNL A   1      40.962  31.685  33.459  1.00  0.00     0.185 C 
ATOM     22  C   UNL A   1      41.154  29.321  34.748  1.00  0.00    -0.006 C 
ATOM     23  C   UNL A   1      41.870  30.093  35.850  1.00  0.00     0.004 C 
ATOM     24  C   UNL A   1      40.387  30.265  33.783  1.00  0.00     0.068 C 
ATOM     25  C   UNL A   1      42.872  31.016  35.217  1.00  0.00     0.006 C 
ATOM     26  C   UNL A   1      42.131  32.081  34.435  1.00  0.00     0.065 C 
BRANCH  22  27
ATOM     27  C   UNL A   1      42.109  28.281  34.128  1.00  0.00     0.000 C 
ATOM     28  C   UNL A   1      42.384  28.512  32.653  1.00  0.00     0.004 C 
ENDBRANCH  22  27
ENDBRANCH  11  21
ENDBRANCH   8  10
ENDBRANCH   7   8
ENDBRANCH   6   7
ENDBRANCH   5   6
ENDBRANCH   4   5
ENDBRANCH   3   4
ENDBRANCH   2   3
ENDBRANCH   1   2
BRANCH   1  29
ATOM     29  C   UNL A   1      33.064  36.494  30.465  1.00  0.00     0.188 C 
BRANCH  29  30
ATOM     30  C   UNL A   1      33.058  35.323  29.484  1.00  0.00     0.188 C 
BRANCH  30  31
ATOM     31  O   UNL A   1      34.242  35.013  28.761  1.00  0.00    -0.376 OA
BRANCH  31  32
ATOM     32  C   UNL A   1      34.536  33.620  28.648  1.00  0.00     0.202 C 
BRANCH  32  33
ATOM     33  C   UNL A   1      34.576  32.853  29.978  1.00  0.00     0.261 C 
BRANCH  33  34
ATOM     34  O   UNL A   1      35.168  31.549  29.805  1.00  0.00    -0.460 OA
BRANCH  34  35
ATOM     35  C   UNL A   1      35.985  31.158  30.825  1.00  0.00     0.338 C 
ATOM     36  O   UNL A   1      35.808  31.302  32.002  1.00  0.00    -0.246 OA
BRANCH  35  37
ATOM     37  C   UNL A   1      37.043  30.268  30.272  1.00  0.00     0.060 A 
ATOM     38  C   UNL A   1      37.779  29.517  31.199  1.00  0.00     0.016 A 
ATOM     39  C   UNL A   1      37.316  30.173  28.907  1.00  0.00     0.016 A 
ATOM     40  C   UNL A   1      38.844  28.727  30.775  1.00  0.00     0.010 A 
ATOM     41  C   UNL A   1      38.404  29.401  28.481  1.00  0.00     0.010 A 
ATOM     42  C   UNL A   1      39.204  28.727  29.422  1.00  0.00    -0.014 A 
BRANCH  42  43
ATOM     43  C   UNL A   1      40.583  28.304  29.076  1.00  0.00     0.031 A 
ATOM     44  C   UNL A   1      41.687  29.305  29.300  1.00  0.00     0.074 A 
ATOM     45  C   UNL A   1      40.871  27.054  28.673  1.00  0.00     0.049 A 
ATOM     46  N   UNL A   1      42.977  29.177  29.128  1.00  0.00    -0.248 NA
ATOM     47  C   UNL A   1      41.275  30.629  29.797  1.00  0.00     0.031 C 
ATOM     48  C   UNL A   1      39.903  25.977  28.486  1.00  0.00     0.029 A 
ATOM     49  N   UNL A   1      42.080  26.483  28.362  1.00  0.00    -0.354 N 
ATOM     50  C   UNL A   1      43.525  30.397  29.505  1.00  0.00     0.074 A 
ATOM     51  C   UNL A   1      42.432  31.265  29.876  1.00  0.00     0.031 C 
ATOM     52  C   UNL A   1      40.557  24.871  28.087  1.00  0.00     0.029 A 
ATOM     53  C   UNL A   1      41.984  25.170  27.972  1.00  0.00     0.049 A 
ATOM     54  H   UNL A   1      42.933  26.969  28.413  1.00  0.00     0.167 HD
ATOM     55  C   UNL A   1      44.827  30.762  29.553  1.00  0.00     0.037 A 
ATOM     56  C   UNL A   1      42.944  24.317  27.560  1.00  0.00     0.037 A 
ATOM     57  C   UNL A   1      45.917  29.910  29.172  1.00  0.00     0.049 A 
ATOM     58  C   UNL A   1      44.378  24.781  27.518  1.00  0.00     0.074 A 
ATOM     59  C   UNL A   1      47.271  30.188  29.169  1.00  0.00     0.029 A 
ATOM     60  N   UNL A   1      45.771  28.608  28.716  1.00  0.00    -0.354 N 
ATOM     61  N   UNL A   1      44.888  25.932  27.886  1.00  0.00    -0.248 NA
ATOM     62  C   UNL A   1      45.370  23.825  27.003  1.00  0.00     0.031 C 
ATOM     63  C   UNL A   1      47.943  29.069  28.667  1.00  0.00     0.029 A 
ATOM     64  C   UNL A   1      47.009  28.078  28.404  1.00  0.00     0.049 A 
ATOM     65  H   UNL A   1      44.914  28.131  28.627  1.00  0.00     0.167 HD
ATOM     66  C   UNL A   1      46.259  25.827  27.678  1.00  0.00     0.074 A 
ATOM     67  C   UNL A   1      46.502  24.499  27.158  1.00  0.00     0.031 C 
ATOM     68  C   UNL A   1      47.231  26.746  27.899  1.00  0.00     0.037 A 
BRANCH  55  69
ATOM     69  C   UNL A   1      45.126  32.160  30.006  1.00  0.00     0.057 A 
ATOM     70  C   UNL A   1      45.298  32.477  31.360  1.00  0.00     0.134 A 
ATOM     71  C   UNL A   1      45.234  33.202  29.078  1.00  0.00     0.134 A 
ATOM     72  F   UNL A   1      45.182  31.527  32.302  1.00  0.00    -0.206 F 
ATOM     73  C   UNL A   1      45.544  33.786  31.775  1.00  0.00     0.040 A 
ATOM     74  C   UNL A   1      45.505  34.510  29.479  1.00  0.00     0.040 A 
ATOM     75  F   UNL A   1      45.076  32.965  27.767  1.00  0.00    -0.206 F 
ATOM     76  C   UNL A   1      45.653  34.806  30.833  1.00  0.00     0.006 A 
ENDBRANCH  55  69
BRANCH  56  77
ATOM     77  C   UNL A   1      42.589  22.937  27.140  1.00  0.00     0.057 A 
ATOM     78  C   UNL A   1      42.225  21.963  28.076  1.00  0.00     0.134 A 
ATOM     79  C   UNL A   1      42.643  22.551  25.795  1.00  0.00     0.134 A 
ATOM     80  F   UNL A   1      42.181  22.264  29.382  1.00  0.00    -0.206 F 
ATOM     81  C   UNL A   1      41.943  20.649  27.693  1.00  0.00     0.040 A 
ATOM     82  C   UNL A   1      42.341  21.248  25.395  1.00  0.00     0.040 A 
ATOM     83  F   UNL A   1      42.991  23.436  24.849  1.00  0.00    -0.206 F 
ATOM     84  C   UNL A   1      41.997  20.290  26.347  1.00  0.00     0.006 A 
ENDBRANCH  56  77
BRANCH  68  85
ATOM     85  C   UNL A   1      48.647  26.340  27.617  1.00  0.00     0.057 A 
ATOM     86  C   UNL A   1      49.473  25.800  28.611  1.00  0.00     0.134 A 
ATOM     87  C   UNL A   1      49.169  26.434  26.321  1.00  0.00     0.134 A 
ATOM     88  F   UNL A   1      49.034  25.692  29.875  1.00  0.00    -0.206 F 
ATOM     89  C   UNL A   1      50.774  25.384  28.329  1.00  0.00     0.040 A 
ATOM     90  C   UNL A   1      50.460  25.998  26.021  1.00  0.00     0.040 A 
ATOM     91  F   UNL A   1      48.425  26.930  25.321  1.00  0.00    -0.206 F 
ATOM     92  C   UNL A   1      51.269  25.475  27.029  1.00  0.00     0.006 A 
ENDBRANCH  68  85
ENDBRANCH  42  43
ENDBRANCH  35  37
ENDBRANCH  34  35
ENDBRANCH  33  34
ENDBRANCH  32  33
ENDBRANCH  31  32
ENDBRANCH  30  31
ENDBRANCH  29  30
ENDBRANCH   1  29
TORSDOF 22
ENDMDL
MODEL 2
REMARK VINA RESULT:      -8.2      0.931      5.945
REMARK SMILES CC[C@H]1CCC[C@H]([N@H+]2[C@@H](C(=O)OCCOCCOCCOCCOC(=O)c3ccc(-c4c5nc(c(-c6c(F)cccc6F)c6ccc([nH]6)c(-c6c(F)cccc6F)c6nc(c(-c7c(F)cccc7F)c7ccc4[nH]7)C=C6)C=C5)cc3)CC[C@@H]3CCCC[C@H]32)C1
REMARK SMILES IDX 18 1 17 2 16 3 15 4 14 5 13 6 12 7 10 8 11 9 9 10 8 11 88 12
REMARK SMILES IDX 81 14 83 15 87 16 82 17 84 18 86 19 85 20 7 21 3 22 4 23
REMARK SMILES IDX 89 24 5 25 6 26 2 27 1 28 19 29 20 30 21 31 22 32 23 33
REMARK SMILES IDX 24 34 25 35 26 36 27 37 28 38 80 39 29 40 79 41 30 42 31 43
REMARK SMILES IDX 32 44 73 45 33 46 78 47 72 48 74 49 34 50 77 51 71 52 70 53
REMARK SMILES IDX 35 55 61 56 44 57 60 58 45 59 48 60 59 61 75 62 46 63 47 64
REMARK SMILES IDX 58 66 76 67 49 68 36 69 37 70 42 71 38 72 39 73 41 74 43 75
REMARK SMILES IDX 40 76 62 77 63 78 68 79 64 80 65 81 67 82 69 83 66 84 50 85
REMARK SMILES IDX 51 86 56 87 52 88 53 89 55 90 57 91 54 92
REMARK H PARENT 8 13 74 54 48 65
REMARK Flexibility Score: inf
ROOT
ATOM      1  O   UNL A   1      32.164  35.959  31.336  1.00  0.00    -0.377 OA
ENDROOT
BRANCH   1   2
ATOM      2  C   UNL A   1      32.727  36.383  32.570  1.00  0.00     0.188 C 
BRANCH   2   3
ATOM      3  C   UNL A   1      34.250  36.434  32.510  1.00  0.00     0.188 C 
BRANCH   3   4
ATOM      4  O   UNL A   1      34.957  35.327  33.062  1.00  0.00    -0.376 OA
BRANCH   4   5
ATOM      5  C   UNL A   1      35.927  34.671  32.257  1.00  0.00     0.202 C 
BRANCH   5   6
ATOM      6  C   UNL A   1      37.299  34.346  32.857  1.00  0.00     0.261 C 
BRANCH   6   7
ATOM      7  O   UNL A   1      37.343  33.429  33.963  1.00  0.00    -0.459 OA
BRANCH   7   8
ATOM      8  C   UNL A   1      38.545  33.291  34.584  1.00  0.00     0.365 C 
ATOM      9  O   UNL A   1      38.662  33.083  35.793  1.00  0.00    -0.245 OA
BRANCH   8  10
ATOM     10  C   UNL A   1      39.756  33.711  33.753  1.00  0.00     0.295 C 
ATOM     11  N   UNL A   1      40.355  32.795  32.724  1.00  0.00    -0.318 N 
ATOM     12  C   UNL A   1      40.835  33.816  31.716  1.00  0.00     0.188 C 
ATOM     13  H   UNL A   1      39.703  32.112  32.338  1.00  0.00     0.349 HD
ATOM     14  C   UNL A   1      40.788  34.708  34.350  1.00  0.00     0.078 C 
ATOM     15  C   UNL A   1      42.217  34.326  32.064  1.00  0.00     0.048 C 
ATOM     16  C   UNL A   1      40.360  33.728  30.267  1.00  0.00     0.065 C 
ATOM     17  C   UNL A   1      42.042  35.088  33.432  1.00  0.00     0.016 C 
ATOM     18  C   UNL A   1      42.960  35.117  30.975  1.00  0.00     0.010 C 
ATOM     19  C   UNL A   1      40.933  34.934  29.506  1.00  0.00     0.006 C 
ATOM     20  C   UNL A   1      42.449  34.858  29.556  1.00  0.00     0.001 C 
BRANCH  11  21
ATOM     21  C   UNL A   1      41.389  31.743  33.235  1.00  0.00     0.185 C 
ATOM     22  C   UNL A   1      41.972  29.150  32.769  1.00  0.00    -0.006 C 
ATOM     23  C   UNL A   1      41.411  28.876  34.159  1.00  0.00     0.004 C 
ATOM     24  C   UNL A   1      41.553  30.547  32.239  1.00  0.00     0.068 C 
ATOM     25  C   UNL A   1      41.951  29.909  35.107  1.00  0.00     0.006 C 
ATOM     26  C   UNL A   1      41.382  31.262  34.733  1.00  0.00     0.065 C 
BRANCH  22  27
ATOM     27  C   UNL A   1      43.469  28.784  32.724  1.00  0.00     0.000 C 
ATOM     28  C   UNL A   1      43.787  27.443  33.360  1.00  0.00     0.004 C 
ENDBRANCH  22  27
ENDBRANCH  11  21
ENDBRANCH   8  10
ENDBRANCH   7   8
ENDBRANCH   6   7
ENDBRANCH   5   6
ENDBRANCH   4   5
ENDBRANCH   3   4
ENDBRANCH   2   3
ENDBRANCH   1   2
BRANCH   1  29
ATOM     29  C   UNL A   1      32.987  36.194  30.207  1.00  0.00     0.188 C 
BRANCH  29  30
ATOM     30  C   UNL A   1      33.247  35.031  29.251  1.00  0.00     0.188 C 
BRANCH  30  31
ATOM     31  O   UNL A   1      34.506  34.931  28.602  1.00  0.00    -0.376 OA
BRANCH  31  32
ATOM     32  C   UNL A   1      34.910  33.603  28.264  1.00  0.00     0.202 C 
BRANCH  32  33
ATOM     33  C   UNL A   1      34.850  32.590  29.418  1.00  0.00     0.261 C 
BRANCH  33  34
ATOM     34  O   UNL A   1      35.624  31.412  29.112  1.00  0.00    -0.460 OA
BRANCH  34  35
ATOM     35  C   UNL A   1      36.266  30.862  30.183  1.00  0.00     0.338 C 
ATOM     36  O   UNL A   1      35.888  30.816  31.320  1.00  0.00    -0.246 OA
BRANCH  35  37
ATOM     37  C   UNL A   1      37.426  30.073  29.687  1.00  0.00     0.060 A 
ATOM     38  C   UNL A   1      38.152  29.352  30.647  1.00  0.00     0.016 A 
ATOM     39  C   UNL A   1      37.803  30.040  28.343  1.00  0.00     0.016 A 
ATOM     40  C   UNL A   1      39.302  28.659  30.282  1.00  0.00     0.010 A 
ATOM     41  C   UNL A   1      38.976  29.366  27.979  1.00  0.00     0.010 A 
ATOM     42  C   UNL A   1      39.757  28.727  28.960  1.00  0.00    -0.014 A 
BRANCH  42  43
ATOM     43  C   UNL A   1      41.185  28.420  28.705  1.00  0.00     0.031 A 
ATOM     44  C   UNL A   1      41.528  27.002  28.327  1.00  0.00     0.074 A 
ATOM     45  C   UNL A   1      42.135  29.370  28.708  1.00  0.00     0.049 A 
ATOM     46  N   UNL A   1      42.683  26.479  28.006  1.00  0.00    -0.248 NA
ATOM     47  C   UNL A   1      40.407  26.047  28.297  1.00  0.00     0.031 C 
ATOM     48  C   UNL A   1      41.921  30.787  28.988  1.00  0.00     0.029 A 
ATOM     49  N   UNL A   1      43.480  29.275  28.449  1.00  0.00    -0.354 N 
ATOM     50  C   UNL A   1      42.423  25.143  27.729  1.00  0.00     0.074 A 
ATOM     51  C   UNL A   1      41.013  24.922  27.956  1.00  0.00     0.031 C 
ATOM     52  C   UNL A   1      43.097  31.432  28.890  1.00  0.00     0.029 A 
ATOM     53  C   UNL A   1      44.148  30.470  28.560  1.00  0.00     0.049 A 
ATOM     54  H   UNL A   1      43.924  28.431  28.207  1.00  0.00     0.167 HD
ATOM     55  C   UNL A   1      43.278  24.182  27.307  1.00  0.00     0.037 A 
ATOM     56  C   UNL A   1      45.460  30.744  28.420  1.00  0.00     0.037 A 
ATOM     57  C   UNL A   1      44.681  24.392  27.094  1.00  0.00     0.049 A 
ATOM     58  C   UNL A   1      46.414  29.634  28.055  1.00  0.00     0.074 A 
ATOM     59  C   UNL A   1      45.638  23.483  26.683  1.00  0.00     0.029 A 
ATOM     60  N   UNL A   1      45.331  25.602  27.286  1.00  0.00    -0.354 N 
ATOM     61  N   UNL A   1      46.158  28.377  27.785  1.00  0.00    -0.248 NA
ATOM     62  C   UNL A   1      47.840  29.983  27.977  1.00  0.00     0.031 C 
ATOM     63  C   UNL A   1      46.876  24.131  26.670  1.00  0.00     0.029 A 
ATOM     64  C   UNL A   1      46.681  25.457  27.026  1.00  0.00     0.049 A 
ATOM     65  H   UNL A   1      44.896  26.441  27.565  1.00  0.00     0.167 HD
ATOM     66  C   UNL A   1      47.381  27.794  27.474  1.00  0.00     0.074 A 
ATOM     67  C   UNL A   1      48.379  28.837  27.583  1.00  0.00     0.031 C 
ATOM     68  C   UNL A   1      47.657  26.513  27.128  1.00  0.00     0.037 A 
BRANCH  55  69
ATOM     69  C   UNL A   1      42.708  22.813  27.085  1.00  0.00     0.057 A 
ATOM     70  C   UNL A   1      42.414  21.954  28.151  1.00  0.00     0.134 A 
ATOM     71  C   UNL A   1      42.458  22.348  25.789  1.00  0.00     0.134 A 
ATOM     72  F   UNL A   1      42.654  22.331  29.417  1.00  0.00    -0.206 F 
ATOM     73  C   UNL A   1      41.913  20.669  27.934  1.00  0.00     0.040 A 
ATOM     74  C   UNL A   1      41.934  21.075  25.560  1.00  0.00     0.040 A 
ATOM     75  F   UNL A   1      42.722  23.120  24.725  1.00  0.00    -0.206 F 
ATOM     76  C   UNL A   1      41.667  20.229  26.635  1.00  0.00     0.006 A 
ENDBRANCH  55  69
BRANCH  56  77
ATOM     77  C   UNL A   1      45.964  32.125  28.636  1.00  0.00     0.057 A 
ATOM     78  C   UNL A   1      46.381  32.559  29.899  1.00  0.00     0.134 A 
ATOM     79  C   UNL A   1      46.004  33.055  27.589  1.00  0.00     0.134 A 
ATOM     80  F   UNL A   1      46.341  31.723  30.947  1.00  0.00    -0.206 F 
ATOM     81  C   UNL A   1      46.804  33.871  30.120  1.00  0.00     0.040 A 
ATOM     82  C   UNL A   1      46.447  34.364  27.790  1.00  0.00     0.040 A 
ATOM     83  F   UNL A   1      45.612  32.704  26.356  1.00  0.00    -0.206 F 
ATOM     84  C   UNL A   1      46.842  34.777  29.061  1.00  0.00     0.006 A 
ENDBRANCH  56  77
BRANCH  68  85
ATOM     85  C   UNL A   1      49.081  26.172  26.804  1.00  0.00     0.057 A 
ATOM     86  C   UNL A   1      49.640  26.444  25.549  1.00  0.00     0.134 A 
ATOM     87  C   UNL A   1      49.920  25.622  27.782  1.00  0.00     0.134 A 
ATOM     88  F   UNL A   1      48.886  26.963  24.568  1.00  0.00    -0.206 F 
ATOM     89  C   UNL A   1      50.978  26.163  25.272  1.00  0.00     0.040 A 
ATOM     90  C   UNL A   1      51.266  25.360  27.525  1.00  0.00     0.040 A 
ATOM     91  F   UNL A   1      49.450  25.349  29.008  1.00  0.00    -0.206 F 
ATOM     92  C   UNL A   1      51.798  25.627  26.264  1.00  0.00     0.006 A 
ENDBRANCH  68  85
ENDBRANCH  42  43
ENDBRANCH  35  37
ENDBRANCH  34  35
ENDBRANCH  33  34
ENDBRANCH  32  33
ENDBRANCH  31  32
ENDBRANCH  30  31
ENDBRANCH  29  30
ENDBRANCH   1  29
TORSDOF 22
ENDMDL
MODEL 3
REMARK VINA RESULT:      -8.1      3.986      7.436
REMARK SMILES CC[C@H]1CCC[C@H]([N@H+]2[C@@H](C(=O)OCCOCCOCCOCCOC(=O)c3ccc(-c4c5nc(c(-c6c(F)cccc6F)c6ccc([nH]6)c(-c6c(F)cccc6F)c6nc(c(-c7c(F)cccc7F)c7ccc4[nH]7)C=C6)C=C5)cc3)CC[C@@H]3CCCC[C@H]32)C1
REMARK SMILES IDX 18 1 17 2 16 3 15 4 14 5 13 6 12 7 10 8 11 9 9 10 8 11 88 12
REMARK SMILES IDX 81 14 83 15 87 16 82 17 84 18 86 19 85 20 7 21 3 22 4 23
REMARK SMILES IDX 89 24 5 25 6 26 2 27 1 28 19 29 20 30 21 31 22 32 23 33
REMARK SMILES IDX 24 34 25 35 26 36 27 37 28 38 80 39 29 40 79 41 30 42 31 43
REMARK SMILES IDX 32 44 73 45 33 46 78 47 72 48 74 49 34 50 77 51 71 52 70 53
REMARK SMILES IDX 35 55 61 56 44 57 60 58 45 59 48 60 59 61 75 62 46 63 47 64
REMARK SMILES IDX 58 66 76 67 49 68 36 69 37 70 42 71 38 72 39 73 41 74 43 75
REMARK SMILES IDX 40 76 62 77 63 78 68 79 64 80 65 81 67 82 69 83 66 84 50 85
REMARK SMILES IDX 51 86 56 87 52 88 53 89 55 90 57 91 54 92
REMARK H PARENT 8 13 74 54 48 65
REMARK Flexibility Score: inf
ROOT
ATOM      1  O   UNL A   1      33.474  35.204  28.569  1.00  0.00    -0.377 OA
ENDROOT
BRANCH   1   2
ATOM      2  C   UNL A   1      34.360  34.246  29.133  1.00  0.00     0.188 C 
BRANCH   2   3
ATOM      3  C   UNL A   1      35.347  33.711  28.100  1.00  0.00     0.188 C 
BRANCH   3   4
ATOM      4  O   UNL A   1      34.943  32.570  27.348  1.00  0.00    -0.376 OA
BRANCH   4   5
ATOM      5  C   UNL A   1      34.751  31.340  28.033  1.00  0.00     0.202 C 
BRANCH   5   6
ATOM      6  C   UNL A   1      35.526  30.101  27.575  1.00  0.00     0.261 C 
BRANCH   6   7
ATOM      7  O   UNL A   1      34.819  28.849  27.536  1.00  0.00    -0.459 OA
BRANCH   7   8
ATOM      8  C   UNL A   1      34.052  28.624  26.436  1.00  0.00     0.365 C 
ATOM      9  O   UNL A   1      33.501  29.525  25.800  1.00  0.00    -0.245 OA
BRANCH   8  10
ATOM     10  C   UNL A   1      33.657  27.166  26.207  1.00  0.00     0.295 C 
ATOM     11  N   UNL A   1      33.880  26.495  24.882  1.00  0.00    -0.318 N 
ATOM     12  C   UNL A   1      34.147  25.081  25.349  1.00  0.00     0.188 C 
ATOM     13  H   UNL A   1      34.638  26.895  24.329  1.00  0.00     0.349 HD
ATOM     14  C   UNL A   1      32.467  26.559  27.001  1.00  0.00     0.078 C 
ATOM     15  C   UNL A   1      32.860  24.305  25.525  1.00  0.00     0.048 C 
ATOM     16  C   UNL A   1      35.447  24.386  24.948  1.00  0.00     0.065 C 
ATOM     17  C   UNL A   1      32.097  25.033  26.695  1.00  0.00     0.016 C 
ATOM     18  C   UNL A   1      32.982  22.781  25.683  1.00  0.00     0.010 C 
ATOM     19  C   UNL A   1      35.482  23.011  25.635  1.00  0.00     0.006 C 
ATOM     20  C   UNL A   1      34.293  22.201  25.147  1.00  0.00     0.001 C 
BRANCH  11  21
ATOM     21  C   UNL A   1      32.778  26.700  23.795  1.00  0.00     0.185 C 
ATOM     22  C   UNL A   1      30.128  27.204  23.731  1.00  0.00    -0.006 C 
ATOM     23  C   UNL A   1      29.967  25.771  23.239  1.00  0.00     0.004 C 
ATOM     24  C   UNL A   1      31.524  27.448  24.361  1.00  0.00     0.068 C 
ATOM     25  C   UNL A   1      31.001  25.507  22.181  1.00  0.00     0.006 C 
ATOM     26  C   UNL A   1      32.374  25.532  22.822  1.00  0.00     0.065 C 
BRANCH  22  27
ATOM     27  C   UNL A   1      29.646  28.190  22.647  1.00  0.00     0.000 C 
ATOM     28  C   UNL A   1      30.538  29.408  22.495  1.00  0.00     0.004 C 
ENDBRANCH  22  27
ENDBRANCH  11  21
ENDBRANCH   8  10
ENDBRANCH   7   8
ENDBRANCH   6   7
ENDBRANCH   5   6
ENDBRANCH   4   5
ENDBRANCH   3   4
ENDBRANCH   2   3
ENDBRANCH   1   2
BRANCH   1  29
ATOM     29  C   UNL A   1      32.911  36.102  29.508  1.00  0.00     0.188 C 
BRANCH  29  30
ATOM     30  C   UNL A   1      33.618  36.275  30.851  1.00  0.00     0.188 C 
BRANCH  30  31
ATOM     31  O   UNL A   1      32.940  35.915  32.047  1.00  0.00    -0.376 OA
BRANCH  31  32
ATOM     32  C   UNL A   1      33.514  34.819  32.761  1.00  0.00     0.202 C 
BRANCH  32  33
ATOM     33  C   UNL A   1      34.992  34.540  32.450  1.00  0.00     0.261 C 
BRANCH  33  34
ATOM     34  O   UNL A   1      35.279  33.129  32.527  1.00  0.00    -0.460 OA
BRANCH  34  35
ATOM     35  C   UNL A   1      36.448  32.821  33.159  1.00  0.00     0.338 C 
ATOM     36  O   UNL A   1      36.751  33.058  34.294  1.00  0.00    -0.246 OA
BRANCH  35  37
ATOM     37  C   UNL A   1      37.226  31.893  32.293  1.00  0.00     0.060 A 
ATOM     38  C   UNL A   1      38.192  31.101  32.931  1.00  0.00     0.016 A 
ATOM     39  C   UNL A   1      37.033  31.801  30.914  1.00  0.00     0.016 A 
ATOM     40  C   UNL A   1      39.023  30.272  32.184  1.00  0.00     0.010 A 
ATOM     41  C   UNL A   1      37.887  30.988  30.158  1.00  0.00     0.010 A 
ATOM     42  C   UNL A   1      38.921  30.270  30.788  1.00  0.00    -0.014 A 
BRANCH  42  43
ATOM     43  C   UNL A   1      40.090  29.792  30.012  1.00  0.00     0.031 A 
ATOM     44  C   UNL A   1      41.246  30.745  29.851  1.00  0.00     0.074 A 
ATOM     45  C   UNL A   1      40.178  28.534  29.547  1.00  0.00     0.049 A 
ATOM     46  N   UNL A   1      42.402  30.565  29.266  1.00  0.00    -0.248 NA
ATOM     47  C   UNL A   1      41.075  32.082  30.445  1.00  0.00     0.031 C 
ATOM     48  C   UNL A   1      39.159  27.499  29.698  1.00  0.00     0.029 A 
ATOM     49  N   UNL A   1      41.192  27.915  28.860  1.00  0.00    -0.354 N 
ATOM     50  C   UNL A   1      43.092  31.759  29.430  1.00  0.00     0.074 A 
ATOM     51  C   UNL A   1      42.218  32.670  30.133  1.00  0.00     0.031 C 
ATOM     52  C   UNL A   1      39.600  26.368  29.116  1.00  0.00     0.029 A 
ATOM     53  C   UNL A   1      40.920  26.609  28.534  1.00  0.00     0.049 A 
ATOM     54  H   UNL A   1      42.034  28.365  28.623  1.00  0.00     0.167 HD
ATOM     55  C   UNL A   1      44.352  32.070  29.044  1.00  0.00     0.037 A 
ATOM     56  C   UNL A   1      41.655  25.720  27.837  1.00  0.00     0.037 A 
ATOM     57  C   UNL A   1      45.219  31.176  28.334  1.00  0.00     0.049 A 
ATOM     58  C   UNL A   1      43.013  26.124  27.322  1.00  0.00     0.074 A 
ATOM     59  C   UNL A   1      46.507  31.397  27.882  1.00  0.00     0.029 A 
ATOM     60  N   UNL A   1      44.879  29.883  27.962  1.00  0.00    -0.354 N 
ATOM     61  N   UNL A   1      43.663  27.251  27.492  1.00  0.00    -0.248 NA
ATOM     62  C   UNL A   1      43.740  25.131  26.517  1.00  0.00     0.031 C 
ATOM     63  C   UNL A   1      46.929  30.254  27.197  1.00  0.00     0.029 A 
ATOM     64  C   UNL A   1      45.922  29.304  27.264  1.00  0.00     0.049 A 
ATOM     65  H   UNL A   1      44.021  29.443  28.164  1.00  0.00     0.167 HD
ATOM     66  C   UNL A   1      44.883  27.091  26.845  1.00  0.00     0.074 A 
ATOM     67  C   UNL A   1      44.887  25.756  26.285  1.00  0.00     0.031 C 
ATOM     68  C   UNL A   1      45.910  27.967  26.726  1.00  0.00     0.037 A 
BRANCH  55  69
ATOM     69  C   UNL A   1      44.840  33.452  29.362  1.00  0.00     0.057 A 
ATOM     70  C   UNL A   1      44.663  34.520  28.474  1.00  0.00     0.134 A 
ATOM     71  C   UNL A   1      45.500  33.714  30.568  1.00  0.00     0.134 A 
ATOM     72  F   UNL A   1      44.058  34.329  27.291  1.00  0.00    -0.206 F 
ATOM     73  C   UNL A   1      45.148  35.796  28.765  1.00  0.00     0.040 A 
ATOM     74  C   UNL A   1      45.968  34.991  30.880  1.00  0.00     0.040 A 
ATOM     75  F   UNL A   1      45.706  32.733  31.459  1.00  0.00    -0.206 F 
ATOM     76  C   UNL A   1      45.798  36.035  29.973  1.00  0.00     0.006 A 
ENDBRANCH  55  69
BRANCH  56  77
ATOM     77  C   UNL A   1      41.126  24.358  27.569  1.00  0.00     0.057 A 
ATOM     78  C   UNL A   1      40.099  24.146  26.642  1.00  0.00     0.134 A 
ATOM     79  C   UNL A   1      41.609  23.241  28.262  1.00  0.00     0.134 A 
ATOM     80  F   UNL A   1      39.575  25.179  25.967  1.00  0.00    -0.206 F 
ATOM     81  C   UNL A   1      39.559  22.876  26.425  1.00  0.00     0.040 A 
ATOM     82  C   UNL A   1      41.096  21.962  28.037  1.00  0.00     0.040 A 
ATOM     83  F   UNL A   1      42.589  23.377  29.167  1.00  0.00    -0.206 F 
ATOM     84  C   UNL A   1      40.062  21.778  27.121  1.00  0.00     0.006 A 
ENDBRANCH  56  77
BRANCH  68  85
ATOM     85  C   UNL A   1      47.137  27.504  25.997  1.00  0.00     0.057 A 
ATOM     86  C   UNL A   1      48.188  26.854  26.657  1.00  0.00     0.134 A 
ATOM     87  C   UNL A   1      47.239  27.656  24.608  1.00  0.00     0.134 A 
ATOM     88  F   UNL A   1      48.153  26.685  27.987  1.00  0.00    -0.206 F 
ATOM     89  C   UNL A   1      49.304  26.388  25.963  1.00  0.00     0.040 A 
ATOM     90  C   UNL A   1      48.339  27.172  23.900  1.00  0.00     0.040 A 
ATOM     91  F   UNL A   1      46.261  28.258  23.915  1.00  0.00    -0.206 F 
ATOM     92  C   UNL A   1      49.379  26.539  24.579  1.00  0.00     0.006 A 
ENDBRANCH  68  85
ENDBRANCH  42  43
ENDBRANCH  35  37
ENDBRANCH  34  35
ENDBRANCH  33  34
ENDBRANCH  32  33
ENDBRANCH  31  32
ENDBRANCH  30  31
ENDBRANCH  29  30
ENDBRANCH   1  29
TORSDOF 22
ENDMDL
