MODEL 1
REMARK VINA RESULT:      -9.5      0.000      0.000
REMARK SMILES CCC(CC)C[N@H+]1[C@@H]2CC[C@H]1C[C@H](CC(=O)OCCOCCOCCOCCOC(=O)c1ccc(-c3c4nc(c(-c5c(F)cccc5F)c5ccc([nH]5)c(-c5c(F)cccc5F)c5nc(c(-c6c(F)cccc6F)c6ccc3[nH]6)C=C5)C=C4)cc1)C2
REMARK SMILES IDX 22 1 21 2 20 3 19 4 18 5 17 6 15 7 16 8 14 9 13 10 7 11 8 12
REMARK SMILES IDX 11 13 9 15 86 16 10 17 12 18 6 19 3 20 2 21 1 22 4 23 5 24
REMARK SMILES IDX 23 25 24 26 25 27 26 28 27 29 28 30 29 31 30 32 31 33 32 34
REMARK SMILES IDX 33 35 85 36 34 37 84 38 35 39 36 40 37 41 78 42 38 43 83 44
REMARK SMILES IDX 77 45 79 46 39 47 82 48 76 49 75 50 40 52 66 53 49 54 65 55
REMARK SMILES IDX 50 56 53 57 64 58 80 59 51 60 52 61 63 63 81 64 54 65 41 66
REMARK SMILES IDX 42 67 47 68 43 69 44 70 46 71 48 72 45 73 67 74 68 75 73 76
REMARK SMILES IDX 69 77 70 78 72 79 74 80 71 81 55 82 56 83 61 84 57 85 58 86
REMARK SMILES IDX 60 87 62 88 59 89
REMARK H PARENT 7 14 79 51 53 62
REMARK Flexibility Score: inf
ROOT
ATOM      1  C   UNL A   1      34.458  30.922  27.749  1.00  0.00     0.188 C 
ENDROOT
BRANCH   1   2
ATOM      2  C   UNL A   1      33.454  30.340  26.750  1.00  0.00     0.188 C 
BRANCH   2   3
ATOM      3  O   UNL A   1      32.217  29.914  27.272  1.00  0.00    -0.376 OA
BRANCH   3   4
ATOM      4  C   UNL A   1      31.844  28.545  27.240  1.00  0.00     0.202 C 
BRANCH   4   5
ATOM      5  C   UNL A   1      31.355  27.784  25.993  1.00  0.00     0.261 C 
BRANCH   5   6
ATOM      6  O   UNL A   1      32.354  27.389  25.043  1.00  0.00    -0.463 OA
BRANCH   6   7
ATOM      7  C   UNL A   1      32.074  26.259  24.354  1.00  0.00     0.306 C 
ATOM      8  O   UNL A   1      30.961  25.743  24.289  1.00  0.00    -0.252 OA
BRANCH   7   9
ATOM      9  C   UNL A   1      33.223  25.680  23.566  1.00  0.00     0.126 C 
BRANCH   9  10
ATOM     10  C   UNL A   1      34.359  24.886  24.223  1.00  0.00     0.012 C 
ATOM     11  N   UNL A   1      34.433  22.108  25.188  1.00  0.00    -0.330 N 
ATOM     12  C   UNL A   1      35.238  22.455  24.011  1.00  0.00     0.184 C 
ATOM     13  C   UNL A   1      34.760  23.205  26.129  1.00  0.00     0.184 C 
ATOM     14  H   UNL A   1      34.667  21.175  25.525  1.00  0.00     0.348 HD
ATOM     15  C   UNL A   1      36.607  22.729  24.635  1.00  0.00     0.071 C 
ATOM     16  C   UNL A   1      34.689  23.694  23.296  1.00  0.00     0.069 C 
ATOM     17  C   UNL A   1      36.291  23.288  26.017  1.00  0.00     0.071 C 
ATOM     18  C   UNL A   1      34.114  24.542  25.705  1.00  0.00     0.069 C 
BRANCH  11  19
ATOM     19  C   UNL A   1      32.986  21.929  24.980  1.00  0.00     0.266 C 
BRANCH  19  20
ATOM     20  C   UNL A   1      32.491  20.504  24.630  1.00  0.00     0.044 C 
BRANCH  20  21
ATOM     21  C   UNL A   1      32.306  20.311  23.121  1.00  0.00     0.006 C 
ATOM     22  C   UNL A   1      31.906  21.612  22.434  1.00  0.00     0.004 C 
ENDBRANCH  20  21
BRANCH  20  23
ATOM     23  C   UNL A   1      33.379  19.443  25.321  1.00  0.00     0.006 C 
ATOM     24  C   UNL A   1      32.716  18.101  25.587  1.00  0.00     0.004 C 
ENDBRANCH  20  23
ENDBRANCH  19  20
ENDBRANCH  11  19
ENDBRANCH   9  10
ENDBRANCH   7   9
ENDBRANCH   6   7
ENDBRANCH   5   6
ENDBRANCH   4   5
ENDBRANCH   3   4
ENDBRANCH   2   3
ENDBRANCH   1   2
BRANCH   1  25
ATOM     25  O   UNL A   1      34.042  31.992  28.580  1.00  0.00    -0.377 OA
BRANCH  25  26
ATOM     26  C   UNL A   1      33.864  33.303  28.068  1.00  0.00     0.188 C 
BRANCH  26  27
ATOM     27  C   UNL A   1      34.696  34.468  28.625  1.00  0.00     0.188 C 
BRANCH  27  28
ATOM     28  O   UNL A   1      35.164  34.287  29.947  1.00  0.00    -0.376 OA
BRANCH  28  29
ATOM     29  C   UNL A   1      34.305  34.611  31.029  1.00  0.00     0.202 C 
BRANCH  29  30
ATOM     30  C   UNL A   1      34.263  33.661  32.236  1.00  0.00     0.261 C 
BRANCH  30  31
ATOM     31  O   UNL A   1      34.953  32.408  32.089  1.00  0.00    -0.460 OA
BRANCH  31  32
ATOM     32  C   UNL A   1      36.014  32.166  32.888  1.00  0.00     0.338 C 
ATOM     33  O   UNL A   1      36.134  32.427  34.067  1.00  0.00    -0.246 OA
BRANCH  32  34
ATOM     34  C   UNL A   1      36.977  31.354  32.119  1.00  0.00     0.060 A 
ATOM     35  C   UNL A   1      37.954  30.627  32.809  1.00  0.00     0.016 A 
ATOM     36  C   UNL A   1      36.939  31.350  30.724  1.00  0.00     0.016 A 
ATOM     37  C   UNL A   1      38.932  29.930  32.102  1.00  0.00     0.010 A 
ATOM     38  C   UNL A   1      37.931  30.667  30.015  1.00  0.00     0.010 A 
ATOM     39  C   UNL A   1      38.954  29.990  30.703  1.00  0.00    -0.014 A 
BRANCH  39  40
ATOM     40  C   UNL A   1      40.162  29.534  29.974  1.00  0.00     0.031 A 
ATOM     41  C   UNL A   1      41.285  30.515  29.769  1.00  0.00     0.074 A 
ATOM     42  C   UNL A   1      40.282  28.269  29.535  1.00  0.00     0.049 A 
ATOM     43  N   UNL A   1      42.421  30.362  29.139  1.00  0.00    -0.248 NA
ATOM     44  C   UNL A   1      41.095  31.852  30.357  1.00  0.00     0.031 C 
ATOM     45  C   UNL A   1      39.292  27.211  29.721  1.00  0.00     0.029 A 
ATOM     46  N   UNL A   1      41.299  27.665  28.839  1.00  0.00    -0.354 N 
ATOM     47  C   UNL A   1      43.079  31.582  29.252  1.00  0.00     0.074 A 
ATOM     48  C   UNL A   1      42.198  32.474  29.972  1.00  0.00     0.031 C 
ATOM     49  C   UNL A   1      39.751  26.084  29.150  1.00  0.00     0.029 A 
ATOM     50  C   UNL A   1      41.046  26.352  28.528  1.00  0.00     0.049 A 
ATOM     51  H   UNL A   1      42.128  28.130  28.585  1.00  0.00     0.167 HD
ATOM     52  C   UNL A   1      44.313  31.925  28.808  1.00  0.00     0.037 A 
ATOM     53  C   UNL A   1      41.775  25.477  27.808  1.00  0.00     0.037 A 
ATOM     54  C   UNL A   1      45.180  31.039  28.078  1.00  0.00     0.049 A 
ATOM     55  C   UNL A   1      43.096  25.914  27.228  1.00  0.00     0.074 A 
ATOM     56  C   UNL A   1      46.446  31.290  27.577  1.00  0.00     0.029 A 
ATOM     57  N   UNL A   1      44.865  29.734  27.732  1.00  0.00    -0.354 N 
ATOM     58  N   UNL A   1      43.718  27.062  27.350  1.00  0.00    -0.248 NA
ATOM     59  C   UNL A   1      43.817  24.927  26.411  1.00  0.00     0.031 C 
ATOM     60  C   UNL A   1      46.872  30.155  26.879  1.00  0.00     0.029 A 
ATOM     61  C   UNL A   1      45.900  29.174  27.001  1.00  0.00     0.049 A 
ATOM     62  H   UNL A   1      44.029  29.272  27.970  1.00  0.00     0.167 HD
ATOM     63  C   UNL A   1      44.917  26.924  26.660  1.00  0.00     0.074 A 
ATOM     64  C   UNL A   1      44.938  25.576  26.130  1.00  0.00     0.031 C 
ATOM     65  C   UNL A   1      45.913  27.827  26.486  1.00  0.00     0.037 A 
BRANCH  52  66
ATOM     66  C   UNL A   1      44.769  33.331  29.074  1.00  0.00     0.057 A 
ATOM     67  C   UNL A   1      44.460  34.390  28.208  1.00  0.00     0.134 A 
ATOM     68  C   UNL A   1      45.530  33.631  30.211  1.00  0.00     0.134 A 
ATOM     69  F   UNL A   1      43.748  34.170  27.092  1.00  0.00    -0.206 F 
ATOM     70  C   UNL A   1      44.924  35.686  28.443  1.00  0.00     0.040 A 
ATOM     71  C   UNL A   1      45.971  34.929  30.474  1.00  0.00     0.040 A 
ATOM     72  F   UNL A   1      45.858  32.669  31.086  1.00  0.00    -0.206 F 
ATOM     73  C   UNL A   1      45.678  35.959  29.583  1.00  0.00     0.006 A 
ENDBRANCH  52  66
BRANCH  53  74
ATOM     74  C   UNL A   1      41.276  24.094  27.589  1.00  0.00     0.057 A 
ATOM     75  C   UNL A   1      40.241  23.834  26.683  1.00  0.00     0.134 A 
ATOM     76  C   UNL A   1      41.799  23.006  28.297  1.00  0.00     0.134 A 
ATOM     77  F   UNL A   1      39.680  24.839  25.993  1.00  0.00    -0.206 F 
ATOM     78  C   UNL A   1      39.732  22.547  26.501  1.00  0.00     0.040 A 
ATOM     79  C   UNL A   1      41.320  21.708  28.104  1.00  0.00     0.040 A 
ATOM     80  F   UNL A   1      42.791  23.185  29.181  1.00  0.00    -0.206 F 
ATOM     81  C   UNL A   1      40.278  21.478  27.209  1.00  0.00     0.006 A 
ENDBRANCH  53  74
BRANCH  65  82
ATOM     82  C   UNL A   1      47.136  27.374  25.737  1.00  0.00     0.057 A 
ATOM     83  C   UNL A   1      48.172  26.662  26.357  1.00  0.00     0.134 A 
ATOM     84  C   UNL A   1      47.260  27.626  24.364  1.00  0.00     0.134 A 
ATOM     85  F   UNL A   1      48.124  26.397  27.671  1.00  0.00    -0.206 F 
ATOM     86  C   UNL A   1      49.298  26.244  25.644  1.00  0.00     0.040 A 
ATOM     87  C   UNL A   1      48.364  27.184  23.634  1.00  0.00     0.040 A 
ATOM     88  F   UNL A   1      46.300  28.292  23.703  1.00  0.00    -0.206 F 
ATOM     89  C   UNL A   1      49.393  26.498  24.277  1.00  0.00     0.006 A 
ENDBRANCH  65  82
ENDBRANCH  39  40
ENDBRANCH  32  34
ENDBRANCH  31  32
ENDBRANCH  30  31
ENDBRANCH  29  30
ENDBRANCH  28  29
ENDBRANCH  27  28
ENDBRANCH  26  27
ENDBRANCH  25  26
ENDBRANCH   1  25
TORSDOF 25
ENDMDL
MODEL 2
REMARK VINA RESULT:      -7.8      4.317     10.798
REMARK SMILES CCC(CC)C[N@H+]1[C@@H]2CC[C@H]1C[C@H](CC(=O)OCCOCCOCCOCCOC(=O)c1ccc(-c3c4nc(c(-c5c(F)cccc5F)c5ccc([nH]5)c(-c5c(F)cccc5F)c5nc(c(-c6c(F)cccc6F)c6ccc3[nH]6)C=C5)C=C4)cc1)C2
REMARK SMILES IDX 22 1 21 2 20 3 19 4 18 5 17 6 15 7 16 8 14 9 13 10 7 11 8 12
REMARK SMILES IDX 11 13 9 15 86 16 10 17 12 18 6 19 3 20 2 21 1 22 4 23 5 24
REMARK SMILES IDX 23 25 24 26 25 27 26 28 27 29 28 30 29 31 30 32 31 33 32 34
REMARK SMILES IDX 33 35 85 36 34 37 84 38 35 39 36 40 37 41 78 42 38 43 83 44
REMARK SMILES IDX 77 45 79 46 39 47 82 48 76 49 75 50 40 52 66 53 49 54 65 55
REMARK SMILES IDX 50 56 53 57 64 58 80 59 51 60 52 61 63 63 81 64 54 65 41 66
REMARK SMILES IDX 42 67 47 68 43 69 44 70 46 71 48 72 45 73 67 74 68 75 73 76
REMARK SMILES IDX 69 77 70 78 72 79 74 80 71 81 55 82 56 83 61 84 57 85 58 86
REMARK SMILES IDX 60 87 62 88 59 89
REMARK H PARENT 7 14 79 51 53 62
REMARK Flexibility Score: inf
ROOT
ATOM      1  C   UNL A   1      36.965  34.471  33.331  1.00  0.00     0.188 C 
ENDROOT
BRANCH   1   2
ATOM      2  C   UNL A   1      37.440  33.976  34.700  1.00  0.00     0.188 C 
BRANCH   2   3
ATOM      3  O   UNL A   1      38.722  33.396  34.752  1.00  0.00    -0.376 OA
BRANCH   3   4
ATOM      4  C   UNL A   1      39.482  33.196  33.570  1.00  0.00     0.202 C 
BRANCH   4   5
ATOM      5  C   UNL A   1      40.537  34.171  33.013  1.00  0.00     0.261 C 
BRANCH   5   6
ATOM      6  O   UNL A   1      41.194  33.789  31.798  1.00  0.00    -0.463 OA
BRANCH   6   7
ATOM      7  C   UNL A   1      42.528  34.015  31.771  1.00  0.00     0.306 C 
ATOM      8  O   UNL A   1      43.368  33.268  32.267  1.00  0.00    -0.252 OA
BRANCH   7   9
ATOM      9  C   UNL A   1      42.963  35.237  31.001  1.00  0.00     0.126 C 
BRANCH   9  10
ATOM     10  C   UNL A   1      43.017  35.271  29.467  1.00  0.00     0.012 C 
ATOM     11  N   UNL A   1      43.454  37.523  27.626  1.00  0.00    -0.330 N 
ATOM     12  C   UNL A   1      44.500  36.497  27.729  1.00  0.00     0.184 C 
ATOM     13  C   UNL A   1      42.225  36.708  27.486  1.00  0.00     0.184 C 
ATOM     14  H   UNL A   1      43.639  38.152  26.846  1.00  0.00     0.348 HD
ATOM     15  C   UNL A   1      44.156  35.579  26.555  1.00  0.00     0.071 C 
ATOM     16  C   UNL A   1      44.430  35.751  29.064  1.00  0.00     0.069 C 
ATOM     17  C   UNL A   1      42.639  35.667  26.434  1.00  0.00     0.071 C 
ATOM     18  C   UNL A   1      41.838  36.014  28.811  1.00  0.00     0.069 C 
BRANCH  11  19
ATOM     19  C   UNL A   1      43.379  38.512  28.715  1.00  0.00     0.266 C 
BRANCH  19  20
ATOM     20  C   UNL A   1      42.905  39.939  28.346  1.00  0.00     0.044 C 
BRANCH  20  21
ATOM     21  C   UNL A   1      43.419  40.381  26.971  1.00  0.00     0.006 C 
ATOM     22  C   UNL A   1      42.274  40.608  25.991  1.00  0.00     0.004 C 
ENDBRANCH  20  21
BRANCH  20  23
ATOM     23  C   UNL A   1      41.376  40.064  28.543  1.00  0.00     0.006 C 
ATOM     24  C   UNL A   1      40.928  41.054  29.607  1.00  0.00     0.004 C 
ENDBRANCH  20  23
ENDBRANCH  19  20
ENDBRANCH  11  19
ENDBRANCH   9  10
ENDBRANCH   7   9
ENDBRANCH   6   7
ENDBRANCH   5   6
ENDBRANCH   4   5
ENDBRANCH   3   4
ENDBRANCH   2   3
ENDBRANCH   1   2
BRANCH   1  25
ATOM     25  O   UNL A   1      35.923  35.429  33.281  1.00  0.00    -0.377 OA
BRANCH  25  26
ATOM     26  C   UNL A   1      34.700  35.163  32.612  1.00  0.00     0.188 C 
BRANCH  26  27
ATOM     27  C   UNL A   1      34.401  33.752  32.085  1.00  0.00     0.188 C 
BRANCH  27  28
ATOM     28  O   UNL A   1      34.924  33.473  30.801  1.00  0.00    -0.376 OA
BRANCH  28  29
ATOM     29  C   UNL A   1      35.738  32.323  30.626  1.00  0.00     0.202 C 
BRANCH  29  30
ATOM     30  C   UNL A   1      35.776  31.281  31.755  1.00  0.00     0.261 C 
BRANCH  30  31
ATOM     31  O   UNL A   1      36.406  30.025  31.447  1.00  0.00    -0.460 OA
BRANCH  31  32
ATOM     32  C   UNL A   1      36.543  29.681  30.149  1.00  0.00     0.338 C 
ATOM     33  O   UNL A   1      35.668  29.519  29.325  1.00  0.00    -0.246 OA
BRANCH  32  34
ATOM     34  C   UNL A   1      37.984  29.697  29.833  1.00  0.00     0.060 A 
ATOM     35  C   UNL A   1      38.385  29.904  28.507  1.00  0.00     0.016 A 
ATOM     36  C   UNL A   1      38.928  29.464  30.834  1.00  0.00     0.016 A 
ATOM     37  C   UNL A   1      39.735  29.829  28.168  1.00  0.00     0.010 A 
ATOM     38  C   UNL A   1      40.280  29.369  30.490  1.00  0.00     0.010 A 
ATOM     39  C   UNL A   1      40.682  29.510  29.149  1.00  0.00    -0.014 A 
BRANCH  39  40
ATOM     40  C   UNL A   1      42.049  29.108  28.739  1.00  0.00     0.031 A 
ATOM     41  C   UNL A   1      42.282  27.677  28.337  1.00  0.00     0.074 A 
ATOM     42  C   UNL A   1      43.055  29.997  28.685  1.00  0.00     0.049 A 
ATOM     43  N   UNL A   1      43.390  27.083  27.973  1.00  0.00    -0.248 NA
ATOM     44  C   UNL A   1      41.101  26.798  28.350  1.00  0.00     0.031 C 
ATOM     45  C   UNL A   1      42.945  31.421  28.993  1.00  0.00     0.029 A 
ATOM     46  N   UNL A   1      44.374  29.824  28.349  1.00  0.00    -0.354 N 
ATOM     47  C   UNL A   1      43.039  25.762  27.716  1.00  0.00     0.074 A 
ATOM     48  C   UNL A   1      41.629  25.633  28.007  1.00  0.00     0.031 C 
ATOM     49  C   UNL A   1      44.151  31.994  28.832  1.00  0.00     0.029 A 
ATOM     50  C   UNL A   1      45.122  30.971  28.448  1.00  0.00     0.049 A 
ATOM     51  H   UNL A   1      44.749  28.959  28.066  1.00  0.00     0.167 HD
ATOM     52  C   UNL A   1      43.819  24.750  27.265  1.00  0.00     0.037 A 
ATOM     53  C   UNL A   1      46.442  31.164  28.264  1.00  0.00     0.037 A 
ATOM     54  C   UNL A   1      45.226  24.877  26.992  1.00  0.00     0.049 A 
ATOM     55  C   UNL A   1      47.313  29.997  27.869  1.00  0.00     0.074 A 
ATOM     56  C   UNL A   1      46.108  23.913  26.538  1.00  0.00     0.029 A 
ATOM     57  N   UNL A   1      45.959  26.042  27.160  1.00  0.00    -0.354 N 
ATOM     58  N   UNL A   1      46.973  28.756  27.616  1.00  0.00    -0.248 NA
ATOM     59  C   UNL A   1      48.752  30.263  27.734  1.00  0.00     0.031 C 
ATOM     60  C   UNL A   1      47.386  24.479  26.487  1.00  0.00     0.029 A 
ATOM     61  C   UNL A   1      47.289  25.814  26.845  1.00  0.00     0.049 A 
ATOM     62  H   UNL A   1      45.590  26.905  27.459  1.00  0.00     0.167 HD
ATOM     63  C   UNL A   1      48.147  28.104  27.254  1.00  0.00     0.074 A 
ATOM     64  C   UNL A   1      49.206  29.092  27.312  1.00  0.00     0.031 C 
ATOM     65  C   UNL A   1      48.332  26.809  26.898  1.00  0.00     0.037 A 
BRANCH  52  66
ATOM     66  C   UNL A   1      43.162  23.411  27.080  1.00  0.00     0.057 A 
ATOM     67  C   UNL A   1      42.764  22.946  25.819  1.00  0.00     0.134 A 
ATOM     68  C   UNL A   1      42.922  22.576  28.180  1.00  0.00     0.134 A 
ATOM     69  F   UNL A   1      42.949  23.701  24.726  1.00  0.00    -0.206 F 
ATOM     70  C   UNL A   1      42.117  21.718  25.664  1.00  0.00     0.040 A 
ATOM     71  C   UNL A   1      42.307  21.332  28.032  1.00  0.00     0.040 A 
ATOM     72  F   UNL A   1      43.282  22.954  29.415  1.00  0.00    -0.206 F 
ATOM     73  C   UNL A   1      41.891  20.905  26.772  1.00  0.00     0.006 A 
ENDBRANCH  52  66
BRANCH  53  74
ATOM     74  C   UNL A   1      47.033  32.514  28.450  1.00  0.00     0.057 A 
ATOM     75  C   UNL A   1      47.468  32.945  29.709  1.00  0.00     0.134 A 
ATOM     76  C   UNL A   1      47.150  33.416  27.386  1.00  0.00     0.134 A 
ATOM     77  F   UNL A   1      47.358  32.137  30.774  1.00  0.00    -0.206 F 
ATOM     78  C   UNL A   1      47.982  34.228  29.907  1.00  0.00     0.040 A 
ATOM     79  C   UNL A   1      47.689  34.692  27.563  1.00  0.00     0.040 A 
ATOM     80  F   UNL A   1      46.750  33.068  26.154  1.00  0.00    -0.206 F 
ATOM     81  C   UNL A   1      48.099  35.103  28.830  1.00  0.00     0.006 A 
ENDBRANCH  53  74
BRANCH  65  82
ATOM     82  C   UNL A   1      49.719  26.392  26.493  1.00  0.00     0.057 A 
ATOM     83  C   UNL A   1      50.589  25.734  27.372  1.00  0.00     0.134 A 
ATOM     84  C   UNL A   1      50.176  26.623  25.188  1.00  0.00     0.134 A 
ATOM     85  F   UNL A   1      50.221  25.492  28.639  1.00  0.00    -0.206 F 
ATOM     86  C   UNL A   1      51.872  25.349  26.977  1.00  0.00     0.040 A 
ATOM     87  C   UNL A   1      51.443  26.213  24.771  1.00  0.00     0.040 A 
ATOM     88  F   UNL A   1      49.391  27.237  24.289  1.00  0.00    -0.206 F 
ATOM     89  C   UNL A   1      52.299  25.581  25.671  1.00  0.00     0.006 A 
ENDBRANCH  65  82
ENDBRANCH  39  40
ENDBRANCH  32  34
ENDBRANCH  31  32
ENDBRANCH  30  31
ENDBRANCH  29  30
ENDBRANCH  28  29
ENDBRANCH  27  28
ENDBRANCH  26  27
ENDBRANCH  25  26
ENDBRANCH   1  25
TORSDOF 25
ENDMDL
MODEL 3
REMARK VINA RESULT:      -7.8      4.158      9.206
REMARK SMILES CCC(CC)C[N@H+]1[C@@H]2CC[C@H]1C[C@H](CC(=O)OCCOCCOCCOCCOC(=O)c1ccc(-c3c4nc(c(-c5c(F)cccc5F)c5ccc([nH]5)c(-c5c(F)cccc5F)c5nc(c(-c6c(F)cccc6F)c6ccc3[nH]6)C=C5)C=C4)cc1)C2
REMARK SMILES IDX 22 1 21 2 20 3 19 4 18 5 17 6 15 7 16 8 14 9 13 10 7 11 8 12
REMARK SMILES IDX 11 13 9 15 86 16 10 17 12 18 6 19 3 20 2 21 1 22 4 23 5 24
REMARK SMILES IDX 23 25 24 26 25 27 26 28 27 29 28 30 29 31 30 32 31 33 32 34
REMARK SMILES IDX 33 35 85 36 34 37 84 38 35 39 36 40 37 41 78 42 38 43 83 44
REMARK SMILES IDX 77 45 79 46 39 47 82 48 76 49 75 50 40 52 66 53 49 54 65 55
REMARK SMILES IDX 50 56 53 57 64 58 80 59 51 60 52 61 63 63 81 64 54 65 41 66
REMARK SMILES IDX 42 67 47 68 43 69 44 70 46 71 48 72 45 73 67 74 68 75 73 76
REMARK SMILES IDX 69 77 70 78 72 79 74 80 71 81 55 82 56 83 61 84 57 85 58 86
REMARK SMILES IDX 60 87 62 88 59 89
REMARK H PARENT 7 14 79 51 53 62
REMARK Flexibility Score: inf
ROOT
ATOM      1  C   UNL A   1      39.259  30.440  29.042  1.00  0.00     0.188 C 
ENDROOT
BRANCH   1   2
ATOM      2  C   UNL A   1      37.735  30.387  29.173  1.00  0.00     0.188 C 
BRANCH   2   3
ATOM      3  O   UNL A   1      37.101  31.550  29.654  1.00  0.00    -0.376 OA
BRANCH   3   4
ATOM      4  C   UNL A   1      35.788  31.892  29.235  1.00  0.00     0.202 C 
BRANCH   4   5
ATOM      5  C   UNL A   1      35.235  31.722  27.808  1.00  0.00     0.261 C 
BRANCH   5   6
ATOM      6  O   UNL A   1      33.967  31.067  27.678  1.00  0.00    -0.463 OA
BRANCH   6   7
ATOM      7  C   UNL A   1      33.964  29.977  26.875  1.00  0.00     0.306 C 
ATOM      8  O   UNL A   1      34.916  29.211  26.743  1.00  0.00    -0.252 OA
BRANCH   7   9
ATOM      9  C   UNL A   1      32.656  29.686  26.183  1.00  0.00     0.126 C 
BRANCH   9  10
ATOM     10  C   UNL A   1      32.479  28.513  25.210  1.00  0.00     0.012 C 
ATOM     11  N   UNL A   1      30.774  28.253  22.828  1.00  0.00    -0.330 N 
ATOM     12  C   UNL A   1      32.228  28.306  22.638  1.00  0.00     0.184 C 
ATOM     13  C   UNL A   1      30.634  27.265  23.923  1.00  0.00     0.184 C 
ATOM     14  H   UNL A   1      30.303  27.997  21.961  1.00  0.00     0.348 HD
ATOM     15  C   UNL A   1      32.590  26.823  22.564  1.00  0.00     0.071 C 
ATOM     16  C   UNL A   1      32.927  28.997  23.812  1.00  0.00     0.069 C 
ATOM     17  C   UNL A   1      31.573  26.137  23.468  1.00  0.00     0.071 C 
ATOM     18  C   UNL A   1      31.095  27.839  25.281  1.00  0.00     0.069 C 
BRANCH  11  19
ATOM     19  C   UNL A   1      30.088  29.528  23.100  1.00  0.00     0.266 C 
BRANCH  19  20
ATOM     20  C   UNL A   1      28.879  29.889  22.203  1.00  0.00     0.044 C 
BRANCH  20  21
ATOM     21  C   UNL A   1      27.549  29.797  22.959  1.00  0.00     0.006 C 
ATOM     22  C   UNL A   1      27.221  28.358  23.343  1.00  0.00     0.004 C 
ENDBRANCH  20  21
BRANCH  20  23
ATOM     23  C   UNL A   1      29.129  31.236  21.483  1.00  0.00     0.006 C 
ATOM     24  C   UNL A   1      28.180  32.365  21.851  1.00  0.00     0.004 C 
ENDBRANCH  20  23
ENDBRANCH  19  20
ENDBRANCH  11  19
ENDBRANCH   9  10
ENDBRANCH   7   9
ENDBRANCH   6   7
ENDBRANCH   5   6
ENDBRANCH   4   5
ENDBRANCH   3   4
ENDBRANCH   2   3
ENDBRANCH   1   2
BRANCH   1  25
ATOM     25  O   UNL A   1      39.972  29.220  28.943  1.00  0.00    -0.377 OA
BRANCH  25  26
ATOM     26  C   UNL A   1      40.563  28.802  27.722  1.00  0.00     0.188 C 
BRANCH  26  27
ATOM     27  C   UNL A   1      40.449  27.338  27.273  1.00  0.00     0.188 C 
BRANCH  27  28
ATOM     28  O   UNL A   1      39.279  26.671  27.705  1.00  0.00    -0.376 OA
BRANCH  28  29
ATOM     29  C   UNL A   1      39.389  25.345  28.199  1.00  0.00     0.202 C 
BRANCH  29  30
ATOM     30  C   UNL A   1      39.702  24.220  27.200  1.00  0.00     0.261 C 
BRANCH  30  31
ATOM     31  O   UNL A   1      41.020  24.223  26.623  1.00  0.00    -0.460 OA
BRANCH  31  32
ATOM     32  C   UNL A   1      42.034  23.703  27.347  1.00  0.00     0.338 C 
ATOM     33  O   UNL A   1      42.055  22.651  27.951  1.00  0.00    -0.246 OA
BRANCH  32  34
ATOM     34  C   UNL A   1      43.215  24.563  27.143  1.00  0.00     0.060 A 
ATOM     35  C   UNL A   1      43.985  24.933  28.253  1.00  0.00     0.016 A 
ATOM     36  C   UNL A   1      43.531  25.037  25.868  1.00  0.00     0.016 A 
ATOM     37  C   UNL A   1      45.047  25.821  28.099  1.00  0.00     0.010 A 
ATOM     38  C   UNL A   1      44.584  25.943  25.717  1.00  0.00     0.010 A 
ATOM     39  C   UNL A   1      45.319  26.370  26.839  1.00  0.00    -0.014 A 
BRANCH  39  40
ATOM     40  C   UNL A   1      46.216  27.545  26.734  1.00  0.00     0.031 A 
ATOM     41  C   UNL A   1      47.687  27.303  26.526  1.00  0.00     0.074 A 
ATOM     42  C   UNL A   1      45.738  28.800  26.782  1.00  0.00     0.049 A 
ATOM     43  N   UNL A   1      48.669  28.163  26.437  1.00  0.00    -0.248 NA
ATOM     44  C   UNL A   1      48.104  25.897  26.404  1.00  0.00     0.031 C 
ATOM     45  C   UNL A   1      44.331  29.165  26.922  1.00  0.00     0.029 A 
ATOM     46  N   UNL A   1      46.397  30.002  26.719  1.00  0.00    -0.354 N 
ATOM     47  C   UNL A   1      49.817  27.402  26.251  1.00  0.00     0.074 A 
ATOM     48  C   UNL A   1      49.417  26.014  26.283  1.00  0.00     0.031 C 
ATOM     49  C   UNL A   1      44.230  30.506  26.935  1.00  0.00     0.029 A 
ATOM     50  C   UNL A   1      45.567  31.090  26.842  1.00  0.00     0.049 A 
ATOM     51  H   UNL A   1      47.370  30.078  26.597  1.00  0.00     0.167 HD
ATOM     52  C   UNL A   1      51.091  27.823  26.057  1.00  0.00     0.037 A 
ATOM     53  C   UNL A   1      45.862  32.403  26.891  1.00  0.00     0.037 A 
ATOM     54  C   UNL A   1      51.489  29.205  26.041  1.00  0.00     0.049 A 
ATOM     55  C   UNL A   1      47.301  32.844  26.784  1.00  0.00     0.074 A 
ATOM     56  C   UNL A   1      52.754  29.737  25.858  1.00  0.00     0.029 A 
ATOM     57  N   UNL A   1      50.629  30.276  26.228  1.00  0.00    -0.354 N 
ATOM     58  N   UNL A   1      48.378  32.121  26.595  1.00  0.00    -0.248 NA
ATOM     59  C   UNL A   1      47.559  34.286  26.896  1.00  0.00     0.031 C 
ATOM     60  C   UNL A   1      52.666  31.127  25.993  1.00  0.00     0.029 A 
ATOM     61  C   UNL A   1      51.337  31.466  26.192  1.00  0.00     0.049 A 
ATOM     62  H   UNL A   1      49.656  30.202  26.365  1.00  0.00     0.167 HD
ATOM     63  C   UNL A   1      49.436  33.022  26.526  1.00  0.00     0.074 A 
ATOM     64  C   UNL A   1      48.866  34.344  26.685  1.00  0.00     0.031 C 
ATOM     65  C   UNL A   1      50.757  32.777  26.342  1.00  0.00     0.037 A 
BRANCH  52  66
ATOM     66  C   UNL A   1      52.142  26.763  25.885  1.00  0.00     0.057 A 
ATOM     67  C   UNL A   1      52.902  26.287  26.962  1.00  0.00     0.134 A 
ATOM     68  C   UNL A   1      52.400  26.211  24.623  1.00  0.00     0.134 A 
ATOM     69  F   UNL A   1      52.718  26.783  28.196  1.00  0.00    -0.206 F 
ATOM     70  C   UNL A   1      53.905  25.332  26.785  1.00  0.00     0.040 A 
ATOM     71  C   UNL A   1      53.377  25.232  24.439  1.00  0.00     0.040 A 
ATOM     72  F   UNL A   1      51.707  26.615  23.548  1.00  0.00    -0.206 F 
ATOM     73  C   UNL A   1      54.141  24.798  25.520  1.00  0.00     0.006 A 
ENDBRANCH  52  66
BRANCH  53  74
ATOM     74  C   UNL A   1      44.777  33.406  27.050  1.00  0.00     0.057 A 
ATOM     75  C   UNL A   1      44.340  33.802  28.320  1.00  0.00     0.134 A 
ATOM     76  C   UNL A   1      44.132  33.970  25.944  1.00  0.00     0.134 A 
ATOM     77  F   UNL A   1      44.901  33.278  29.420  1.00  0.00    -0.206 F 
ATOM     78  C   UNL A   1      43.292  34.709  28.485  1.00  0.00     0.040 A 
ATOM     79  C   UNL A   1      43.101  34.900  26.092  1.00  0.00     0.040 A 
ATOM     80  F   UNL A   1      44.500  33.632  24.699  1.00  0.00    -0.206 F 
ATOM     81  C   UNL A   1      42.673  35.265  27.367  1.00  0.00     0.006 A 
ENDBRANCH  53  74
BRANCH  65  82
ATOM     82  C   UNL A   1      51.674  33.965  26.247  1.00  0.00     0.057 A 
ATOM     83  C   UNL A   1      52.014  34.552  25.020  1.00  0.00     0.134 A 
ATOM     84  C   UNL A   1      52.197  34.552  27.407  1.00  0.00     0.134 A 
ATOM     85  F   UNL A   1      51.558  34.034  23.870  1.00  0.00    -0.206 F 
ATOM     86  C   UNL A   1      52.862  35.658  24.951  1.00  0.00     0.040 A 
ATOM     87  C   UNL A   1      53.019  35.679  27.353  1.00  0.00     0.040 A 
ATOM     88  F   UNL A   1      51.904  34.050  28.617  1.00  0.00    -0.206 F 
ATOM     89  C   UNL A   1      53.361  36.230  26.120  1.00  0.00     0.006 A 
ENDBRANCH  65  82
ENDBRANCH  39  40
ENDBRANCH  32  34
ENDBRANCH  31  32
ENDBRANCH  30  31
ENDBRANCH  29  30
ENDBRANCH  28  29
ENDBRANCH  27  28
ENDBRANCH  26  27
ENDBRANCH  25  26
ENDBRANCH   1  25
TORSDOF 25
ENDMDL
