MODEL 1
REMARK VINA RESULT:     -10.3      0.000      0.000
REMARK SMILES Cc1cc(Cl)c2c(c1)C=C(C(=O)OCCOCCOCCOCCOC(=O)c1ccc(-c3c4nc(c(-c5c(F)cccc5F)c5ccc([nH]5)c(-c5c(F)cccc5F)c5nc(c(-c6c(F)cccc6F)c6ccc3[nH]6)C=C5)C=C4)cc1)[C@@H](C(F)(F)F)O2
REMARK SMILES IDX 20 1 19 2 18 3 17 4 16 5 15 6 14 7 13 8 11 9 12 10 10 11
REMARK SMILES IDX 1 12 2 13 3 14 8 15 4 16 7 17 5 18 6 19 9 20 87 21 82 22
REMARK SMILES IDX 83 23 84 24 85 25 86 26 21 27 22 28 23 29 24 30 25 31 26 32
REMARK SMILES IDX 27 33 28 34 29 35 81 36 30 37 80 38 31 39 32 40 33 41 74 42
REMARK SMILES IDX 34 43 79 44 73 45 75 46 35 47 78 48 72 49 71 50 36 52 62 53
REMARK SMILES IDX 45 54 61 55 46 56 49 57 60 58 76 59 47 60 48 61 59 63 77 64
REMARK SMILES IDX 50 65 37 66 38 67 43 68 39 69 40 70 42 71 44 72 41 73 63 74
REMARK SMILES IDX 64 75 69 76 65 77 66 78 68 79 70 80 67 81 51 82 52 83 57 84
REMARK SMILES IDX 53 85 54 86 56 87 58 88 55 89
REMARK H PARENT 75 51 49 62
REMARK Flexibility Score: inf
ROOT
ATOM      1  C   UNL A   1      33.979  21.307  26.533  1.00  0.00     0.188 C 
ENDROOT
BRANCH   1   2
ATOM      2  O   UNL A   1      33.739  22.660  26.924  1.00  0.00    -0.377 OA
BRANCH   2   3
ATOM      3  C   UNL A   1      32.400  23.036  27.207  1.00  0.00     0.188 C 
BRANCH   3   4
ATOM      4  C   UNL A   1      31.792  23.961  26.135  1.00  0.00     0.188 C 
BRANCH   4   5
ATOM      5  O   UNL A   1      31.031  23.291  25.148  1.00  0.00    -0.376 OA
BRANCH   5   6
ATOM      6  C   UNL A   1      31.424  23.238  23.787  1.00  0.00     0.202 C 
BRANCH   6   7
ATOM      7  C   UNL A   1      31.786  24.445  22.898  1.00  0.00     0.261 C 
BRANCH   7   8
ATOM      8  O   UNL A   1      32.901  25.245  23.279  1.00  0.00    -0.460 OA
BRANCH   8   9
ATOM      9  C   UNL A   1      33.107  26.382  22.590  1.00  0.00     0.338 C 
ATOM     10  O   UNL A   1      33.210  26.497  21.383  1.00  0.00    -0.246 OA
BRANCH   9  11
ATOM     11  C   UNL A   1      33.010  27.505  23.546  1.00  0.00     0.087 C 
ATOM     12  C   UNL A   1      35.655  29.641  28.659  1.00  0.00     0.044 C 
ATOM     13  C   UNL A   1      34.688  29.655  27.514  1.00  0.00    -0.049 A 
ATOM     14  C   UNL A   1      33.603  30.538  27.488  1.00  0.00     0.028 A 
ATOM     15  C   UNL A   1      34.833  28.729  26.475  1.00  0.00     0.015 A 
ATOM     16  C   UNL A   1      32.692  30.507  26.427  1.00  0.00     0.084 A 
ATOM     17  C   UNL A   1      33.890  28.661  25.442  1.00  0.00     0.019 A 
ATOM     18  Cl  UNL A   1      31.369  31.618  26.456  1.00  0.00    -0.080 Cl
ATOM     19  C   UNL A   1      32.829  29.569  25.397  1.00  0.00     0.146 A 
ATOM     20  C   UNL A   1      33.976  27.589  24.467  1.00  0.00     0.027 C 
ATOM     21  O   UNL A   1      31.903  29.577  24.390  1.00  0.00    -0.474 OA
ATOM     22  C   UNL A   1      31.902  28.515  23.399  1.00  0.00     0.316 C 
BRANCH  22  23
ATOM     23  C   UNL A   1      30.518  27.852  23.399  1.00  0.00     0.430 C 
ATOM     24  F   UNL A   1      30.424  26.897  24.354  1.00  0.00    -0.167 F 
ATOM     25  F   UNL A   1      29.531  28.745  23.646  1.00  0.00    -0.167 F 
ATOM     26  F   UNL A   1      30.243  27.268  22.210  1.00  0.00    -0.167 F 
ENDBRANCH  22  23
ENDBRANCH   9  11
ENDBRANCH   8   9
ENDBRANCH   7   8
ENDBRANCH   6   7
ENDBRANCH   5   6
ENDBRANCH   4   5
ENDBRANCH   3   4
ENDBRANCH   2   3
ENDBRANCH   1   2
BRANCH   1  27
ATOM     27  C   UNL A   1      34.464  20.952  25.106  1.00  0.00     0.188 C 
BRANCH  27  28
ATOM     28  O   UNL A   1      34.792  22.078  24.303  1.00  0.00    -0.376 OA
BRANCH  28  29
ATOM     29  C   UNL A   1      36.158  22.366  24.058  1.00  0.00     0.202 C 
BRANCH  29  30
ATOM     30  C   UNL A   1      37.178  21.375  24.631  1.00  0.00     0.261 C 
BRANCH  30  31
ATOM     31  O   UNL A   1      37.701  21.700  25.927  1.00  0.00    -0.460 OA
BRANCH  31  32
ATOM     32  C   UNL A   1      39.012  21.470  26.141  1.00  0.00     0.338 C 
ATOM     33  O   UNL A   1      39.654  20.485  25.812  1.00  0.00    -0.246 OA
BRANCH  32  34
ATOM     34  C   UNL A   1      39.598  22.710  26.685  1.00  0.00     0.060 A 
ATOM     35  C   UNL A   1      39.122  23.948  26.230  1.00  0.00     0.016 A 
ATOM     36  C   UNL A   1      40.610  22.647  27.646  1.00  0.00     0.016 A 
ATOM     37  C   UNL A   1      39.686  25.129  26.710  1.00  0.00     0.010 A 
ATOM     38  C   UNL A   1      41.192  23.829  28.104  1.00  0.00     0.010 A 
ATOM     39  C   UNL A   1      40.757  25.072  27.611  1.00  0.00    -0.014 A 
BRANCH  39  40
ATOM     40  C   UNL A   1      41.569  26.283  27.871  1.00  0.00     0.031 A 
ATOM     41  C   UNL A   1      40.933  27.405  28.643  1.00  0.00     0.074 A 
ATOM     42  C   UNL A   1      42.838  26.386  27.441  1.00  0.00     0.049 A 
ATOM     43  N   UNL A   1      41.396  28.599  28.907  1.00  0.00    -0.248 NA
ATOM     44  C   UNL A   1      39.591  27.143  29.191  1.00  0.00     0.031 C 
ATOM     45  C   UNL A   1      43.582  25.342  26.741  1.00  0.00     0.029 A 
ATOM     46  N   UNL A   1      43.721  27.433  27.526  1.00  0.00    -0.354 N 
ATOM     47  C   UNL A   1      40.402  29.230  29.645  1.00  0.00     0.074 A 
ATOM     48  C   UNL A   1      39.301  28.301  29.764  1.00  0.00     0.031 C 
ATOM     49  C   UNL A   1      44.807  25.808  26.444  1.00  0.00     0.029 A 
ATOM     50  C   UNL A   1      44.918  27.194  26.897  1.00  0.00     0.049 A 
ATOM     51  H   UNL A   1      43.515  28.275  27.994  1.00  0.00     0.167 HD
ATOM     52  C   UNL A   1      40.412  30.472  30.180  1.00  0.00     0.037 A 
ATOM     53  C   UNL A   1      45.966  28.015  26.687  1.00  0.00     0.037 A 
ATOM     54  C   UNL A   1      41.509  31.394  30.053  1.00  0.00     0.049 A 
ATOM     55  C   UNL A   1      45.914  29.429  27.208  1.00  0.00     0.074 A 
ATOM     56  C   UNL A   1      41.613  32.678  30.557  1.00  0.00     0.029 A 
ATOM     57  N   UNL A   1      42.687  31.133  29.371  1.00  0.00    -0.354 N 
ATOM     58  N   UNL A   1      44.971  30.023  27.900  1.00  0.00    -0.248 NA
ATOM     59  C   UNL A   1      47.072  30.287  26.918  1.00  0.00     0.031 C 
ATOM     60  C   UNL A   1      42.832  33.214  30.131  1.00  0.00     0.029 A 
ATOM     61  C   UNL A   1      43.514  32.240  29.420  1.00  0.00     0.049 A 
ATOM     62  H   UNL A   1      42.902  30.284  28.919  1.00  0.00     0.167 HD
ATOM     63  C   UNL A   1      45.433  31.309  28.153  1.00  0.00     0.074 A 
ATOM     64  C   UNL A   1      46.746  31.405  27.552  1.00  0.00     0.031 C 
ATOM     65  C   UNL A   1      44.825  32.319  28.823  1.00  0.00     0.037 A 
BRANCH  52  66
ATOM     66  C   UNL A   1      39.195  30.919  30.935  1.00  0.00     0.057 A 
ATOM     67  C   UNL A   1      39.028  30.644  32.298  1.00  0.00     0.134 A 
ATOM     68  C   UNL A   1      38.208  31.687  30.304  1.00  0.00     0.134 A 
ATOM     69  F   UNL A   1      39.927  29.898  32.958  1.00  0.00    -0.206 F 
ATOM     70  C   UNL A   1      37.921  31.116  33.007  1.00  0.00     0.040 A 
ATOM     71  C   UNL A   1      37.111  32.186  31.008  1.00  0.00     0.040 A 
ATOM     72  F   UNL A   1      38.305  31.983  28.999  1.00  0.00    -0.206 F 
ATOM     73  C   UNL A   1      36.965  31.899  32.363  1.00  0.00     0.006 A 
ENDBRANCH  52  66
BRANCH  53  74
ATOM     74  C   UNL A   1      47.153  27.525  25.937  1.00  0.00     0.057 A 
ATOM     75  C   UNL A   1      47.200  27.580  24.540  1.00  0.00     0.134 A 
ATOM     76  C   UNL A   1      48.264  26.987  26.598  1.00  0.00     0.134 A 
ATOM     77  F   UNL A   1      46.156  28.060  23.848  1.00  0.00    -0.206 F 
ATOM     78  C   UNL A   1      48.304  27.113  23.825  1.00  0.00     0.040 A 
ATOM     79  C   UNL A   1      49.386  26.541  25.898  1.00  0.00     0.040 A 
ATOM     80  F   UNL A   1      48.282  26.900  27.936  1.00  0.00    -0.206 F 
ATOM     81  C   UNL A   1      49.406  26.598  24.506  1.00  0.00     0.006 A 
ENDBRANCH  53  74
BRANCH  65  82
ATOM     82  C   UNL A   1      45.579  33.610  28.977  1.00  0.00     0.057 A 
ATOM     83  C   UNL A   1      45.422  34.673  28.079  1.00  0.00     0.134 A 
ATOM     84  C   UNL A   1      46.422  33.815  30.079  1.00  0.00     0.134 A 
ATOM     85  F   UNL A   1      44.636  34.542  27.001  1.00  0.00    -0.206 F 
ATOM     86  C   UNL A   1      46.092  35.884  28.260  1.00  0.00     0.040 A 
ATOM     87  C   UNL A   1      47.072  35.032  30.286  1.00  0.00     0.040 A 
ATOM     88  F   UNL A   1      46.606  32.843  30.986  1.00  0.00    -0.206 F 
ATOM     89  C   UNL A   1      46.912  36.069  29.371  1.00  0.00     0.006 A 
ENDBRANCH  65  82
ENDBRANCH  39  40
ENDBRANCH  32  34
ENDBRANCH  31  32
ENDBRANCH  30  31
ENDBRANCH  29  30
ENDBRANCH  28  29
ENDBRANCH  27  28
ENDBRANCH   1  27
TORSDOF 21
ENDMDL
MODEL 2
REMARK VINA RESULT:     -10.1      2.025      6.676
REMARK SMILES Cc1cc(Cl)c2c(c1)C=C(C(=O)OCCOCCOCCOCCOC(=O)c1ccc(-c3c4nc(c(-c5c(F)cccc5F)c5ccc([nH]5)c(-c5c(F)cccc5F)c5nc(c(-c6c(F)cccc6F)c6ccc3[nH]6)C=C5)C=C4)cc1)[C@@H](C(F)(F)F)O2
REMARK SMILES IDX 20 1 19 2 18 3 17 4 16 5 15 6 14 7 13 8 11 9 12 10 10 11
REMARK SMILES IDX 1 12 2 13 3 14 8 15 4 16 7 17 5 18 6 19 9 20 87 21 82 22
REMARK SMILES IDX 83 23 84 24 85 25 86 26 21 27 22 28 23 29 24 30 25 31 26 32
REMARK SMILES IDX 27 33 28 34 29 35 81 36 30 37 80 38 31 39 32 40 33 41 74 42
REMARK SMILES IDX 34 43 79 44 73 45 75 46 35 47 78 48 72 49 71 50 36 52 62 53
REMARK SMILES IDX 45 54 61 55 46 56 49 57 60 58 76 59 47 60 48 61 59 63 77 64
REMARK SMILES IDX 50 65 37 66 38 67 43 68 39 69 40 70 42 71 44 72 41 73 63 74
REMARK SMILES IDX 64 75 69 76 65 77 66 78 68 79 70 80 67 81 51 82 52 83 57 84
REMARK SMILES IDX 53 85 54 86 56 87 58 88 55 89
REMARK H PARENT 75 51 49 62
REMARK Flexibility Score: inf
ROOT
ATOM      1  C   UNL A   1      36.109  23.280  23.632  1.00  0.00     0.188 C 
ENDROOT
BRANCH   1   2
ATOM      2  O   UNL A   1      35.187  23.314  22.541  1.00  0.00    -0.377 OA
BRANCH   2   3
ATOM      3  C   UNL A   1      33.804  23.219  22.846  1.00  0.00     0.188 C 
BRANCH   3   4
ATOM      4  C   UNL A   1      33.014  24.490  22.473  1.00  0.00     0.188 C 
BRANCH   4   5
ATOM      5  O   UNL A   1      33.802  25.527  21.921  1.00  0.00    -0.376 OA
BRANCH   5   6
ATOM      6  C   UNL A   1      33.270  26.801  21.599  1.00  0.00     0.202 C 
BRANCH   6   7
ATOM      7  C   UNL A   1      33.394  28.079  22.452  1.00  0.00     0.261 C 
BRANCH   7   8
ATOM      8  O   UNL A   1      33.901  27.952  23.777  1.00  0.00    -0.460 OA
BRANCH   8   9
ATOM      9  C   UNL A   1      33.080  28.294  24.786  1.00  0.00     0.338 C 
ATOM     10  O   UNL A   1      32.698  29.414  25.071  1.00  0.00    -0.246 OA
BRANCH   9  11
ATOM     11  C   UNL A   1      32.570  27.044  25.388  1.00  0.00     0.087 C 
ATOM     12  C   UNL A   1      34.477  21.452  27.061  1.00  0.00     0.044 C 
ATOM     13  C   UNL A   1      33.486  22.564  26.898  1.00  0.00    -0.049 A 
ATOM     14  C   UNL A   1      32.114  22.349  27.074  1.00  0.00     0.028 A 
ATOM     15  C   UNL A   1      33.927  23.832  26.503  1.00  0.00     0.015 A 
ATOM     16  C   UNL A   1      31.204  23.393  26.878  1.00  0.00     0.084 A 
ATOM     17  C   UNL A   1      33.012  24.862  26.254  1.00  0.00     0.019 A 
ATOM     18  Cl  UNL A   1      29.523  23.063  27.104  1.00  0.00    -0.080 Cl
ATOM     19  C   UNL A   1      31.647  24.657  26.468  1.00  0.00     0.146 A 
ATOM     20  C   UNL A   1      33.483  26.114  25.693  1.00  0.00     0.027 C 
ATOM     21  O   UNL A   1      30.712  25.638  26.281  1.00  0.00    -0.474 OA
ATOM     22  C   UNL A   1      31.101  26.906  25.689  1.00  0.00     0.316 C 
BRANCH  22  23
ATOM     23  C   UNL A   1      30.236  27.146  24.445  1.00  0.00     0.430 C 
ATOM     24  F   UNL A   1      30.730  26.499  23.363  1.00  0.00    -0.167 F 
ATOM     25  F   UNL A   1      28.969  26.701  24.617  1.00  0.00    -0.167 F 
ATOM     26  F   UNL A   1      30.161  28.461  24.135  1.00  0.00    -0.167 F 
ENDBRANCH  22  23
ENDBRANCH   9  11
ENDBRANCH   8   9
ENDBRANCH   7   8
ENDBRANCH   6   7
ENDBRANCH   5   6
ENDBRANCH   4   5
ENDBRANCH   3   4
ENDBRANCH   2   3
ENDBRANCH   1   2
BRANCH   1  27
ATOM     27  C   UNL A   1      36.505  21.949  24.315  1.00  0.00     0.188 C 
BRANCH  27  28
ATOM     28  O   UNL A   1      37.885  21.847  24.642  1.00  0.00    -0.376 OA
BRANCH  28  29
ATOM     29  C   UNL A   1      38.268  21.052  25.750  1.00  0.00     0.202 C 
BRANCH  29  30
ATOM     30  C   UNL A   1      39.197  19.869  25.451  1.00  0.00     0.261 C 
BRANCH  30  31
ATOM     31  O   UNL A   1      40.067  19.475  26.522  1.00  0.00    -0.460 OA
BRANCH  31  32
ATOM     32  C   UNL A   1      41.384  19.385  26.247  1.00  0.00     0.338 C 
ATOM     33  O   UNL A   1      41.970  18.449  25.727  1.00  0.00    -0.246 OA
BRANCH  32  34
ATOM     34  C   UNL A   1      41.986  20.706  26.517  1.00  0.00     0.060 A 
ATOM     35  C   UNL A   1      42.137  21.129  27.844  1.00  0.00     0.016 A 
ATOM     36  C   UNL A   1      42.402  21.517  25.460  1.00  0.00     0.016 A 
ATOM     37  C   UNL A   1      42.674  22.387  28.117  1.00  0.00     0.010 A 
ATOM     38  C   UNL A   1      42.913  22.787  25.733  1.00  0.00     0.010 A 
ATOM     39  C   UNL A   1      43.017  23.239  27.060  1.00  0.00    -0.014 A 
BRANCH  39  40
ATOM     40  C   UNL A   1      43.272  24.674  27.321  1.00  0.00     0.031 A 
ATOM     41  C   UNL A   1      44.689  25.167  27.225  1.00  0.00     0.074 A 
ATOM     42  C   UNL A   1      42.276  25.522  27.631  1.00  0.00     0.049 A 
ATOM     43  N   UNL A   1      45.181  26.345  27.507  1.00  0.00    -0.248 NA
ATOM     44  C   UNL A   1      45.687  24.196  26.744  1.00  0.00     0.031 C 
ATOM     45  C   UNL A   1      40.859  25.177  27.691  1.00  0.00     0.029 A 
ATOM     46  N   UNL A   1      42.316  26.853  27.963  1.00  0.00    -0.354 N 
ATOM     47  C   UNL A   1      46.542  26.254  27.244  1.00  0.00     0.074 A 
ATOM     48  C   UNL A   1      46.806  24.902  26.807  1.00  0.00     0.031 C 
ATOM     49  C   UNL A   1      40.163  26.268  28.056  1.00  0.00     0.029 A 
ATOM     50  C   UNL A   1      41.090  27.373  28.294  1.00  0.00     0.049 A 
ATOM     51  H   UNL A   1      43.145  27.384  27.964  1.00  0.00     0.167 HD
ATOM     52  C   UNL A   1      47.486  27.217  27.352  1.00  0.00     0.037 A 
ATOM     53  C   UNL A   1      40.763  28.593  28.766  1.00  0.00     0.037 A 
ATOM     54  C   UNL A   1      47.218  28.560  27.792  1.00  0.00     0.049 A 
ATOM     55  C   UNL A   1      41.847  29.620  28.972  1.00  0.00     0.074 A 
ATOM     56  C   UNL A   1      48.108  29.609  27.940  1.00  0.00     0.029 A 
ATOM     57  N   UNL A   1      45.970  29.037  28.162  1.00  0.00    -0.354 N 
ATOM     58  N   UNL A   1      43.132  29.529  28.727  1.00  0.00    -0.248 NA
ATOM     59  C   UNL A   1      41.435  30.921  29.521  1.00  0.00     0.031 C 
ATOM     60  C   UNL A   1      47.408  30.705  28.452  1.00  0.00     0.029 A 
ATOM     61  C   UNL A   1      46.071  30.358  28.560  1.00  0.00     0.049 A 
ATOM     62  H   UNL A   1      45.137  28.513  28.144  1.00  0.00     0.167 HD
ATOM     63  C   UNL A   1      43.675  30.764  29.063  1.00  0.00     0.074 A 
ATOM     64  C   UNL A   1      42.578  31.592  29.516  1.00  0.00     0.031 C 
ATOM     65  C   UNL A   1      44.966  31.175  29.001  1.00  0.00     0.037 A 
BRANCH  52  66
ATOM     66  C   UNL A   1      48.900  26.853  27.009  1.00  0.00     0.057 A 
ATOM     67  C   UNL A   1      49.769  26.291  27.953  1.00  0.00     0.134 A 
ATOM     68  C   UNL A   1      49.377  27.006  25.702  1.00  0.00     0.134 A 
ATOM     69  F   UNL A   1      49.380  26.134  29.228  1.00  0.00    -0.206 F 
ATOM     70  C   UNL A   1      51.064  25.898  27.610  1.00  0.00     0.040 A 
ATOM     71  C   UNL A   1      50.660  26.594  25.340  1.00  0.00     0.040 A 
ATOM     72  F   UNL A   1      48.598  27.541  24.750  1.00  0.00    -0.206 F 
ATOM     73  C   UNL A   1      51.509  26.039  26.296  1.00  0.00     0.006 A 
ENDBRANCH  52  66
BRANCH  53  74
ATOM     74  C   UNL A   1      39.346  28.909  29.087  1.00  0.00     0.057 A 
ATOM     75  C   UNL A   1      38.826  28.679  30.365  1.00  0.00     0.134 A 
ATOM     76  C   UNL A   1      38.479  29.442  28.126  1.00  0.00     0.134 A 
ATOM     77  F   UNL A   1      39.598  28.145  31.323  1.00  0.00    -0.206 F 
ATOM     78  C   UNL A   1      37.493  28.961  30.675  1.00  0.00     0.040 A 
ATOM     79  C   UNL A   1      37.153  29.755  28.428  1.00  0.00     0.040 A 
ATOM     80  F   UNL A   1      38.913  29.681  26.880  1.00  0.00    -0.206 F 
ATOM     81  C   UNL A   1      36.655  29.509  29.706  1.00  0.00     0.006 A 
ENDBRANCH  53  74
BRANCH  65  82
ATOM     82  C   UNL A   1      45.269  32.592  29.398  1.00  0.00     0.057 A 
ATOM     83  C   UNL A   1      45.182  33.652  28.487  1.00  0.00     0.134 A 
ATOM     84  C   UNL A   1      45.584  32.907  30.728  1.00  0.00     0.134 A 
ATOM     85  F   UNL A   1      44.892  33.420  27.199  1.00  0.00    -0.206 F 
ATOM     86  C   UNL A   1      45.420  34.971  28.879  1.00  0.00     0.040 A 
ATOM     87  C   UNL A   1      45.792  34.225  31.137  1.00  0.00     0.040 A 
ATOM     88  F   UNL A   1      45.668  31.942  31.655  1.00  0.00    -0.206 F 
ATOM     89  C   UNL A   1      45.716  35.261  30.209  1.00  0.00     0.006 A 
ENDBRANCH  65  82
ENDBRANCH  39  40
ENDBRANCH  32  34
ENDBRANCH  31  32
ENDBRANCH  30  31
ENDBRANCH  29  30
ENDBRANCH  28  29
ENDBRANCH  27  28
ENDBRANCH   1  27
TORSDOF 21
ENDMDL
MODEL 3
REMARK VINA RESULT:     -10.1      3.753      7.701
REMARK SMILES Cc1cc(Cl)c2c(c1)C=C(C(=O)OCCOCCOCCOCCOC(=O)c1ccc(-c3c4nc(c(-c5c(F)cccc5F)c5ccc([nH]5)c(-c5c(F)cccc5F)c5nc(c(-c6c(F)cccc6F)c6ccc3[nH]6)C=C5)C=C4)cc1)[C@@H](C(F)(F)F)O2
REMARK SMILES IDX 20 1 19 2 18 3 17 4 16 5 15 6 14 7 13 8 11 9 12 10 10 11
REMARK SMILES IDX 1 12 2 13 3 14 8 15 4 16 7 17 5 18 6 19 9 20 87 21 82 22
REMARK SMILES IDX 83 23 84 24 85 25 86 26 21 27 22 28 23 29 24 30 25 31 26 32
REMARK SMILES IDX 27 33 28 34 29 35 81 36 30 37 80 38 31 39 32 40 33 41 74 42
REMARK SMILES IDX 34 43 79 44 73 45 75 46 35 47 78 48 72 49 71 50 36 52 62 53
REMARK SMILES IDX 45 54 61 55 46 56 49 57 60 58 76 59 47 60 48 61 59 63 77 64
REMARK SMILES IDX 50 65 37 66 38 67 43 68 39 69 40 70 42 71 44 72 41 73 63 74
REMARK SMILES IDX 64 75 69 76 65 77 66 78 68 79 70 80 67 81 51 82 52 83 57 84
REMARK SMILES IDX 53 85 54 86 56 87 58 88 55 89
REMARK H PARENT 75 51 49 62
REMARK Flexibility Score: inf
ROOT
ATOM      1  C   UNL A   1      41.056  21.538  26.109  1.00  0.00     0.188 C 
ENDROOT
BRANCH   1   2
ATOM      2  O   UNL A   1      40.042  21.964  27.021  1.00  0.00    -0.377 OA
BRANCH   2   3
ATOM      3  C   UNL A   1      38.884  22.578  26.478  1.00  0.00     0.188 C 
BRANCH   3   4
ATOM      4  C   UNL A   1      38.144  21.684  25.464  1.00  0.00     0.188 C 
BRANCH   4   5
ATOM      5  O   UNL A   1      36.785  22.022  25.268  1.00  0.00    -0.376 OA
BRANCH   5   6
ATOM      6  C   UNL A   1      36.154  23.082  25.966  1.00  0.00     0.202 C 
BRANCH   6   7
ATOM      7  C   UNL A   1      34.728  23.614  25.715  1.00  0.00     0.261 C 
BRANCH   7   8
ATOM      8  O   UNL A   1      33.984  24.085  26.835  1.00  0.00    -0.460 OA
BRANCH   8   9
ATOM      9  C   UNL A   1      32.644  24.097  26.723  1.00  0.00     0.338 C 
ATOM     10  O   UNL A   1      31.856  23.361  27.286  1.00  0.00    -0.246 OA
BRANCH   9  11
ATOM     11  C   UNL A   1      32.275  25.286  25.925  1.00  0.00     0.087 C 
ATOM     12  C   UNL A   1      31.480  31.346  26.515  1.00  0.00     0.044 C 
ATOM     13  C   UNL A   1      31.528  30.040  25.780  1.00  0.00    -0.049 A 
ATOM     14  C   UNL A   1      31.015  29.915  24.485  1.00  0.00     0.028 A 
ATOM     15  C   UNL A   1      32.040  28.905  26.419  1.00  0.00     0.015 A 
ATOM     16  C   UNL A   1      31.035  28.677  23.834  1.00  0.00     0.084 A 
ATOM     17  C   UNL A   1      32.009  27.656  25.788  1.00  0.00     0.019 A 
ATOM     18  Cl  UNL A   1      30.380  28.585  22.237  1.00  0.00    -0.080 Cl
ATOM     19  C   UNL A   1      31.533  27.540  24.480  1.00  0.00     0.146 A 
ATOM     20  C   UNL A   1      32.398  26.472  26.532  1.00  0.00     0.027 C 
ATOM     21  O   UNL A   1      31.518  26.353  23.800  1.00  0.00    -0.474 OA
ATOM     22  C   UNL A   1      31.858  25.119  24.487  1.00  0.00     0.316 C 
BRANCH  22  23
ATOM     23  C   UNL A   1      30.684  24.143  24.340  1.00  0.00     0.430 C 
ATOM     24  F   UNL A   1      29.988  24.369  23.201  1.00  0.00    -0.167 F 
ATOM     25  F   UNL A   1      31.102  22.856  24.289  1.00  0.00    -0.167 F 
ATOM     26  F   UNL A   1      29.817  24.243  25.374  1.00  0.00    -0.167 F 
ENDBRANCH  22  23
ENDBRANCH   9  11
ENDBRANCH   8   9
ENDBRANCH   7   8
ENDBRANCH   6   7
ENDBRANCH   5   6
ENDBRANCH   4   5
ENDBRANCH   3   4
ENDBRANCH   2   3
ENDBRANCH   1   2
BRANCH   1  27
ATOM     27  C   UNL A   1      41.778  20.179  26.279  1.00  0.00     0.188 C 
BRANCH  27  28
ATOM     28  O   UNL A   1      42.792  19.932  25.314  1.00  0.00    -0.376 OA
BRANCH  28  29
ATOM     29  C   UNL A   1      44.112  20.371  25.583  1.00  0.00     0.202 C 
BRANCH  29  30
ATOM     30  C   UNL A   1      44.477  21.778  25.093  1.00  0.00     0.261 C 
BRANCH  30  31
ATOM     31  O   UNL A   1      44.170  22.850  25.996  1.00  0.00    -0.460 OA
BRANCH  31  32
ATOM     32  C   UNL A   1      44.449  24.103  25.586  1.00  0.00     0.338 C 
ATOM     33  O   UNL A   1      45.086  24.435  24.599  1.00  0.00    -0.246 OA
BRANCH  32  34
ATOM     34  C   UNL A   1      43.685  25.032  26.443  1.00  0.00     0.060 A 
ATOM     35  C   UNL A   1      43.902  26.411  26.318  1.00  0.00     0.016 A 
ATOM     36  C   UNL A   1      42.756  24.538  27.360  1.00  0.00     0.016 A 
ATOM     37  C   UNL A   1      43.213  27.300  27.141  1.00  0.00     0.010 A 
ATOM     38  C   UNL A   1      42.088  25.427  28.202  1.00  0.00     0.010 A 
ATOM     39  C   UNL A   1      42.341  26.808  28.120  1.00  0.00    -0.014 A 
BRANCH  39  40
ATOM     40  C   UNL A   1      41.864  27.701  29.201  1.00  0.00     0.031 A 
ATOM     41  C   UNL A   1      42.600  27.677  30.511  1.00  0.00     0.074 A 
ATOM     42  C   UNL A   1      40.809  28.515  29.027  1.00  0.00     0.049 A 
ATOM     43  N   UNL A   1      42.316  28.283  31.635  1.00  0.00    -0.248 NA
ATOM     44  C   UNL A   1      43.823  26.858  30.559  1.00  0.00     0.031 C 
ATOM     45  C   UNL A   1      40.057  28.673  27.785  1.00  0.00     0.029 A 
ATOM     46  N   UNL A   1      40.185  29.358  29.912  1.00  0.00    -0.354 N 
ATOM     47  C   UNL A   1      43.320  27.914  32.521  1.00  0.00     0.074 A 
ATOM     48  C   UNL A   1      44.204  27.012  31.818  1.00  0.00     0.031 C 
ATOM     49  C   UNL A   1      39.058  29.549  27.992  1.00  0.00     0.029 A 
ATOM     50  C   UNL A   1      39.078  29.981  29.389  1.00  0.00     0.049 A 
ATOM     51  H   UNL A   1      40.500  29.503  30.833  1.00  0.00     0.167 HD
ATOM     52  C   UNL A   1      43.491  28.299  33.807  1.00  0.00     0.037 A 
ATOM     53  C   UNL A   1      38.171  30.781  29.983  1.00  0.00     0.037 A 
ATOM     54  C   UNL A   1      42.605  29.192  34.503  1.00  0.00     0.049 A 
ATOM     55  C   UNL A   1      38.327  31.118  31.444  1.00  0.00     0.074 A 
ATOM     56  C   UNL A   1      42.690  29.641  35.809  1.00  0.00     0.029 A 
ATOM     57  N   UNL A   1      41.470  29.767  33.954  1.00  0.00    -0.354 N 
ATOM     58  N   UNL A   1      39.274  30.763  32.280  1.00  0.00    -0.248 NA
ATOM     59  C   UNL A   1      37.288  31.967  32.046  1.00  0.00     0.031 C 
ATOM     60  C   UNL A   1      41.575  30.444  36.067  1.00  0.00     0.029 A 
ATOM     61  C   UNL A   1      40.832  30.548  34.902  1.00  0.00     0.049 A 
ATOM     62  H   UNL A   1      41.164  29.639  33.027  1.00  0.00     0.167 HD
ATOM     63  C   UNL A   1      38.962  31.367  33.492  1.00  0.00     0.074 A 
ATOM     64  C   UNL A   1      37.746  32.122  33.280  1.00  0.00     0.031 C 
ATOM     65  C   UNL A   1      39.624  31.303  34.674  1.00  0.00     0.037 A 
BRANCH  52  66
ATOM     66  C   UNL A   1      44.668  27.743  34.553  1.00  0.00     0.057 A 
ATOM     67  C   UNL A   1      44.598  26.525  35.241  1.00  0.00     0.134 A 
ATOM     68  C   UNL A   1      45.902  28.403  34.530  1.00  0.00     0.134 A 
ATOM     69  F   UNL A   1      43.441  25.851  35.319  1.00  0.00    -0.206 F 
ATOM     70  C   UNL A   1      45.715  25.985  35.883  1.00  0.00     0.040 A 
ATOM     71  C   UNL A   1      47.032  27.861  35.144  1.00  0.00     0.040 A 
ATOM     72  F   UNL A   1      46.036  29.576  33.892  1.00  0.00    -0.206 F 
ATOM     73  C   UNL A   1      46.939  26.649  35.825  1.00  0.00     0.006 A 
ENDBRANCH  52  66
BRANCH  53  74
ATOM     74  C   UNL A   1      37.024  31.312  29.200  1.00  0.00     0.057 A 
ATOM     75  C   UNL A   1      35.907  30.516  28.923  1.00  0.00     0.134 A 
ATOM     76  C   UNL A   1      37.019  32.622  28.707  1.00  0.00     0.134 A 
ATOM     77  F   UNL A   1      35.863  29.244  29.345  1.00  0.00    -0.206 F 
ATOM     78  C   UNL A   1      34.829  31.000  28.179  1.00  0.00     0.040 A 
ATOM     79  C   UNL A   1      35.937  33.128  27.985  1.00  0.00     0.040 A 
ATOM     80  F   UNL A   1      38.060  33.436  28.933  1.00  0.00    -0.206 F 
ATOM     81  C   UNL A   1      34.839  32.314  27.714  1.00  0.00     0.006 A 
ENDBRANCH  53  74
BRANCH  65  82
ATOM     82  C   UNL A   1      39.074  32.093  35.828  1.00  0.00     0.057 A 
ATOM     83  C   UNL A   1      38.213  31.523  36.774  1.00  0.00     0.134 A 
ATOM     84  C   UNL A   1      39.467  33.424  36.031  1.00  0.00     0.134 A 
ATOM     85  F   UNL A   1      37.793  30.258  36.636  1.00  0.00    -0.206 F 
ATOM     86  C   UNL A   1      37.746  32.255  37.868  1.00  0.00     0.040 A 
ATOM     87  C   UNL A   1      39.032  34.153  37.137  1.00  0.00     0.040 A 
ATOM     88  F   UNL A   1      40.302  34.026  35.171  1.00  0.00    -0.206 F 
ATOM     89  C   UNL A   1      38.163  33.571  38.057  1.00  0.00     0.006 A 
ENDBRANCH  65  82
ENDBRANCH  39  40
ENDBRANCH  32  34
ENDBRANCH  31  32
ENDBRANCH  30  31
ENDBRANCH  29  30
ENDBRANCH  28  29
ENDBRANCH  27  28
ENDBRANCH   1  27
TORSDOF 21
ENDMDL
