MODEL 1
REMARK VINA RESULT:      -9.5      0.000      0.000
REMARK SMILES O=C(OCCOCCOCCOCCOC(=O)c1cc(SC[C@H]2CCOC2)ccn1)c1ccc(-c2c3nc(c(-c4c(F)cccc4F)c4ccc([nH]4)c(-c4c(F)cccc4F)c4nc(c(-c5c(F)cccc5F)c5ccc2[nH]5)C=C4)C=C3)cc1
REMARK SMILES IDX 10 1 9 2 8 3 7 4 6 5 5 6 4 7 3 8 2 9 1 10 31 11 32 12 84 13
REMARK SMILES IDX 33 14 83 15 34 16 35 17 36 18 77 19 37 20 82 21 76 22 78 23
REMARK SMILES IDX 38 24 81 25 75 26 74 27 39 29 65 30 48 31 64 32 49 33 52 34
REMARK SMILES IDX 63 35 79 36 50 37 51 38 62 40 80 41 53 42 40 43 41 44 46 45
REMARK SMILES IDX 42 46 43 47 45 48 47 49 44 50 66 51 67 52 72 53 68 54 69 55
REMARK SMILES IDX 71 56 73 57 70 58 54 59 55 60 60 61 56 62 57 63 59 64 61 65
REMARK SMILES IDX 58 66 11 67 12 68 13 69 14 70 15 71 16 72 17 73 18 74 19 75
REMARK SMILES IDX 30 76 20 77 29 78 28 79 21 80 22 81 23 82 24 83 27 84 25 85
REMARK SMILES IDX 26 86
REMARK H PARENT 78 28 52 39
REMARK Flexibility Score: inf
ROOT
ATOM      1  C   UNL A   1      43.877  18.964  24.784  1.00  0.00     0.188 C 
ENDROOT
BRANCH   1   2
ATOM      2  O   UNL A   1      45.127  18.327  25.024  1.00  0.00    -0.377 OA
BRANCH   2   3
ATOM      3  C   UNL A   1      46.223  19.159  25.404  1.00  0.00     0.188 C 
BRANCH   3   4
ATOM      4  C   UNL A   1      46.470  20.367  24.497  1.00  0.00     0.188 C 
BRANCH   4   5
ATOM      5  O   UNL A   1      46.185  21.570  25.207  1.00  0.00    -0.376 OA
BRANCH   5   6
ATOM      6  C   UNL A   1      46.076  22.754  24.425  1.00  0.00     0.202 C 
BRANCH   6   7
ATOM      7  C   UNL A   1      46.073  24.053  25.234  1.00  0.00     0.261 C 
BRANCH   7   8
ATOM      8  O   UNL A   1      44.915  24.864  24.990  1.00  0.00    -0.460 OA
BRANCH   8   9
ATOM      9  C   UNL A   1      43.672  24.702  25.504  1.00  0.00     0.338 C 
ATOM     10  O   UNL A   1      42.926  23.873  24.984  1.00  0.00    -0.246 OA
BRANCH   9  11
ATOM     11  C   UNL A   1      43.149  25.456  26.684  1.00  0.00     0.060 A 
ATOM     12  C   UNL A   1      42.155  25.002  27.552  1.00  0.00     0.016 A 
ATOM     13  C   UNL A   1      43.793  26.664  27.002  1.00  0.00     0.016 A 
ATOM     14  C   UNL A   1      41.773  25.726  28.673  1.00  0.00     0.010 A 
ATOM     15  C   UNL A   1      43.442  27.383  28.148  1.00  0.00     0.010 A 
ATOM     16  C   UNL A   1      42.420  26.915  28.982  1.00  0.00    -0.014 A 
BRANCH  16  17
ATOM     17  C   UNL A   1      41.932  27.699  30.128  1.00  0.00     0.031 A 
ATOM     18  C   UNL A   1      40.700  28.525  29.938  1.00  0.00     0.074 A 
ATOM     19  C   UNL A   1      42.535  27.588  31.325  1.00  0.00     0.049 A 
ATOM     20  N   UNL A   1      40.156  29.397  30.738  1.00  0.00    -0.248 NA
ATOM     21  C   UNL A   1      39.974  28.334  28.668  1.00  0.00     0.031 C 
ATOM     22  C   UNL A   1      43.662  26.698  31.625  1.00  0.00     0.029 A 
ATOM     23  N   UNL A   1      42.283  28.217  32.514  1.00  0.00    -0.354 N 
ATOM     24  C   UNL A   1      39.058  29.897  30.052  1.00  0.00     0.074 A 
ATOM     25  C   UNL A   1      38.996  29.220  28.778  1.00  0.00     0.031 C 
ATOM     26  C   UNL A   1      44.005  26.845  32.916  1.00  0.00     0.029 A 
ATOM     27  C   UNL A   1      43.180  27.892  33.505  1.00  0.00     0.049 A 
ATOM     28  H   UNL A   1      41.533  28.841  32.648  1.00  0.00     0.167 HD
ATOM     29  C   UNL A   1      38.197  30.855  30.458  1.00  0.00     0.037 A 
ATOM     30  C   UNL A   1      43.346  28.438  34.724  1.00  0.00     0.037 A 
ATOM     31  C   UNL A   1      38.283  31.489  31.744  1.00  0.00     0.049 A 
ATOM     32  C   UNL A   1      42.432  29.569  35.114  1.00  0.00     0.074 A 
ATOM     33  C   UNL A   1      37.486  32.484  32.274  1.00  0.00     0.029 A 
ATOM     34  N   UNL A   1      39.239  31.179  32.703  1.00  0.00    -0.354 N 
ATOM     35  N   UNL A   1      41.419  30.076  34.451  1.00  0.00    -0.248 NA
ATOM     36  C   UNL A   1      42.699  30.228  36.398  1.00  0.00     0.031 C 
ATOM     37  C   UNL A   1      37.994  32.814  33.535  1.00  0.00     0.029 A 
ATOM     38  C   UNL A   1      39.077  31.991  33.809  1.00  0.00     0.049 A 
ATOM     39  H   UNL A   1      39.929  30.483  32.609  1.00  0.00     0.167 HD
ATOM     40  C   UNL A   1      40.925  31.108  35.235  1.00  0.00     0.074 A 
ATOM     41  C   UNL A   1      41.733  31.134  36.439  1.00  0.00     0.031 C 
ATOM     42  C   UNL A   1      39.908  31.969  34.986  1.00  0.00     0.037 A 
BRANCH  29  43
ATOM     43  C   UNL A   1      37.167  31.321  29.476  1.00  0.00     0.057 A 
ATOM     44  C   UNL A   1      37.257  32.553  28.816  1.00  0.00     0.134 A 
ATOM     45  C   UNL A   1      36.056  30.516  29.194  1.00  0.00     0.134 A 
ATOM     46  F   UNL A   1      38.279  33.385  29.064  1.00  0.00    -0.206 F 
ATOM     47  C   UNL A   1      36.270  32.971  27.921  1.00  0.00     0.040 A 
ATOM     48  C   UNL A   1      35.074  30.914  28.287  1.00  0.00     0.040 A 
ATOM     49  F   UNL A   1      35.904  29.329  29.803  1.00  0.00    -0.206 F 
ATOM     50  C   UNL A   1      35.178  32.148  27.649  1.00  0.00     0.006 A 
ENDBRANCH  29  43
BRANCH  30  51
ATOM     51  C   UNL A   1      44.465  28.007  35.607  1.00  0.00     0.057 A 
ATOM     52  C   UNL A   1      44.283  27.052  36.613  1.00  0.00     0.134 A 
ATOM     53  C   UNL A   1      45.742  28.577  35.492  1.00  0.00     0.134 A 
ATOM     54  F   UNL A   1      43.082  26.484  36.794  1.00  0.00    -0.206 F 
ATOM     55  C   UNL A   1      45.317  26.695  37.483  1.00  0.00     0.040 A 
ATOM     56  C   UNL A   1      46.793  28.207  36.334  1.00  0.00     0.040 A 
ATOM     57  F   UNL A   1      45.991  29.503  34.555  1.00  0.00    -0.206 F 
ATOM     58  C   UNL A   1      46.578  27.271  37.342  1.00  0.00     0.006 A 
ENDBRANCH  30  51
BRANCH  42  59
ATOM     59  C   UNL A   1      39.617  32.993  36.038  1.00  0.00     0.057 A 
ATOM     60  C   UNL A   1      38.750  32.721  37.101  1.00  0.00     0.134 A 
ATOM     61  C   UNL A   1      40.270  34.231  36.024  1.00  0.00     0.134 A 
ATOM     62  F   UNL A   1      38.086  31.556  37.158  1.00  0.00    -0.206 F 
ATOM     63  C   UNL A   1      38.535  33.652  38.117  1.00  0.00     0.040 A 
ATOM     64  C   UNL A   1      40.084  35.160  37.047  1.00  0.00     0.040 A 
ATOM     65  F   UNL A   1      41.120  34.542  35.034  1.00  0.00    -0.206 F 
ATOM     66  C   UNL A   1      39.212  34.871  38.095  1.00  0.00     0.006 A 
ENDBRANCH  42  59
ENDBRANCH  16  17
ENDBRANCH   9  11
ENDBRANCH   8   9
ENDBRANCH   7   8
ENDBRANCH   6   7
ENDBRANCH   5   6
ENDBRANCH   4   5
ENDBRANCH   3   4
ENDBRANCH   2   3
ENDBRANCH   1   2
BRANCH   1  67
ATOM     67  C   UNL A   1      42.922  19.198  25.975  1.00  0.00     0.188 C 
BRANCH  67  68
ATOM     68  O   UNL A   1      41.754  19.943  25.657  1.00  0.00    -0.376 OA
BRANCH  68  69
ATOM     69  C   UNL A   1      40.918  20.276  26.760  1.00  0.00     0.202 C 
BRANCH  69  70
ATOM     70  C   UNL A   1      40.429  21.730  26.821  1.00  0.00     0.261 C 
BRANCH  70  71
ATOM     71  O   UNL A   1      39.331  22.051  25.952  1.00  0.00    -0.459 OA
BRANCH  71  72
ATOM     72  C   UNL A   1      38.470  23.043  26.313  1.00  0.00     0.357 C 
ATOM     73  O   UNL A   1      38.735  24.077  26.865  1.00  0.00    -0.244 OA
BRANCH  72  74
ATOM     74  C   UNL A   1      37.149  22.614  25.754  1.00  0.00     0.149 A 
ATOM     75  C   UNL A   1      36.019  23.349  26.087  1.00  0.00     0.051 A 
ATOM     76  N   UNL A   1      37.115  21.391  25.157  1.00  0.00    -0.249 NA
ATOM     77  C   UNL A   1      34.772  22.775  25.870  1.00  0.00     0.011 A 
ATOM     78  C   UNL A   1      35.890  20.873  24.929  1.00  0.00     0.113 A 
ATOM     79  C   UNL A   1      34.710  21.512  25.275  1.00  0.00     0.035 A 
BRANCH  77  80
ATOM     80  S   UNL A   1      33.230  23.563  26.293  1.00  0.00    -0.126 SA
BRANCH  80  81
ATOM     81  C   UNL A   1      33.155  25.036  25.204  1.00  0.00     0.081 C 
BRANCH  81  82
ATOM     82  C   UNL A   1      32.722  24.867  23.745  1.00  0.00     0.027 C 
ATOM     83  C   UNL A   1      32.157  26.047  22.981  1.00  0.00     0.035 C 
ATOM     84  C   UNL A   1      33.822  24.415  22.801  1.00  0.00     0.164 C 
ATOM     85  C   UNL A   1      32.273  25.589  21.535  1.00  0.00     0.160 C 
ATOM     86  O   UNL A   1      33.265  24.554  21.489  1.00  0.00    -0.381 OA
ENDBRANCH  81  82
ENDBRANCH  80  81
ENDBRANCH  77  80
ENDBRANCH  72  74
ENDBRANCH  71  72
ENDBRANCH  70  71
ENDBRANCH  69  70
ENDBRANCH  68  69
ENDBRANCH  67  68
ENDBRANCH   1  67
TORSDOF 23
ENDMDL
MODEL 2
REMARK VINA RESULT:      -9.2      6.551     13.337
REMARK SMILES O=C(OCCOCCOCCOCCOC(=O)c1cc(SC[C@H]2CCOC2)ccn1)c1ccc(-c2c3nc(c(-c4c(F)cccc4F)c4ccc([nH]4)c(-c4c(F)cccc4F)c4nc(c(-c5c(F)cccc5F)c5ccc2[nH]5)C=C4)C=C3)cc1
REMARK SMILES IDX 10 1 9 2 8 3 7 4 6 5 5 6 4 7 3 8 2 9 1 10 31 11 32 12 84 13
REMARK SMILES IDX 33 14 83 15 34 16 35 17 36 18 77 19 37 20 82 21 76 22 78 23
REMARK SMILES IDX 38 24 81 25 75 26 74 27 39 29 65 30 48 31 64 32 49 33 52 34
REMARK SMILES IDX 63 35 79 36 50 37 51 38 62 40 80 41 53 42 40 43 41 44 46 45
REMARK SMILES IDX 42 46 43 47 45 48 47 49 44 50 66 51 67 52 72 53 68 54 69 55
REMARK SMILES IDX 71 56 73 57 70 58 54 59 55 60 60 61 56 62 57 63 59 64 61 65
REMARK SMILES IDX 58 66 11 67 12 68 13 69 14 70 15 71 16 72 17 73 18 74 19 75
REMARK SMILES IDX 30 76 20 77 29 78 28 79 21 80 22 81 23 82 24 83 27 84 25 85
REMARK SMILES IDX 26 86
REMARK H PARENT 78 28 52 39
REMARK Flexibility Score: inf
ROOT
ATOM      1  C   UNL A   1      35.503  33.853  34.171  1.00  0.00     0.188 C 
ENDROOT
BRANCH   1   2
ATOM      2  O   UNL A   1      35.264  35.255  34.178  1.00  0.00    -0.377 OA
BRANCH   2   3
ATOM      3  C   UNL A   1      34.666  35.822  33.011  1.00  0.00     0.188 C 
BRANCH   3   4
ATOM      4  C   UNL A   1      33.963  37.165  33.226  1.00  0.00     0.188 C 
BRANCH   4   5
ATOM      5  O   UNL A   1      33.354  37.591  32.009  1.00  0.00    -0.376 OA
BRANCH   5   6
ATOM      6  C   UNL A   1      32.719  36.581  31.233  1.00  0.00     0.202 C 
BRANCH   6   7
ATOM      7  C   UNL A   1      33.252  36.446  29.805  1.00  0.00     0.261 C 
BRANCH   7   8
ATOM      8  O   UNL A   1      32.539  35.473  29.029  1.00  0.00    -0.460 OA
BRANCH   8   9
ATOM      9  C   UNL A   1      33.041  34.363  28.435  1.00  0.00     0.338 C 
ATOM     10  O   UNL A   1      32.396  33.839  27.528  1.00  0.00    -0.246 OA
BRANCH   9  11
ATOM     11  C   UNL A   1      34.350  33.739  28.800  1.00  0.00     0.060 A 
ATOM     12  C   UNL A   1      35.542  33.899  28.093  1.00  0.00     0.016 A 
ATOM     13  C   UNL A   1      34.401  33.032  30.014  1.00  0.00     0.016 A 
ATOM     14  C   UNL A   1      36.737  33.349  28.535  1.00  0.00     0.010 A 
ATOM     15  C   UNL A   1      35.606  32.505  30.487  1.00  0.00     0.010 A 
ATOM     16  C   UNL A   1      36.777  32.658  29.737  1.00  0.00    -0.014 A 
BRANCH  16  17
ATOM     17  C   UNL A   1      38.041  32.015  30.133  1.00  0.00     0.031 A 
ATOM     18  C   UNL A   1      38.903  32.719  31.132  1.00  0.00     0.074 A 
ATOM     19  C   UNL A   1      38.346  30.789  29.669  1.00  0.00     0.049 A 
ATOM     20  N   UNL A   1      40.109  32.432  31.533  1.00  0.00    -0.248 NA
ATOM     21  C   UNL A   1      38.318  33.911  31.774  1.00  0.00     0.031 C 
ATOM     22  C   UNL A   1      37.492  29.978  28.796  1.00  0.00     0.029 A 
ATOM     23  N   UNL A   1      39.451  30.007  29.873  1.00  0.00    -0.354 N 
ATOM     24  C   UNL A   1      40.448  33.433  32.433  1.00  0.00     0.074 A 
ATOM     25  C   UNL A   1      39.317  34.325  32.538  1.00  0.00     0.031 C 
ATOM     26  C   UNL A   1      38.109  28.813  28.537  1.00  0.00     0.029 A 
ATOM     27  C   UNL A   1      39.429  28.834  29.156  1.00  0.00     0.049 A 
ATOM     28  H   UNL A   1      40.188  30.258  30.475  1.00  0.00     0.167 HD
ATOM     29  C   UNL A   1      41.617  33.589  33.091  1.00  0.00     0.037 A 
ATOM     30  C   UNL A   1      40.402  27.921  28.973  1.00  0.00     0.037 A 
ATOM     31  C   UNL A   1      42.710  32.665  32.974  1.00  0.00     0.049 A 
ATOM     32  C   UNL A   1      41.727  28.170  29.643  1.00  0.00     0.074 A 
ATOM     33  C   UNL A   1      43.953  32.714  33.572  1.00  0.00     0.029 A 
ATOM     34  N   UNL A   1      42.678  31.516  32.192  1.00  0.00    -0.354 N 
ATOM     35  N   UNL A   1      42.068  29.138  30.462  1.00  0.00    -0.248 NA
ATOM     36  C   UNL A   1      42.811  27.227  29.345  1.00  0.00     0.031 C 
ATOM     37  C   UNL A   1      44.694  31.621  33.109  1.00  0.00     0.029 A 
ATOM     38  C   UNL A   1      43.895  30.867  32.261  1.00  0.00     0.049 A 
ATOM     39  H   UNL A   1      41.903  31.211  31.668  1.00  0.00     0.167 HD
ATOM     40  C   UNL A   1      43.401  28.921  30.778  1.00  0.00     0.074 A 
ATOM     41  C   UNL A   1      43.797  27.710  30.086  1.00  0.00     0.031 C 
ATOM     42  C   UNL A   1      44.233  29.656  31.556  1.00  0.00     0.037 A 
BRANCH  29  43
ATOM     43  C   UNL A   1      41.790  34.832  33.908  1.00  0.00     0.057 A 
ATOM     44  C   UNL A   1      42.456  35.965  33.426  1.00  0.00     0.134 A 
ATOM     45  C   UNL A   1      41.281  34.887  35.212  1.00  0.00     0.134 A 
ATOM     46  F   UNL A   1      42.995  35.967  32.197  1.00  0.00    -0.206 F 
ATOM     47  C   UNL A   1      42.622  37.104  34.218  1.00  0.00     0.040 A 
ATOM     48  C   UNL A   1      41.422  36.026  36.006  1.00  0.00     0.040 A 
ATOM     49  F   UNL A   1      40.642  33.831  35.738  1.00  0.00    -0.206 F 
ATOM     50  C   UNL A   1      42.099  37.138  35.510  1.00  0.00     0.006 A 
ENDBRANCH  29  43
BRANCH  30  51
ATOM     51  C   UNL A   1      40.203  26.767  28.054  1.00  0.00     0.057 A 
ATOM     52  C   UNL A   1      39.455  25.647  28.431  1.00  0.00     0.134 A 
ATOM     53  C   UNL A   1      40.798  26.739  26.784  1.00  0.00     0.134 A 
ATOM     54  F   UNL A   1      38.879  25.596  29.641  1.00  0.00    -0.206 F 
ATOM     55  C   UNL A   1      39.323  24.536  27.593  1.00  0.00     0.040 A 
ATOM     56  C   UNL A   1      40.649  25.650  25.923  1.00  0.00     0.040 A 
ATOM     57  F   UNL A   1      41.534  27.775  26.356  1.00  0.00    -0.206 F 
ATOM     58  C   UNL A   1      39.918  24.537  26.332  1.00  0.00     0.006 A 
ENDBRANCH  30  51
BRANCH  42  59
ATOM     59  C   UNL A   1      45.638  29.161  31.698  1.00  0.00     0.057 A 
ATOM     60  C   UNL A   1      46.658  29.608  30.852  1.00  0.00     0.134 A 
ATOM     61  C   UNL A   1      45.983  28.289  32.737  1.00  0.00     0.134 A 
ATOM     62  F   UNL A   1      46.384  30.433  29.830  1.00  0.00    -0.206 F 
ATOM     63  C   UNL A   1      47.979  29.198  31.031  1.00  0.00     0.040 A 
ATOM     64  C   UNL A   1      47.303  27.893  32.943  1.00  0.00     0.040 A 
ATOM     65  F   UNL A   1      45.048  27.836  33.585  1.00  0.00    -0.206 F 
ATOM     66  C   UNL A   1      48.305  28.346  32.086  1.00  0.00     0.006 A 
ENDBRANCH  42  59
ENDBRANCH  16  17
ENDBRANCH   9  11
ENDBRANCH   8   9
ENDBRANCH   7   8
ENDBRANCH   6   7
ENDBRANCH   5   6
ENDBRANCH   4   5
ENDBRANCH   3   4
ENDBRANCH   2   3
ENDBRANCH   1   2
BRANCH   1  67
ATOM     67  C   UNL A   1      36.659  33.292  35.028  1.00  0.00     0.188 C 
BRANCH  67  68
ATOM     68  O   UNL A   1      36.478  33.434  36.430  1.00  0.00    -0.376 OA
BRANCH  68  69
ATOM     69  C   UNL A   1      37.673  33.525  37.199  1.00  0.00     0.202 C 
BRANCH  69  70
ATOM     70  C   UNL A   1      37.620  32.910  38.604  1.00  0.00     0.261 C 
BRANCH  70  71
ATOM     71  O   UNL A   1      36.311  32.557  39.075  1.00  0.00    -0.459 OA
BRANCH  71  72
ATOM     72  C   UNL A   1      36.107  31.312  39.591  1.00  0.00     0.357 C 
ATOM     73  O   UNL A   1      36.120  30.265  39.002  1.00  0.00    -0.244 OA
BRANCH  72  74
ATOM     74  C   UNL A   1      35.992  31.533  41.067  1.00  0.00     0.149 A 
ATOM     75  C   UNL A   1      34.933  32.294  41.542  1.00  0.00     0.051 A 
ATOM     76  N   UNL A   1      37.070  31.176  41.817  1.00  0.00    -0.249 NA
ATOM     77  C   UNL A   1      35.006  32.789  42.839  1.00  0.00     0.011 A 
ATOM     78  C   UNL A   1      37.099  31.644  43.082  1.00  0.00     0.113 A 
ATOM     79  C   UNL A   1      36.113  32.453  43.623  1.00  0.00     0.035 A 
BRANCH  77  80
ATOM     80  S   UNL A   1      33.758  33.827  43.577  1.00  0.00    -0.126 SA
BRANCH  80  81
ATOM     81  C   UNL A   1      32.222  33.411  42.667  1.00  0.00     0.081 C 
BRANCH  81  82
ATOM     82  C   UNL A   1      31.652  34.418  41.663  1.00  0.00     0.027 C 
ATOM     83  C   UNL A   1      31.657  35.898  41.988  1.00  0.00     0.035 C 
ATOM     84  C   UNL A   1      32.332  34.420  40.306  1.00  0.00     0.164 C 
ATOM     85  C   UNL A   1      31.434  36.535  40.626  1.00  0.00     0.160 C 
ATOM     86  O   UNL A   1      31.810  35.571  39.632  1.00  0.00    -0.381 OA
ENDBRANCH  81  82
ENDBRANCH  80  81
ENDBRANCH  77  80
ENDBRANCH  72  74
ENDBRANCH  71  72
ENDBRANCH  70  71
ENDBRANCH  69  70
ENDBRANCH  68  69
ENDBRANCH  67  68
ENDBRANCH   1  67
TORSDOF 23
ENDMDL
MODEL 3
REMARK VINA RESULT:      -9.2      2.296      3.737
REMARK SMILES O=C(OCCOCCOCCOCCOC(=O)c1cc(SC[C@H]2CCOC2)ccn1)c1ccc(-c2c3nc(c(-c4c(F)cccc4F)c4ccc([nH]4)c(-c4c(F)cccc4F)c4nc(c(-c5c(F)cccc5F)c5ccc2[nH]5)C=C4)C=C3)cc1
REMARK SMILES IDX 10 1 9 2 8 3 7 4 6 5 5 6 4 7 3 8 2 9 1 10 31 11 32 12 84 13
REMARK SMILES IDX 33 14 83 15 34 16 35 17 36 18 77 19 37 20 82 21 76 22 78 23
REMARK SMILES IDX 38 24 81 25 75 26 74 27 39 29 65 30 48 31 64 32 49 33 52 34
REMARK SMILES IDX 63 35 79 36 50 37 51 38 62 40 80 41 53 42 40 43 41 44 46 45
REMARK SMILES IDX 42 46 43 47 45 48 47 49 44 50 66 51 67 52 72 53 68 54 69 55
REMARK SMILES IDX 71 56 73 57 70 58 54 59 55 60 60 61 56 62 57 63 59 64 61 65
REMARK SMILES IDX 58 66 11 67 12 68 13 69 14 70 15 71 16 72 17 73 18 74 19 75
REMARK SMILES IDX 30 76 20 77 29 78 28 79 21 80 22 81 23 82 24 83 27 84 25 85
REMARK SMILES IDX 26 86
REMARK H PARENT 78 28 52 39
REMARK Flexibility Score: inf
ROOT
ATOM      1  C   UNL A   1      38.926  20.454  25.935  1.00  0.00     0.188 C 
ENDROOT
BRANCH   1   2
ATOM      2  O   UNL A   1      40.334  20.490  26.137  1.00  0.00    -0.377 OA
BRANCH   2   3
ATOM      3  C   UNL A   1      40.957  21.775  26.174  1.00  0.00     0.188 C 
BRANCH   3   4
ATOM      4  C   UNL A   1      42.474  21.769  25.967  1.00  0.00     0.188 C 
BRANCH   4   5
ATOM      5  O   UNL A   1      42.792  22.389  24.723  1.00  0.00    -0.376 OA
BRANCH   5   6
ATOM      6  C   UNL A   1      43.500  23.621  24.793  1.00  0.00     0.202 C 
BRANCH   6   7
ATOM      7  C   UNL A   1      42.871  24.666  25.716  1.00  0.00     0.261 C 
BRANCH   7   8
ATOM      8  O   UNL A   1      42.211  25.722  25.003  1.00  0.00    -0.460 OA
BRANCH   8   9
ATOM      9  C   UNL A   1      42.258  27.050  25.268  1.00  0.00     0.338 C 
ATOM     10  O   UNL A   1      42.649  27.811  24.383  1.00  0.00    -0.246 OA
BRANCH   9  11
ATOM     11  C   UNL A   1      41.845  27.659  26.569  1.00  0.00     0.060 A 
ATOM     12  C   UNL A   1      40.939  27.096  27.469  1.00  0.00     0.016 A 
ATOM     13  C   UNL A   1      42.512  28.832  26.962  1.00  0.00     0.016 A 
ATOM     14  C   UNL A   1      40.661  27.683  28.695  1.00  0.00     0.010 A 
ATOM     15  C   UNL A   1      42.267  29.413  28.210  1.00  0.00     0.010 A 
ATOM     16  C   UNL A   1      41.329  28.839  29.076  1.00  0.00    -0.014 A 
BRANCH  16  17
ATOM     17  C   UNL A   1      40.948  29.482  30.344  1.00  0.00     0.031 A 
ATOM     18  C   UNL A   1      39.730  30.350  30.350  1.00  0.00     0.074 A 
ATOM     19  C   UNL A   1      41.632  29.207  31.470  1.00  0.00     0.049 A 
ATOM     20  N   UNL A   1      39.272  31.125  31.292  1.00  0.00    -0.248 NA
ATOM     21  C   UNL A   1      38.911  30.336  29.124  1.00  0.00     0.031 C 
ATOM     22  C   UNL A   1      42.750  28.264  31.572  1.00  0.00     0.029 A 
ATOM     23  N   UNL A   1      41.484  29.686  32.743  1.00  0.00    -0.354 N 
ATOM     24  C   UNL A   1      38.143  31.730  30.757  1.00  0.00     0.074 A 
ATOM     25  C   UNL A   1      37.970  31.220  29.417  1.00  0.00     0.031 C 
ATOM     26  C   UNL A   1      43.188  28.239  32.841  1.00  0.00     0.029 A 
ATOM     27  C   UNL A   1      42.439  29.220  33.616  1.00  0.00     0.049 A 
ATOM     28  H   UNL A   1      40.764  30.303  33.010  1.00  0.00     0.167 HD
ATOM     29  C   UNL A   1      37.342  32.647  31.343  1.00  0.00     0.037 A 
ATOM     30  C   UNL A   1      42.708  29.603  34.878  1.00  0.00     0.037 A 
ATOM     31  C   UNL A   1      37.538  33.111  32.687  1.00  0.00     0.049 A 
ATOM     32  C   UNL A   1      41.858  30.695  35.473  1.00  0.00     0.074 A 
ATOM     33  C   UNL A   1      36.811  34.047  33.395  1.00  0.00     0.029 A 
ATOM     34  N   UNL A   1      38.550  32.662  33.526  1.00  0.00    -0.354 N 
ATOM     35  N   UNL A   1      40.815  31.302  34.955  1.00  0.00    -0.248 NA
ATOM     36  C   UNL A   1      42.235  31.180  36.806  1.00  0.00     0.031 C 
ATOM     37  C   UNL A   1      37.417  34.204  34.646  1.00  0.00     0.029 A 
ATOM     38  C   UNL A   1      38.492  33.331  34.733  1.00  0.00     0.049 A 
ATOM     39  H   UNL A   1      39.211  31.970  33.295  1.00  0.00     0.167 HD
ATOM     40  C   UNL A   1      40.410  32.237  35.897  1.00  0.00     0.074 A 
ATOM     41  C   UNL A   1      41.302  32.094  37.031  1.00  0.00     0.031 C 
ATOM     42  C   UNL A   1      39.403  33.143  35.834  1.00  0.00     0.037 A 
BRANCH  29  43
ATOM     43  C   UNL A   1      36.259  33.254  30.506  1.00  0.00     0.057 A 
ATOM     44  C   UNL A   1      34.907  32.931  30.670  1.00  0.00     0.134 A 
ATOM     45  C   UNL A   1      36.585  34.179  29.505  1.00  0.00     0.134 A 
ATOM     46  F   UNL A   1      34.530  32.029  31.589  1.00  0.00    -0.206 F 
ATOM     47  C   UNL A   1      33.919  33.497  29.860  1.00  0.00     0.040 A 
ATOM     48  C   UNL A   1      35.606  34.766  28.704  1.00  0.00     0.040 A 
ATOM     49  F   UNL A   1      37.864  34.523  29.287  1.00  0.00    -0.206 F 
ATOM     50  C   UNL A   1      34.268  34.422  28.878  1.00  0.00     0.006 A 
ENDBRANCH  29  43
BRANCH  30  51
ATOM     51  C   UNL A   1      43.873  29.042  35.615  1.00  0.00     0.057 A 
ATOM     52  C   UNL A   1      43.744  27.938  36.465  1.00  0.00     0.134 A 
ATOM     53  C   UNL A   1      45.145  29.626  35.517  1.00  0.00     0.134 A 
ATOM     54  F   UNL A   1      42.552  27.345  36.625  1.00  0.00    -0.206 F 
ATOM     55  C   UNL A   1      44.825  27.451  37.206  1.00  0.00     0.040 A 
ATOM     56  C   UNL A   1      46.241  29.131  36.227  1.00  0.00     0.040 A 
ATOM     57  F   UNL A   1      45.344  30.690  34.725  1.00  0.00    -0.206 F 
ATOM     58  C   UNL A   1      46.080  28.046  37.085  1.00  0.00     0.006 A 
ENDBRANCH  30  51
BRANCH  42  59
ATOM     59  C   UNL A   1      39.219  34.032  37.023  1.00  0.00     0.057 A 
ATOM     60  C   UNL A   1      38.591  33.573  38.186  1.00  0.00     0.134 A 
ATOM     61  C   UNL A   1      39.742  35.330  37.029  1.00  0.00     0.134 A 
ATOM     62  F   UNL A   1      38.058  32.343  38.233  1.00  0.00    -0.206 F 
ATOM     63  C   UNL A   1      38.483  34.382  39.317  1.00  0.00     0.040 A 
ATOM     64  C   UNL A   1      39.664  36.138  38.162  1.00  0.00     0.040 A 
ATOM     65  F   UNL A   1      40.364  35.819  35.946  1.00  0.00    -0.206 F 
ATOM     66  C   UNL A   1      39.030  35.664  39.309  1.00  0.00     0.006 A 
ENDBRANCH  42  59
ENDBRANCH  16  17
ENDBRANCH   9  11
ENDBRANCH   8   9
ENDBRANCH   7   8
ENDBRANCH   6   7
ENDBRANCH   5   6
ENDBRANCH   4   5
ENDBRANCH   3   4
ENDBRANCH   2   3
ENDBRANCH   1   2
BRANCH   1  67
ATOM     67  C   UNL A   1      38.250  21.633  25.201  1.00  0.00     0.188 C 
BRANCH  67  68
ATOM     68  O   UNL A   1      37.813  22.684  26.051  1.00  0.00    -0.376 OA
BRANCH  68  69
ATOM     69  C   UNL A   1      36.418  22.968  26.013  1.00  0.00     0.202 C 
BRANCH  69  70
ATOM     70  C   UNL A   1      35.990  24.129  25.105  1.00  0.00     0.261 C 
BRANCH  70  71
ATOM     71  O   UNL A   1      34.807  24.831  25.517  1.00  0.00    -0.459 OA
BRANCH  71  72
ATOM     72  C   UNL A   1      34.013  25.403  24.568  1.00  0.00     0.357 C 
ATOM     73  O   UNL A   1      33.975  26.561  24.247  1.00  0.00    -0.244 OA
BRANCH  72  74
ATOM     74  C   UNL A   1      33.300  24.251  23.933  1.00  0.00     0.149 A 
ATOM     75  C   UNL A   1      32.932  23.178  24.733  1.00  0.00     0.051 A 
ATOM     76  N   UNL A   1      33.279  24.229  22.572  1.00  0.00    -0.249 NA
ATOM     77  C   UNL A   1      32.593  21.980  24.115  1.00  0.00     0.011 A 
ATOM     78  C   UNL A   1      32.915  23.063  22.000  1.00  0.00     0.113 A 
ATOM     79  C   UNL A   1      32.583  21.926  22.719  1.00  0.00     0.035 A 
BRANCH  77  80
ATOM     80  S   UNL A   1      32.153  20.496  25.000  1.00  0.00    -0.126 SA
BRANCH  80  81
ATOM     81  C   UNL A   1      32.638  19.132  23.876  1.00  0.00     0.081 C 
BRANCH  81  82
ATOM     82  C   UNL A   1      33.405  17.933  24.441  1.00  0.00     0.027 C 
ATOM     83  C   UNL A   1      32.720  16.978  25.398  1.00  0.00     0.035 C 
ATOM     84  C   UNL A   1      33.933  16.964  23.398  1.00  0.00     0.164 C 
ATOM     85  C   UNL A   1      33.633  15.763  25.360  1.00  0.00     0.160 C 
ATOM     86  O   UNL A   1      34.392  15.831  24.144  1.00  0.00    -0.381 OA
ENDBRANCH  81  82
ENDBRANCH  80  81
ENDBRANCH  77  80
ENDBRANCH  72  74
ENDBRANCH  71  72
ENDBRANCH  70  71
ENDBRANCH  69  70
ENDBRANCH  68  69
ENDBRANCH  67  68
ENDBRANCH   1  67
TORSDOF 23
ENDMDL
