MODEL 1
REMARK VINA RESULT:     -10.0      0.000      0.000
REMARK SMILES C[C@H](CS[C@H]1CCOC2(CCCCC2)C1)C(=O)OCCOCCOCCOCCOC(=O)c1ccc(-c2c3nc(c(-c4c(F)cccc4F)c4ccc([nH]4)c(-c4c(F)cccc4F)c4nc(c(-c5c(F)cccc5F)c5ccc2[nH]5)C=C4)C=C3)cc1
REMARK SMILES IDX 23 1 22 2 21 3 20 4 19 5 18 6 16 7 17 8 2 9 1 10 3 11 4 12
REMARK SMILES IDX 5 13 6 14 15 15 7 16 9 17 8 18 10 19 14 20 11 21 13 22 12 23
REMARK SMILES IDX 24 24 25 25 26 26 27 27 28 28 29 29 30 30 31 31 32 32 33 33
REMARK SMILES IDX 34 34 86 35 35 36 85 37 36 38 37 39 38 40 79 41 39 42 84 43
REMARK SMILES IDX 78 44 80 45 40 46 83 47 77 48 76 49 41 51 67 52 50 53 66 54
REMARK SMILES IDX 51 55 54 56 65 57 81 58 52 59 53 60 64 62 82 63 55 64 42 65
REMARK SMILES IDX 43 66 48 67 44 68 45 69 47 70 49 71 46 72 68 73 69 74 74 75
REMARK SMILES IDX 70 76 71 77 73 78 75 79 72 80 56 81 57 82 62 83 58 84 59 85
REMARK SMILES IDX 61 86 63 87 60 88
REMARK H PARENT 80 50 54 61
REMARK Flexibility Score: inf
ROOT
ATOM      1  C   UNL A   1      32.870  36.301  30.543  1.00  0.00     0.188 C 
ENDROOT
BRANCH   1   2
ATOM      2  C   UNL A   1      33.164  35.630  29.202  1.00  0.00     0.188 C 
BRANCH   2   3
ATOM      3  O   UNL A   1      33.094  34.212  29.180  1.00  0.00    -0.376 OA
BRANCH   3   4
ATOM      4  C   UNL A   1      34.332  33.493  29.238  1.00  0.00     0.202 C 
BRANCH   4   5
ATOM      5  C   UNL A   1      34.576  32.420  28.171  1.00  0.00     0.261 C 
BRANCH   5   6
ATOM      6  O   UNL A   1      33.455  31.509  28.107  1.00  0.00    -0.463 OA
BRANCH   6   7
ATOM      7  C   UNL A   1      33.677  30.373  27.409  1.00  0.00     0.309 C 
ATOM      8  O   UNL A   1      34.788  29.869  27.278  1.00  0.00    -0.252 OA
BRANCH   7   9
ATOM      9  C   UNL A   1      32.422  29.751  26.801  1.00  0.00     0.106 C 
ATOM     10  C   UNL A   1      31.956  28.558  27.631  1.00  0.00     0.021 C 
BRANCH   9  11
ATOM     11  C   UNL A   1      32.334  29.558  25.278  1.00  0.00     0.084 C 
BRANCH  11  12
ATOM     12  S   UNL A   1      31.267  28.514  24.193  1.00  0.00    -0.158 SA
BRANCH  12  13
ATOM     13  C   UNL A   1      31.634  26.727  24.397  1.00  0.00     0.052 C 
ATOM     14  C   UNL A   1      31.321  26.006  23.074  1.00  0.00     0.043 C 
ATOM     15  C   UNL A   1      33.011  26.312  24.854  1.00  0.00     0.050 C 
ATOM     16  C   UNL A   1      31.652  24.513  23.116  1.00  0.00     0.162 C 
ATOM     17  C   UNL A   1      33.129  24.785  25.000  1.00  0.00     0.069 C 
ATOM     18  O   UNL A   1      32.914  24.210  23.706  1.00  0.00    -0.375 OA
ATOM     19  C   UNL A   1      32.152  24.211  26.053  1.00  0.00     0.035 C 
ATOM     20  C   UNL A   1      34.582  24.460  25.412  1.00  0.00     0.035 C 
ATOM     21  C   UNL A   1      32.382  22.724  26.309  1.00  0.00     0.003 C 
ATOM     22  C   UNL A   1      34.811  22.987  25.743  1.00  0.00     0.003 C 
ATOM     23  C   UNL A   1      33.810  22.471  26.768  1.00  0.00     0.000 C 
ENDBRANCH  12  13
ENDBRANCH  11  12
ENDBRANCH   9  11
ENDBRANCH   7   9
ENDBRANCH   6   7
ENDBRANCH   5   6
ENDBRANCH   4   5
ENDBRANCH   3   4
ENDBRANCH   2   3
ENDBRANCH   1   2
BRANCH   1  24
ATOM     24  O   UNL A   1      32.464  35.430  31.586  1.00  0.00    -0.377 OA
BRANCH  24  25
ATOM     25  C   UNL A   1      33.368  35.125  32.644  1.00  0.00     0.188 C 
BRANCH  25  26
ATOM     26  C   UNL A   1      34.528  36.078  32.937  1.00  0.00     0.188 C 
BRANCH  26  27
ATOM     27  O   UNL A   1      35.748  35.512  33.421  1.00  0.00    -0.376 OA
BRANCH  27  28
ATOM     28  C   UNL A   1      36.611  34.845  32.504  1.00  0.00     0.202 C 
BRANCH  28  29
ATOM     29  C   UNL A   1      37.593  33.882  33.163  1.00  0.00     0.261 C 
BRANCH  29  30
ATOM     30  O   UNL A   1      36.914  32.772  33.775  1.00  0.00    -0.460 OA
BRANCH  30  31
ATOM     31  C   UNL A   1      36.140  32.043  32.947  1.00  0.00     0.338 C 
ATOM     32  O   UNL A   1      34.926  32.124  32.805  1.00  0.00    -0.246 OA
BRANCH  31  33
ATOM     33  C   UNL A   1      36.956  31.094  32.172  1.00  0.00     0.060 A 
ATOM     34  C   UNL A   1      38.003  30.440  32.832  1.00  0.00     0.016 A 
ATOM     35  C   UNL A   1      36.811  30.982  30.785  1.00  0.00     0.016 A 
ATOM     36  C   UNL A   1      38.971  29.762  32.095  1.00  0.00     0.010 A 
ATOM     37  C   UNL A   1      37.780  30.300  30.047  1.00  0.00     0.010 A 
ATOM     38  C   UNL A   1      38.898  29.748  30.695  1.00  0.00    -0.014 A 
BRANCH  38  39
ATOM     39  C   UNL A   1      40.090  29.346  29.913  1.00  0.00     0.031 A 
ATOM     40  C   UNL A   1      41.189  30.350  29.702  1.00  0.00     0.074 A 
ATOM     41  C   UNL A   1      40.215  28.097  29.435  1.00  0.00     0.049 A 
ATOM     42  N   UNL A   1      42.330  30.213  29.077  1.00  0.00    -0.248 NA
ATOM     43  C   UNL A   1      40.971  31.693  30.267  1.00  0.00     0.031 C 
ATOM     44  C   UNL A   1      39.228  27.037  29.598  1.00  0.00     0.029 A 
ATOM     45  N   UNL A   1      41.225  27.508  28.722  1.00  0.00    -0.354 N 
ATOM     46  C   UNL A   1      42.960  31.446  29.168  1.00  0.00     0.074 A 
ATOM     47  C   UNL A   1      42.063  32.332  29.878  1.00  0.00     0.031 C 
ATOM     48  C   UNL A   1      39.680  25.918  29.012  1.00  0.00     0.029 A 
ATOM     49  C   UNL A   1      40.980  26.194  28.407  1.00  0.00     0.049 A 
ATOM     50  H   UNL A   1      42.048  27.981  28.458  1.00  0.00     0.167 HD
ATOM     51  C   UNL A   1      44.182  31.806  28.711  1.00  0.00     0.037 A 
ATOM     52  C   UNL A   1      41.722  25.318  27.705  1.00  0.00     0.037 A 
ATOM     53  C   UNL A   1      45.075  30.918  28.012  1.00  0.00     0.049 A 
ATOM     54  C   UNL A   1      43.056  25.754  27.169  1.00  0.00     0.074 A 
ATOM     55  C   UNL A   1      46.348  31.174  27.535  1.00  0.00     0.029 A 
ATOM     56  N   UNL A   1      44.781  29.603  27.686  1.00  0.00    -0.354 N 
ATOM     57  N   UNL A   1      43.661  26.911  27.296  1.00  0.00    -0.248 NA
ATOM     58  C   UNL A   1      43.815  24.761  26.398  1.00  0.00     0.031 C 
ATOM     59  C   UNL A   1      46.807  30.025  26.882  1.00  0.00     0.029 A 
ATOM     60  C   UNL A   1      45.839  29.040  26.993  1.00  0.00     0.049 A 
ATOM     61  H   UNL A   1      43.944  29.138  27.914  1.00  0.00     0.167 HD
ATOM     62  C   UNL A   1      44.883  26.775  26.652  1.00  0.00     0.074 A 
ATOM     63  C   UNL A   1      44.936  25.420  26.142  1.00  0.00     0.031 C 
ATOM     64  C   UNL A   1      45.875  27.687  26.501  1.00  0.00     0.037 A 
BRANCH  51  65
ATOM     65  C   UNL A   1      44.610  33.226  28.933  1.00  0.00     0.057 A 
ATOM     66  C   UNL A   1      45.407  33.598  30.023  1.00  0.00     0.134 A 
ATOM     67  C   UNL A   1      44.232  34.233  28.036  1.00  0.00     0.134 A 
ATOM     68  F   UNL A   1      45.790  32.686  30.929  1.00  0.00    -0.206 F 
ATOM     69  C   UNL A   1      45.792  34.925  30.226  1.00  0.00     0.040 A 
ATOM     70  C   UNL A   1      44.630  35.558  28.214  1.00  0.00     0.040 A 
ATOM     71  F   UNL A   1      43.469  33.944  26.970  1.00  0.00    -0.206 F 
ATOM     72  C   UNL A   1      45.407  35.908  29.317  1.00  0.00     0.006 A 
ENDBRANCH  51  65
BRANCH  52  73
ATOM     73  C   UNL A   1      41.228  23.937  27.483  1.00  0.00     0.057 A 
ATOM     74  C   UNL A   1      41.719  22.864  28.235  1.00  0.00     0.134 A 
ATOM     75  C   UNL A   1      40.261  23.655  26.510  1.00  0.00     0.134 A 
ATOM     76  F   UNL A   1      42.659  23.069  29.169  1.00  0.00    -0.206 F 
ATOM     77  C   UNL A   1      41.281  21.558  28.016  1.00  0.00     0.040 A 
ATOM     78  C   UNL A   1      39.799  22.356  26.295  1.00  0.00     0.040 A 
ATOM     79  F   UNL A   1      39.748  24.642  25.760  1.00  0.00    -0.206 F 
ATOM     80  C   UNL A   1      40.314  21.302  27.045  1.00  0.00     0.006 A 
ENDBRANCH  52  73
BRANCH  64  81
ATOM     81  C   UNL A   1      47.116  27.232  25.792  1.00  0.00     0.057 A 
ATOM     82  C   UNL A   1      48.113  26.494  26.443  1.00  0.00     0.134 A 
ATOM     83  C   UNL A   1      47.302  27.516  24.433  1.00  0.00     0.134 A 
ATOM     84  F   UNL A   1      47.999  26.202  27.748  1.00  0.00    -0.206 F 
ATOM     85  C   UNL A   1      49.263  26.077  25.773  1.00  0.00     0.040 A 
ATOM     86  C   UNL A   1      48.436  27.082  23.747  1.00  0.00     0.040 A 
ATOM     87  F   UNL A   1      46.381  28.211  23.749  1.00  0.00    -0.206 F 
ATOM     88  C   UNL A   1      49.425  26.366  24.419  1.00  0.00     0.006 A 
ENDBRANCH  64  81
ENDBRANCH  38  39
ENDBRANCH  31  33
ENDBRANCH  30  31
ENDBRANCH  29  30
ENDBRANCH  28  29
ENDBRANCH  27  28
ENDBRANCH  26  27
ENDBRANCH  25  26
ENDBRANCH  24  25
ENDBRANCH   1  24
TORSDOF 23
ENDMDL
MODEL 2
REMARK VINA RESULT:      -9.6      0.808      5.990
REMARK SMILES C[C@H](CS[C@H]1CCOC2(CCCCC2)C1)C(=O)OCCOCCOCCOCCOC(=O)c1ccc(-c2c3nc(c(-c4c(F)cccc4F)c4ccc([nH]4)c(-c4c(F)cccc4F)c4nc(c(-c5c(F)cccc5F)c5ccc2[nH]5)C=C4)C=C3)cc1
REMARK SMILES IDX 23 1 22 2 21 3 20 4 19 5 18 6 16 7 17 8 2 9 1 10 3 11 4 12
REMARK SMILES IDX 5 13 6 14 15 15 7 16 9 17 8 18 10 19 14 20 11 21 13 22 12 23
REMARK SMILES IDX 24 24 25 25 26 26 27 27 28 28 29 29 30 30 31 31 32 32 33 33
REMARK SMILES IDX 34 34 86 35 35 36 85 37 36 38 37 39 38 40 79 41 39 42 84 43
REMARK SMILES IDX 78 44 80 45 40 46 83 47 77 48 76 49 41 51 67 52 50 53 66 54
REMARK SMILES IDX 51 55 54 56 65 57 81 58 52 59 53 60 64 62 82 63 55 64 42 65
REMARK SMILES IDX 43 66 48 67 44 68 45 69 47 70 49 71 46 72 68 73 69 74 74 75
REMARK SMILES IDX 70 76 71 77 73 78 75 79 72 80 56 81 57 82 62 83 58 84 59 85
REMARK SMILES IDX 61 86 63 87 60 88
REMARK H PARENT 80 50 54 61
REMARK Flexibility Score: inf
ROOT
ATOM      1  C   UNL A   1      32.930  36.722  30.307  1.00  0.00     0.188 C 
ENDROOT
BRANCH   1   2
ATOM      2  C   UNL A   1      32.950  35.568  29.307  1.00  0.00     0.188 C 
BRANCH   2   3
ATOM      3  O   UNL A   1      33.509  34.346  29.767  1.00  0.00    -0.376 OA
BRANCH   3   4
ATOM      4  C   UNL A   1      34.811  33.996  29.283  1.00  0.00     0.202 C 
BRANCH   4   5
ATOM      5  C   UNL A   1      34.885  33.170  27.994  1.00  0.00     0.261 C 
BRANCH   5   6
ATOM      6  O   UNL A   1      33.835  32.177  27.969  1.00  0.00    -0.463 OA
BRANCH   6   7
ATOM      7  C   UNL A   1      34.209  30.954  27.531  1.00  0.00     0.309 C 
ATOM      8  O   UNL A   1      35.204  30.367  27.942  1.00  0.00    -0.252 OA
BRANCH   7   9
ATOM      9  C   UNL A   1      33.279  30.348  26.483  1.00  0.00     0.106 C 
ATOM     10  C   UNL A   1      31.818  30.558  26.873  1.00  0.00     0.021 C 
BRANCH   9  11
ATOM     11  C   UNL A   1      33.602  28.966  25.892  1.00  0.00     0.084 C 
BRANCH  11  12
ATOM     12  S   UNL A   1      32.696  27.832  24.752  1.00  0.00    -0.158 SA
BRANCH  12  13
ATOM     13  C   UNL A   1      32.805  26.085  25.305  1.00  0.00     0.052 C 
ATOM     14  C   UNL A   1      31.381  25.552  25.540  1.00  0.00     0.043 C 
ATOM     15  C   UNL A   1      33.552  25.092  24.447  1.00  0.00     0.050 C 
ATOM     16  C   UNL A   1      31.354  24.078  25.946  1.00  0.00     0.162 C 
ATOM     17  C   UNL A   1      33.568  23.690  25.078  1.00  0.00     0.069 C 
ATOM     18  O   UNL A   1      32.211  23.242  25.171  1.00  0.00    -0.375 OA
ATOM     19  C   UNL A   1      34.276  23.664  26.453  1.00  0.00     0.035 C 
ATOM     20  C   UNL A   1      34.300  22.741  24.103  1.00  0.00     0.035 C 
ATOM     21  C   UNL A   1      34.431  22.248  27.001  1.00  0.00     0.003 C 
ATOM     22  C   UNL A   1      34.527  21.339  24.665  1.00  0.00     0.003 C 
ATOM     23  C   UNL A   1      35.208  21.375  26.027  1.00  0.00     0.000 C 
ENDBRANCH  12  13
ENDBRANCH  11  12
ENDBRANCH   9  11
ENDBRANCH   7   9
ENDBRANCH   6   7
ENDBRANCH   5   6
ENDBRANCH   4   5
ENDBRANCH   3   4
ENDBRANCH   2   3
ENDBRANCH   1   2
BRANCH   1  24
ATOM     24  O   UNL A   1      32.282  36.452  31.539  1.00  0.00    -0.377 OA
BRANCH  24  25
ATOM     25  C   UNL A   1      33.026  35.911  32.627  1.00  0.00     0.188 C 
BRANCH  25  26
ATOM     26  C   UNL A   1      34.432  36.442  32.909  1.00  0.00     0.188 C 
BRANCH  26  27
ATOM     27  O   UNL A   1      35.435  35.499  33.294  1.00  0.00    -0.376 OA
BRANCH  27  28
ATOM     28  C   UNL A   1      36.279  34.940  32.292  1.00  0.00     0.202 C 
BRANCH  28  29
ATOM     29  C   UNL A   1      37.437  34.116  32.844  1.00  0.00     0.261 C 
BRANCH  29  30
ATOM     30  O   UNL A   1      36.972  32.919  33.492  1.00  0.00    -0.460 OA
BRANCH  30  31
ATOM     31  C   UNL A   1      36.233  32.096  32.722  1.00  0.00     0.338 C 
ATOM     32  O   UNL A   1      35.011  32.038  32.661  1.00  0.00    -0.246 OA
BRANCH  31  33
ATOM     33  C   UNL A   1      37.100  31.236  31.899  1.00  0.00     0.060 A 
ATOM     34  C   UNL A   1      37.985  30.376  32.559  1.00  0.00     0.016 A 
ATOM     35  C   UNL A   1      37.170  31.399  30.511  1.00  0.00     0.016 A 
ATOM     36  C   UNL A   1      39.011  29.759  31.848  1.00  0.00     0.010 A 
ATOM     37  C   UNL A   1      38.198  30.779  29.799  1.00  0.00     0.010 A 
ATOM     38  C   UNL A   1      39.160  30.013  30.478  1.00  0.00    -0.014 A 
BRANCH  38  39
ATOM     39  C   UNL A   1      40.433  29.654  29.810  1.00  0.00     0.031 A 
ATOM     40  C   UNL A   1      40.586  28.269  29.242  1.00  0.00     0.074 A 
ATOM     41  C   UNL A   1      41.420  30.554  29.671  1.00  0.00     0.049 A 
ATOM     42  N   UNL A   1      41.594  27.745  28.595  1.00  0.00    -0.248 NA
ATOM     43  C   UNL A   1      39.451  27.351  29.434  1.00  0.00     0.031 C 
ATOM     44  C   UNL A   1      41.374  31.926  30.159  1.00  0.00     0.029 A 
ATOM     45  N   UNL A   1      42.650  30.450  29.076  1.00  0.00    -0.354 N 
ATOM     46  C   UNL A   1      41.220  26.439  28.308  1.00  0.00     0.074 A 
ATOM     47  C   UNL A   1      39.907  26.238  28.880  1.00  0.00     0.031 C 
ATOM     48  C   UNL A   1      42.519  32.549  29.837  1.00  0.00     0.029 A 
ATOM     49  C   UNL A   1      43.389  31.605  29.143  1.00  0.00     0.049 A 
ATOM     50  H   UNL A   1      42.972  29.627  28.642  1.00  0.00     0.167 HD
ATOM     51  C   UNL A   1      41.905  25.496  27.620  1.00  0.00     0.037 A 
ATOM     52  C   UNL A   1      44.633  31.865  28.697  1.00  0.00     0.037 A 
ATOM     53  C   UNL A   1      43.208  25.705  27.046  1.00  0.00     0.049 A 
ATOM     54  C   UNL A   1      45.390  30.787  27.974  1.00  0.00     0.074 A 
ATOM     55  C   UNL A   1      43.975  24.825  26.302  1.00  0.00     0.029 A 
ATOM     56  N   UNL A   1      43.939  26.877  27.158  1.00  0.00    -0.354 N 
ATOM     57  N   UNL A   1      45.011  29.568  27.673  1.00  0.00    -0.248 NA
ATOM     58  C   UNL A   1      46.747  31.122  27.524  1.00  0.00     0.031 C 
ATOM     59  C   UNL A   1      45.188  25.451  26.002  1.00  0.00     0.029 A 
ATOM     60  C   UNL A   1      45.159  26.737  26.519  1.00  0.00     0.049 A 
ATOM     61  H   UNL A   1      43.636  27.689  27.625  1.00  0.00     0.167 HD
ATOM     62  C   UNL A   1      46.065  29.003  26.969  1.00  0.00     0.074 A 
ATOM     63  C   UNL A   1      47.098  30.017  26.883  1.00  0.00     0.031 C 
ATOM     64  C   UNL A   1      46.169  27.760  26.437  1.00  0.00     0.037 A 
BRANCH  51  65
ATOM     65  C   UNL A   1      41.263  24.148  27.475  1.00  0.00     0.057 A 
ATOM     66  C   UNL A   1      41.679  23.044  28.230  1.00  0.00     0.134 A 
ATOM     67  C   UNL A   1      40.204  23.957  26.578  1.00  0.00     0.134 A 
ATOM     68  F   UNL A   1      42.699  23.156  29.094  1.00  0.00    -0.206 F 
ATOM     69  C   UNL A   1      41.080  21.791  28.079  1.00  0.00     0.040 A 
ATOM     70  C   UNL A   1      39.582  22.715  26.437  1.00  0.00     0.040 A 
ATOM     71  F   UNL A   1      39.756  24.974  25.825  1.00  0.00    -0.206 F 
ATOM     72  C   UNL A   1      40.025  21.626  27.185  1.00  0.00     0.006 A 
ENDBRANCH  51  65
BRANCH  52  73
ATOM     73  C   UNL A   1      45.231  33.206  28.905  1.00  0.00     0.057 A 
ATOM     74  C   UNL A   1      46.019  33.479  30.028  1.00  0.00     0.134 A 
ATOM     75  C   UNL A   1      45.023  34.247  27.993  1.00  0.00     0.134 A 
ATOM     76  F   UNL A   1      46.239  32.527  30.947  1.00  0.00    -0.206 F 
ATOM     77  C   UNL A   1      46.564  34.744  30.248  1.00  0.00     0.040 A 
ATOM     78  C   UNL A   1      45.579  35.512  28.189  1.00  0.00     0.040 A 
ATOM     79  F   UNL A   1      44.280  34.046  26.894  1.00  0.00    -0.206 F 
ATOM     80  C   UNL A   1      46.348  35.765  29.323  1.00  0.00     0.006 A 
ENDBRANCH  52  73
BRANCH  64  81
ATOM     81  C   UNL A   1      47.425  27.447  25.679  1.00  0.00     0.057 A 
ATOM     82  C   UNL A   1      48.556  26.913  26.309  1.00  0.00     0.134 A 
ATOM     83  C   UNL A   1      47.491  27.659  24.297  1.00  0.00     0.134 A 
ATOM     84  F   UNL A   1      48.560  26.699  27.633  1.00  0.00    -0.206 F 
ATOM     85  C   UNL A   1      49.719  26.625  25.593  1.00  0.00     0.040 A 
ATOM     86  C   UNL A   1      48.640  27.352  23.566  1.00  0.00     0.040 A 
ATOM     87  F   UNL A   1      46.439  28.160  23.632  1.00  0.00    -0.206 F 
ATOM     88  C   UNL A   1      49.761  26.840  24.217  1.00  0.00     0.006 A 
ENDBRANCH  64  81
ENDBRANCH  38  39
ENDBRANCH  31  33
ENDBRANCH  30  31
ENDBRANCH  29  30
ENDBRANCH  28  29
ENDBRANCH  27  28
ENDBRANCH  26  27
ENDBRANCH  25  26
ENDBRANCH  24  25
ENDBRANCH   1  24
TORSDOF 23
ENDMDL
MODEL 3
REMARK VINA RESULT:      -9.4      1.476      6.453
REMARK SMILES C[C@H](CS[C@H]1CCOC2(CCCCC2)C1)C(=O)OCCOCCOCCOCCOC(=O)c1ccc(-c2c3nc(c(-c4c(F)cccc4F)c4ccc([nH]4)c(-c4c(F)cccc4F)c4nc(c(-c5c(F)cccc5F)c5ccc2[nH]5)C=C4)C=C3)cc1
REMARK SMILES IDX 23 1 22 2 21 3 20 4 19 5 18 6 16 7 17 8 2 9 1 10 3 11 4 12
REMARK SMILES IDX 5 13 6 14 15 15 7 16 9 17 8 18 10 19 14 20 11 21 13 22 12 23
REMARK SMILES IDX 24 24 25 25 26 26 27 27 28 28 29 29 30 30 31 31 32 32 33 33
REMARK SMILES IDX 34 34 86 35 35 36 85 37 36 38 37 39 38 40 79 41 39 42 84 43
REMARK SMILES IDX 78 44 80 45 40 46 83 47 77 48 76 49 41 51 67 52 50 53 66 54
REMARK SMILES IDX 51 55 54 56 65 57 81 58 52 59 53 60 64 62 82 63 55 64 42 65
REMARK SMILES IDX 43 66 48 67 44 68 45 69 47 70 49 71 46 72 68 73 69 74 74 75
REMARK SMILES IDX 70 76 71 77 73 78 75 79 72 80 56 81 57 82 62 83 58 84 59 85
REMARK SMILES IDX 61 86 63 87 60 88
REMARK H PARENT 80 50 54 61
REMARK Flexibility Score: inf
ROOT
ATOM      1  C   UNL A   1      34.669  31.714  28.298  1.00  0.00     0.188 C 
ENDROOT
BRANCH   1   2
ATOM      2  C   UNL A   1      33.649  31.338  27.224  1.00  0.00     0.188 C 
BRANCH   2   3
ATOM      3  O   UNL A   1      33.332  29.957  27.114  1.00  0.00    -0.376 OA
BRANCH   3   4
ATOM      4  C   UNL A   1      32.004  29.621  26.698  1.00  0.00     0.202 C 
BRANCH   4   5
ATOM      5  C   UNL A   1      31.490  30.253  25.399  1.00  0.00     0.261 C 
BRANCH   5   6
ATOM      6  O   UNL A   1      30.854  29.255  24.569  1.00  0.00    -0.463 OA
BRANCH   6   7
ATOM      7  C   UNL A   1      31.644  28.712  23.616  1.00  0.00     0.309 C 
ATOM      8  O   UNL A   1      32.181  29.369  22.730  1.00  0.00    -0.252 OA
BRANCH   7   9
ATOM      9  C   UNL A   1      31.831  27.201  23.739  1.00  0.00     0.106 C 
ATOM     10  C   UNL A   1      31.700  26.530  22.375  1.00  0.00     0.021 C 
BRANCH   9  11
ATOM     11  C   UNL A   1      31.163  26.447  24.901  1.00  0.00     0.084 C 
BRANCH  11  12
ATOM     12  S   UNL A   1      31.796  25.282  26.185  1.00  0.00    -0.158 SA
BRANCH  12  13
ATOM     13  C   UNL A   1      32.773  23.918  25.440  1.00  0.00     0.052 C 
ATOM     14  C   UNL A   1      32.189  23.594  24.054  1.00  0.00     0.043 C 
ATOM     15  C   UNL A   1      34.267  24.077  25.306  1.00  0.00     0.050 C 
ATOM     16  C   UNL A   1      32.972  22.506  23.317  1.00  0.00     0.162 C 
ATOM     17  C   UNL A   1      34.922  22.828  24.693  1.00  0.00     0.069 C 
ATOM     18  O   UNL A   1      34.388  22.661  23.375  1.00  0.00    -0.375 OA
ATOM     19  C   UNL A   1      34.718  21.563  25.560  1.00  0.00     0.035 C 
ATOM     20  C   UNL A   1      36.434  23.111  24.544  1.00  0.00     0.035 C 
ATOM     21  C   UNL A   1      35.502  20.364  25.032  1.00  0.00     0.003 C 
ATOM     22  C   UNL A   1      37.244  21.900  24.086  1.00  0.00     0.003 C 
ATOM     23  C   UNL A   1      36.988  20.681  24.962  1.00  0.00     0.000 C 
ENDBRANCH  12  13
ENDBRANCH  11  12
ENDBRANCH   9  11
ENDBRANCH   7   9
ENDBRANCH   6   7
ENDBRANCH   5   6
ENDBRANCH   4   5
ENDBRANCH   3   4
ENDBRANCH   2   3
ENDBRANCH   1   2
BRANCH   1  24
ATOM     24  O   UNL A   1      35.226  33.013  28.182  1.00  0.00    -0.377 OA
BRANCH  24  25
ATOM     25  C   UNL A   1      34.369  34.137  28.005  1.00  0.00     0.188 C 
BRANCH  25  26
ATOM     26  C   UNL A   1      33.418  34.539  29.133  1.00  0.00     0.188 C 
BRANCH  26  27
ATOM     27  O   UNL A   1      33.994  34.929  30.381  1.00  0.00    -0.376 OA
BRANCH  27  28
ATOM     28  C   UNL A   1      34.579  33.931  31.214  1.00  0.00     0.202 C 
BRANCH  28  29
ATOM     29  C   UNL A   1      35.530  34.483  32.270  1.00  0.00     0.261 C 
BRANCH  29  30
ATOM     30  O   UNL A   1      36.808  33.824  32.225  1.00  0.00    -0.460 OA
BRANCH  30  31
ATOM     31  C   UNL A   1      36.849  32.606  32.801  1.00  0.00     0.338 C 
ATOM     32  O   UNL A   1      36.288  32.254  33.831  1.00  0.00    -0.246 OA
BRANCH  31  33
ATOM     33  C   UNL A   1      37.674  31.683  32.004  1.00  0.00     0.060 A 
ATOM     34  C   UNL A   1      38.601  30.882  32.682  1.00  0.00     0.016 A 
ATOM     35  C   UNL A   1      37.665  31.730  30.606  1.00  0.00     0.016 A 
ATOM     36  C   UNL A   1      39.590  30.211  31.968  1.00  0.00     0.010 A 
ATOM     37  C   UNL A   1      38.656  31.054  29.890  1.00  0.00     0.010 A 
ATOM     38  C   UNL A   1      39.660  30.350  30.575  1.00  0.00    -0.014 A 
BRANCH  38  39
ATOM     39  C   UNL A   1      40.896  29.940  29.869  1.00  0.00     0.031 A 
ATOM     40  C   UNL A   1      40.977  28.548  29.302  1.00  0.00     0.074 A 
ATOM     41  C   UNL A   1      41.913  30.800  29.694  1.00  0.00     0.049 A 
ATOM     42  N   UNL A   1      41.943  27.983  28.626  1.00  0.00    -0.248 NA
ATOM     43  C   UNL A   1      39.814  27.675  29.534  1.00  0.00     0.031 C 
ATOM     44  C   UNL A   1      41.935  32.175  30.178  1.00  0.00     0.029 A 
ATOM     45  N   UNL A   1      43.117  30.647  29.060  1.00  0.00    -0.354 N 
ATOM     46  C   UNL A   1      41.509  26.692  28.357  1.00  0.00     0.074 A 
ATOM     47  C   UNL A   1      40.208  26.544  28.972  1.00  0.00     0.031 C 
ATOM     48  C   UNL A   1      43.092  32.751  29.816  1.00  0.00     0.029 A 
ATOM     49  C   UNL A   1      43.903  31.772  29.099  1.00  0.00     0.049 A 
ATOM     50  H   UNL A   1      43.393  29.810  28.620  1.00  0.00     0.167 HD
ATOM     51  C   UNL A   1      42.134  25.721  27.651  1.00  0.00     0.037 A 
ATOM     52  C   UNL A   1      45.140  31.982  28.612  1.00  0.00     0.037 A 
ATOM     53  C   UNL A   1      43.425  25.877  27.035  1.00  0.00     0.049 A 
ATOM     54  C   UNL A   1      45.832  30.873  27.871  1.00  0.00     0.074 A 
ATOM     55  C   UNL A   1      44.133  24.965  26.271  1.00  0.00     0.029 A 
ATOM     56  N   UNL A   1      44.205  27.021  27.119  1.00  0.00    -0.354 N 
ATOM     57  N   UNL A   1      45.396  29.669  27.587  1.00  0.00    -0.248 NA
ATOM     58  C   UNL A   1      47.186  31.154  27.375  1.00  0.00     0.031 C 
ATOM     59  C   UNL A   1      45.360  25.543  25.929  1.00  0.00     0.029 A 
ATOM     60  C   UNL A   1      45.397  26.831  26.441  1.00  0.00     0.049 A 
ATOM     61  H   UNL A   1      43.949  27.845  27.591  1.00  0.00     0.167 HD
ATOM     62  C   UNL A   1      46.405  29.061  26.852  1.00  0.00     0.074 A 
ATOM     63  C   UNL A   1      47.472  30.033  26.728  1.00  0.00     0.031 C 
ATOM     64  C   UNL A   1      46.443  27.814  26.323  1.00  0.00     0.037 A 
BRANCH  51  65
ATOM     65  C   UNL A   1      41.436  24.399  27.533  1.00  0.00     0.057 A 
ATOM     66  C   UNL A   1      40.357  24.206  26.661  1.00  0.00     0.134 A 
ATOM     67  C   UNL A   1      41.859  23.299  28.290  1.00  0.00     0.134 A 
ATOM     68  F   UNL A   1      39.891  25.223  25.920  1.00  0.00    -0.206 F 
ATOM     69  C   UNL A   1      39.708  22.973  26.565  1.00  0.00     0.040 A 
ATOM     70  C   UNL A   1      41.234  22.056  28.185  1.00  0.00     0.040 A 
ATOM     71  F   UNL A   1      42.888  23.416  29.144  1.00  0.00    -0.206 F 
ATOM     72  C   UNL A   1      40.150  21.893  27.325  1.00  0.00     0.006 A 
ENDBRANCH  51  65
BRANCH  52  73
ATOM     73  C   UNL A   1      45.797  33.300  28.796  1.00  0.00     0.057 A 
ATOM     74  C   UNL A   1      46.578  33.567  29.924  1.00  0.00     0.134 A 
ATOM     75  C   UNL A   1      45.651  34.324  27.853  1.00  0.00     0.134 A 
ATOM     76  F   UNL A   1      46.740  32.630  30.870  1.00  0.00    -0.206 F 
ATOM     77  C   UNL A   1      47.178  34.811  30.120  1.00  0.00     0.040 A 
ATOM     78  C   UNL A   1      46.262  35.567  28.025  1.00  0.00     0.040 A 
ATOM     79  F   UNL A   1      44.917  34.128  26.747  1.00  0.00    -0.206 F 
ATOM     80  C   UNL A   1      47.024  35.815  29.165  1.00  0.00     0.006 A 
ENDBRANCH  52  73
BRANCH  64  81
ATOM     81  C   UNL A   1      47.660  27.449  25.527  1.00  0.00     0.057 A 
ATOM     82  C   UNL A   1      48.788  26.869  26.121  1.00  0.00     0.134 A 
ATOM     83  C   UNL A   1      47.693  27.659  24.143  1.00  0.00     0.134 A 
ATOM     84  F   UNL A   1      48.824  26.654  27.445  1.00  0.00    -0.206 F 
ATOM     85  C   UNL A   1      49.916  26.534  25.370  1.00  0.00     0.040 A 
ATOM     86  C   UNL A   1      48.804  27.305  23.377  1.00  0.00     0.040 A 
ATOM     87  F   UNL A   1      46.642  28.203  23.510  1.00  0.00    -0.206 F 
ATOM     88  C   UNL A   1      49.923  26.747  23.993  1.00  0.00     0.006 A 
ENDBRANCH  64  81
ENDBRANCH  38  39
ENDBRANCH  31  33
ENDBRANCH  30  31
ENDBRANCH  29  30
ENDBRANCH  28  29
ENDBRANCH  27  28
ENDBRANCH  26  27
ENDBRANCH  25  26
ENDBRANCH  24  25
ENDBRANCH   1  24
TORSDOF 23
ENDMDL
