MODEL 1
REMARK VINA RESULT:      -9.9      0.000      0.000
REMARK SMILES O=C(OCCOCCOCCOCCOC(=O)c1cc([C@@H]2C=NN=C2c2ccc(F)cc2)c2c(ccc3ccccc32)n1)c1ccc(-c2c3nc(c(-c4c(F)cccc4F)c4ccc([nH]4)c(-c4c(F)cccc4F)c4nc(c(-c5c(F)cccc5F)c5ccc2[nH]5)C=C4)C=C3)cc1
REMARK SMILES IDX 9 1 8 2 7 3 6 4 5 5 4 6 3 7 2 8 1 9 44 10 45 11 97 12 46 13
REMARK SMILES IDX 96 14 47 15 48 16 49 17 90 18 50 19 95 20 89 21 91 22 51 23
REMARK SMILES IDX 94 24 88 25 87 26 52 28 78 29 61 30 77 31 62 32 65 33 76 34
REMARK SMILES IDX 92 35 63 36 64 37 75 39 93 40 66 41 53 42 54 43 59 44 55 45
REMARK SMILES IDX 56 46 58 47 60 48 57 49 79 50 80 51 85 52 81 53 82 54 84 55
REMARK SMILES IDX 86 56 83 57 67 58 68 59 73 60 69 61 70 62 72 63 74 64 71 65
REMARK SMILES IDX 10 66 11 67 12 68 13 69 14 70 15 71 16 72 17 73 18 74 19 75
REMARK SMILES IDX 43 76 20 77 34 78 33 79 35 80 42 81 36 82 37 83 41 84 38 85
REMARK SMILES IDX 40 86 39 87 21 88 22 89 25 90 23 91 24 92 26 93 27 94 32 95
REMARK SMILES IDX 28 96 31 97 29 98 30 99
REMARK H PARENT 91 27 65 38
REMARK Flexibility Score: inf
ROOT
ATOM      1  O   UNL A   1      40.225  40.699  29.133  1.00  0.00    -0.377 OA
ENDROOT
BRANCH   1   2
ATOM      2  C   UNL A   1      40.943  41.337  30.172  1.00  0.00     0.188 C 
BRANCH   2   3
ATOM      3  C   UNL A   1      42.382  40.851  30.431  1.00  0.00     0.188 C 
BRANCH   3   4
ATOM      4  O   UNL A   1      43.070  40.858  31.675  1.00  0.00    -0.376 OA
BRANCH   4   5
ATOM      5  C   UNL A   1      44.355  41.326  32.027  1.00  0.00     0.202 C 
BRANCH   5   6
ATOM      6  C   UNL A   1      45.669  40.622  31.694  1.00  0.00     0.261 C 
BRANCH   6   7
ATOM      7  O   UNL A   1      45.691  39.226  31.939  1.00  0.00    -0.460 OA
BRANCH   7   8
ATOM      8  C   UNL A   1      45.253  38.576  33.034  1.00  0.00     0.338 C 
ATOM      9  O   UNL A   1      45.883  38.728  34.080  1.00  0.00    -0.246 OA
BRANCH   8  10
ATOM     10  C   UNL A   1      44.108  37.620  33.044  1.00  0.00     0.060 A 
ATOM     11  C   UNL A   1      43.128  37.485  34.031  1.00  0.00     0.016 A 
ATOM     12  C   UNL A   1      44.047  36.774  31.920  1.00  0.00     0.016 A 
ATOM     13  C   UNL A   1      42.258  36.416  34.013  1.00  0.00     0.010 A 
ATOM     14  C   UNL A   1      43.157  35.721  31.874  1.00  0.00     0.010 A 
ATOM     15  C   UNL A   1      42.342  35.499  32.973  1.00  0.00    -0.014 A 
BRANCH  15  16
ATOM     16  C   UNL A   1      41.566  34.286  33.110  1.00  0.00     0.031 A 
ATOM     17  C   UNL A   1      40.297  34.264  32.340  1.00  0.00     0.074 A 
ATOM     18  C   UNL A   1      42.022  33.281  33.880  1.00  0.00     0.049 A 
ATOM     19  N   UNL A   1      39.091  34.150  32.790  1.00  0.00    -0.248 NA
ATOM     20  C   UNL A   1      40.380  34.531  30.894  1.00  0.00     0.031 C 
ATOM     21  C   UNL A   1      43.347  33.127  34.491  1.00  0.00     0.029 A 
ATOM     22  N   UNL A   1      41.402  32.122  34.211  1.00  0.00    -0.354 N 
ATOM     23  C   UNL A   1      38.270  34.144  31.666  1.00  0.00     0.074 A 
ATOM     24  C   UNL A   1      39.094  34.516  30.545  1.00  0.00     0.031 C 
ATOM     25  C   UNL A   1      43.503  31.849  34.901  1.00  0.00     0.029 A 
ATOM     26  C   UNL A   1      42.248  31.146  34.716  1.00  0.00     0.049 A 
ATOM     27  H   UNL A   1      40.433  31.984  34.102  1.00  0.00     0.167 HD
ATOM     28  C   UNL A   1      37.012  33.627  31.699  1.00  0.00     0.037 A 
ATOM     29  C   UNL A   1      41.934  29.837  34.874  1.00  0.00     0.037 A 
ATOM     30  C   UNL A   1      36.486  33.579  33.035  1.00  0.00     0.049 A 
ATOM     31  C   UNL A   1      40.452  29.741  34.891  1.00  0.00     0.074 A 
ATOM     32  C   UNL A   1      36.181  34.540  33.978  1.00  0.00     0.029 A 
ATOM     33  N   UNL A   1      36.552  32.392  33.719  1.00  0.00    -0.354 N 
ATOM     34  N   UNL A   1      39.704  30.224  35.844  1.00  0.00    -0.248 NA
ATOM     35  C   UNL A   1      39.780  29.525  33.617  1.00  0.00     0.031 C 
ATOM     36  C   UNL A   1      36.573  33.970  35.223  1.00  0.00     0.029 A 
ATOM     37  C   UNL A   1      37.029  32.675  34.974  1.00  0.00     0.049 A 
ATOM     38  H   UNL A   1      36.304  31.503  33.374  1.00  0.00     0.167 HD
ATOM     39  C   UNL A   1      38.599  30.757  35.195  1.00  0.00     0.074 A 
ATOM     40  C   UNL A   1      38.669  30.235  33.832  1.00  0.00     0.031 C 
ATOM     41  C   UNL A   1      37.891  31.794  35.731  1.00  0.00     0.037 A 
BRANCH  28  42
ATOM     42  C   UNL A   1      36.406  32.883  30.543  1.00  0.00     0.057 A 
ATOM     43  C   UNL A   1      36.803  31.580  30.174  1.00  0.00     0.134 A 
ATOM     44  C   UNL A   1      35.229  33.346  29.937  1.00  0.00     0.134 A 
ATOM     45  F   UNL A   1      37.830  30.955  30.764  1.00  0.00    -0.206 F 
ATOM     46  C   UNL A   1      36.103  30.807  29.245  1.00  0.00     0.040 A 
ATOM     47  C   UNL A   1      34.490  32.559  29.043  1.00  0.00     0.040 A 
ATOM     48  F   UNL A   1      34.724  34.551  30.245  1.00  0.00    -0.206 F 
ATOM     49  C   UNL A   1      34.929  31.287  28.692  1.00  0.00     0.006 A 
ENDBRANCH  28  42
BRANCH  29  50
ATOM     50  C   UNL A   1      42.802  28.669  34.591  1.00  0.00     0.057 A 
ATOM     51  C   UNL A   1      43.313  27.855  35.619  1.00  0.00     0.134 A 
ATOM     52  C   UNL A   1      43.384  28.501  33.327  1.00  0.00     0.134 A 
ATOM     53  F   UNL A   1      42.883  27.976  36.883  1.00  0.00    -0.206 F 
ATOM     54  C   UNL A   1      44.356  26.949  35.409  1.00  0.00     0.040 A 
ATOM     55  C   UNL A   1      44.436  27.602  33.105  1.00  0.00     0.040 A 
ATOM     56  F   UNL A   1      42.990  29.258  32.293  1.00  0.00    -0.206 F 
ATOM     57  C   UNL A   1      44.934  26.832  34.152  1.00  0.00     0.006 A 
ENDBRANCH  29  50
BRANCH  41  58
ATOM     58  C   UNL A   1      38.210  32.216  37.142  1.00  0.00     0.057 A 
ATOM     59  C   UNL A   1      37.513  31.620  38.198  1.00  0.00     0.134 A 
ATOM     60  C   UNL A   1      39.038  33.303  37.466  1.00  0.00     0.134 A 
ATOM     61  F   UNL A   1      36.658  30.613  37.960  1.00  0.00    -0.206 F 
ATOM     62  C   UNL A   1      37.625  32.083  39.512  1.00  0.00     0.040 A 
ATOM     63  C   UNL A   1      39.186  33.754  38.782  1.00  0.00     0.040 A 
ATOM     64  F   UNL A   1      39.671  34.000  36.515  1.00  0.00    -0.206 F 
ATOM     65  C   UNL A   1      38.469  33.150  39.809  1.00  0.00     0.006 A 
ENDBRANCH  41  58
ENDBRANCH  15  16
ENDBRANCH   8  10
ENDBRANCH   7   8
ENDBRANCH   6   7
ENDBRANCH   5   6
ENDBRANCH   4   5
ENDBRANCH   3   4
ENDBRANCH   2   3
ENDBRANCH   1   2
BRANCH   1  66
ATOM     66  C   UNL A   1      40.170  41.458  27.948  1.00  0.00     0.188 C 
BRANCH  66  67
ATOM     67  C   UNL A   1      40.904  40.806  26.753  1.00  0.00     0.188 C 
BRANCH  67  68
ATOM     68  O   UNL A   1      42.293  41.013  26.541  1.00  0.00    -0.376 OA
BRANCH  68  69
ATOM     69  C   UNL A   1      42.816  41.266  25.247  1.00  0.00     0.202 C 
BRANCH  69  70
ATOM     70  C   UNL A   1      44.106  42.076  25.043  1.00  0.00     0.261 C 
BRANCH  70  71
ATOM     71  O   UNL A   1      44.906  41.705  23.918  1.00  0.00    -0.459 OA
BRANCH  71  72
ATOM     72  C   UNL A   1      45.777  42.648  23.478  1.00  0.00     0.357 C 
ATOM     73  O   UNL A   1      46.890  42.885  23.896  1.00  0.00    -0.244 OA
BRANCH  72  74
ATOM     74  C   UNL A   1      45.147  43.313  22.310  1.00  0.00     0.149 A 
ATOM     75  C   UNL A   1      45.929  44.067  21.490  1.00  0.00     0.041 A 
ATOM     76  N   UNL A   1      43.834  43.113  22.087  1.00  0.00    -0.241 NA
ATOM     77  C   UNL A   1      45.395  44.501  20.255  1.00  0.00    -0.021 A 
ATOM     78  C   UNL A   1      43.267  43.663  21.006  1.00  0.00     0.072 A 
ATOM     79  C   UNL A   1      43.974  44.320  19.959  1.00  0.00     0.012 A 
ATOM     80  C   UNL A   1      41.899  43.483  20.953  1.00  0.00     0.029 A 
ATOM     81  C   UNL A   1      43.178  44.618  18.746  1.00  0.00    -0.009 A 
ATOM     82  C   UNL A   1      41.147  43.861  19.854  1.00  0.00     0.011 A 
ATOM     83  C   UNL A   1      41.772  44.383  18.733  1.00  0.00    -0.018 A 
ATOM     84  C   UNL A   1      43.679  45.095  17.514  1.00  0.00     0.009 A 
ATOM     85  C   UNL A   1      40.979  44.627  17.595  1.00  0.00     0.009 A 
ATOM     86  C   UNL A   1      42.899  45.314  16.372  1.00  0.00     0.001 A 
ATOM     87  C   UNL A   1      41.541  45.082  16.412  1.00  0.00     0.001 A 
BRANCH  77  88
ATOM     88  C   UNL A   1      46.519  44.881  19.327  1.00  0.00     0.115 C 
ATOM     89  C   UNL A   1      47.852  44.260  19.453  1.00  0.00     0.123 C 
ATOM     90  C   UNL A   1      46.925  46.321  19.245  1.00  0.00     0.083 C 
ATOM     91  N   UNL A   1      48.807  45.116  19.270  1.00  0.00    -0.162 NA
ATOM     92  N   UNL A   1      48.219  46.430  19.133  1.00  0.00    -0.154 NA
BRANCH  90  93
ATOM     93  C   UNL A   1      45.976  47.464  19.147  1.00  0.00    -0.001 A 
ATOM     94  C   UNL A   1      45.571  47.872  17.873  1.00  0.00     0.013 A 
ATOM     95  C   UNL A   1      45.465  48.148  20.261  1.00  0.00     0.013 A 
ATOM     96  C   UNL A   1      44.644  48.910  17.727  1.00  0.00     0.040 A 
ATOM     97  C   UNL A   1      44.528  49.173  20.119  1.00  0.00     0.040 A 
ATOM     98  C   UNL A   1      44.122  49.544  18.850  1.00  0.00     0.123 A 
ATOM     99  F   UNL A   1      43.228  50.529  18.706  1.00  0.00    -0.207 F 
ENDBRANCH  90  93
ENDBRANCH  77  88
ENDBRANCH  72  74
ENDBRANCH  71  72
ENDBRANCH  70  71
ENDBRANCH  69  70
ENDBRANCH  68  69
ENDBRANCH  67  68
ENDBRANCH  66  67
ENDBRANCH   1  66
TORSDOF 22
ENDMDL
MODEL 2
REMARK VINA RESULT:      -9.2      2.381      3.393
REMARK SMILES O=C(OCCOCCOCCOCCOC(=O)c1cc([C@@H]2C=NN=C2c2ccc(F)cc2)c2c(ccc3ccccc32)n1)c1ccc(-c2c3nc(c(-c4c(F)cccc4F)c4ccc([nH]4)c(-c4c(F)cccc4F)c4nc(c(-c5c(F)cccc5F)c5ccc2[nH]5)C=C4)C=C3)cc1
REMARK SMILES IDX 9 1 8 2 7 3 6 4 5 5 4 6 3 7 2 8 1 9 44 10 45 11 97 12 46 13
REMARK SMILES IDX 96 14 47 15 48 16 49 17 90 18 50 19 95 20 89 21 91 22 51 23
REMARK SMILES IDX 94 24 88 25 87 26 52 28 78 29 61 30 77 31 62 32 65 33 76 34
REMARK SMILES IDX 92 35 63 36 64 37 75 39 93 40 66 41 53 42 54 43 59 44 55 45
REMARK SMILES IDX 56 46 58 47 60 48 57 49 79 50 80 51 85 52 81 53 82 54 84 55
REMARK SMILES IDX 86 56 83 57 67 58 68 59 73 60 69 61 70 62 72 63 74 64 71 65
REMARK SMILES IDX 10 66 11 67 12 68 13 69 14 70 15 71 16 72 17 73 18 74 19 75
REMARK SMILES IDX 43 76 20 77 34 78 33 79 35 80 42 81 36 82 37 83 41 84 38 85
REMARK SMILES IDX 40 86 39 87 21 88 22 89 25 90 23 91 24 92 26 93 27 94 32 95
REMARK SMILES IDX 28 96 31 97 29 98 30 99
REMARK H PARENT 91 27 65 38
REMARK Flexibility Score: inf
ROOT
ATOM      1  O   UNL A   1      40.032  40.689  28.946  1.00  0.00    -0.377 OA
ENDROOT
BRANCH   1   2
ATOM      2  C   UNL A   1      40.729  41.247  30.043  1.00  0.00     0.188 C 
BRANCH   2   3
ATOM      3  C   UNL A   1      42.205  40.840  30.218  1.00  0.00     0.188 C 
BRANCH   3   4
ATOM      4  O   UNL A   1      42.924  40.754  31.441  1.00  0.00    -0.376 OA
BRANCH   4   5
ATOM      5  C   UNL A   1      44.165  41.303  31.832  1.00  0.00     0.202 C 
BRANCH   5   6
ATOM      6  C   UNL A   1      45.523  40.904  31.257  1.00  0.00     0.261 C 
BRANCH   6   7
ATOM      7  O   UNL A   1      45.709  39.515  31.043  1.00  0.00    -0.460 OA
BRANCH   7   8
ATOM      8  C   UNL A   1      45.465  38.510  31.904  1.00  0.00     0.338 C 
ATOM      9  O   UNL A   1      46.151  38.448  32.923  1.00  0.00    -0.246 OA
BRANCH   8  10
ATOM     10  C   UNL A   1      44.475  37.419  31.664  1.00  0.00     0.060 A 
ATOM     11  C   UNL A   1      43.752  36.708  32.626  1.00  0.00     0.016 A 
ATOM     12  C   UNL A   1      44.284  37.096  30.308  1.00  0.00     0.016 A 
ATOM     13  C   UNL A   1      43.039  35.582  32.274  1.00  0.00     0.010 A 
ATOM     14  C   UNL A   1      43.541  35.992  29.940  1.00  0.00     0.010 A 
ATOM     15  C   UNL A   1      43.014  35.191  30.941  1.00  0.00    -0.014 A 
BRANCH  15  16
ATOM     16  C   UNL A   1      42.441  33.895  30.654  1.00  0.00     0.031 A 
ATOM     17  C   UNL A   1      40.964  33.881  30.503  1.00  0.00     0.074 A 
ATOM     18  C   UNL A   1      43.242  32.820  30.527  1.00  0.00     0.049 A 
ATOM     19  N   UNL A   1      40.095  33.233  31.207  1.00  0.00    -0.248 NA
ATOM     20  C   UNL A   1      40.377  34.810  29.523  1.00  0.00     0.031 C 
ATOM     21  C   UNL A   1      44.706  32.778  30.441  1.00  0.00     0.029 A 
ATOM     22  N   UNL A   1      42.893  31.522  30.361  1.00  0.00    -0.354 N 
ATOM     23  C   UNL A   1      38.859  33.526  30.638  1.00  0.00     0.074 A 
ATOM     24  C   UNL A   1      39.074  34.598  29.701  1.00  0.00     0.031 C 
ATOM     25  C   UNL A   1      45.091  31.562  29.997  1.00  0.00     0.029 A 
ATOM     26  C   UNL A   1      43.922  30.707  29.913  1.00  0.00     0.049 A 
ATOM     27  H   UNL A   1      41.986  31.184  30.544  1.00  0.00     0.167 HD
ATOM     28  C   UNL A   1      37.776  32.723  30.822  1.00  0.00     0.037 A 
ATOM     29  C   UNL A   1      43.778  29.451  29.426  1.00  0.00     0.037 A 
ATOM     30  C   UNL A   1      37.908  31.904  31.994  1.00  0.00     0.049 A 
ATOM     31  C   UNL A   1      42.466  28.944  29.907  1.00  0.00     0.074 A 
ATOM     32  C   UNL A   1      38.011  32.175  33.344  1.00  0.00     0.029 A 
ATOM     33  N   UNL A   1      38.331  30.608  31.840  1.00  0.00    -0.354 N 
ATOM     34  N   UNL A   1      42.203  28.686  31.158  1.00  0.00    -0.248 NA
ATOM     35  C   UNL A   1      41.306  29.175  29.058  1.00  0.00     0.031 C 
ATOM     36  C   UNL A   1      38.947  31.222  33.839  1.00  0.00     0.029 A 
ATOM     37  C   UNL A   1      39.306  30.387  32.781  1.00  0.00     0.049 A 
ATOM     38  H   UNL A   1      37.998  29.958  31.178  1.00  0.00     0.167 HD
ATOM     39  C   UNL A   1      40.900  29.125  31.345  1.00  0.00     0.074 A 
ATOM     40  C   UNL A   1      40.376  29.352  30.000  1.00  0.00     0.031 C 
ATOM     41  C   UNL A   1      40.457  29.538  32.569  1.00  0.00     0.037 A 
BRANCH  28  42
ATOM     42  C   UNL A   1      36.753  32.476  29.749  1.00  0.00     0.057 A 
ATOM     43  C   UNL A   1      36.941  31.543  28.708  1.00  0.00     0.134 A 
ATOM     44  C   UNL A   1      35.448  32.972  29.883  1.00  0.00     0.134 A 
ATOM     45  F   UNL A   1      38.096  30.887  28.540  1.00  0.00    -0.206 F 
ATOM     46  C   UNL A   1      35.917  31.156  27.841  1.00  0.00     0.040 A 
ATOM     47  C   UNL A   1      34.401  32.553  29.051  1.00  0.00     0.040 A 
ATOM     48  F   UNL A   1      35.135  33.829  30.867  1.00  0.00    -0.206 F 
ATOM     49  C   UNL A   1      34.635  31.644  28.024  1.00  0.00     0.006 A 
ENDBRANCH  28  42
BRANCH  29  50
ATOM     50  C   UNL A   1      44.481  28.854  28.266  1.00  0.00     0.057 A 
ATOM     51  C   UNL A   1      45.379  27.780  28.413  1.00  0.00     0.134 A 
ATOM     52  C   UNL A   1      44.510  29.515  27.030  1.00  0.00     0.134 A 
ATOM     53  F   UNL A   1      45.492  27.118  29.573  1.00  0.00    -0.206 F 
ATOM     54  C   UNL A   1      46.269  27.404  27.402  1.00  0.00     0.040 A 
ATOM     55  C   UNL A   1      45.402  29.152  26.012  1.00  0.00     0.040 A 
ATOM     56  F   UNL A   1      43.717  30.573  26.808  1.00  0.00    -0.206 F 
ATOM     57  C   UNL A   1      46.295  28.101  26.202  1.00  0.00     0.006 A 
ENDBRANCH  29  50
BRANCH  41  58
ATOM     58  C   UNL A   1      41.354  29.315  33.759  1.00  0.00     0.057 A 
ATOM     59  C   UNL A   1      41.246  28.115  34.470  1.00  0.00     0.134 A 
ATOM     60  C   UNL A   1      42.173  30.308  34.320  1.00  0.00     0.134 A 
ATOM     61  F   UNL A   1      40.437  27.139  34.028  1.00  0.00    -0.206 F 
ATOM     62  C   UNL A   1      41.912  27.910  35.681  1.00  0.00     0.040 A 
ATOM     63  C   UNL A   1      42.873  30.103  35.514  1.00  0.00     0.040 A 
ATOM     64  F   UNL A   1      42.265  31.524  33.769  1.00  0.00    -0.206 F 
ATOM     65  C   UNL A   1      42.735  28.904  36.205  1.00  0.00     0.006 A 
ENDBRANCH  41  58
ENDBRANCH  15  16
ENDBRANCH   8  10
ENDBRANCH   7   8
ENDBRANCH   6   7
ENDBRANCH   5   6
ENDBRANCH   4   5
ENDBRANCH   3   4
ENDBRANCH   2   3
ENDBRANCH   1   2
BRANCH   1  66
ATOM     66  C   UNL A   1      40.032  41.518  27.807  1.00  0.00     0.188 C 
BRANCH  66  67
ATOM     67  C   UNL A   1      40.779  40.917  26.595  1.00  0.00     0.188 C 
BRANCH  67  68
ATOM     68  O   UNL A   1      42.180  41.091  26.436  1.00  0.00    -0.376 OA
BRANCH  68  69
ATOM     69  C   UNL A   1      42.757  41.324  25.161  1.00  0.00     0.202 C 
BRANCH  69  70
ATOM     70  C   UNL A   1      43.983  42.237  24.986  1.00  0.00     0.261 C 
BRANCH  70  71
ATOM     71  O   UNL A   1      44.891  41.870  23.945  1.00  0.00    -0.459 OA
BRANCH  71  72
ATOM     72  C   UNL A   1      45.737  42.847  23.530  1.00  0.00     0.357 C 
ATOM     73  O   UNL A   1      46.823  43.134  23.987  1.00  0.00    -0.244 OA
BRANCH  72  74
ATOM     74  C   UNL A   1      45.122  43.478  22.336  1.00  0.00     0.149 A 
ATOM     75  C   UNL A   1      45.912  44.221  21.512  1.00  0.00     0.041 A 
ATOM     76  N   UNL A   1      43.816  43.259  22.092  1.00  0.00    -0.241 NA
ATOM     77  C   UNL A   1      45.398  44.620  20.258  1.00  0.00    -0.021 A 
ATOM     78  C   UNL A   1      43.264  43.777  20.988  1.00  0.00     0.072 A 
ATOM     79  C   UNL A   1      43.985  44.417  19.939  1.00  0.00     0.012 A 
ATOM     80  C   UNL A   1      41.900  43.582  20.913  1.00  0.00     0.029 A 
ATOM     81  C   UNL A   1      43.210  44.679  18.705  1.00  0.00    -0.009 A 
ATOM     82  C   UNL A   1      41.166  43.927  19.791  1.00  0.00     0.011 A 
ATOM     83  C   UNL A   1      41.807  44.429  18.671  1.00  0.00    -0.018 A 
ATOM     84  C   UNL A   1      43.730  45.132  17.472  1.00  0.00     0.009 A 
ATOM     85  C   UNL A   1      41.033  44.638  17.512  1.00  0.00     0.009 A 
ATOM     86  C   UNL A   1      42.970  45.316  16.310  1.00  0.00     0.001 A 
ATOM     87  C   UNL A   1      41.614  45.070  16.329  1.00  0.00     0.001 A 
BRANCH  77  88
ATOM     88  C   UNL A   1      46.536  44.991  19.343  1.00  0.00     0.115 C 
ATOM     89  C   UNL A   1      47.860  44.352  19.479  1.00  0.00     0.123 C 
ATOM     90  C   UNL A   1      46.961  46.426  19.272  1.00  0.00     0.083 C 
ATOM     91  N   UNL A   1      48.828  45.197  19.310  1.00  0.00    -0.162 NA
ATOM     92  N   UNL A   1      48.257  46.519  19.173  1.00  0.00    -0.154 NA
BRANCH  90  93
ATOM     93  C   UNL A   1      46.027  47.581  19.170  1.00  0.00    -0.001 A 
ATOM     94  C   UNL A   1      45.719  48.064  17.895  1.00  0.00     0.013 A 
ATOM     95  C   UNL A   1      45.440  48.206  20.281  1.00  0.00     0.013 A 
ATOM     96  C   UNL A   1      44.810  49.117  17.741  1.00  0.00     0.040 A 
ATOM     97  C   UNL A   1      44.521  49.246  20.130  1.00  0.00     0.040 A 
ATOM     98  C   UNL A   1      44.211  49.691  18.857  1.00  0.00     0.123 A 
ATOM     99  F   UNL A   1      43.335  50.691  18.705  1.00  0.00    -0.207 F 
ENDBRANCH  90  93
ENDBRANCH  77  88
ENDBRANCH  72  74
ENDBRANCH  71  72
ENDBRANCH  70  71
ENDBRANCH  69  70
ENDBRANCH  68  69
ENDBRANCH  67  68
ENDBRANCH  66  67
ENDBRANCH   1  66
TORSDOF 22
ENDMDL
MODEL 3
REMARK VINA RESULT:      -9.2      7.355     13.549
REMARK SMILES O=C(OCCOCCOCCOCCOC(=O)c1cc([C@@H]2C=NN=C2c2ccc(F)cc2)c2c(ccc3ccccc32)n1)c1ccc(-c2c3nc(c(-c4c(F)cccc4F)c4ccc([nH]4)c(-c4c(F)cccc4F)c4nc(c(-c5c(F)cccc5F)c5ccc2[nH]5)C=C4)C=C3)cc1
REMARK SMILES IDX 9 1 8 2 7 3 6 4 5 5 4 6 3 7 2 8 1 9 44 10 45 11 97 12 46 13
REMARK SMILES IDX 96 14 47 15 48 16 49 17 90 18 50 19 95 20 89 21 91 22 51 23
REMARK SMILES IDX 94 24 88 25 87 26 52 28 78 29 61 30 77 31 62 32 65 33 76 34
REMARK SMILES IDX 92 35 63 36 64 37 75 39 93 40 66 41 53 42 54 43 59 44 55 45
REMARK SMILES IDX 56 46 58 47 60 48 57 49 79 50 80 51 85 52 81 53 82 54 84 55
REMARK SMILES IDX 86 56 83 57 67 58 68 59 73 60 69 61 70 62 72 63 74 64 71 65
REMARK SMILES IDX 10 66 11 67 12 68 13 69 14 70 15 71 16 72 17 73 18 74 19 75
REMARK SMILES IDX 43 76 20 77 34 78 33 79 35 80 42 81 36 82 37 83 41 84 38 85
REMARK SMILES IDX 40 86 39 87 21 88 22 89 25 90 23 91 24 92 26 93 27 94 32 95
REMARK SMILES IDX 28 96 31 97 29 98 30 99
REMARK H PARENT 91 27 65 38
REMARK Flexibility Score: inf
ROOT
ATOM      1  O   UNL A   1      51.240  33.881  28.197  1.00  0.00    -0.377 OA
ENDROOT
BRANCH   1   2
ATOM      2  C   UNL A   1      50.398  34.993  28.433  1.00  0.00     0.188 C 
BRANCH   2   3
ATOM      3  C   UNL A   1      49.651  35.578  27.220  1.00  0.00     0.188 C 
BRANCH   3   4
ATOM      4  O   UNL A   1      48.896  36.782  27.186  1.00  0.00    -0.376 OA
BRANCH   4   5
ATOM      5  C   UNL A   1      47.899  37.232  26.292  1.00  0.00     0.202 C 
BRANCH   5   6
ATOM      6  C   UNL A   1      46.405  37.301  26.603  1.00  0.00     0.261 C 
BRANCH   6   7
ATOM      7  O   UNL A   1      46.015  36.736  27.842  1.00  0.00    -0.460 OA
BRANCH   7   8
ATOM      8  C   UNL A   1      45.088  37.200  28.702  1.00  0.00     0.338 C 
ATOM      9  O   UNL A   1      45.158  38.381  29.037  1.00  0.00    -0.246 OA
BRANCH   8  10
ATOM     10  C   UNL A   1      44.035  36.357  29.339  1.00  0.00     0.060 A 
ATOM     11  C   UNL A   1      43.867  36.100  30.703  1.00  0.00     0.016 A 
ATOM     12  C   UNL A   1      43.135  35.767  28.431  1.00  0.00     0.016 A 
ATOM     13  C   UNL A   1      42.986  35.130  31.129  1.00  0.00     0.010 A 
ATOM     14  C   UNL A   1      42.223  34.820  28.851  1.00  0.00     0.010 A 
ATOM     15  C   UNL A   1      42.234  34.442  30.184  1.00  0.00    -0.014 A 
BRANCH  15  16
ATOM     16  C   UNL A   1      41.492  33.293  30.654  1.00  0.00     0.031 A 
ATOM     17  C   UNL A   1      42.111  31.979  30.346  1.00  0.00     0.074 A 
ATOM     18  C   UNL A   1      40.341  33.467  31.328  1.00  0.00     0.049 A 
ATOM     19  N   UNL A   1      41.626  31.014  29.635  1.00  0.00    -0.248 NA
ATOM     20  C   UNL A   1      43.502  31.769  30.781  1.00  0.00     0.031 C 
ATOM     21  C   UNL A   1      39.776  34.710  31.863  1.00  0.00     0.029 A 
ATOM     22  N   UNL A   1      39.462  32.528  31.756  1.00  0.00    -0.354 N 
ATOM     23  C   UNL A   1      42.574  29.996  29.688  1.00  0.00     0.074 A 
ATOM     24  C   UNL A   1      43.757  30.559  30.286  1.00  0.00     0.031 C 
ATOM     25  C   UNL A   1      38.793  34.411  32.741  1.00  0.00     0.029 A 
ATOM     26  C   UNL A   1      38.567  32.979  32.715  1.00  0.00     0.049 A 
ATOM     27  H   UNL A   1      39.458  31.604  31.414  1.00  0.00     0.167 HD
ATOM     28  C   UNL A   1      42.251  28.700  29.430  1.00  0.00     0.037 A 
ATOM     29  C   UNL A   1      37.773  32.193  33.482  1.00  0.00     0.037 A 
ATOM     30  C   UNL A   1      41.051  28.592  28.649  1.00  0.00     0.049 A 
ATOM     31  C   UNL A   1      37.666  30.879  32.798  1.00  0.00     0.074 A 
ATOM     32  C   UNL A   1      40.695  28.997  27.378  1.00  0.00     0.029 A 
ATOM     33  N   UNL A   1      39.872  28.329  29.300  1.00  0.00    -0.354 N 
ATOM     34  N   UNL A   1      37.052  30.702  31.660  1.00  0.00    -0.248 NA
ATOM     35  C   UNL A   1      38.645  29.859  33.147  1.00  0.00     0.031 C 
ATOM     36  C   UNL A   1      39.345  29.432  27.495  1.00  0.00     0.029 A 
ATOM     37  C   UNL A   1      38.935  29.204  28.809  1.00  0.00     0.049 A 
ATOM     38  H   UNL A   1      39.724  27.641  29.990  1.00  0.00     0.167 HD
ATOM     39  C   UNL A   1      37.845  29.799  30.966  1.00  0.00     0.074 A 
ATOM     40  C   UNL A   1      38.774  29.263  31.959  1.00  0.00     0.031 C 
ATOM     41  C   UNL A   1      37.870  29.778  29.601  1.00  0.00     0.037 A 
BRANCH  28  42
ATOM     42  C   UNL A   1      42.869  27.544  30.164  1.00  0.00     0.057 A 
ATOM     43  C   UNL A   1      43.611  26.531  29.520  1.00  0.00     0.134 A 
ATOM     44  C   UNL A   1      42.962  27.558  31.564  1.00  0.00     0.134 A 
ATOM     45  F   UNL A   1      43.725  26.472  28.187  1.00  0.00    -0.206 F 
ATOM     46  C   UNL A   1      44.362  25.581  30.214  1.00  0.00     0.040 A 
ATOM     47  C   UNL A   1      43.753  26.641  32.269  1.00  0.00     0.040 A 
ATOM     48  F   UNL A   1      42.340  28.503  32.285  1.00  0.00    -0.206 F 
ATOM     49  C   UNL A   1      44.454  25.646  31.594  1.00  0.00     0.006 A 
ENDBRANCH  28  42
BRANCH  29  50
ATOM     50  C   UNL A   1      37.470  32.365  34.923  1.00  0.00     0.057 A 
ATOM     51  C   UNL A   1      36.482  33.260  35.374  1.00  0.00     0.134 A 
ATOM     52  C   UNL A   1      38.343  31.870  35.901  1.00  0.00     0.134 A 
ATOM     53  F   UNL A   1      35.635  33.853  34.520  1.00  0.00    -0.206 F 
ATOM     54  C   UNL A   1      36.385  33.659  36.710  1.00  0.00     0.040 A 
ATOM     55  C   UNL A   1      38.261  32.267  37.243  1.00  0.00     0.040 A 
ATOM     56  F   UNL A   1      39.340  31.039  35.563  1.00  0.00    -0.206 F 
ATOM     57  C   UNL A   1      37.287  33.175  37.648  1.00  0.00     0.006 A 
ENDBRANCH  29  50
BRANCH  41  58
ATOM     58  C   UNL A   1      36.862  30.619  28.861  1.00  0.00     0.057 A 
ATOM     59  C   UNL A   1      37.107  31.987  28.708  1.00  0.00     0.134 A 
ATOM     60  C   UNL A   1      35.595  30.158  28.467  1.00  0.00     0.134 A 
ATOM     61  F   UNL A   1      38.273  32.514  29.116  1.00  0.00    -0.206 F 
ATOM     62  C   UNL A   1      36.142  32.859  28.195  1.00  0.00     0.040 A 
ATOM     63  C   UNL A   1      34.633  31.013  27.919  1.00  0.00     0.040 A 
ATOM     64  F   UNL A   1      35.229  28.886  28.663  1.00  0.00    -0.206 F 
ATOM     65  C   UNL A   1      34.902  32.372  27.792  1.00  0.00     0.006 A 
ENDBRANCH  41  58
ENDBRANCH  15  16
ENDBRANCH   8  10
ENDBRANCH   7   8
ENDBRANCH   6   7
ENDBRANCH   5   6
ENDBRANCH   4   5
ENDBRANCH   3   4
ENDBRANCH   2   3
ENDBRANCH   1   2
BRANCH   1  66
ATOM     66  C   UNL A   1      50.551  32.757  27.700  1.00  0.00     0.188 C 
BRANCH  66  67
ATOM     67  C   UNL A   1      49.482  32.199  28.667  1.00  0.00     0.188 C 
BRANCH  67  68
ATOM     68  O   UNL A   1      48.184  31.850  28.206  1.00  0.00    -0.376 OA
BRANCH  68  69
ATOM     69  C   UNL A   1      47.738  32.210  26.908  1.00  0.00     0.202 C 
BRANCH  69  70
ATOM     70  C   UNL A   1      46.250  32.159  26.524  1.00  0.00     0.261 C 
BRANCH  70  71
ATOM     71  O   UNL A   1      45.393  31.473  27.439  1.00  0.00    -0.459 OA
BRANCH  71  72
ATOM     72  C   UNL A   1      44.867  30.305  26.990  1.00  0.00     0.357 C 
ATOM     73  O   UNL A   1      43.967  30.152  26.192  1.00  0.00    -0.244 OA
BRANCH  72  74
ATOM     74  C   UNL A   1      45.658  29.208  27.603  1.00  0.00     0.149 A 
ATOM     75  C   UNL A   1      46.070  28.181  26.810  1.00  0.00     0.041 A 
ATOM     76  N   UNL A   1      45.968  29.292  28.911  1.00  0.00    -0.241 NA
ATOM     77  C   UNL A   1      47.017  27.266  27.324  1.00  0.00    -0.021 A 
ATOM     78  C   UNL A   1      46.727  28.336  29.461  1.00  0.00     0.072 A 
ATOM     79  C   UNL A   1      47.387  27.302  28.739  1.00  0.00     0.012 A 
ATOM     80  C   UNL A   1      46.876  28.473  30.827  1.00  0.00     0.029 A 
ATOM     81  C   UNL A   1      48.376  26.518  29.515  1.00  0.00    -0.009 A 
ATOM     82  C   UNL A   1      47.726  27.665  31.561  1.00  0.00     0.011 A 
ATOM     83  C   UNL A   1      48.512  26.721  30.920  1.00  0.00    -0.018 A 
ATOM     84  C   UNL A   1      49.283  25.569  28.995  1.00  0.00     0.009 A 
ATOM     85  C   UNL A   1      49.455  26.018  31.694  1.00  0.00     0.009 A 
ATOM     86  C   UNL A   1      50.241  24.887  29.756  1.00  0.00     0.001 A 
ATOM     87  C   UNL A   1      50.327  25.110  31.113  1.00  0.00     0.001 A 
BRANCH  77  88
ATOM     88  C   UNL A   1      47.679  26.534  26.186  1.00  0.00     0.115 C 
ATOM     89  C   UNL A   1      48.401  27.268  25.128  1.00  0.00     0.123 C 
ATOM     90  C   UNL A   1      46.842  25.630  25.333  1.00  0.00     0.083 C 
ATOM     91  N   UNL A   1      48.191  26.760  23.954  1.00  0.00    -0.162 NA
ATOM     92  N   UNL A   1      47.201  25.714  24.082  1.00  0.00    -0.154 NA
BRANCH  90  93
ATOM     93  C   UNL A   1      45.845  24.656  25.855  1.00  0.00    -0.001 A 
ATOM     94  C   UNL A   1      44.735  24.364  25.058  1.00  0.00     0.013 A 
ATOM     95  C   UNL A   1      45.960  24.017  27.099  1.00  0.00     0.013 A 
ATOM     96  C   UNL A   1      43.792  23.420  25.480  1.00  0.00     0.040 A 
ATOM     97  C   UNL A   1      45.030  23.063  27.517  1.00  0.00     0.040 A 
ATOM     98  C   UNL A   1      43.953  22.770  26.699  1.00  0.00     0.123 A 
ATOM     99  F   UNL A   1      43.054  21.861  27.095  1.00  0.00    -0.207 F 
ENDBRANCH  90  93
ENDBRANCH  77  88
ENDBRANCH  72  74
ENDBRANCH  71  72
ENDBRANCH  70  71
ENDBRANCH  69  70
ENDBRANCH  68  69
ENDBRANCH  67  68
ENDBRANCH  66  67
ENDBRANCH   1  66
TORSDOF 22
ENDMDL
