MODEL 1
REMARK VINA RESULT:      -9.5      0.000      0.000
REMARK SMILES CCC[NH2+][C@]1(C(=O)OCCOCCOCCOCCOC(=O)c2ccc(-c3c4nc(c(-c5c(F)cccc5F)c5ccc([nH]5)c(-c5c(F)cccc5F)c5nc(c(-c6c(F)cccc6F)c6ccc3[nH]6)C=C5)C=C4)cc2)CCC[C@H](OC(C)(C)C)C1
REMARK SMILES IDX 13 1 12 2 11 3 10 4 9 5 8 6 6 7 7 8 5 9 77 10 86 11 78 12
REMARK SMILES IDX 80 13 79 14 4 15 3 18 2 19 1 20 81 21 82 22 83 23 84 24
REMARK SMILES IDX 85 25 14 26 15 27 16 28 17 29 18 30 19 31 20 32 21 33 22 34
REMARK SMILES IDX 23 35 24 36 76 37 25 38 75 39 26 40 27 41 28 42 69 43 29 44
REMARK SMILES IDX 74 45 68 46 70 47 30 48 73 49 67 50 66 51 31 53 57 54 40 55
REMARK SMILES IDX 56 56 41 57 44 58 55 59 71 60 42 61 43 62 54 64 72 65 45 66
REMARK SMILES IDX 32 67 33 68 38 69 34 70 35 71 37 72 39 73 36 74 58 75 59 76
REMARK SMILES IDX 64 77 60 78 61 79 63 80 65 81 62 82 46 83 47 84 52 85 48 86
REMARK SMILES IDX 49 87 51 88 53 89 50 90
REMARK H PARENT 4 16 4 17 70 52 44 63
REMARK Flexibility Score: inf
ROOT
ATOM      1  C   UNL A   1      39.601  21.750  26.134  1.00  0.00     0.188 C 
ENDROOT
BRANCH   1   2
ATOM      2  C   UNL A   1      38.205  21.555  25.520  1.00  0.00     0.188 C 
BRANCH   2   3
ATOM      3  O   UNL A   1      37.422  22.670  25.118  1.00  0.00    -0.376 OA
BRANCH   3   4
ATOM      4  C   UNL A   1      36.598  22.612  23.965  1.00  0.00     0.202 C 
BRANCH   4   5
ATOM      5  C   UNL A   1      35.087  22.332  24.037  1.00  0.00     0.261 C 
BRANCH   5   6
ATOM      6  O   UNL A   1      34.209  23.458  24.070  1.00  0.00    -0.459 OA
BRANCH   6   7
ATOM      7  C   UNL A   1      32.869  23.186  24.128  1.00  0.00     0.368 C 
ATOM      8  O   UNL A   1      32.395  22.057  24.145  1.00  0.00    -0.245 OA
BRANCH   7   9
ATOM      9  C   UNL A   1      32.043  24.509  24.095  1.00  0.00     0.196 C 
ATOM     10  C   UNL A   1      30.622  24.255  23.580  1.00  0.00     0.081 C 
ATOM     11  C   UNL A   1      31.897  25.020  25.540  1.00  0.00     0.113 C 
ATOM     12  C   UNL A   1      29.731  25.495  23.714  1.00  0.00     0.010 C 
ATOM     13  C   UNL A   1      31.066  26.265  25.792  1.00  0.00     0.125 C 
ATOM     14  C   UNL A   1      29.691  26.076  25.134  1.00  0.00     0.032 C 
BRANCH   9  15
ATOM     15  N   UNL A   1      32.749  25.550  23.314  1.00  0.00    -0.332 N 
ATOM     16  H   UNL A   1      32.902  26.348  23.929  1.00  0.00     0.347 HD
ATOM     17  H   UNL A   1      33.601  25.101  22.978  1.00  0.00     0.347 HD
BRANCH  15  18
ATOM     18  C   UNL A   1      32.079  26.037  22.119  1.00  0.00     0.261 C 
BRANCH  18  19
ATOM     19  C   UNL A   1      33.014  25.911  20.909  1.00  0.00     0.058 C 
ATOM     20  C   UNL A   1      32.314  25.440  19.636  1.00  0.00     0.010 C 
ENDBRANCH  18  19
ENDBRANCH  15  18
ENDBRANCH   9  15
BRANCH  13  21
ATOM     21  O   UNL A   1      31.702  27.449  25.318  1.00  0.00    -0.372 OA
BRANCH  21  22
ATOM     22  C   UNL A   1      32.342  28.365  26.228  1.00  0.00     0.060 C 
ATOM     23  C   UNL A   1      31.808  28.249  27.662  1.00  0.00     0.042 C 
ATOM     24  C   UNL A   1      33.877  28.293  26.275  1.00  0.00     0.042 C 
ATOM     25  C   UNL A   1      31.964  29.745  25.666  1.00  0.00     0.042 C 
ENDBRANCH  21  22
ENDBRANCH  13  21
ENDBRANCH   7   9
ENDBRANCH   6   7
ENDBRANCH   5   6
ENDBRANCH   4   5
ENDBRANCH   3   4
ENDBRANCH   2   3
ENDBRANCH   1   2
BRANCH   1  26
ATOM     26  O   UNL A   1      40.398  20.586  26.149  1.00  0.00    -0.377 OA
BRANCH  26  27
ATOM     27  C   UNL A   1      41.776  20.843  26.387  1.00  0.00     0.188 C 
BRANCH  27  28
ATOM     28  C   UNL A   1      42.792  19.850  25.769  1.00  0.00     0.188 C 
BRANCH  28  29
ATOM     29  O   UNL A   1      43.772  20.436  24.919  1.00  0.00    -0.376 OA
BRANCH  29  30
ATOM     30  C   UNL A   1      45.110  20.605  25.367  1.00  0.00     0.202 C 
BRANCH  30  31
ATOM     31  C   UNL A   1      45.587  22.003  25.809  1.00  0.00     0.261 C 
BRANCH  31  32
ATOM     32  O   UNL A   1      44.595  22.867  26.378  1.00  0.00    -0.460 OA
BRANCH  32  33
ATOM     33  C   UNL A   1      44.088  23.832  25.583  1.00  0.00     0.338 C 
ATOM     34  O   UNL A   1      44.049  23.835  24.364  1.00  0.00    -0.246 OA
BRANCH  33  35
ATOM     35  C   UNL A   1      43.382  24.799  26.449  1.00  0.00     0.060 A 
ATOM     36  C   UNL A   1      43.839  26.124  26.485  1.00  0.00     0.016 A 
ATOM     37  C   UNL A   1      42.264  24.413  27.192  1.00  0.00     0.016 A 
ATOM     38  C   UNL A   1      43.195  27.063  27.287  1.00  0.00     0.010 A 
ATOM     39  C   UNL A   1      41.642  25.346  28.025  1.00  0.00     0.010 A 
ATOM     40  C   UNL A   1      42.128  26.665  28.101  1.00  0.00    -0.014 A 
BRANCH  40  41
ATOM     41  C   UNL A   1      41.683  27.558  29.195  1.00  0.00     0.031 A 
ATOM     42  C   UNL A   1      42.433  27.497  30.497  1.00  0.00     0.074 A 
ATOM     43  C   UNL A   1      40.668  28.422  29.033  1.00  0.00     0.049 A 
ATOM     44  N   UNL A   1      42.208  28.130  31.618  1.00  0.00    -0.248 NA
ATOM     45  C   UNL A   1      43.598  26.597  30.536  1.00  0.00     0.031 C 
ATOM     46  C   UNL A   1      39.906  28.614  27.802  1.00  0.00     0.029 A 
ATOM     47  N   UNL A   1      40.099  29.296  29.925  1.00  0.00    -0.354 N 
ATOM     48  C   UNL A   1      43.196  27.700  32.495  1.00  0.00     0.074 A 
ATOM     49  C   UNL A   1      44.003  26.731  31.788  1.00  0.00     0.031 C 
ATOM     50  C   UNL A   1      38.954  29.539  28.021  1.00  0.00     0.029 A 
ATOM     51  C   UNL A   1      39.019  29.974  29.415  1.00  0.00     0.049 A 
ATOM     52  H   UNL A   1      40.434  29.426  30.841  1.00  0.00     0.167 HD
ATOM     53  C   UNL A   1      43.413  28.082  33.774  1.00  0.00     0.037 A 
ATOM     54  C   UNL A   1      38.167  30.824  30.020  1.00  0.00     0.037 A 
ATOM     55  C   UNL A   1      42.602  29.041  34.475  1.00  0.00     0.049 A 
ATOM     56  C   UNL A   1      38.371  31.163  31.476  1.00  0.00     0.074 A 
ATOM     57  C   UNL A   1      42.742  29.504  35.771  1.00  0.00     0.029 A 
ATOM     58  N   UNL A   1      41.490  29.674  33.940  1.00  0.00    -0.354 N 
ATOM     59  N   UNL A   1      39.315  30.766  32.295  1.00  0.00    -0.248 NA
ATOM     60  C   UNL A   1      37.388  32.068  32.091  1.00  0.00     0.031 C 
ATOM     61  C   UNL A   1      41.678  30.371  36.040  1.00  0.00     0.029 A 
ATOM     62  C   UNL A   1      40.915  30.500  34.890  1.00  0.00     0.049 A 
ATOM     63  H   UNL A   1      41.159  29.554  33.020  1.00  0.00     0.167 HD
ATOM     64  C   UNL A   1      39.061  31.398  33.508  1.00  0.00     0.074 A 
ATOM     65  C   UNL A   1      37.880  32.212  33.313  1.00  0.00     0.031 C 
ATOM     66  C   UNL A   1      39.744  31.314  34.676  1.00  0.00     0.037 A 
BRANCH  53  67
ATOM     67  C   UNL A   1      44.551  27.433  34.505  1.00  0.00     0.057 A 
ATOM     68  C   UNL A   1      44.383  26.260  35.254  1.00  0.00     0.134 A 
ATOM     69  C   UNL A   1      45.840  27.979  34.442  1.00  0.00     0.134 A 
ATOM     70  F   UNL A   1      43.172  25.696  35.372  1.00  0.00    -0.206 F 
ATOM     71  C   UNL A   1      45.451  25.669  35.932  1.00  0.00     0.040 A 
ATOM     72  C   UNL A   1      46.920  27.380  35.091  1.00  0.00     0.040 A 
ATOM     73  F   UNL A   1      46.070  29.101  33.744  1.00  0.00    -0.206 F 
ATOM     74  C   UNL A   1      46.725  26.225  35.845  1.00  0.00     0.006 A 
ENDBRANCH  53  67
BRANCH  54  75
ATOM     75  C   UNL A   1      37.024  31.401  29.265  1.00  0.00     0.057 A 
ATOM     76  C   UNL A   1      35.897  30.632  28.951  1.00  0.00     0.134 A 
ATOM     77  C   UNL A   1      37.047  32.725  28.809  1.00  0.00     0.134 A 
ATOM     78  F   UNL A   1      35.827  29.349  29.337  1.00  0.00    -0.206 F 
ATOM     79  C   UNL A   1      34.844  31.151  28.195  1.00  0.00     0.040 A 
ATOM     80  C   UNL A   1      35.988  33.266  28.076  1.00  0.00     0.040 A 
ATOM     81  F   UNL A   1      38.097  33.516  29.073  1.00  0.00    -0.206 F 
ATOM     82  C   UNL A   1      34.886  32.474  27.759  1.00  0.00     0.006 A 
ENDBRANCH  54  75
BRANCH  66  83
ATOM     83  C   UNL A   1      39.264  32.157  35.824  1.00  0.00     0.057 A 
ATOM     84  C   UNL A   1      39.704  33.473  36.016  1.00  0.00     0.134 A 
ATOM     85  C   UNL A   1      38.306  31.660  36.717  1.00  0.00     0.134 A 
ATOM     86  F   UNL A   1      40.627  34.008  35.202  1.00  0.00    -0.206 F 
ATOM     87  C   UNL A   1      39.226  34.255  37.069  1.00  0.00     0.040 A 
ATOM     88  C   UNL A   1      37.797  32.442  37.755  1.00  0.00     0.040 A 
ATOM     89  F   UNL A   1      37.832  30.412  36.584  1.00  0.00    -0.206 F 
ATOM     90  C   UNL A   1      38.263  33.743  37.937  1.00  0.00     0.006 A 
ENDBRANCH  66  83
ENDBRANCH  40  41
ENDBRANCH  33  35
ENDBRANCH  32  33
ENDBRANCH  31  32
ENDBRANCH  30  31
ENDBRANCH  29  30
ENDBRANCH  28  29
ENDBRANCH  27  28
ENDBRANCH  26  27
ENDBRANCH   1  26
TORSDOF 25
ENDMDL
MODEL 2
REMARK VINA RESULT:      -9.3      1.572      2.852
REMARK SMILES CCC[NH2+][C@]1(C(=O)OCCOCCOCCOCCOC(=O)c2ccc(-c3c4nc(c(-c5c(F)cccc5F)c5ccc([nH]5)c(-c5c(F)cccc5F)c5nc(c(-c6c(F)cccc6F)c6ccc3[nH]6)C=C5)C=C4)cc2)CCC[C@H](OC(C)(C)C)C1
REMARK SMILES IDX 13 1 12 2 11 3 10 4 9 5 8 6 6 7 7 8 5 9 77 10 86 11 78 12
REMARK SMILES IDX 80 13 79 14 4 15 3 18 2 19 1 20 81 21 82 22 83 23 84 24
REMARK SMILES IDX 85 25 14 26 15 27 16 28 17 29 18 30 19 31 20 32 21 33 22 34
REMARK SMILES IDX 23 35 24 36 76 37 25 38 75 39 26 40 27 41 28 42 69 43 29 44
REMARK SMILES IDX 74 45 68 46 70 47 30 48 73 49 67 50 66 51 31 53 57 54 40 55
REMARK SMILES IDX 56 56 41 57 44 58 55 59 71 60 42 61 43 62 54 64 72 65 45 66
REMARK SMILES IDX 32 67 33 68 38 69 34 70 35 71 37 72 39 73 36 74 58 75 59 76
REMARK SMILES IDX 64 77 60 78 61 79 63 80 65 81 62 82 46 83 47 84 52 85 48 86
REMARK SMILES IDX 49 87 51 88 53 89 50 90
REMARK H PARENT 4 16 4 17 70 52 44 63
REMARK Flexibility Score: inf
ROOT
ATOM      1  C   UNL A   1      36.814  22.055  25.256  1.00  0.00     0.188 C 
ENDROOT
BRANCH   1   2
ATOM      2  C   UNL A   1      35.439  21.655  25.815  1.00  0.00     0.188 C 
BRANCH   2   3
ATOM      3  O   UNL A   1      34.354  22.572  25.807  1.00  0.00    -0.376 OA
BRANCH   3   4
ATOM      4  C   UNL A   1      33.286  22.455  26.733  1.00  0.00     0.202 C 
BRANCH   4   5
ATOM      5  C   UNL A   1      32.189  23.524  26.877  1.00  0.00     0.261 C 
BRANCH   5   6
ATOM      6  O   UNL A   1      31.853  24.283  25.714  1.00  0.00    -0.459 OA
BRANCH   6   7
ATOM      7  C   UNL A   1      30.858  25.211  25.859  1.00  0.00     0.368 C 
ATOM      8  O   UNL A   1      29.830  25.027  26.499  1.00  0.00    -0.245 OA
BRANCH   7   9
ATOM      9  C   UNL A   1      31.188  26.496  25.038  1.00  0.00     0.196 C 
ATOM     10  C   UNL A   1      32.523  26.347  24.301  1.00  0.00     0.081 C 
ATOM     11  C   UNL A   1      30.108  26.663  23.953  1.00  0.00     0.113 C 
ATOM     12  C   UNL A   1      32.784  27.512  23.339  1.00  0.00     0.010 C 
ATOM     13  C   UNL A   1      30.240  27.807  22.964  1.00  0.00     0.125 C 
ATOM     14  C   UNL A   1      31.644  27.754  22.341  1.00  0.00     0.032 C 
BRANCH   9  15
ATOM     15  N   UNL A   1      31.152  27.696  25.904  1.00  0.00    -0.332 N 
ATOM     16  H   UNL A   1      31.290  28.512  25.309  1.00  0.00     0.347 HD
ATOM     17  H   UNL A   1      30.248  27.660  26.374  1.00  0.00     0.347 HD
BRANCH  15  18
ATOM     18  C   UNL A   1      32.135  27.761  26.974  1.00  0.00     0.261 C 
BRANCH  18  19
ATOM     19  C   UNL A   1      32.897  29.090  26.900  1.00  0.00     0.058 C 
ATOM     20  C   UNL A   1      34.408  28.925  26.745  1.00  0.00     0.010 C 
ENDBRANCH  18  19
ENDBRANCH  15  18
ENDBRANCH   9  15
BRANCH  13  21
ATOM     21  O   UNL A   1      29.994  29.076  23.564  1.00  0.00    -0.372 OA
BRANCH  21  22
ATOM     22  C   UNL A   1      28.988  29.964  23.039  1.00  0.00     0.060 C 
ATOM     23  C   UNL A   1      29.266  30.390  21.591  1.00  0.00     0.042 C 
ATOM     24  C   UNL A   1      27.540  29.453  23.124  1.00  0.00     0.042 C 
ATOM     25  C   UNL A   1      29.093  31.197  23.950  1.00  0.00     0.042 C 
ENDBRANCH  21  22
ENDBRANCH  13  21
ENDBRANCH   7   9
ENDBRANCH   6   7
ENDBRANCH   5   6
ENDBRANCH   4   5
ENDBRANCH   3   4
ENDBRANCH   2   3
ENDBRANCH   1   2
BRANCH   1  26
ATOM     26  O   UNL A   1      37.698  20.973  25.056  1.00  0.00    -0.377 OA
BRANCH  26  27
ATOM     27  C   UNL A   1      38.944  21.126  25.722  1.00  0.00     0.188 C 
BRANCH  27  28
ATOM     28  C   UNL A   1      39.757  19.836  25.994  1.00  0.00     0.188 C 
BRANCH  28  29
ATOM     29  O   UNL A   1      41.000  20.031  26.661  1.00  0.00    -0.376 OA
BRANCH  29  30
ATOM     30  C   UNL A   1      42.212  20.106  25.922  1.00  0.00     0.202 C 
BRANCH  30  31
ATOM     31  C   UNL A   1      43.151  21.309  26.132  1.00  0.00     0.261 C 
BRANCH  31  32
ATOM     32  O   UNL A   1      42.551  22.509  26.636  1.00  0.00    -0.460 OA
BRANCH  32  33
ATOM     33  C   UNL A   1      42.820  23.657  25.981  1.00  0.00     0.338 C 
ATOM     34  O   UNL A   1      43.261  23.772  24.850  1.00  0.00    -0.246 OA
BRANCH  33  35
ATOM     35  C   UNL A   1      42.281  24.770  26.790  1.00  0.00     0.060 A 
ATOM     36  C   UNL A   1      42.964  25.993  26.785  1.00  0.00     0.016 A 
ATOM     37  C   UNL A   1      41.097  24.621  27.517  1.00  0.00     0.016 A 
ATOM     38  C   UNL A   1      42.482  27.065  27.532  1.00  0.00     0.010 A 
ATOM     39  C   UNL A   1      40.636  25.684  28.296  1.00  0.00     0.010 A 
ATOM     40  C   UNL A   1      41.346  26.898  28.333  1.00  0.00    -0.014 A 
BRANCH  40  41
ATOM     41  C   UNL A   1      41.047  27.902  29.379  1.00  0.00     0.031 A 
ATOM     42  C   UNL A   1      41.868  27.869  30.638  1.00  0.00     0.074 A 
ATOM     43  C   UNL A   1      40.099  28.838  29.208  1.00  0.00     0.049 A 
ATOM     44  N   UNL A   1      41.767  28.597  31.718  1.00  0.00    -0.248 NA
ATOM     45  C   UNL A   1      42.954  26.874  30.680  1.00  0.00     0.031 C 
ATOM     46  C   UNL A   1      39.281  29.009  28.011  1.00  0.00     0.029 A 
ATOM     47  N   UNL A   1      39.662  29.821  30.061  1.00  0.00    -0.354 N 
ATOM     48  C   UNL A   1      42.768  28.145  32.569  1.00  0.00     0.074 A 
ATOM     49  C   UNL A   1      43.445  27.061  31.894  1.00  0.00     0.031 C 
ATOM     50  C   UNL A   1      38.425  30.027  28.212  1.00  0.00     0.029 A 
ATOM     51  C   UNL A   1      38.613  30.553  29.563  1.00  0.00     0.049 A 
ATOM     52  H   UNL A   1      40.062  29.985  30.945  1.00  0.00     0.167 HD
ATOM     53  C   UNL A   1      43.095  28.597  33.801  1.00  0.00     0.037 A 
ATOM     54  C   UNL A   1      37.873  31.515  30.148  1.00  0.00     0.037 A 
ATOM     55  C   UNL A   1      42.412  29.671  34.471  1.00  0.00     0.049 A 
ATOM     56  C   UNL A   1      38.195  31.937  31.560  1.00  0.00     0.074 A 
ATOM     57  C   UNL A   1      42.670  30.211  35.718  1.00  0.00     0.029 A 
ATOM     58  N   UNL A   1      41.326  30.359  33.952  1.00  0.00    -0.354 N 
ATOM     59  N   UNL A   1      39.152  31.518  32.353  1.00  0.00    -0.248 NA
ATOM     60  C   UNL A   1      37.332  32.967  32.157  1.00  0.00     0.031 C 
ATOM     61  C   UNL A   1      41.701  31.185  35.979  1.00  0.00     0.029 A 
ATOM     62  C   UNL A   1      40.882  31.298  34.868  1.00  0.00     0.049 A 
ATOM     63  H   UNL A   1      40.930  30.203  33.064  1.00  0.00     0.167 HD
ATOM     64  C   UNL A   1      39.027  32.255  33.526  1.00  0.00     0.074 A 
ATOM     65  C   UNL A   1      37.909  33.153  33.336  1.00  0.00     0.031 C 
ATOM     66  C   UNL A   1      39.772  32.194  34.657  1.00  0.00     0.037 A 
BRANCH  53  67
ATOM     67  C   UNL A   1      44.218  27.904  34.515  1.00  0.00     0.057 A 
ATOM     68  C   UNL A   1      43.993  26.858  35.421  1.00  0.00     0.134 A 
ATOM     69  C   UNL A   1      45.548  28.275  34.277  1.00  0.00     0.134 A 
ATOM     70  F   UNL A   1      42.743  26.465  35.709  1.00  0.00    -0.206 F 
ATOM     71  C   UNL A   1      45.047  26.224  36.080  1.00  0.00     0.040 A 
ATOM     72  C   UNL A   1      46.611  27.629  34.908  1.00  0.00     0.040 A 
ATOM     73  F   UNL A   1      45.834  29.269  33.423  1.00  0.00    -0.206 F 
ATOM     74  C   UNL A   1      46.361  26.605  35.818  1.00  0.00     0.006 A 
ENDBRANCH  53  67
BRANCH  54  75
ATOM     75  C   UNL A   1      36.738  32.135  29.416  1.00  0.00     0.057 A 
ATOM     76  C   UNL A   1      36.827  33.433  28.899  1.00  0.00     0.134 A 
ATOM     77  C   UNL A   1      35.524  31.457  29.245  1.00  0.00     0.134 A 
ATOM     78  F   UNL A   1      37.955  34.144  29.052  1.00  0.00    -0.206 F 
ATOM     79  C   UNL A   1      35.747  34.042  28.258  1.00  0.00     0.040 A 
ATOM     80  C   UNL A   1      34.445  32.044  28.582  1.00  0.00     0.040 A 
ATOM     81  F   UNL A   1      35.370  30.212  29.718  1.00  0.00    -0.206 F 
ATOM     82  C   UNL A   1      34.552  33.344  28.094  1.00  0.00     0.006 A 
ENDBRANCH  54  75
BRANCH  66  83
ATOM     83  C   UNL A   1      39.437  33.156  35.763  1.00  0.00     0.057 A 
ATOM     84  C   UNL A   1      38.525  32.836  36.777  1.00  0.00     0.134 A 
ATOM     85  C   UNL A   1      40.078  34.399  35.840  1.00  0.00     0.134 A 
ATOM     86  F   UNL A   1      37.870  31.666  36.758  1.00  0.00    -0.206 F 
ATOM     87  C   UNL A   1      38.247  33.727  37.814  1.00  0.00     0.040 A 
ATOM     88  C   UNL A   1      39.832  35.286  36.889  1.00  0.00     0.040 A 
ATOM     89  F   UNL A   1      40.972  34.765  34.909  1.00  0.00    -0.206 F 
ATOM     90  C   UNL A   1      38.908  34.953  37.877  1.00  0.00     0.006 A 
ENDBRANCH  66  83
ENDBRANCH  40  41
ENDBRANCH  33  35
ENDBRANCH  32  33
ENDBRANCH  31  32
ENDBRANCH  30  31
ENDBRANCH  29  30
ENDBRANCH  28  29
ENDBRANCH  27  28
ENDBRANCH  26  27
ENDBRANCH   1  26
TORSDOF 25
ENDMDL
MODEL 3
REMARK VINA RESULT:      -9.3      3.015      8.605
REMARK SMILES CCC[NH2+][C@]1(C(=O)OCCOCCOCCOCCOC(=O)c2ccc(-c3c4nc(c(-c5c(F)cccc5F)c5ccc([nH]5)c(-c5c(F)cccc5F)c5nc(c(-c6c(F)cccc6F)c6ccc3[nH]6)C=C5)C=C4)cc2)CCC[C@H](OC(C)(C)C)C1
REMARK SMILES IDX 13 1 12 2 11 3 10 4 9 5 8 6 6 7 7 8 5 9 77 10 86 11 78 12
REMARK SMILES IDX 80 13 79 14 4 15 3 18 2 19 1 20 81 21 82 22 83 23 84 24
REMARK SMILES IDX 85 25 14 26 15 27 16 28 17 29 18 30 19 31 20 32 21 33 22 34
REMARK SMILES IDX 23 35 24 36 76 37 25 38 75 39 26 40 27 41 28 42 69 43 29 44
REMARK SMILES IDX 74 45 68 46 70 47 30 48 73 49 67 50 66 51 31 53 57 54 40 55
REMARK SMILES IDX 56 56 41 57 44 58 55 59 71 60 42 61 43 62 54 64 72 65 45 66
REMARK SMILES IDX 32 67 33 68 38 69 34 70 35 71 37 72 39 73 36 74 58 75 59 76
REMARK SMILES IDX 64 77 60 78 61 79 63 80 65 81 62 82 46 83 47 84 52 85 48 86
REMARK SMILES IDX 49 87 51 88 53 89 50 90
REMARK H PARENT 4 16 4 17 70 52 44 63
REMARK Flexibility Score: inf
ROOT
ATOM      1  C   UNL A   1      32.678  27.152  22.679  1.00  0.00     0.188 C 
ENDROOT
BRANCH   1   2
ATOM      2  C   UNL A   1      31.238  26.621  22.772  1.00  0.00     0.188 C 
BRANCH   2   3
ATOM      3  O   UNL A   1      30.310  27.184  23.689  1.00  0.00    -0.376 OA
BRANCH   3   4
ATOM      4  C   UNL A   1      29.742  26.407  24.730  1.00  0.00     0.202 C 
BRANCH   4   5
ATOM      5  C   UNL A   1      30.593  25.672  25.779  1.00  0.00     0.261 C 
BRANCH   5   6
ATOM      6  O   UNL A   1      30.829  24.278  25.578  1.00  0.00    -0.459 OA
BRANCH   6   7
ATOM      7  C   UNL A   1      31.737  23.687  26.413  1.00  0.00     0.368 C 
ATOM      8  O   UNL A   1      31.771  23.854  27.626  1.00  0.00    -0.245 OA
BRANCH   7   9
ATOM      9  C   UNL A   1      32.756  22.836  25.594  1.00  0.00     0.196 C 
ATOM     10  C   UNL A   1      34.129  23.516  25.550  1.00  0.00     0.081 C 
ATOM     11  C   UNL A   1      32.959  21.495  26.323  1.00  0.00     0.113 C 
ATOM     12  C   UNL A   1      35.197  22.619  24.916  1.00  0.00     0.010 C 
ATOM     13  C   UNL A   1      33.967  20.507  25.765  1.00  0.00     0.125 C 
ATOM     14  C   UNL A   1      35.306  21.234  25.568  1.00  0.00     0.032 C 
BRANCH   9  15
ATOM     15  N   UNL A   1      32.228  22.542  24.242  1.00  0.00    -0.332 N 
ATOM     16  H   UNL A   1      32.499  21.589  24.004  1.00  0.00     0.347 HD
ATOM     17  H   UNL A   1      31.222  22.695  24.308  1.00  0.00     0.347 HD
BRANCH  15  18
ATOM     18  C   UNL A   1      32.676  23.409  23.163  1.00  0.00     0.261 C 
BRANCH  18  19
ATOM     19  C   UNL A   1      32.831  22.595  21.872  1.00  0.00     0.058 C 
ATOM     20  C   UNL A   1      31.992  21.319  21.844  1.00  0.00     0.010 C 
ENDBRANCH  18  19
ENDBRANCH  15  18
ENDBRANCH   9  15
BRANCH  13  21
ATOM     21  O   UNL A   1      33.526  19.908  24.550  1.00  0.00    -0.372 OA
BRANCH  21  22
ATOM     22  C   UNL A   1      33.379  18.478  24.436  1.00  0.00     0.060 C 
ATOM     23  C   UNL A   1      32.693  17.851  25.657  1.00  0.00     0.042 C 
ATOM     24  C   UNL A   1      32.663  17.982  23.168  1.00  0.00     0.042 C 
ATOM     25  C   UNL A   1      34.831  17.977  24.368  1.00  0.00     0.042 C 
ENDBRANCH  21  22
ENDBRANCH  13  21
ENDBRANCH   7   9
ENDBRANCH   6   7
ENDBRANCH   5   6
ENDBRANCH   4   5
ENDBRANCH   3   4
ENDBRANCH   2   3
ENDBRANCH   1   2
BRANCH   1  26
ATOM     26  O   UNL A   1      32.807  28.534  22.937  1.00  0.00    -0.377 OA
BRANCH  26  27
ATOM     27  C   UNL A   1      33.452  28.825  24.170  1.00  0.00     0.188 C 
BRANCH  27  28
ATOM     28  C   UNL A   1      32.539  29.144  25.381  1.00  0.00     0.188 C 
BRANCH  28  29
ATOM     29  O   UNL A   1      32.598  30.488  25.846  1.00  0.00    -0.376 OA
BRANCH  29  30
ATOM     30  C   UNL A   1      31.438  31.125  26.363  1.00  0.00     0.202 C 
BRANCH  30  31
ATOM     31  C   UNL A   1      31.535  32.579  26.865  1.00  0.00     0.261 C 
BRANCH  31  32
ATOM     32  O   UNL A   1      32.835  33.182  26.831  1.00  0.00    -0.460 OA
BRANCH  32  33
ATOM     33  C   UNL A   1      33.241  33.836  27.939  1.00  0.00     0.338 C 
ATOM     34  O   UNL A   1      32.628  34.692  28.554  1.00  0.00    -0.246 OA
BRANCH  33  35
ATOM     35  C   UNL A   1      34.476  33.180  28.417  1.00  0.00     0.060 A 
ATOM     36  C   UNL A   1      34.399  31.856  28.870  1.00  0.00     0.016 A 
ATOM     37  C   UNL A   1      35.701  33.850  28.389  1.00  0.00     0.016 A 
ATOM     38  C   UNL A   1      35.543  31.206  29.325  1.00  0.00     0.010 A 
ATOM     39  C   UNL A   1      36.841  33.211  28.881  1.00  0.00     0.010 A 
ATOM     40  C   UNL A   1      36.758  31.899  29.382  1.00  0.00    -0.014 A 
BRANCH  40  41
ATOM     41  C   UNL A   1      37.872  31.338  30.180  1.00  0.00     0.031 A 
ATOM     42  C   UNL A   1      38.766  30.325  29.520  1.00  0.00     0.074 A 
ATOM     43  C   UNL A   1      38.108  31.736  31.441  1.00  0.00     0.049 A 
ATOM     44  N   UNL A   1      39.768  29.649  30.017  1.00  0.00    -0.248 NA
ATOM     45  C   UNL A   1      38.490  30.038  28.102  1.00  0.00     0.031 C 
ATOM     46  C   UNL A   1      37.349  32.752  32.166  1.00  0.00     0.029 A 
ATOM     47  N   UNL A   1      39.059  31.318  32.338  1.00  0.00    -0.354 N 
ATOM     48  C   UNL A   1      40.235  28.853  28.979  1.00  0.00     0.074 A 
ATOM     49  C   UNL A   1      39.390  29.107  27.833  1.00  0.00     0.031 C 
ATOM     50  C   UNL A   1      37.854  32.867  33.407  1.00  0.00     0.029 A 
ATOM     51  C   UNL A   1      38.945  31.908  33.573  1.00  0.00     0.049 A 
ATOM     52  H   UNL A   1      39.755  30.658  32.118  1.00  0.00     0.167 HD
ATOM     53  C   UNL A   1      41.277  27.991  28.979  1.00  0.00     0.037 A 
ATOM     54  C   UNL A   1      39.628  31.674  34.710  1.00  0.00     0.037 A 
ATOM     55  C   UNL A   1      42.109  27.737  30.124  1.00  0.00     0.049 A 
ATOM     56  C   UNL A   1      40.725  30.638  34.713  1.00  0.00     0.074 A 
ATOM     57  C   UNL A   1      43.197  26.888  30.227  1.00  0.00     0.029 A 
ATOM     58  N   UNL A   1      41.937  28.322  31.370  1.00  0.00    -0.354 N 
ATOM     59  N   UNL A   1      41.171  29.901  33.725  1.00  0.00    -0.248 NA
ATOM     60  C   UNL A   1      41.411  30.402  35.992  1.00  0.00     0.031 C 
ATOM     61  C   UNL A   1      43.644  26.913  31.551  1.00  0.00     0.029 A 
ATOM     62  C   UNL A   1      42.878  27.828  32.256  1.00  0.00     0.049 A 
ATOM     63  H   UNL A   1      41.247  28.989  31.590  1.00  0.00     0.167 HD
ATOM     64  C   UNL A   1      42.211  29.142  34.252  1.00  0.00     0.074 A 
ATOM     65  C   UNL A   1      42.333  29.515  35.645  1.00  0.00     0.031 C 
ATOM     66  C   UNL A   1      42.994  28.220  33.639  1.00  0.00     0.037 A 
BRANCH  53  67
ATOM     67  C   UNL A   1      41.549  27.236  27.711  1.00  0.00     0.057 A 
ATOM     68  C   UNL A   1      40.929  26.012  27.425  1.00  0.00     0.134 A 
ATOM     69  C   UNL A   1      42.429  27.752  26.751  1.00  0.00     0.134 A 
ATOM     70  F   UNL A   1      40.089  25.452  28.309  1.00  0.00    -0.206 F 
ATOM     71  C   UNL A   1      41.194  25.319  26.243  1.00  0.00     0.040 A 
ATOM     72  C   UNL A   1      42.679  27.083  25.553  1.00  0.00     0.040 A 
ATOM     73  F   UNL A   1      43.057  28.919  26.962  1.00  0.00    -0.206 F 
ATOM     74  C   UNL A   1      42.065  25.858  25.300  1.00  0.00     0.006 A 
ENDBRANCH  53  67
BRANCH  54  75
ATOM     75  C   UNL A   1      39.286  32.413  35.954  1.00  0.00     0.057 A 
ATOM     76  C   UNL A   1      39.870  33.650  36.249  1.00  0.00     0.134 A 
ATOM     77  C   UNL A   1      38.393  31.883  36.893  1.00  0.00     0.134 A 
ATOM     78  F   UNL A   1      40.754  34.199  35.401  1.00  0.00    -0.206 F 
ATOM     79  C   UNL A   1      39.595  34.324  37.440  1.00  0.00     0.040 A 
ATOM     80  C   UNL A   1      38.087  32.560  38.076  1.00  0.00     0.040 A 
ATOM     81  F   UNL A   1      37.799  30.701  36.674  1.00  0.00    -0.206 F 
ATOM     82  C   UNL A   1      38.696  33.780  38.356  1.00  0.00     0.006 A 
ENDBRANCH  54  75
BRANCH  66  83
ATOM     83  C   UNL A   1      44.085  27.583  34.453  1.00  0.00     0.057 A 
ATOM     84  C   UNL A   1      45.329  28.198  34.641  1.00  0.00     0.134 A 
ATOM     85  C   UNL A   1      43.864  26.361  35.102  1.00  0.00     0.134 A 
ATOM     86  F   UNL A   1      45.609  29.364  34.041  1.00  0.00    -0.206 F 
ATOM     87  C   UNL A   1      46.322  27.608  35.425  1.00  0.00     0.040 A 
ATOM     88  C   UNL A   1      44.837  25.777  35.915  1.00  0.00     0.040 A 
ATOM     89  F   UNL A   1      42.689  25.724  34.976  1.00  0.00    -0.206 F 
ATOM     90  C   UNL A   1      46.074  26.399  36.072  1.00  0.00     0.006 A 
ENDBRANCH  66  83
ENDBRANCH  40  41
ENDBRANCH  33  35
ENDBRANCH  32  33
ENDBRANCH  31  32
ENDBRANCH  30  31
ENDBRANCH  29  30
ENDBRANCH  28  29
ENDBRANCH  27  28
ENDBRANCH  26  27
ENDBRANCH   1  26
TORSDOF 25
ENDMDL
