MODEL 1
REMARK VINA RESULT:      -9.6      0.000      0.000
REMARK SMILES Cc1nnsc1Sc1ccccc1C(=O)OCCOCCOCCOCCOC(=O)c1ccc(-c2c3nc(c(-c4c(F)cccc4F)c4ccc([nH]4)c(-c4c(F)cccc4F)c4nc(c(-c5c(F)cccc5F)c5ccc2[nH]5)C=C4)C=C3)cc1
REMARK SMILES IDX 22 1 21 2 20 3 19 4 18 5 17 6 16 7 14 8 15 9 13 10 8 11 9 12
REMARK SMILES IDX 10 13 12 14 11 15 7 16 6 17 1 18 2 19 3 20 4 21 5 22 23 23
REMARK SMILES IDX 24 24 25 25 26 26 27 27 28 28 29 29 30 30 31 31 32 32 84 33
REMARK SMILES IDX 33 34 83 35 34 36 35 37 36 38 77 39 37 40 82 41 76 42 78 43
REMARK SMILES IDX 38 44 81 45 75 46 74 47 39 49 65 50 48 51 64 52 49 53 52 54
REMARK SMILES IDX 63 55 79 56 50 57 51 58 62 60 80 61 53 62 40 63 41 64 46 65
REMARK SMILES IDX 42 66 43 67 45 68 47 69 44 70 66 71 67 72 72 73 68 74 69 75
REMARK SMILES IDX 71 76 73 77 70 78 54 79 55 80 60 81 56 82 57 83 59 84 61 85
REMARK SMILES IDX 58 86
REMARK H PARENT 78 48 52 59
REMARK Flexibility Score: inf
ROOT
ATOM      1  O   UNL A   1      34.298  30.682  27.797  1.00  0.00    -0.377 OA
ENDROOT
BRANCH   1   2
ATOM      2  C   UNL A   1      33.765  29.768  26.849  1.00  0.00     0.188 C 
BRANCH   2   3
ATOM      3  C   UNL A   1      32.346  29.998  26.278  1.00  0.00     0.188 C 
BRANCH   3   4
ATOM      4  O   UNL A   1      31.458  28.913  26.452  1.00  0.00    -0.376 OA
BRANCH   4   5
ATOM      5  C   UNL A   1      31.921  27.638  26.844  1.00  0.00     0.202 C 
BRANCH   5   6
ATOM      6  C   UNL A   1      31.112  26.362  26.591  1.00  0.00     0.261 C 
BRANCH   6   7
ATOM      7  O   UNL A   1      31.794  25.121  26.785  1.00  0.00    -0.460 OA
BRANCH   7   8
ATOM      8  C   UNL A   1      31.056  24.009  26.617  1.00  0.00     0.339 C 
ATOM      9  O   UNL A   1      29.974  23.779  27.134  1.00  0.00    -0.246 OA
BRANCH   8  10
ATOM     10  C   UNL A   1      31.651  23.141  25.576  1.00  0.00     0.074 A 
ATOM     11  C   UNL A   1      31.535  23.317  24.186  1.00  0.00     0.028 A 
ATOM     12  C   UNL A   1      32.158  22.348  23.365  1.00  0.00     0.016 A 
ATOM     13  C   UNL A   1      32.867  21.262  23.887  1.00  0.00     0.001 A 
ATOM     14  C   UNL A   1      32.377  22.045  26.097  1.00  0.00     0.017 A 
ATOM     15  C   UNL A   1      32.974  21.107  25.259  1.00  0.00     0.001 A 
BRANCH  11  16
ATOM     16  S   UNL A   1      30.652  24.531  23.224  1.00  0.00    -0.075 SA
BRANCH  16  17
ATOM     17  C   UNL A   1      31.541  26.025  23.219  1.00  0.00     0.109 A 
ATOM     18  C   UNL A   1      34.025  25.530  23.827  1.00  0.00     0.071 C 
ATOM     19  C   UNL A   1      32.865  26.376  23.450  1.00  0.00     0.087 A 
ATOM     20  N   UNL A   1      33.131  27.742  23.329  1.00  0.00    -0.142 NA
ATOM     21  N   UNL A   1      32.069  28.433  22.964  1.00  0.00    -0.090 NA
ATOM     22  S   UNL A   1      30.724  27.478  22.746  1.00  0.00    -0.005 S 
ENDBRANCH  16  17
ENDBRANCH  11  16
ENDBRANCH   8  10
ENDBRANCH   7   8
ENDBRANCH   6   7
ENDBRANCH   5   6
ENDBRANCH   4   5
ENDBRANCH   3   4
ENDBRANCH   2   3
ENDBRANCH   1   2
BRANCH   1  23
ATOM     23  C   UNL A   1      33.824  32.023  27.851  1.00  0.00     0.188 C 
BRANCH  23  24
ATOM     24  C   UNL A   1      34.524  33.109  28.704  1.00  0.00     0.188 C 
BRANCH  24  25
ATOM     25  O   UNL A   1      34.026  33.242  30.023  1.00  0.00    -0.376 OA
BRANCH  25  26
ATOM     26  C   UNL A   1      34.145  34.492  30.670  1.00  0.00     0.202 C 
BRANCH  26  27
ATOM     27  C   UNL A   1      34.963  34.553  31.967  1.00  0.00     0.261 C 
BRANCH  27  28
ATOM     28  O   UNL A   1      36.239  33.896  31.946  1.00  0.00    -0.460 OA
BRANCH  28  29
ATOM     29  C   UNL A   1      36.342  32.723  32.602  1.00  0.00     0.338 C 
ATOM     30  O   UNL A   1      35.655  32.330  33.533  1.00  0.00    -0.246 OA
BRANCH  29  31
ATOM     31  C   UNL A   1      37.327  31.896  31.877  1.00  0.00     0.060 A 
ATOM     32  C   UNL A   1      38.214  31.088  32.602  1.00  0.00     0.016 A 
ATOM     33  C   UNL A   1      37.364  31.917  30.482  1.00  0.00     0.016 A 
ATOM     34  C   UNL A   1      39.164  30.321  31.930  1.00  0.00     0.010 A 
ATOM     35  C   UNL A   1      38.333  31.169  29.812  1.00  0.00     0.010 A 
ATOM     36  C   UNL A   1      39.259  30.396  30.534  1.00  0.00    -0.014 A 
BRANCH  36  37
ATOM     37  C   UNL A   1      40.454  29.850  29.849  1.00  0.00     0.031 A 
ATOM     38  C   UNL A   1      41.619  30.775  29.621  1.00  0.00     0.074 A 
ATOM     39  C   UNL A   1      40.519  28.565  29.460  1.00  0.00     0.049 A 
ATOM     40  N   UNL A   1      42.736  30.565  28.974  1.00  0.00    -0.248 NA
ATOM     41  C   UNL A   1      41.506  32.124  30.203  1.00  0.00     0.031 C 
ATOM     42  C   UNL A   1      39.481  27.559  29.673  1.00  0.00     0.029 A 
ATOM     43  N   UNL A   1      41.510  27.891  28.789  1.00  0.00    -0.354 N 
ATOM     44  C   UNL A   1      43.457  31.748  29.075  1.00  0.00     0.074 A 
ATOM     45  C   UNL A   1      42.638  32.688  29.809  1.00  0.00     0.031 C 
ATOM     46  C   UNL A   1      39.882  26.397  29.125  1.00  0.00     0.029 A 
ATOM     47  C   UNL A   1      41.184  26.590  28.491  1.00  0.00     0.049 A 
ATOM     48  H   UNL A   1      42.371  28.301  28.545  1.00  0.00     0.167 HD
ATOM     49  C   UNL A   1      44.698  32.022  28.614  1.00  0.00     0.037 A 
ATOM     50  C   UNL A   1      41.853  25.675  27.761  1.00  0.00     0.037 A 
ATOM     51  C   UNL A   1      45.509  31.090  27.877  1.00  0.00     0.049 A 
ATOM     52  C   UNL A   1      43.190  26.045  27.163  1.00  0.00     0.074 A 
ATOM     53  C   UNL A   1      46.772  31.278  27.346  1.00  0.00     0.029 A 
ATOM     54  N   UNL A   1      45.132  29.792  27.569  1.00  0.00    -0.354 N 
ATOM     55  N   UNL A   1      43.868  27.164  27.269  1.00  0.00    -0.248 NA
ATOM     56  C   UNL A   1      43.857  25.021  26.346  1.00  0.00     0.031 C 
ATOM     57  C   UNL A   1      47.142  30.109  26.676  1.00  0.00     0.029 A 
ATOM     58  C   UNL A   1      46.134  29.173  26.843  1.00  0.00     0.049 A 
ATOM     59  H   UNL A   1      44.279  29.374  27.829  1.00  0.00     0.167 HD
ATOM     60  C   UNL A   1      45.054  26.960  26.571  1.00  0.00     0.074 A 
ATOM     61  C   UNL A   1      45.011  25.607  26.060  1.00  0.00     0.031 C 
ATOM     62  C   UNL A   1      46.087  27.814  26.369  1.00  0.00     0.037 A 
BRANCH  49  63
ATOM     63  C   UNL A   1      45.256  33.389  28.884  1.00  0.00     0.057 A 
ATOM     64  C   UNL A   1      45.930  33.684  30.076  1.00  0.00     0.134 A 
ATOM     65  C   UNL A   1      45.173  34.401  27.920  1.00  0.00     0.134 A 
ATOM     66  F   UNL A   1      46.030  32.764  31.048  1.00  0.00    -0.206 F 
ATOM     67  C   UNL A   1      46.492  34.942  30.304  1.00  0.00     0.040 A 
ATOM     68  C   UNL A   1      45.753  35.653  28.124  1.00  0.00     0.040 A 
ATOM     69  F   UNL A   1      44.541  34.183  26.756  1.00  0.00    -0.206 F 
ATOM     70  C   UNL A   1      46.414  35.927  29.320  1.00  0.00     0.006 A 
ENDBRANCH  49  63
BRANCH  50  71
ATOM     71  C   UNL A   1      41.273  24.329  27.507  1.00  0.00     0.057 A 
ATOM     72  C   UNL A   1      40.187  24.156  26.639  1.00  0.00     0.134 A 
ATOM     73  C   UNL A   1      41.732  23.197  28.190  1.00  0.00     0.134 A 
ATOM     74  F   UNL A   1      39.682  25.205  25.973  1.00  0.00    -0.206 F 
ATOM     75  C   UNL A   1      39.553  22.920  26.493  1.00  0.00     0.040 A 
ATOM     76  C   UNL A   1      41.131  21.947  28.028  1.00  0.00     0.040 A 
ATOM     77  F   UNL A   1      42.769  23.289  29.037  1.00  0.00    -0.206 F 
ATOM     78  C   UNL A   1      40.028  21.810  27.189  1.00  0.00     0.006 A 
ENDBRANCH  50  71
BRANCH  62  79
ATOM     79  C   UNL A   1      47.282  27.294  25.621  1.00  0.00     0.057 A 
ATOM     80  C   UNL A   1      47.436  27.476  24.241  1.00  0.00     0.134 A 
ATOM     81  C   UNL A   1      48.314  26.638  26.305  1.00  0.00     0.134 A 
ATOM     82  F   UNL A   1      46.481  28.087  23.524  1.00  0.00    -0.206 F 
ATOM     83  C   UNL A   1      48.559  26.996  23.564  1.00  0.00     0.040 A 
ATOM     84  C   UNL A   1      49.457  26.184  25.645  1.00  0.00     0.040 A 
ATOM     85  F   UNL A   1      48.239  26.443  27.630  1.00  0.00    -0.206 F 
ATOM     86  C   UNL A   1      49.577  26.356  24.268  1.00  0.00     0.006 A 
ENDBRANCH  62  79
ENDBRANCH  36  37
ENDBRANCH  29  31
ENDBRANCH  28  29
ENDBRANCH  27  28
ENDBRANCH  26  27
ENDBRANCH  25  26
ENDBRANCH  24  25
ENDBRANCH  23  24
ENDBRANCH   1  23
TORSDOF 22
ENDMDL
MODEL 2
REMARK VINA RESULT:      -9.6      3.938      7.807
REMARK SMILES Cc1nnsc1Sc1ccccc1C(=O)OCCOCCOCCOCCOC(=O)c1ccc(-c2c3nc(c(-c4c(F)cccc4F)c4ccc([nH]4)c(-c4c(F)cccc4F)c4nc(c(-c5c(F)cccc5F)c5ccc2[nH]5)C=C4)C=C3)cc1
REMARK SMILES IDX 22 1 21 2 20 3 19 4 18 5 17 6 16 7 14 8 15 9 13 10 8 11 9 12
REMARK SMILES IDX 10 13 12 14 11 15 7 16 6 17 1 18 2 19 3 20 4 21 5 22 23 23
REMARK SMILES IDX 24 24 25 25 26 26 27 27 28 28 29 29 30 30 31 31 32 32 84 33
REMARK SMILES IDX 33 34 83 35 34 36 35 37 36 38 77 39 37 40 82 41 76 42 78 43
REMARK SMILES IDX 38 44 81 45 75 46 74 47 39 49 65 50 48 51 64 52 49 53 52 54
REMARK SMILES IDX 63 55 79 56 50 57 51 58 62 60 80 61 53 62 40 63 41 64 46 65
REMARK SMILES IDX 42 66 43 67 45 68 47 69 44 70 66 71 67 72 72 73 68 74 69 75
REMARK SMILES IDX 71 76 73 77 70 78 54 79 55 80 60 81 56 82 57 83 59 84 61 85
REMARK SMILES IDX 58 86
REMARK H PARENT 78 48 52 59
REMARK Flexibility Score: inf
ROOT
ATOM      1  O   UNL A   1      32.432  26.615  22.904  1.00  0.00    -0.377 OA
ENDROOT
BRANCH   1   2
ATOM      2  C   UNL A   1      31.223  25.927  22.618  1.00  0.00     0.188 C 
BRANCH   2   3
ATOM      3  C   UNL A   1      30.459  25.213  23.759  1.00  0.00     0.188 C 
BRANCH   3   4
ATOM      4  O   UNL A   1      31.200  25.050  24.951  1.00  0.00    -0.376 OA
BRANCH   4   5
ATOM      5  C   UNL A   1      30.663  24.368  26.064  1.00  0.00     0.202 C 
BRANCH   5   6
ATOM      6  C   UNL A   1      31.535  23.533  27.009  1.00  0.00     0.261 C 
BRANCH   6   7
ATOM      7  O   UNL A   1      31.768  22.175  26.633  1.00  0.00    -0.460 OA
BRANCH   7   8
ATOM      8  C   UNL A   1      33.025  21.872  26.261  1.00  0.00     0.339 C 
ATOM      9  O   UNL A   1      33.820  21.197  26.897  1.00  0.00    -0.246 OA
BRANCH   8  10
ATOM     10  C   UNL A   1      33.283  22.328  24.877  1.00  0.00     0.074 A 
ATOM     11  C   UNL A   1      34.281  23.232  24.476  1.00  0.00     0.028 A 
ATOM     12  C   UNL A   1      34.333  23.559  23.100  1.00  0.00     0.016 A 
ATOM     13  C   UNL A   1      33.448  23.016  22.164  1.00  0.00     0.001 A 
ATOM     14  C   UNL A   1      32.397  21.776  23.922  1.00  0.00     0.017 A 
ATOM     15  C   UNL A   1      32.473  22.124  22.577  1.00  0.00     0.001 A 
BRANCH  11  16
ATOM     16  S   UNL A   1      35.492  24.142  25.419  1.00  0.00    -0.075 SA
BRANCH  16  17
ATOM     17  C   UNL A   1      36.930  23.183  25.594  1.00  0.00     0.109 A 
ATOM     18  C   UNL A   1      38.706  24.559  26.911  1.00  0.00     0.071 C 
ATOM     19  C   UNL A   1      38.167  23.375  26.195  1.00  0.00     0.087 A 
ATOM     20  N   UNL A   1      39.041  22.291  26.083  1.00  0.00    -0.142 NA
ATOM     21  N   UNL A   1      38.493  21.264  25.466  1.00  0.00    -0.090 NA
ATOM     22  S   UNL A   1      36.921  21.553  25.005  1.00  0.00    -0.005 S 
ENDBRANCH  16  17
ENDBRANCH  11  16
ENDBRANCH   8  10
ENDBRANCH   7   8
ENDBRANCH   6   7
ENDBRANCH   5   6
ENDBRANCH   4   5
ENDBRANCH   3   4
ENDBRANCH   2   3
ENDBRANCH   1   2
BRANCH   1  23
ATOM     23  C   UNL A   1      32.529  28.020  22.697  1.00  0.00     0.188 C 
BRANCH  23  24
ATOM     24  C   UNL A   1      31.298  28.953  22.798  1.00  0.00     0.188 C 
BRANCH  24  25
ATOM     25  O   UNL A   1      30.627  28.919  24.044  1.00  0.00    -0.376 OA
BRANCH  25  26
ATOM     26  C   UNL A   1      31.389  29.029  25.229  1.00  0.00     0.202 C 
BRANCH  26  27
ATOM     27  C   UNL A   1      31.805  30.434  25.686  1.00  0.00     0.261 C 
BRANCH  27  28
ATOM     28  O   UNL A   1      32.440  30.524  26.969  1.00  0.00    -0.460 OA
BRANCH  28  29
ATOM     29  C   UNL A   1      33.048  31.687  27.278  1.00  0.00     0.338 C 
ATOM     30  O   UNL A   1      32.556  32.805  27.278  1.00  0.00    -0.246 OA
BRANCH  29  31
ATOM     31  C   UNL A   1      34.389  31.359  27.801  1.00  0.00     0.060 A 
ATOM     32  C   UNL A   1      34.709  30.025  28.087  1.00  0.00     0.016 A 
ATOM     33  C   UNL A   1      35.328  32.373  28.000  1.00  0.00     0.016 A 
ATOM     34  C   UNL A   1      35.964  29.706  28.604  1.00  0.00     0.010 A 
ATOM     35  C   UNL A   1      36.574  32.056  28.542  1.00  0.00     0.010 A 
ATOM     36  C   UNL A   1      36.884  30.727  28.879  1.00  0.00    -0.014 A 
BRANCH  36  37
ATOM     37  C   UNL A   1      38.071  30.439  29.717  1.00  0.00     0.031 A 
ATOM     38  C   UNL A   1      39.139  29.548  29.143  1.00  0.00     0.074 A 
ATOM     39  C   UNL A   1      38.215  30.969  30.944  1.00  0.00     0.049 A 
ATOM     40  N   UNL A   1      40.225  29.080  29.703  1.00  0.00    -0.248 NA
ATOM     41  C   UNL A   1      38.956  29.127  27.743  1.00  0.00     0.031 C 
ATOM     42  C   UNL A   1      37.279  31.888  31.588  1.00  0.00     0.029 A 
ATOM     43  N   UNL A   1      39.210  30.796  31.874  1.00  0.00    -0.354 N 
ATOM     44  C   UNL A   1      40.852  28.317  28.726  1.00  0.00     0.074 A 
ATOM     45  C   UNL A   1      40.010  28.347  27.551  1.00  0.00     0.031 C 
ATOM     46  C   UNL A   1      37.736  32.184  32.818  1.00  0.00     0.029 A 
ATOM     47  C   UNL A   1      38.973  31.446  33.061  1.00  0.00     0.049 A 
ATOM     48  H   UNL A   1      40.018  30.258  31.706  1.00  0.00     0.167 HD
ATOM     49  C   UNL A   1      42.034  27.663  28.796  1.00  0.00     0.037 A 
ATOM     50  C   UNL A   1      39.665  31.417  34.218  1.00  0.00     0.037 A 
ATOM     51  C   UNL A   1      42.867  27.625  29.967  1.00  0.00     0.049 A 
ATOM     52  C   UNL A   1      40.924  30.588  34.302  1.00  0.00     0.074 A 
ATOM     53  C   UNL A   1      44.073  26.971  30.147  1.00  0.00     0.029 A 
ATOM     54  N   UNL A   1      42.578  28.271  31.160  1.00  0.00    -0.354 N 
ATOM     55  N   UNL A   1      41.514  29.874  33.372  1.00  0.00    -0.248 NA
ATOM     56  C   UNL A   1      41.617  30.564  35.599  1.00  0.00     0.031 C 
ATOM     57  C   UNL A   1      44.491  27.184  31.464  1.00  0.00     0.029 A 
ATOM     58  C   UNL A   1      43.576  28.019  32.084  1.00  0.00     0.049 A 
ATOM     59  H   UNL A   1      41.781  28.825  31.323  1.00  0.00     0.167 HD
ATOM     60  C   UNL A   1      42.664  29.357  33.959  1.00  0.00     0.074 A 
ATOM     61  C   UNL A   1      42.697  29.850  35.319  1.00  0.00     0.031 C 
ATOM     62  C   UNL A   1      43.608  28.545  33.424  1.00  0.00     0.037 A 
BRANCH  49  63
ATOM     63  C   UNL A   1      42.495  26.925  27.573  1.00  0.00     0.057 A 
ATOM     64  C   UNL A   1      42.258  25.554  27.410  1.00  0.00     0.134 A 
ATOM     65  C   UNL A   1      43.130  27.602  26.524  1.00  0.00     0.134 A 
ATOM     66  F   UNL A   1      41.670  24.844  28.384  1.00  0.00    -0.206 F 
ATOM     67  C   UNL A   1      42.644  24.881  26.249  1.00  0.00     0.040 A 
ATOM     68  C   UNL A   1      43.496  26.946  25.349  1.00  0.00     0.040 A 
ATOM     69  F   UNL A   1      43.386  28.916  26.618  1.00  0.00    -0.206 F 
ATOM     70  C   UNL A   1      43.255  25.581  25.209  1.00  0.00     0.006 A 
ENDBRANCH  49  63
BRANCH  50  71
ATOM     71  C   UNL A   1      39.180  32.156  35.415  1.00  0.00     0.057 A 
ATOM     72  C   UNL A   1      39.548  33.488  35.648  1.00  0.00     0.134 A 
ATOM     73  C   UNL A   1      38.407  31.524  36.397  1.00  0.00     0.134 A 
ATOM     74  F   UNL A   1      40.309  34.143  34.759  1.00  0.00    -0.206 F 
ATOM     75  C   UNL A   1      39.205  34.147  36.830  1.00  0.00     0.040 A 
ATOM     76  C   UNL A   1      38.027  32.182  37.568  1.00  0.00     0.040 A 
ATOM     77  F   UNL A   1      38.018  30.250  36.239  1.00  0.00    -0.206 F 
ATOM     78  C   UNL A   1      38.440  33.494  37.794  1.00  0.00     0.006 A 
ENDBRANCH  50  71
BRANCH  62  79
ATOM     79  C   UNL A   1      44.789  28.192  34.283  1.00  0.00     0.057 A 
ATOM     80  C   UNL A   1      45.942  28.987  34.331  1.00  0.00     0.134 A 
ATOM     81  C   UNL A   1      44.752  27.059  35.108  1.00  0.00     0.134 A 
ATOM     82  F   UNL A   1      46.047  30.080  33.561  1.00  0.00    -0.206 F 
ATOM     83  C   UNL A   1      47.025  28.650  35.145  1.00  0.00     0.040 A 
ATOM     84  C   UNL A   1      45.815  26.732  35.950  1.00  0.00     0.040 A 
ATOM     85  F   UNL A   1      43.673  26.262  35.122  1.00  0.00    -0.206 F 
ATOM     86  C   UNL A   1      46.960  27.524  35.963  1.00  0.00     0.006 A 
ENDBRANCH  62  79
ENDBRANCH  36  37
ENDBRANCH  29  31
ENDBRANCH  28  29
ENDBRANCH  27  28
ENDBRANCH  26  27
ENDBRANCH  25  26
ENDBRANCH  24  25
ENDBRANCH  23  24
ENDBRANCH   1  23
TORSDOF 22
ENDMDL
MODEL 3
REMARK VINA RESULT:      -9.5      4.203      8.170
REMARK SMILES Cc1nnsc1Sc1ccccc1C(=O)OCCOCCOCCOCCOC(=O)c1ccc(-c2c3nc(c(-c4c(F)cccc4F)c4ccc([nH]4)c(-c4c(F)cccc4F)c4nc(c(-c5c(F)cccc5F)c5ccc2[nH]5)C=C4)C=C3)cc1
REMARK SMILES IDX 22 1 21 2 20 3 19 4 18 5 17 6 16 7 14 8 15 9 13 10 8 11 9 12
REMARK SMILES IDX 10 13 12 14 11 15 7 16 6 17 1 18 2 19 3 20 4 21 5 22 23 23
REMARK SMILES IDX 24 24 25 25 26 26 27 27 28 28 29 29 30 30 31 31 32 32 84 33
REMARK SMILES IDX 33 34 83 35 34 36 35 37 36 38 77 39 37 40 82 41 76 42 78 43
REMARK SMILES IDX 38 44 81 45 75 46 74 47 39 49 65 50 48 51 64 52 49 53 52 54
REMARK SMILES IDX 63 55 79 56 50 57 51 58 62 60 80 61 53 62 40 63 41 64 46 65
REMARK SMILES IDX 42 66 43 67 45 68 47 69 44 70 66 71 67 72 72 73 68 74 69 75
REMARK SMILES IDX 71 76 73 77 70 78 54 79 55 80 60 81 56 82 57 83 59 84 61 85
REMARK SMILES IDX 58 86
REMARK H PARENT 78 48 52 59
REMARK Flexibility Score: inf
ROOT
ATOM      1  O   UNL A   1      27.440  30.607  23.520  1.00  0.00    -0.377 OA
ENDROOT
BRANCH   1   2
ATOM      2  C   UNL A   1      27.757  29.551  22.625  1.00  0.00     0.188 C 
BRANCH   2   3
ATOM      3  C   UNL A   1      28.860  29.755  21.559  1.00  0.00     0.188 C 
BRANCH   3   4
ATOM      4  O   UNL A   1      30.069  29.071  21.824  1.00  0.00    -0.376 OA
BRANCH   4   5
ATOM      5  C   UNL A   1      30.099  27.918  22.639  1.00  0.00     0.202 C 
BRANCH   5   6
ATOM      6  C   UNL A   1      30.946  26.691  22.285  1.00  0.00     0.261 C 
BRANCH   6   7
ATOM      7  O   UNL A   1      32.280  26.940  21.840  1.00  0.00    -0.460 OA
BRANCH   7   8
ATOM      8  C   UNL A   1      33.253  26.274  22.487  1.00  0.00     0.339 C 
ATOM      9  O   UNL A   1      34.070  25.521  21.980  1.00  0.00    -0.246 OA
BRANCH   8  10
ATOM     10  C   UNL A   1      33.323  26.699  23.903  1.00  0.00     0.074 A 
ATOM     11  C   UNL A   1      32.875  25.961  25.013  1.00  0.00     0.028 A 
ATOM     12  C   UNL A   1      33.008  26.570  26.283  1.00  0.00     0.016 A 
ATOM     13  C   UNL A   1      33.560  27.844  26.452  1.00  0.00     0.001 A 
ATOM     14  C   UNL A   1      33.889  27.983  24.084  1.00  0.00     0.017 A 
ATOM     15  C   UNL A   1      33.999  28.555  25.348  1.00  0.00     0.001 A 
BRANCH  11  16
ATOM     16  S   UNL A   1      32.069  24.373  25.121  1.00  0.00    -0.075 SA
BRANCH  16  17
ATOM     17  C   UNL A   1      33.269  23.119  25.206  1.00  0.00     0.109 A 
ATOM     18  C   UNL A   1      33.792  22.620  27.708  1.00  0.00     0.071 C 
ATOM     19  C   UNL A   1      33.912  22.449  26.238  1.00  0.00     0.087 A 
ATOM     20  N   UNL A   1      34.830  21.483  25.818  1.00  0.00    -0.142 NA
ATOM     21  N   UNL A   1      34.867  21.359  24.507  1.00  0.00    -0.090 NA
ATOM     22  S   UNL A   1      33.808  22.382  23.734  1.00  0.00    -0.005 S 
ENDBRANCH  16  17
ENDBRANCH  11  16
ENDBRANCH   8  10
ENDBRANCH   7   8
ENDBRANCH   6   7
ENDBRANCH   5   6
ENDBRANCH   4   5
ENDBRANCH   3   4
ENDBRANCH   2   3
ENDBRANCH   1   2
BRANCH   1  23
ATOM     23  C   UNL A   1      28.237  31.786  23.555  1.00  0.00     0.188 C 
BRANCH  23  24
ATOM     24  C   UNL A   1      29.481  31.911  24.468  1.00  0.00     0.188 C 
BRANCH  24  25
ATOM     25  O   UNL A   1      30.204  30.709  24.655  1.00  0.00    -0.376 OA
BRANCH  25  26
ATOM     26  C   UNL A   1      31.184  30.657  25.672  1.00  0.00     0.202 C 
BRANCH  26  27
ATOM     27  C   UNL A   1      31.408  31.919  26.516  1.00  0.00     0.261 C 
BRANCH  27  28
ATOM     28  O   UNL A   1      32.732  32.113  27.034  1.00  0.00    -0.460 OA
BRANCH  28  29
ATOM     29  C   UNL A   1      32.971  33.254  27.711  1.00  0.00     0.338 C 
ATOM     30  O   UNL A   1      32.220  34.209  27.845  1.00  0.00    -0.246 OA
BRANCH  29  31
ATOM     31  C   UNL A   1      34.249  33.083  28.429  1.00  0.00     0.060 A 
ATOM     32  C   UNL A   1      35.438  33.525  27.833  1.00  0.00     0.016 A 
ATOM     33  C   UNL A   1      34.265  32.493  29.694  1.00  0.00     0.016 A 
ATOM     34  C   UNL A   1      36.654  33.347  28.492  1.00  0.00     0.010 A 
ATOM     35  C   UNL A   1      35.485  32.292  30.341  1.00  0.00     0.010 A 
ATOM     36  C   UNL A   1      36.687  32.686  29.727  1.00  0.00    -0.014 A 
BRANCH  36  37
ATOM     37  C   UNL A   1      37.980  32.209  30.271  1.00  0.00     0.031 A 
ATOM     38  C   UNL A   1      38.555  30.938  29.707  1.00  0.00     0.074 A 
ATOM     39  C   UNL A   1      38.642  32.893  31.220  1.00  0.00     0.049 A 
ATOM     40  N   UNL A   1      39.621  30.272  30.070  1.00  0.00    -0.248 NA
ATOM     41  C   UNL A   1      37.825  30.335  28.578  1.00  0.00     0.031 C 
ATOM     42  C   UNL A   1      38.218  34.163  31.805  1.00  0.00     0.029 A 
ATOM     43  N   UNL A   1      39.818  32.601  31.867  1.00  0.00    -0.354 N 
ATOM     44  C   UNL A   1      39.690  29.179  29.215  1.00  0.00     0.074 A 
ATOM     45  C   UNL A   1      38.540  29.245  28.341  1.00  0.00     0.031 C 
ATOM     46  C   UNL A   1      39.111  34.532  32.740  1.00  0.00     0.029 A 
ATOM     47  C   UNL A   1      40.147  33.506  32.846  1.00  0.00     0.049 A 
ATOM     48  H   UNL A   1      40.372  31.816  31.649  1.00  0.00     0.167 HD
ATOM     49  C   UNL A   1      40.637  28.217  29.151  1.00  0.00     0.037 A 
ATOM     50  C   UNL A   1      41.154  33.486  33.742  1.00  0.00     0.037 A 
ATOM     51  C   UNL A   1      41.777  28.147  30.026  1.00  0.00     0.049 A 
ATOM     52  C   UNL A   1      42.136  32.339  33.719  1.00  0.00     0.074 A 
ATOM     53  C   UNL A   1      42.783  27.198  30.058  1.00  0.00     0.029 A 
ATOM     54  N   UNL A   1      42.059  29.066  31.025  1.00  0.00    -0.354 N 
ATOM     55  N   UNL A   1      42.198  31.313  32.904  1.00  0.00    -0.248 NA
ATOM     56  C   UNL A   1      43.191  32.349  34.743  1.00  0.00     0.031 C 
ATOM     57  C   UNL A   1      43.650  27.517  31.106  1.00  0.00     0.029 A 
ATOM     58  C   UNL A   1      43.217  28.698  31.687  1.00  0.00     0.049 A 
ATOM     59  H   UNL A   1      41.517  29.861  31.231  1.00  0.00     0.167 HD
ATOM     60  C   UNL A   1      43.320  30.586  33.288  1.00  0.00     0.074 A 
ATOM     61  C   UNL A   1      43.916  31.294  34.400  1.00  0.00     0.031 C 
ATOM     62  C   UNL A   1      43.813  29.434  32.772  1.00  0.00     0.037 A 
BRANCH  49  63
ATOM     63  C   UNL A   1      40.480  27.152  28.104  1.00  0.00     0.057 A 
ATOM     64  C   UNL A   1      41.127  27.241  26.865  1.00  0.00     0.134 A 
ATOM     65  C   UNL A   1      39.724  26.001  28.360  1.00  0.00     0.134 A 
ATOM     66  F   UNL A   1      41.853  28.325  26.552  1.00  0.00    -0.206 F 
ATOM     67  C   UNL A   1      41.020  26.225  25.913  1.00  0.00     0.040 A 
ATOM     68  C   UNL A   1      39.631  24.969  27.427  1.00  0.00     0.040 A 
ATOM     69  F   UNL A   1      39.080  25.855  29.527  1.00  0.00    -0.206 F 
ATOM     70  C   UNL A   1      40.279  25.080  26.198  1.00  0.00     0.006 A 
ENDBRANCH  49  63
BRANCH  50  71
ATOM     71  C   UNL A   1      41.281  34.553  34.770  1.00  0.00     0.057 A 
ATOM     72  C   UNL A   1      42.099  35.672  34.563  1.00  0.00     0.134 A 
ATOM     73  C   UNL A   1      40.657  34.441  36.018  1.00  0.00     0.134 A 
ATOM     74  F   UNL A   1      42.747  35.827  33.398  1.00  0.00    -0.206 F 
ATOM     75  C   UNL A   1      42.326  36.612  35.570  1.00  0.00     0.040 A 
ATOM     76  C   UNL A   1      40.846  35.391  37.023  1.00  0.00     0.040 A 
ATOM     77  F   UNL A   1      39.859  33.396  36.286  1.00  0.00    -0.206 F 
ATOM     78  C   UNL A   1      41.697  36.473  36.805  1.00  0.00     0.006 A 
ENDBRANCH  50  71
BRANCH  62  79
ATOM     79  C   UNL A   1      45.093  28.903  33.354  1.00  0.00     0.057 A 
ATOM     80  C   UNL A   1      46.350  29.294  32.877  1.00  0.00     0.134 A 
ATOM     81  C   UNL A   1      45.062  28.017  34.440  1.00  0.00     0.134 A 
ATOM     82  F   UNL A   1      46.451  30.132  31.834  1.00  0.00    -0.206 F 
ATOM     83  C   UNL A   1      47.529  28.799  33.438  1.00  0.00     0.040 A 
ATOM     84  C   UNL A   1      46.233  27.543  35.031  1.00  0.00     0.040 A 
ATOM     85  F   UNL A   1      43.892  27.612  34.957  1.00  0.00    -0.206 F 
ATOM     86  C   UNL A   1      47.472  27.927  34.524  1.00  0.00     0.006 A 
ENDBRANCH  62  79
ENDBRANCH  36  37
ENDBRANCH  29  31
ENDBRANCH  28  29
ENDBRANCH  27  28
ENDBRANCH  26  27
ENDBRANCH  25  26
ENDBRANCH  24  25
ENDBRANCH  23  24
ENDBRANCH   1  23
TORSDOF 22
ENDMDL
