MODEL 1
REMARK VINA RESULT:     -10.3      0.000      0.000
REMARK SMILES O=C(OCCOCCOCCOCCOC(=O)[C@H](CCc1ccccn1)c1ccccc1Br)c1ccc(-c2c3nc(c(-c4c(F)cccc4F)c4ccc([nH]4)c(-c4c(F)cccc4F)c4nc(c(-c5c(F)cccc5F)c5ccc2[nH]5)C=C4)C=C3)cc1
REMARK SMILES IDX 10 1 9 2 8 3 7 4 6 5 5 6 4 7 3 8 2 9 1 10 34 11 35 12 87 13
REMARK SMILES IDX 36 14 86 15 37 16 38 17 39 18 80 19 40 20 85 21 79 22 81 23
REMARK SMILES IDX 41 24 84 25 78 26 77 27 42 29 68 30 51 31 67 32 52 33 55 34
REMARK SMILES IDX 66 35 82 36 53 37 54 38 65 40 83 41 56 42 43 43 44 44 49 45
REMARK SMILES IDX 45 46 46 47 48 48 50 49 47 50 69 51 70 52 75 53 71 54 72 55
REMARK SMILES IDX 74 56 76 57 73 58 57 59 58 60 63 61 59 62 60 63 62 64 64 65
REMARK SMILES IDX 61 66 11 67 12 68 13 69 14 70 15 71 16 72 17 73 18 74 27 75
REMARK SMILES IDX 28 76 32 77 29 78 31 79 33 80 30 81 19 82 20 83 21 84 22 85
REMARK SMILES IDX 26 86 23 87 25 88 24 89
REMARK H PARENT 81 28 55 39
REMARK Flexibility Score: inf
ROOT
ATOM      1  C   UNL A   1      34.001  28.264  24.094  1.00  0.00     0.188 C 
ENDROOT
BRANCH   1   2
ATOM      2  O   UNL A   1      33.919  27.713  25.400  1.00  0.00    -0.377 OA
BRANCH   2   3
ATOM      3  C   UNL A   1      33.604  28.646  26.435  1.00  0.00     0.188 C 
BRANCH   3   4
ATOM      4  C   UNL A   1      32.149  28.615  26.915  1.00  0.00     0.188 C 
BRANCH   4   5
ATOM      5  O   UNL A   1      31.715  29.912  27.336  1.00  0.00    -0.376 OA
BRANCH   5   6
ATOM      6  C   UNL A   1      31.892  30.965  26.382  1.00  0.00     0.202 C 
BRANCH   6   7
ATOM      7  C   UNL A   1      31.423  32.328  26.878  1.00  0.00     0.261 C 
BRANCH   7   8
ATOM      8  O   UNL A   1      32.490  33.283  26.924  1.00  0.00    -0.460 OA
BRANCH   8   9
ATOM      9  C   UNL A   1      33.256  33.610  27.994  1.00  0.00     0.338 C 
ATOM     10  O   UNL A   1      32.913  34.571  28.682  1.00  0.00    -0.246 OA
BRANCH   9  11
ATOM     11  C   UNL A   1      34.469  32.847  28.430  1.00  0.00     0.060 A 
ATOM     12  C   UNL A   1      34.524  31.482  28.719  1.00  0.00     0.016 A 
ATOM     13  C   UNL A   1      35.672  33.573  28.485  1.00  0.00     0.016 A 
ATOM     14  C   UNL A   1      35.701  30.860  29.101  1.00  0.00     0.010 A 
ATOM     15  C   UNL A   1      36.869  32.956  28.860  1.00  0.00     0.010 A 
ATOM     16  C   UNL A   1      36.869  31.600  29.197  1.00  0.00    -0.014 A 
BRANCH  16  17
ATOM     17  C   UNL A   1      38.006  30.962  29.873  1.00  0.00     0.031 A 
ATOM     18  C   UNL A   1      38.188  31.259  31.328  1.00  0.00     0.074 A 
ATOM     19  C   UNL A   1      38.722  30.016  29.241  1.00  0.00     0.049 A 
ATOM     20  N   UNL A   1      39.133  30.880  32.143  1.00  0.00    -0.248 NA
ATOM     21  C   UNL A   1      37.143  32.086  31.961  1.00  0.00     0.031 C 
ATOM     22  C   UNL A   1      38.480  29.547  27.875  1.00  0.00     0.029 A 
ATOM     23  N   UNL A   1      39.771  29.256  29.677  1.00  0.00    -0.354 N 
ATOM     24  C   UNL A   1      38.819  31.455  33.367  1.00  0.00     0.074 A 
ATOM     25  C   UNL A   1      37.595  32.203  33.198  1.00  0.00     0.031 C 
ATOM     26  C   UNL A   1      39.352  28.566  27.589  1.00  0.00     0.029 A 
ATOM     27  C   UNL A   1      40.256  28.398  28.720  1.00  0.00     0.049 A 
ATOM     28  H   UNL A   1      40.142  29.317  30.587  1.00  0.00     0.167 HD
ATOM     29  C   UNL A   1      39.510  31.369  34.525  1.00  0.00     0.037 A 
ATOM     30  C   UNL A   1      41.343  27.607  28.759  1.00  0.00     0.037 A 
ATOM     31  C   UNL A   1      40.723  30.610  34.647  1.00  0.00     0.049 A 
ATOM     32  C   UNL A   1      42.166  27.620  30.020  1.00  0.00     0.074 A 
ATOM     33  C   UNL A   1      41.576  30.500  35.726  1.00  0.00     0.029 A 
ATOM     34  N   UNL A   1      41.249  29.821  33.630  1.00  0.00    -0.354 N 
ATOM     35  N   UNL A   1      41.935  28.248  31.151  1.00  0.00    -0.248 NA
ATOM     36  C   UNL A   1      43.410  26.842  30.008  1.00  0.00     0.031 C 
ATOM     37  C   UNL A   1      42.643  29.679  35.345  1.00  0.00     0.029 A 
ATOM     38  C   UNL A   1      42.427  29.234  34.047  1.00  0.00     0.049 A 
ATOM     39  H   UNL A   1      40.841  29.699  32.742  1.00  0.00     0.167 HD
ATOM     40  C   UNL A   1      42.993  27.931  31.990  1.00  0.00     0.074 A 
ATOM     41  C   UNL A   1      43.856  27.037  31.240  1.00  0.00     0.031 C 
ATOM     42  C   UNL A   1      43.241  28.341  33.259  1.00  0.00     0.037 A 
BRANCH  29  43
ATOM     43  C   UNL A   1      39.010  32.188  35.676  1.00  0.00     0.057 A 
ATOM     44  C   UNL A   1      38.159  31.665  36.659  1.00  0.00     0.134 A 
ATOM     45  C   UNL A   1      39.331  33.550  35.760  1.00  0.00     0.134 A 
ATOM     46  F   UNL A   1      37.780  30.378  36.616  1.00  0.00    -0.206 F 
ATOM     47  C   UNL A   1      37.622  32.473  37.665  1.00  0.00     0.040 A 
ATOM     48  C   UNL A   1      38.821  34.360  36.776  1.00  0.00     0.040 A 
ATOM     49  F   UNL A   1      40.128  34.119  34.844  1.00  0.00    -0.206 F 
ATOM     50  C   UNL A   1      37.955  33.824  37.726  1.00  0.00     0.006 A 
ENDBRANCH  29  43
BRANCH  30  51
ATOM     51  C   UNL A   1      41.747  26.814  27.568  1.00  0.00     0.057 A 
ATOM     52  C   UNL A   1      41.406  25.465  27.432  1.00  0.00     0.134 A 
ATOM     53  C   UNL A   1      42.503  27.388  26.535  1.00  0.00     0.134 A 
ATOM     54  F   UNL A   1      40.701  24.846  28.392  1.00  0.00    -0.206 F 
ATOM     55  C   UNL A   1      41.811  24.712  26.327  1.00  0.00     0.040 A 
ATOM     56  C   UNL A   1      42.891  26.657  25.411  1.00  0.00     0.040 A 
ATOM     57  F   UNL A   1      42.870  28.677  26.598  1.00  0.00    -0.206 F 
ATOM     58  C   UNL A   1      42.551  25.310  25.308  1.00  0.00     0.006 A 
ENDBRANCH  30  51
BRANCH  42  59
ATOM     59  C   UNL A   1      44.472  27.795  33.912  1.00  0.00     0.057 A 
ATOM     60  C   UNL A   1      44.446  26.611  34.659  1.00  0.00     0.134 A 
ATOM     61  C   UNL A   1      45.706  28.434  33.740  1.00  0.00     0.134 A 
ATOM     62  F   UNL A   1      43.290  25.963  34.867  1.00  0.00    -0.206 F 
ATOM     63  C   UNL A   1      45.606  26.091  35.230  1.00  0.00     0.040 A 
ATOM     64  C   UNL A   1      46.876  27.908  34.282  1.00  0.00     0.040 A 
ATOM     65  F   UNL A   1      45.793  29.566  33.025  1.00  0.00    -0.206 F 
ATOM     66  C   UNL A   1      46.827  26.735  35.034  1.00  0.00     0.006 A 
ENDBRANCH  42  59
ENDBRANCH  16  17
ENDBRANCH   9  11
ENDBRANCH   8   9
ENDBRANCH   7   8
ENDBRANCH   6   7
ENDBRANCH   5   6
ENDBRANCH   4   5
ENDBRANCH   3   4
ENDBRANCH   2   3
ENDBRANCH   1   2
BRANCH   1  67
ATOM     67  C   UNL A   1      32.693  28.639  23.369  1.00  0.00     0.188 C 
BRANCH  67  68
ATOM     68  O   UNL A   1      32.240  27.704  22.392  1.00  0.00    -0.376 OA
BRANCH  68  69
ATOM     69  C   UNL A   1      33.242  26.785  21.948  1.00  0.00     0.202 C 
BRANCH  69  70
ATOM     70  C   UNL A   1      32.678  25.597  21.159  1.00  0.00     0.261 C 
BRANCH  70  71
ATOM     71  O   UNL A   1      33.045  24.326  21.724  1.00  0.00    -0.463 OA
BRANCH  71  72
ATOM     72  C   UNL A   1      32.331  23.780  22.746  1.00  0.00     0.313 C 
ATOM     73  O   UNL A   1      31.196  24.121  23.055  1.00  0.00    -0.252 OA
BRANCH  72  74
ATOM     74  C   UNL A   1      33.109  22.585  23.338  1.00  0.00     0.131 C 
BRANCH  74  75
ATOM     75  C   UNL A   1      34.425  22.999  24.017  1.00  0.00    -0.020 A 
ATOM     76  C   UNL A   1      35.619  22.589  23.357  1.00  0.00     0.006 A 
ATOM     77  C   UNL A   1      34.592  23.682  25.231  1.00  0.00     0.022 A 
ATOM     78  C   UNL A   1      36.894  22.855  23.857  1.00  0.00     0.000 A 
ATOM     79  C   UNL A   1      35.881  23.906  25.754  1.00  0.00     0.016 A 
ATOM     80  Br  UNL A   1      33.187  24.388  26.294  1.00  0.00    -0.051 Br
ATOM     81  C   UNL A   1      37.026  23.504  25.069  1.00  0.00     0.001 A 
ENDBRANCH  74  75
BRANCH  74  82
ATOM     82  C   UNL A   1      32.181  21.525  23.977  1.00  0.00     0.026 C 
BRANCH  82  83
ATOM     83  C   UNL A   1      32.858  20.536  24.958  1.00  0.00     0.057 C 
BRANCH  83  84
ATOM     84  C   UNL A   1      33.218  19.174  24.394  1.00  0.00     0.040 A 
ATOM     85  C   UNL A   1      32.486  18.653  23.324  1.00  0.00     0.024 A 
ATOM     86  N   UNL A   1      34.330  18.556  24.871  1.00  0.00    -0.261 NA
ATOM     87  C   UNL A   1      32.907  17.474  22.714  1.00  0.00     0.003 A 
ATOM     88  C   UNL A   1      34.724  17.418  24.242  1.00  0.00     0.111 A 
ATOM     89  C   UNL A   1      34.056  16.846  23.173  1.00  0.00     0.020 A 
ENDBRANCH  83  84
ENDBRANCH  82  83
ENDBRANCH  74  82
ENDBRANCH  72  74
ENDBRANCH  71  72
ENDBRANCH  70  71
ENDBRANCH  69  70
ENDBRANCH  68  69
ENDBRANCH  67  68
ENDBRANCH   1  67
TORSDOF 24
ENDMDL
MODEL 2
REMARK VINA RESULT:     -10.2      0.541      5.961
REMARK SMILES O=C(OCCOCCOCCOCCOC(=O)[C@H](CCc1ccccn1)c1ccccc1Br)c1ccc(-c2c3nc(c(-c4c(F)cccc4F)c4ccc([nH]4)c(-c4c(F)cccc4F)c4nc(c(-c5c(F)cccc5F)c5ccc2[nH]5)C=C4)C=C3)cc1
REMARK SMILES IDX 10 1 9 2 8 3 7 4 6 5 5 6 4 7 3 8 2 9 1 10 34 11 35 12 87 13
REMARK SMILES IDX 36 14 86 15 37 16 38 17 39 18 80 19 40 20 85 21 79 22 81 23
REMARK SMILES IDX 41 24 84 25 78 26 77 27 42 29 68 30 51 31 67 32 52 33 55 34
REMARK SMILES IDX 66 35 82 36 53 37 54 38 65 40 83 41 56 42 43 43 44 44 49 45
REMARK SMILES IDX 45 46 46 47 48 48 50 49 47 50 69 51 70 52 75 53 71 54 72 55
REMARK SMILES IDX 74 56 76 57 73 58 57 59 58 60 63 61 59 62 60 63 62 64 64 65
REMARK SMILES IDX 61 66 11 67 12 68 13 69 14 70 15 71 16 72 17 73 18 74 27 75
REMARK SMILES IDX 28 76 32 77 29 78 31 79 33 80 30 81 19 82 20 83 21 84 22 85
REMARK SMILES IDX 26 86 23 87 25 88 24 89
REMARK H PARENT 81 28 55 39
REMARK Flexibility Score: inf
ROOT
ATOM      1  C   UNL A   1      34.102  28.329  24.357  1.00  0.00     0.188 C 
ENDROOT
BRANCH   1   2
ATOM      2  O   UNL A   1      33.990  27.803  25.672  1.00  0.00    -0.377 OA
BRANCH   2   3
ATOM      3  C   UNL A   1      33.586  28.741  26.671  1.00  0.00     0.188 C 
BRANCH   3   4
ATOM      4  C   UNL A   1      32.171  28.534  27.221  1.00  0.00     0.188 C 
BRANCH   4   5
ATOM      5  O   UNL A   1      31.476  29.778  27.344  1.00  0.00    -0.376 OA
BRANCH   5   6
ATOM      6  C   UNL A   1      31.919  30.824  26.472  1.00  0.00     0.202 C 
BRANCH   6   7
ATOM      7  C   UNL A   1      31.357  32.197  26.825  1.00  0.00     0.261 C 
BRANCH   7   8
ATOM      8  O   UNL A   1      32.369  33.211  26.823  1.00  0.00    -0.460 OA
BRANCH   8   9
ATOM      9  C   UNL A   1      33.092  33.653  27.881  1.00  0.00     0.338 C 
ATOM     10  O   UNL A   1      32.720  34.678  28.452  1.00  0.00    -0.246 OA
BRANCH   9  11
ATOM     11  C   UNL A   1      34.292  32.950  28.438  1.00  0.00     0.060 A 
ATOM     12  C   UNL A   1      34.348  31.616  28.848  1.00  0.00     0.016 A 
ATOM     13  C   UNL A   1      35.482  33.696  28.484  1.00  0.00     0.016 A 
ATOM     14  C   UNL A   1      35.512  31.047  29.337  1.00  0.00     0.010 A 
ATOM     15  C   UNL A   1      36.667  33.132  28.967  1.00  0.00     0.010 A 
ATOM     16  C   UNL A   1      36.666  31.810  29.421  1.00  0.00    -0.014 A 
BRANCH  16  17
ATOM     17  C   UNL A   1      37.777  31.251  30.203  1.00  0.00     0.031 A 
ATOM     18  C   UNL A   1      38.717  30.331  29.491  1.00  0.00     0.074 A 
ATOM     19  C   UNL A   1      38.022  31.705  31.444  1.00  0.00     0.049 A 
ATOM     20  N   UNL A   1      39.735  29.661  29.954  1.00  0.00    -0.248 NA
ATOM     21  C   UNL A   1      38.491  30.160  28.043  1.00  0.00     0.031 C 
ATOM     22  C   UNL A   1      37.247  32.739  32.133  1.00  0.00     0.029 A 
ATOM     23  N   UNL A   1      39.013  31.382  32.329  1.00  0.00    -0.354 N 
ATOM     24  C   UNL A   1      40.240  28.958  28.868  1.00  0.00     0.074 A 
ATOM     25  C   UNL A   1      39.428  29.285  27.720  1.00  0.00     0.031 C 
ATOM     26  C   UNL A   1      37.803  32.975  33.334  1.00  0.00     0.029 A 
ATOM     27  C   UNL A   1      38.919  32.056  33.522  1.00  0.00     0.049 A 
ATOM     28  H   UNL A   1      39.724  30.731  32.130  1.00  0.00     0.167 HD
ATOM     29  C   UNL A   1      41.287  28.104  28.848  1.00  0.00     0.037 A 
ATOM     30  C   UNL A   1      39.636  31.896  34.648  1.00  0.00     0.037 A 
ATOM     31  C   UNL A   1      42.069  27.811  30.015  1.00  0.00     0.049 A 
ATOM     32  C   UNL A   1      40.721  30.852  34.639  1.00  0.00     0.074 A 
ATOM     33  C   UNL A   1      43.100  26.906  30.169  1.00  0.00     0.029 A 
ATOM     34  N   UNL A   1      41.892  28.439  31.244  1.00  0.00    -0.354 N 
ATOM     35  N   UNL A   1      41.137  30.102  33.642  1.00  0.00    -0.248 NA
ATOM     36  C   UNL A   1      41.419  30.608  35.905  1.00  0.00     0.031 C 
ATOM     37  C   UNL A   1      43.516  26.955  31.504  1.00  0.00     0.029 A 
ATOM     38  C   UNL A   1      42.781  27.928  32.168  1.00  0.00     0.049 A 
ATOM     39  H   UNL A   1      41.229  29.143  31.427  1.00  0.00     0.167 HD
ATOM     40  C   UNL A   1      42.152  29.310  34.155  1.00  0.00     0.074 A 
ATOM     41  C   UNL A   1      42.302  29.687  35.549  1.00  0.00     0.031 C 
ATOM     42  C   UNL A   1      42.893  28.352  33.543  1.00  0.00     0.037 A 
BRANCH  29  43
ATOM     43  C   UNL A   1      41.551  27.385  27.559  1.00  0.00     0.057 A 
ATOM     44  C   UNL A   1      40.958  26.153  27.251  1.00  0.00     0.134 A 
ATOM     45  C   UNL A   1      42.473  27.903  26.641  1.00  0.00     0.134 A 
ATOM     46  F   UNL A   1      40.095  25.579  28.104  1.00  0.00    -0.206 F 
ATOM     47  C   UNL A   1      41.296  25.450  26.091  1.00  0.00     0.040 A 
ATOM     48  C   UNL A   1      42.800  27.222  25.468  1.00  0.00     0.040 A 
ATOM     49  F   UNL A   1      43.089  29.070  26.881  1.00  0.00    -0.206 F 
ATOM     50  C   UNL A   1      42.219  25.986  25.195  1.00  0.00     0.006 A 
ENDBRANCH  29  43
BRANCH  30  51
ATOM     51  C   UNL A   1      39.309  32.674  35.873  1.00  0.00     0.057 A 
ATOM     52  C   UNL A   1      38.446  32.174  36.852  1.00  0.00     0.134 A 
ATOM     53  C   UNL A   1      39.844  33.953  36.086  1.00  0.00     0.134 A 
ATOM     54  F   UNL A   1      37.882  30.966  36.703  1.00  0.00    -0.206 F 
ATOM     55  C   UNL A   1      38.115  32.918  37.989  1.00  0.00     0.040 A 
ATOM     56  C   UNL A   1      39.546  34.696  37.229  1.00  0.00     0.040 A 
ATOM     57  F   UNL A   1      40.678  34.498  35.187  1.00  0.00    -0.206 F 
ATOM     58  C   UNL A   1      38.671  34.181  38.183  1.00  0.00     0.006 A 
ENDBRANCH  30  51
BRANCH  42  59
ATOM     59  C   UNL A   1      43.943  27.683  34.373  1.00  0.00     0.057 A 
ATOM     60  C   UNL A   1      43.723  26.441  34.981  1.00  0.00     0.134 A 
ATOM     61  C   UNL A   1      45.208  28.268  34.517  1.00  0.00     0.134 A 
ATOM     62  F   UNL A   1      42.527  25.841  34.888  1.00  0.00    -0.206 F 
ATOM     63  C   UNL A   1      44.722  25.811  35.720  1.00  0.00     0.040 A 
ATOM     64  C   UNL A   1      46.223  27.633  35.228  1.00  0.00     0.040 A 
ATOM     65  F   UNL A   1      45.479  29.452  33.948  1.00  0.00    -0.206 F 
ATOM     66  C   UNL A   1      45.980  26.402  35.837  1.00  0.00     0.006 A 
ENDBRANCH  42  59
ENDBRANCH  16  17
ENDBRANCH   9  11
ENDBRANCH   8   9
ENDBRANCH   7   8
ENDBRANCH   6   7
ENDBRANCH   5   6
ENDBRANCH   4   5
ENDBRANCH   3   4
ENDBRANCH   2   3
ENDBRANCH   1   2
BRANCH   1  67
ATOM     67  C   UNL A   1      32.819  28.781  23.633  1.00  0.00     0.188 C 
BRANCH  67  68
ATOM     68  O   UNL A   1      32.444  28.000  22.500  1.00  0.00    -0.376 OA
BRANCH  68  69
ATOM     69  C   UNL A   1      33.337  26.922  22.206  1.00  0.00     0.202 C 
BRANCH  69  70
ATOM     70  C   UNL A   1      32.847  26.010  21.075  1.00  0.00     0.261 C 
BRANCH  70  71
ATOM     71  O   UNL A   1      33.013  24.613  21.371  1.00  0.00    -0.463 OA
BRANCH  71  72
ATOM     72  C   UNL A   1      32.398  24.044  22.444  1.00  0.00     0.313 C 
ATOM     73  O   UNL A   1      31.306  24.393  22.878  1.00  0.00    -0.252 OA
BRANCH  72  74
ATOM     74  C   UNL A   1      33.210  22.819  22.916  1.00  0.00     0.131 C 
BRANCH  74  75
ATOM     75  C   UNL A   1      34.445  23.199  23.750  1.00  0.00    -0.020 A 
ATOM     76  C   UNL A   1      35.705  22.848  23.186  1.00  0.00     0.006 A 
ATOM     77  C   UNL A   1      34.479  23.797  25.018  1.00  0.00     0.022 A 
ATOM     78  C   UNL A   1      36.920  23.092  23.827  1.00  0.00     0.000 A 
ATOM     79  C   UNL A   1      35.706  23.999  25.681  1.00  0.00     0.016 A 
ATOM     80  Br  UNL A   1      32.963  24.413  25.980  1.00  0.00    -0.051 Br
ATOM     81  C   UNL A   1      36.920  23.658  25.088  1.00  0.00     0.001 A 
ENDBRANCH  74  75
BRANCH  74  82
ATOM     82  C   UNL A   1      32.311  21.626  23.319  1.00  0.00     0.026 C 
BRANCH  82  83
ATOM     83  C   UNL A   1      32.813  20.775  24.512  1.00  0.00     0.057 C 
BRANCH  83  84
ATOM     84  C   UNL A   1      33.213  19.345  24.194  1.00  0.00     0.040 A 
ATOM     85  C   UNL A   1      32.467  18.608  23.271  1.00  0.00     0.024 A 
ATOM     86  N   UNL A   1      34.367  18.868  24.728  1.00  0.00    -0.261 NA
ATOM     87  C   UNL A   1      32.918  17.352  22.871  1.00  0.00     0.003 A 
ATOM     88  C   UNL A   1      34.788  17.649  24.303  1.00  0.00     0.111 A 
ATOM     89  C   UNL A   1      34.109  16.863  23.387  1.00  0.00     0.020 A 
ENDBRANCH  83  84
ENDBRANCH  82  83
ENDBRANCH  74  82
ENDBRANCH  72  74
ENDBRANCH  71  72
ENDBRANCH  70  71
ENDBRANCH  69  70
ENDBRANCH  68  69
ENDBRANCH  67  68
ENDBRANCH   1  67
TORSDOF 24
ENDMDL
MODEL 3
REMARK VINA RESULT:     -10.0      3.837      6.941
REMARK SMILES O=C(OCCOCCOCCOCCOC(=O)[C@H](CCc1ccccn1)c1ccccc1Br)c1ccc(-c2c3nc(c(-c4c(F)cccc4F)c4ccc([nH]4)c(-c4c(F)cccc4F)c4nc(c(-c5c(F)cccc5F)c5ccc2[nH]5)C=C4)C=C3)cc1
REMARK SMILES IDX 10 1 9 2 8 3 7 4 6 5 5 6 4 7 3 8 2 9 1 10 34 11 35 12 87 13
REMARK SMILES IDX 36 14 86 15 37 16 38 17 39 18 80 19 40 20 85 21 79 22 81 23
REMARK SMILES IDX 41 24 84 25 78 26 77 27 42 29 68 30 51 31 67 32 52 33 55 34
REMARK SMILES IDX 66 35 82 36 53 37 54 38 65 40 83 41 56 42 43 43 44 44 49 45
REMARK SMILES IDX 45 46 46 47 48 48 50 49 47 50 69 51 70 52 75 53 71 54 72 55
REMARK SMILES IDX 74 56 76 57 73 58 57 59 58 60 63 61 59 62 60 63 62 64 64 65
REMARK SMILES IDX 61 66 11 67 12 68 13 69 14 70 15 71 16 72 17 73 18 74 27 75
REMARK SMILES IDX 28 76 32 77 29 78 31 79 33 80 30 81 19 82 20 83 21 84 22 85
REMARK SMILES IDX 26 86 23 87 25 88 24 89
REMARK H PARENT 81 28 55 39
REMARK Flexibility Score: inf
ROOT
ATOM      1  C   UNL A   1      33.703  34.172  28.895  1.00  0.00     0.188 C 
ENDROOT
BRANCH   1   2
ATOM      2  O   UNL A   1      33.724  35.590  28.976  1.00  0.00    -0.377 OA
BRANCH   2   3
ATOM      3  C   UNL A   1      32.801  36.161  29.905  1.00  0.00     0.188 C 
BRANCH   3   4
ATOM      4  C   UNL A   1      33.390  36.503  31.277  1.00  0.00     0.188 C 
BRANCH   4   5
ATOM      5  O   UNL A   1      32.792  35.713  32.309  1.00  0.00    -0.376 OA
BRANCH   5   6
ATOM      6  C   UNL A   1      33.657  34.764  32.943  1.00  0.00     0.202 C 
BRANCH   6   7
ATOM      7  C   UNL A   1      35.082  34.774  32.401  1.00  0.00     0.261 C 
BRANCH   7   8
ATOM      8  O   UNL A   1      35.454  33.511  31.836  1.00  0.00    -0.460 OA
BRANCH   8   9
ATOM      9  C   UNL A   1      36.149  32.514  32.436  1.00  0.00     0.338 C 
ATOM     10  O   UNL A   1      35.827  32.187  33.578  1.00  0.00    -0.246 OA
BRANCH   9  11
ATOM     11  C   UNL A   1      37.257  31.745  31.784  1.00  0.00     0.060 A 
ATOM     12  C   UNL A   1      38.237  30.997  32.441  1.00  0.00     0.016 A 
ATOM     13  C   UNL A   1      37.259  31.730  30.379  1.00  0.00     0.016 A 
ATOM     14  C   UNL A   1      39.216  30.303  31.750  1.00  0.00     0.010 A 
ATOM     15  C   UNL A   1      38.235  31.027  29.668  1.00  0.00     0.010 A 
ATOM     16  C   UNL A   1      39.233  30.337  30.363  1.00  0.00    -0.014 A 
BRANCH  16  17
ATOM     17  C   UNL A   1      40.442  29.831  29.701  1.00  0.00     0.031 A 
ATOM     18  C   UNL A   1      41.624  30.747  29.646  1.00  0.00     0.074 A 
ATOM     19  C   UNL A   1      40.519  28.540  29.336  1.00  0.00     0.049 A 
ATOM     20  N   UNL A   1      42.783  30.575  29.075  1.00  0.00    -0.248 NA
ATOM     21  C   UNL A   1      41.486  32.033  30.355  1.00  0.00     0.031 C 
ATOM     22  C   UNL A   1      39.463  27.544  29.529  1.00  0.00     0.029 A 
ATOM     23  N   UNL A   1      41.543  27.838  28.764  1.00  0.00    -0.354 N 
ATOM     24  C   UNL A   1      43.492  31.743  29.319  1.00  0.00     0.074 A 
ATOM     25  C   UNL A   1      42.644  32.616  30.095  1.00  0.00     0.031 C 
ATOM     26  C   UNL A   1      39.901  26.351  29.091  1.00  0.00     0.029 A 
ATOM     27  C   UNL A   1      41.232  26.522  28.522  1.00  0.00     0.049 A 
ATOM     28  H   UNL A   1      42.417  28.236  28.548  1.00  0.00     0.167 HD
ATOM     29  C   UNL A   1      44.743  32.053  28.912  1.00  0.00     0.037 A 
ATOM     30  C   UNL A   1      41.942  25.587  27.866  1.00  0.00     0.037 A 
ATOM     31  C   UNL A   1      45.553  31.151  28.143  1.00  0.00     0.049 A 
ATOM     32  C   UNL A   1      43.284  25.993  27.316  1.00  0.00     0.074 A 
ATOM     33  C   UNL A   1      46.799  31.357  27.587  1.00  0.00     0.029 A 
ATOM     34  N   UNL A   1      45.176  29.850  27.826  1.00  0.00    -0.354 N 
ATOM     35  N   UNL A   1      43.920  27.135  27.450  1.00  0.00    -0.248 NA
ATOM     36  C   UNL A   1      43.997  25.000  26.505  1.00  0.00     0.031 C 
ATOM     37  C   UNL A   1      47.156  30.195  26.895  1.00  0.00     0.029 A 
ATOM     38  C   UNL A   1      46.156  29.246  27.065  1.00  0.00     0.049 A 
ATOM     39  H   UNL A   1      44.333  29.423  28.103  1.00  0.00     0.167 HD
ATOM     40  C   UNL A   1      45.112  26.995  26.755  1.00  0.00     0.074 A 
ATOM     41  C   UNL A   1      45.117  25.646  26.218  1.00  0.00     0.031 C 
ATOM     42  C   UNL A   1      46.112  27.893  26.566  1.00  0.00     0.037 A 
BRANCH  29  43
ATOM     43  C   UNL A   1      45.231  33.438  29.215  1.00  0.00     0.057 A 
ATOM     44  C   UNL A   1      45.070  34.505  28.321  1.00  0.00     0.134 A 
ATOM     45  C   UNL A   1      45.940  33.690  30.397  1.00  0.00     0.134 A 
ATOM     46  F   UNL A   1      44.435  34.324  27.152  1.00  0.00    -0.206 F 
ATOM     47  C   UNL A   1      45.622  35.763  28.577  1.00  0.00     0.040 A 
ATOM     48  C   UNL A   1      46.475  34.949  30.676  1.00  0.00     0.040 A 
ATOM     49  F   UNL A   1      46.144  32.710  31.289  1.00  0.00    -0.206 F 
ATOM     50  C   UNL A   1      46.326  35.987  29.759  1.00  0.00     0.006 A 
ENDBRANCH  29  43
BRANCH  30  51
ATOM     51  C   UNL A   1      41.378  24.231  27.632  1.00  0.00     0.057 A 
ATOM     52  C   UNL A   1      40.392  24.001  26.667  1.00  0.00     0.134 A 
ATOM     53  C   UNL A   1      41.802  23.127  28.386  1.00  0.00     0.134 A 
ATOM     54  F   UNL A   1      39.925  25.015  25.924  1.00  0.00    -0.206 F 
ATOM     55  C   UNL A   1      39.841  22.732  26.468  1.00  0.00     0.040 A 
ATOM     56  C   UNL A   1      41.282  21.849  28.180  1.00  0.00     0.040 A 
ATOM     57  F   UNL A   1      42.743  23.273  29.332  1.00  0.00    -0.206 F 
ATOM     58  C   UNL A   1      40.290  21.650  27.222  1.00  0.00     0.006 A 
ENDBRANCH  30  51
BRANCH  42  59
ATOM     59  C   UNL A   1      47.294  27.423  25.778  1.00  0.00     0.057 A 
ATOM     60  C   UNL A   1      48.387  26.798  26.391  1.00  0.00     0.134 A 
ATOM     61  C   UNL A   1      47.309  27.550  24.383  1.00  0.00     0.134 A 
ATOM     62  F   UNL A   1      48.432  26.661  27.725  1.00  0.00    -0.206 F 
ATOM     63  C   UNL A   1      49.465  26.330  25.643  1.00  0.00     0.040 A 
ATOM     64  C   UNL A   1      48.369  27.060  23.623  1.00  0.00     0.040 A 
ATOM     65  F   UNL A   1      46.285  28.131  23.741  1.00  0.00    -0.206 F 
ATOM     66  C   UNL A   1      49.453  26.452  24.253  1.00  0.00     0.006 A 
ENDBRANCH  42  59
ENDBRANCH  16  17
ENDBRANCH   9  11
ENDBRANCH   8   9
ENDBRANCH   7   8
ENDBRANCH   6   7
ENDBRANCH   5   6
ENDBRANCH   4   5
ENDBRANCH   3   4
ENDBRANCH   2   3
ENDBRANCH   1   2
BRANCH   1  67
ATOM     67  C   UNL A   1      34.918  33.451  28.277  1.00  0.00     0.188 C 
BRANCH  67  68
ATOM     68  O   UNL A   1      34.611  32.438  27.321  1.00  0.00    -0.376 OA
BRANCH  68  69
ATOM     69  C   UNL A   1      34.430  31.135  27.881  1.00  0.00     0.202 C 
BRANCH  69  70
ATOM     70  C   UNL A   1      33.202  30.397  27.333  1.00  0.00     0.261 C 
BRANCH  70  71
ATOM     71  O   UNL A   1      33.274  28.973  27.523  1.00  0.00    -0.463 OA
BRANCH  71  72
ATOM     72  C   UNL A   1      32.169  28.190  27.389  1.00  0.00     0.313 C 
ATOM     73  O   UNL A   1      31.164  28.290  28.082  1.00  0.00    -0.252 OA
BRANCH  72  74
ATOM     74  C   UNL A   1      32.327  27.282  26.150  1.00  0.00     0.131 C 
BRANCH  74  75
ATOM     75  C   UNL A   1      31.289  27.574  25.053  1.00  0.00    -0.020 A 
ATOM     76  C   UNL A   1      31.210  28.929  24.620  1.00  0.00     0.006 A 
ATOM     77  C   UNL A   1      30.377  26.683  24.468  1.00  0.00     0.022 A 
ATOM     78  C   UNL A   1      30.300  29.368  23.657  1.00  0.00     0.000 A 
ATOM     79  C   UNL A   1      29.431  27.141  23.531  1.00  0.00     0.016 A 
ATOM     80  Br  UNL A   1      30.292  24.819  24.815  1.00  0.00    -0.051 Br
ATOM     81  C   UNL A   1      29.396  28.472  23.120  1.00  0.00     0.001 A 
ENDBRANCH  74  75
BRANCH  74  82
ATOM     82  C   UNL A   1      33.807  27.007  25.796  1.00  0.00     0.026 C 
BRANCH  82  83
ATOM     83  C   UNL A   1      34.063  26.366  24.409  1.00  0.00     0.057 C 
BRANCH  83  84
ATOM     84  C   UNL A   1      33.926  24.856  24.334  1.00  0.00     0.040 A 
ATOM     85  C   UNL A   1      33.903  24.225  23.088  1.00  0.00     0.024 A 
ATOM     86  N   UNL A   1      33.957  24.151  25.495  1.00  0.00    -0.261 NA
ATOM     87  C   UNL A   1      33.926  22.834  23.022  1.00  0.00     0.003 A 
ATOM     88  C   UNL A   1      33.998  22.797  25.395  1.00  0.00     0.111 A 
ATOM     89  C   UNL A   1      33.985  22.101  24.198  1.00  0.00     0.020 A 
ENDBRANCH  83  84
ENDBRANCH  82  83
ENDBRANCH  74  82
ENDBRANCH  72  74
ENDBRANCH  71  72
ENDBRANCH  70  71
ENDBRANCH  69  70
ENDBRANCH  68  69
ENDBRANCH  67  68
ENDBRANCH   1  67
TORSDOF 24
ENDMDL
