MODEL 1
REMARK VINA RESULT:      -9.9      0.000      0.000
REMARK SMILES Cc1c(F)cc(C(=O)OCCOCCOCCOCCOC(=O)c2ccc(-c3c4nc(c(-c5c(F)cccc5F)c5ccc([nH]5)c(-c5c(F)cccc5F)c5nc(c(-c6c(F)cccc6F)c6ccc3[nH]6)C=C5)C=C4)cc2)cc1S(=O)(=O)NC#N
REMARK SMILES IDX 14 1 13 2 12 3 11 4 10 5 9 6 7 7 8 8 6 9 1 10 2 11 3 12
REMARK SMILES IDX 79 13 4 14 5 15 78 16 80 17 81 18 82 19 83 20 84 22 85 23
REMARK SMILES IDX 15 24 16 25 17 26 18 27 19 28 20 29 21 30 22 31 23 32 24 33
REMARK SMILES IDX 25 34 77 35 26 36 76 37 27 38 28 39 29 40 70 41 30 42 75 43
REMARK SMILES IDX 69 44 71 45 31 46 74 47 68 48 67 49 32 51 58 52 41 53 57 54
REMARK SMILES IDX 42 55 45 56 56 57 72 58 43 59 44 60 55 62 73 63 46 64 33 65
REMARK SMILES IDX 34 66 39 67 35 68 36 69 38 70 40 71 37 72 59 73 60 74 65 75
REMARK SMILES IDX 61 76 62 77 64 78 66 79 63 80 47 81 48 82 53 83 49 84 50 85
REMARK SMILES IDX 52 86 54 87 51 88
REMARK H PARENT 83 21 71 50 45 61
REMARK Flexibility Score: inf
ROOT
ATOM      1  C   UNL A   1      33.191  29.680  26.391  1.00  0.00     0.188 C 
ENDROOT
BRANCH   1   2
ATOM      2  C   UNL A   1      32.754  28.728  25.255  1.00  0.00     0.188 C 
BRANCH   2   3
ATOM      3  O   UNL A   1      31.564  28.006  25.497  1.00  0.00    -0.376 OA
BRANCH   3   4
ATOM      4  C   UNL A   1      31.303  26.780  24.846  1.00  0.00     0.202 C 
BRANCH   4   5
ATOM      5  C   UNL A   1      31.669  26.509  23.372  1.00  0.00     0.261 C 
BRANCH   5   6
ATOM      6  O   UNL A   1      33.009  26.084  23.084  1.00  0.00    -0.460 OA
BRANCH   6   7
ATOM      7  C   UNL A   1      33.134  25.069  22.200  1.00  0.00     0.338 C 
ATOM      8  O   UNL A   1      33.370  25.170  21.009  1.00  0.00    -0.246 OA
BRANCH   7   9
ATOM      9  C   UNL A   1      33.217  23.783  22.936  1.00  0.00     0.064 A 
ATOM     10  C   UNL A   1      33.335  19.819  24.640  1.00  0.00     0.049 C 
ATOM     11  C   UNL A   1      33.382  21.227  24.134  1.00  0.00     0.005 A 
ATOM     12  C   UNL A   1      32.540  21.489  23.037  1.00  0.00     0.128 A 
ATOM     13  C   UNL A   1      34.134  22.296  24.665  1.00  0.00     0.095 A 
ATOM     14  F   UNL A   1      31.818  20.493  22.501  1.00  0.00    -0.207 F 
ATOM     15  C   UNL A   1      32.438  22.739  22.453  1.00  0.00     0.055 A 
ATOM     16  C   UNL A   1      34.077  23.563  24.020  1.00  0.00     0.038 A 
BRANCH  13  17
ATOM     17  S   UNL A   1      35.376  22.140  25.955  1.00  0.00     0.270 S 
ATOM     18  O   UNL A   1      36.255  21.052  25.596  1.00  0.00    -0.201 OA
ATOM     19  O   UNL A   1      35.928  23.474  26.125  1.00  0.00    -0.201 OA
BRANCH  17  20
ATOM     20  N   UNL A   1      34.746  21.841  27.471  1.00  0.00    -0.215 NA
ATOM     21  H   UNL A   1      35.297  21.389  28.149  1.00  0.00     0.193 HD
BRANCH  20  22
ATOM     22  C   UNL A   1      33.509  22.211  27.769  1.00  0.00     0.191 C 
ATOM     23  N   UNL A   1      32.474  22.645  28.030  1.00  0.00    -0.172 NA
ENDBRANCH  20  22
ENDBRANCH  17  20
ENDBRANCH  13  17
ENDBRANCH   7   9
ENDBRANCH   6   7
ENDBRANCH   5   6
ENDBRANCH   4   5
ENDBRANCH   3   4
ENDBRANCH   2   3
ENDBRANCH   1   2
BRANCH   1  24
ATOM     24  O   UNL A   1      32.207  30.352  27.158  1.00  0.00    -0.377 OA
BRANCH  24  25
ATOM     25  C   UNL A   1      31.683  31.588  26.691  1.00  0.00     0.188 C 
BRANCH  25  26
ATOM     26  C   UNL A   1      32.135  32.968  27.262  1.00  0.00     0.188 C 
BRANCH  26  27
ATOM     27  O   UNL A   1      33.486  33.075  27.664  1.00  0.00    -0.376 OA
BRANCH  27  28
ATOM     28  C   UNL A   1      33.955  33.873  28.734  1.00  0.00     0.202 C 
BRANCH  28  29
ATOM     29  C   UNL A   1      34.796  33.297  29.880  1.00  0.00     0.261 C 
BRANCH  29  30
ATOM     30  O   UNL A   1      35.013  31.907  29.783  1.00  0.00    -0.460 OA
BRANCH  30  31
ATOM     31  C   UNL A   1      36.221  31.645  29.261  1.00  0.00     0.338 C 
ATOM     32  O   UNL A   1      37.155  32.418  29.127  1.00  0.00    -0.246 OA
BRANCH  31  33
ATOM     33  C   UNL A   1      36.264  30.216  28.908  1.00  0.00     0.060 A 
ATOM     34  C   UNL A   1      36.477  29.398  30.037  1.00  0.00     0.016 A 
ATOM     35  C   UNL A   1      36.959  30.072  27.718  1.00  0.00     0.016 A 
ATOM     36  C   UNL A   1      37.717  28.850  30.182  1.00  0.00     0.010 A 
ATOM     37  C   UNL A   1      38.217  29.595  27.877  1.00  0.00     0.010 A 
ATOM     38  C   UNL A   1      38.591  29.097  29.141  1.00  0.00    -0.014 A 
BRANCH  38  39
ATOM     39  C   UNL A   1      39.980  28.788  29.231  1.00  0.00     0.031 A 
ATOM     40  C   UNL A   1      40.273  27.388  28.938  1.00  0.00     0.074 A 
ATOM     41  C   UNL A   1      40.784  29.869  29.278  1.00  0.00     0.049 A 
ATOM     42  N   UNL A   1      41.378  26.815  29.207  1.00  0.00    -0.248 NA
ATOM     43  C   UNL A   1      39.269  26.462  28.390  1.00  0.00     0.031 C 
ATOM     44  C   UNL A   1      42.154  30.029  28.834  1.00  0.00     0.029 A 
ATOM     45  N   UNL A   1      40.501  31.069  29.948  1.00  0.00    -0.354 N 
ATOM     46  C   UNL A   1      41.385  25.653  28.468  1.00  0.00     0.074 A 
ATOM     47  C   UNL A   1      40.009  25.375  28.163  1.00  0.00     0.031 C 
ATOM     48  C   UNL A   1      42.692  31.093  29.461  1.00  0.00     0.029 A 
ATOM     49  C   UNL A   1      41.727  31.552  30.450  1.00  0.00     0.049 A 
ATOM     50  H   UNL A   1      39.618  31.490  30.049  1.00  0.00     0.167 HD
ATOM     51  C   UNL A   1      42.590  25.216  28.017  1.00  0.00     0.037 A 
ATOM     52  C   UNL A   1      41.931  31.527  31.806  1.00  0.00     0.037 A 
ATOM     53  C   UNL A   1      43.631  26.136  28.474  1.00  0.00     0.049 A 
ATOM     54  C   UNL A   1      42.914  30.454  32.236  1.00  0.00     0.074 A 
ATOM     55  C   UNL A   1      44.226  27.259  27.926  1.00  0.00     0.029 A 
ATOM     56  N   UNL A   1      43.870  26.201  29.827  1.00  0.00    -0.354 N 
ATOM     57  N   UNL A   1      43.342  29.497  31.460  1.00  0.00    -0.248 NA
ATOM     58  C   UNL A   1      43.445  30.346  33.593  1.00  0.00     0.031 C 
ATOM     59  C   UNL A   1      44.809  28.007  28.995  1.00  0.00     0.029 A 
ATOM     60  C   UNL A   1      44.557  27.338  30.181  1.00  0.00     0.049 A 
ATOM     61  H   UNL A   1      43.583  25.513  30.469  1.00  0.00     0.167 HD
ATOM     62  C   UNL A   1      44.166  28.664  32.160  1.00  0.00     0.074 A 
ATOM     63  C   UNL A   1      44.167  29.214  33.506  1.00  0.00     0.031 C 
ATOM     64  C   UNL A   1      44.778  27.579  31.596  1.00  0.00     0.037 A 
BRANCH  51  65
ATOM     65  C   UNL A   1      42.851  24.140  27.004  1.00  0.00     0.057 A 
ATOM     66  C   UNL A   1      42.750  22.792  27.401  1.00  0.00     0.134 A 
ATOM     67  C   UNL A   1      43.170  24.328  25.649  1.00  0.00     0.134 A 
ATOM     68  F   UNL A   1      42.411  22.446  28.651  1.00  0.00    -0.206 F 
ATOM     69  C   UNL A   1      42.981  21.720  26.537  1.00  0.00     0.040 A 
ATOM     70  C   UNL A   1      43.426  23.260  24.776  1.00  0.00     0.040 A 
ATOM     71  F   UNL A   1      43.205  25.537  25.081  1.00  0.00    -0.206 F 
ATOM     72  C   UNL A   1      43.329  21.950  25.219  1.00  0.00     0.006 A 
ENDBRANCH  51  65
BRANCH  52  73
ATOM     73  C   UNL A   1      40.687  31.885  32.554  1.00  0.00     0.057 A 
ATOM     74  C   UNL A   1      40.308  33.241  32.587  1.00  0.00     0.134 A 
ATOM     75  C   UNL A   1      39.685  30.936  32.781  1.00  0.00     0.134 A 
ATOM     76  F   UNL A   1      41.225  34.203  32.394  1.00  0.00    -0.206 F 
ATOM     77  C   UNL A   1      38.969  33.626  32.666  1.00  0.00     0.040 A 
ATOM     78  C   UNL A   1      38.341  31.313  32.876  1.00  0.00     0.040 A 
ATOM     79  F   UNL A   1      39.970  29.626  32.779  1.00  0.00    -0.206 F 
ATOM     80  C   UNL A   1      37.977  32.654  32.768  1.00  0.00     0.006 A 
ENDBRANCH  52  73
BRANCH  64  81
ATOM     81  C   UNL A   1      45.627  26.623  32.384  1.00  0.00     0.057 A 
ATOM     82  C   UNL A   1      47.021  26.622  32.281  1.00  0.00     0.134 A 
ATOM     83  C   UNL A   1      45.078  25.621  33.212  1.00  0.00     0.134 A 
ATOM     84  F   UNL A   1      47.652  27.447  31.433  1.00  0.00    -0.206 F 
ATOM     85  C   UNL A   1      47.819  25.761  33.039  1.00  0.00     0.040 A 
ATOM     86  C   UNL A   1      45.860  24.706  33.913  1.00  0.00     0.040 A 
ATOM     87  F   UNL A   1      43.759  25.495  33.418  1.00  0.00    -0.206 F 
ATOM     88  C   UNL A   1      47.238  24.797  33.857  1.00  0.00     0.006 A 
ENDBRANCH  64  81
ENDBRANCH  38  39
ENDBRANCH  31  33
ENDBRANCH  30  31
ENDBRANCH  29  30
ENDBRANCH  28  29
ENDBRANCH  27  28
ENDBRANCH  26  27
ENDBRANCH  25  26
ENDBRANCH  24  25
ENDBRANCH   1  24
TORSDOF 23
ENDMDL
MODEL 2
REMARK VINA RESULT:      -9.7      2.875      4.875
REMARK SMILES Cc1c(F)cc(C(=O)OCCOCCOCCOCCOC(=O)c2ccc(-c3c4nc(c(-c5c(F)cccc5F)c5ccc([nH]5)c(-c5c(F)cccc5F)c5nc(c(-c6c(F)cccc6F)c6ccc3[nH]6)C=C5)C=C4)cc2)cc1S(=O)(=O)NC#N
REMARK SMILES IDX 14 1 13 2 12 3 11 4 10 5 9 6 7 7 8 8 6 9 1 10 2 11 3 12
REMARK SMILES IDX 79 13 4 14 5 15 78 16 80 17 81 18 82 19 83 20 84 22 85 23
REMARK SMILES IDX 15 24 16 25 17 26 18 27 19 28 20 29 21 30 22 31 23 32 24 33
REMARK SMILES IDX 25 34 77 35 26 36 76 37 27 38 28 39 29 40 70 41 30 42 75 43
REMARK SMILES IDX 69 44 71 45 31 46 74 47 68 48 67 49 32 51 58 52 41 53 57 54
REMARK SMILES IDX 42 55 45 56 56 57 72 58 43 59 44 60 55 62 73 63 46 64 33 65
REMARK SMILES IDX 34 66 39 67 35 68 36 69 38 70 40 71 37 72 59 73 60 74 65 75
REMARK SMILES IDX 61 76 62 77 64 78 66 79 63 80 47 81 48 82 53 83 49 84 50 85
REMARK SMILES IDX 52 86 54 87 51 88
REMARK H PARENT 83 21 71 50 45 61
REMARK Flexibility Score: inf
ROOT
ATOM      1  C   UNL A   1      32.581  24.876  23.334  1.00  0.00     0.188 C 
ENDROOT
BRANCH   1   2
ATOM      2  C   UNL A   1      32.014  24.159  24.580  1.00  0.00     0.188 C 
BRANCH   2   3
ATOM      3  O   UNL A   1      32.927  23.986  25.644  1.00  0.00    -0.376 OA
BRANCH   3   4
ATOM      4  C   UNL A   1      34.212  23.444  25.428  1.00  0.00     0.202 C 
BRANCH   4   5
ATOM      5  C   UNL A   1      35.513  24.256  25.593  1.00  0.00     0.261 C 
BRANCH   5   6
ATOM      6  O   UNL A   1      36.633  23.606  26.211  1.00  0.00    -0.460 OA
BRANCH   6   7
ATOM      7  C   UNL A   1      37.362  22.792  25.416  1.00  0.00     0.338 C 
ATOM      8  O   UNL A   1      37.089  22.458  24.276  1.00  0.00    -0.246 OA
BRANCH   7   9
ATOM      9  C   UNL A   1      38.696  22.573  26.027  1.00  0.00     0.064 A 
ATOM     10  C   UNL A   1      42.423  22.232  28.178  1.00  0.00     0.049 C 
ATOM     11  C   UNL A   1      41.153  22.234  27.385  1.00  0.00     0.005 A 
ATOM     12  C   UNL A   1      40.366  23.391  27.533  1.00  0.00     0.128 A 
ATOM     13  C   UNL A   1      40.704  21.235  26.496  1.00  0.00     0.095 A 
ATOM     14  F   UNL A   1      40.758  24.358  28.379  1.00  0.00    -0.207 F 
ATOM     15  C   UNL A   1      39.171  23.576  26.861  1.00  0.00     0.055 A 
ATOM     16  C   UNL A   1      39.442  21.399  25.858  1.00  0.00     0.038 A 
BRANCH  13  17
ATOM     17  S   UNL A   1      41.476  19.625  26.282  1.00  0.00     0.270 S 
ATOM     18  O   UNL A   1      42.097  19.261  27.534  1.00  0.00    -0.201 OA
ATOM     19  O   UNL A   1      40.441  18.770  25.725  1.00  0.00    -0.201 OA
BRANCH  17  20
ATOM     20  N   UNL A   1      42.631  19.582  25.078  1.00  0.00    -0.215 NA
ATOM     21  H   UNL A   1      42.463  20.040  24.223  1.00  0.00     0.193 HD
BRANCH  20  22
ATOM     22  C   UNL A   1      43.773  18.938  25.266  1.00  0.00     0.191 C 
ATOM     23  N   UNL A   1      44.701  18.283  25.461  1.00  0.00    -0.172 NA
ENDBRANCH  20  22
ENDBRANCH  17  20
ENDBRANCH  13  17
ENDBRANCH   7   9
ENDBRANCH   6   7
ENDBRANCH   5   6
ENDBRANCH   4   5
ENDBRANCH   3   4
ENDBRANCH   2   3
ENDBRANCH   1   2
BRANCH   1  24
ATOM     24  O   UNL A   1      33.344  26.060  23.494  1.00  0.00    -0.377 OA
BRANCH  24  25
ATOM     25  C   UNL A   1      32.679  27.315  23.549  1.00  0.00     0.188 C 
BRANCH  25  26
ATOM     26  C   UNL A   1      31.400  27.557  24.410  1.00  0.00     0.188 C 
BRANCH  26  27
ATOM     27  O   UNL A   1      31.218  28.862  24.920  1.00  0.00    -0.376 OA
BRANCH  27  28
ATOM     28  C   UNL A   1      32.257  29.716  25.358  1.00  0.00     0.202 C 
BRANCH  28  29
ATOM     29  C   UNL A   1      32.924  29.562  26.731  1.00  0.00     0.261 C 
BRANCH  29  30
ATOM     30  O   UNL A   1      33.507  30.750  27.216  1.00  0.00    -0.460 OA
BRANCH  30  31
ATOM     31  C   UNL A   1      34.777  30.541  27.596  1.00  0.00     0.338 C 
ATOM     32  O   UNL A   1      35.534  29.667  27.209  1.00  0.00    -0.246 OA
BRANCH  31  33
ATOM     33  C   UNL A   1      35.145  31.600  28.553  1.00  0.00     0.060 A 
ATOM     34  C   UNL A   1      36.110  32.481  28.022  1.00  0.00     0.016 A 
ATOM     35  C   UNL A   1      35.232  31.044  29.819  1.00  0.00     0.016 A 
ATOM     36  C   UNL A   1      37.385  32.358  28.487  1.00  0.00     0.010 A 
ATOM     37  C   UNL A   1      36.504  30.858  30.246  1.00  0.00     0.010 A 
ATOM     38  C   UNL A   1      37.553  31.433  29.500  1.00  0.00    -0.014 A 
BRANCH  38  39
ATOM     39  C   UNL A   1      38.844  31.026  29.945  1.00  0.00     0.031 A 
ATOM     40  C   UNL A   1      39.273  29.757  29.365  1.00  0.00     0.074 A 
ATOM     41  C   UNL A   1      39.542  31.993  30.572  1.00  0.00     0.049 A 
ATOM     42  N   UNL A   1      40.249  29.062  29.800  1.00  0.00    -0.248 NA
ATOM     43  C   UNL A   1      38.546  29.096  28.269  1.00  0.00     0.031 C 
ATOM     44  C   UNL A   1      40.974  32.190  30.671  1.00  0.00     0.029 A 
ATOM     45  N   UNL A   1      39.006  32.960  31.435  1.00  0.00    -0.354 N 
ATOM     46  C   UNL A   1      40.548  28.169  28.795  1.00  0.00     0.074 A 
ATOM     47  C   UNL A   1      39.362  28.078  27.987  1.00  0.00     0.031 C 
ATOM     48  C   UNL A   1      41.231  32.989  31.725  1.00  0.00     0.029 A 
ATOM     49  C   UNL A   1      39.974  33.198  32.431  1.00  0.00     0.049 A 
ATOM     50  H   UNL A   1      38.123  33.388  31.360  1.00  0.00     0.167 HD
ATOM     51  C   UNL A   1      41.850  27.808  28.657  1.00  0.00     0.037 A 
ATOM     52  C   UNL A   1      39.718  32.766  33.707  1.00  0.00     0.037 A 
ATOM     53  C   UNL A   1      42.643  28.488  29.681  1.00  0.00     0.049 A 
ATOM     54  C   UNL A   1      40.544  31.555  34.098  1.00  0.00     0.074 A 
ATOM     55  C   UNL A   1      43.340  29.683  29.717  1.00  0.00     0.029 A 
ATOM     56  N   UNL A   1      42.416  28.141  30.993  1.00  0.00    -0.354 N 
ATOM     57  N   UNL A   1      41.244  30.842  33.259  1.00  0.00    -0.248 NA
ATOM     58  C   UNL A   1      40.599  31.022  35.458  1.00  0.00     0.031 C 
ATOM     59  C   UNL A   1      43.505  30.048  31.089  1.00  0.00     0.029 A 
ATOM     60  C   UNL A   1      42.900  29.079  31.872  1.00  0.00     0.049 A 
ATOM     61  H   UNL A   1      41.960  27.314  31.270  1.00  0.00     0.167 HD
ATOM     62  C   UNL A   1      41.822  29.791  33.911  1.00  0.00     0.074 A 
ATOM     63  C   UNL A   1      41.353  29.923  35.281  1.00  0.00     0.031 C 
ATOM     64  C   UNL A   1      42.629  28.882  33.285  1.00  0.00     0.037 A 
BRANCH  51  65
ATOM     65  C   UNL A   1      42.476  27.062  27.516  1.00  0.00     0.057 A 
ATOM     66  C   UNL A   1      43.375  26.015  27.799  1.00  0.00     0.134 A 
ATOM     67  C   UNL A   1      42.240  27.276  26.148  1.00  0.00     0.134 A 
ATOM     68  F   UNL A   1      43.672  25.657  29.056  1.00  0.00    -0.206 F 
ATOM     69  C   UNL A   1      44.015  25.266  26.809  1.00  0.00     0.040 A 
ATOM     70  C   UNL A   1      42.892  26.546  25.143  1.00  0.00     0.040 A 
ATOM     71  F   UNL A   1      41.340  28.158  25.704  1.00  0.00    -0.206 F 
ATOM     72  C   UNL A   1      43.782  25.535  25.473  1.00  0.00     0.006 A 
ENDBRANCH  51  65
BRANCH  52  73
ATOM     73  C   UNL A   1      38.283  32.967  34.075  1.00  0.00     0.057 A 
ATOM     74  C   UNL A   1      37.843  34.284  34.309  1.00  0.00     0.134 A 
ATOM     75  C   UNL A   1      37.312  32.020  33.730  1.00  0.00     0.134 A 
ATOM     76  F   UNL A   1      38.722  35.237  34.661  1.00  0.00    -0.206 F 
ATOM     77  C   UNL A   1      36.531  34.677  34.041  1.00  0.00     0.040 A 
ATOM     78  C   UNL A   1      35.991  32.402  33.473  1.00  0.00     0.040 A 
ATOM     79  F   UNL A   1      37.650  30.743  33.505  1.00  0.00    -0.206 F 
ATOM     80  C   UNL A   1      35.611  33.739  33.580  1.00  0.00     0.006 A 
ENDBRANCH  52  73
BRANCH  64  81
ATOM     81  C   UNL A   1      43.207  27.687  33.988  1.00  0.00     0.057 A 
ATOM     82  C   UNL A   1      44.585  27.528  34.157  1.00  0.00     0.134 A 
ATOM     83  C   UNL A   1      42.411  26.617  34.450  1.00  0.00     0.134 A 
ATOM     84  F   UNL A   1      45.450  28.421  33.652  1.00  0.00    -0.206 F 
ATOM     85  C   UNL A   1      45.126  26.438  34.842  1.00  0.00     0.040 A 
ATOM     86  C   UNL A   1      42.944  25.488  35.066  1.00  0.00     0.040 A 
ATOM     87  F   UNL A   1      41.073  26.622  34.365  1.00  0.00    -0.206 F 
ATOM     88  C   UNL A   1      44.305  25.412  35.298  1.00  0.00     0.006 A 
ENDBRANCH  64  81
ENDBRANCH  38  39
ENDBRANCH  31  33
ENDBRANCH  30  31
ENDBRANCH  29  30
ENDBRANCH  28  29
ENDBRANCH  27  28
ENDBRANCH  26  27
ENDBRANCH  25  26
ENDBRANCH  24  25
ENDBRANCH   1  24
TORSDOF 23
ENDMDL
MODEL 3
REMARK VINA RESULT:      -9.4      1.533      2.087
REMARK SMILES Cc1c(F)cc(C(=O)OCCOCCOCCOCCOC(=O)c2ccc(-c3c4nc(c(-c5c(F)cccc5F)c5ccc([nH]5)c(-c5c(F)cccc5F)c5nc(c(-c6c(F)cccc6F)c6ccc3[nH]6)C=C5)C=C4)cc2)cc1S(=O)(=O)NC#N
REMARK SMILES IDX 14 1 13 2 12 3 11 4 10 5 9 6 7 7 8 8 6 9 1 10 2 11 3 12
REMARK SMILES IDX 79 13 4 14 5 15 78 16 80 17 81 18 82 19 83 20 84 22 85 23
REMARK SMILES IDX 15 24 16 25 17 26 18 27 19 28 20 29 21 30 22 31 23 32 24 33
REMARK SMILES IDX 25 34 77 35 26 36 76 37 27 38 28 39 29 40 70 41 30 42 75 43
REMARK SMILES IDX 69 44 71 45 31 46 74 47 68 48 67 49 32 51 58 52 41 53 57 54
REMARK SMILES IDX 42 55 45 56 56 57 72 58 43 59 44 60 55 62 73 63 46 64 33 65
REMARK SMILES IDX 34 66 39 67 35 68 36 69 38 70 40 71 37 72 59 73 60 74 65 75
REMARK SMILES IDX 61 76 62 77 64 78 66 79 63 80 47 81 48 82 53 83 49 84 50 85
REMARK SMILES IDX 52 86 54 87 51 88
REMARK H PARENT 83 21 71 50 45 61
REMARK Flexibility Score: inf
ROOT
ATOM      1  C   UNL A   1      31.826  32.962  26.958  1.00  0.00     0.188 C 
ENDROOT
BRANCH   1   2
ATOM      2  C   UNL A   1      31.305  31.570  26.535  1.00  0.00     0.188 C 
BRANCH   2   3
ATOM      3  O   UNL A   1      32.301  30.643  26.156  1.00  0.00    -0.376 OA
BRANCH   3   4
ATOM      4  C   UNL A   1      32.908  29.788  27.102  1.00  0.00     0.202 C 
BRANCH   4   5
ATOM      5  C   UNL A   1      32.502  28.312  27.292  1.00  0.00     0.261 C 
BRANCH   5   6
ATOM      6  O   UNL A   1      31.922  27.629  26.171  1.00  0.00    -0.460 OA
BRANCH   6   7
ATOM      7  C   UNL A   1      32.791  27.113  25.274  1.00  0.00     0.338 C 
ATOM      8  O   UNL A   1      33.379  27.724  24.398  1.00  0.00    -0.246 OA
BRANCH   7   9
ATOM      9  C   UNL A   1      33.148  25.730  25.674  1.00  0.00     0.064 A 
ATOM     10  C   UNL A   1      33.696  21.603  26.816  1.00  0.00     0.049 C 
ATOM     11  C   UNL A   1      33.622  23.029  26.369  1.00  0.00     0.005 A 
ATOM     12  C   UNL A   1      32.412  23.681  26.670  1.00  0.00     0.128 A 
ATOM     13  C   UNL A   1      34.636  23.774  25.731  1.00  0.00     0.095 A 
ATOM     14  F   UNL A   1      31.421  23.000  27.267  1.00  0.00    -0.207 F 
ATOM     15  C   UNL A   1      32.175  25.006  26.351  1.00  0.00     0.055 A 
ATOM     16  C   UNL A   1      34.365  25.116  25.344  1.00  0.00     0.038 A 
BRANCH  13  17
ATOM     17  S   UNL A   1      36.186  23.093  25.124  1.00  0.00     0.270 S 
ATOM     18  O   UNL A   1      36.042  22.859  23.706  1.00  0.00    -0.201 OA
ATOM     19  O   UNL A   1      37.219  24.001  25.595  1.00  0.00    -0.201 OA
BRANCH  17  20
ATOM     20  N   UNL A   1      36.634  21.665  25.861  1.00  0.00    -0.215 NA
ATOM     21  H   UNL A   1      36.379  21.497  26.797  1.00  0.00     0.193 HD
BRANCH  20  22
ATOM     22  C   UNL A   1      37.327  20.754  25.194  1.00  0.00     0.191 C 
ATOM     23  N   UNL A   1      37.883  19.880  24.688  1.00  0.00    -0.172 NA
ENDBRANCH  20  22
ENDBRANCH  17  20
ENDBRANCH  13  17
ENDBRANCH   7   9
ENDBRANCH   6   7
ENDBRANCH   5   6
ENDBRANCH   4   5
ENDBRANCH   3   4
ENDBRANCH   2   3
ENDBRANCH   1   2
BRANCH   1  24
ATOM     24  O   UNL A   1      33.073  33.071  27.622  1.00  0.00    -0.377 OA
BRANCH  24  25
ATOM     25  C   UNL A   1      33.543  34.353  28.018  1.00  0.00     0.188 C 
BRANCH  25  26
ATOM     26  C   UNL A   1      33.008  35.096  29.282  1.00  0.00     0.188 C 
BRANCH  26  27
ATOM     27  O   UNL A   1      33.332  34.527  30.535  1.00  0.00    -0.376 OA
BRANCH  27  28
ATOM     28  C   UNL A   1      34.639  34.188  30.960  1.00  0.00     0.202 C 
BRANCH  28  29
ATOM     29  C   UNL A   1      35.098  32.733  31.118  1.00  0.00     0.261 C 
BRANCH  29  30
ATOM     30  O   UNL A   1      34.991  31.972  29.935  1.00  0.00    -0.460 OA
BRANCH  30  31
ATOM     31  C   UNL A   1      36.202  31.727  29.411  1.00  0.00     0.338 C 
ATOM     32  O   UNL A   1      37.138  32.501  29.309  1.00  0.00    -0.246 OA
BRANCH  31  33
ATOM     33  C   UNL A   1      36.242  30.311  29.006  1.00  0.00     0.060 A 
ATOM     34  C   UNL A   1      36.385  29.447  30.112  1.00  0.00     0.016 A 
ATOM     35  C   UNL A   1      36.997  30.201  27.849  1.00  0.00     0.016 A 
ATOM     36  C   UNL A   1      37.608  28.875  30.300  1.00  0.00     0.010 A 
ATOM     37  C   UNL A   1      38.239  29.698  28.054  1.00  0.00     0.010 A 
ATOM     38  C   UNL A   1      38.539  29.147  29.316  1.00  0.00    -0.014 A 
BRANCH  38  39
ATOM     39  C   UNL A   1      39.916  28.812  29.466  1.00  0.00     0.031 A 
ATOM     40  C   UNL A   1      40.220  27.447  29.050  1.00  0.00     0.074 A 
ATOM     41  C   UNL A   1      40.721  29.873  29.679  1.00  0.00     0.049 A 
ATOM     42  N   UNL A   1      41.302  26.834  29.332  1.00  0.00    -0.248 NA
ATOM     43  C   UNL A   1      39.251  26.595  28.343  1.00  0.00     0.031 C 
ATOM     44  C   UNL A   1      42.119  30.060  29.347  1.00  0.00     0.029 A 
ATOM     45  N   UNL A   1      40.401  31.000  30.450  1.00  0.00    -0.354 N 
ATOM     46  C   UNL A   1      41.352  25.755  28.477  1.00  0.00     0.074 A 
ATOM     47  C   UNL A   1      39.998  25.527  28.054  1.00  0.00     0.031 C 
ATOM     48  C   UNL A   1      42.620  31.046  30.116  1.00  0.00     0.029 A 
ATOM     49  C   UNL A   1      41.592  31.413  31.081  1.00  0.00     0.049 A 
ATOM     50  H   UNL A   1      39.515  31.420  30.535  1.00  0.00     0.167 HD
ATOM     51  C   UNL A   1      42.582  25.351  28.066  1.00  0.00     0.037 A 
ATOM     52  C   UNL A   1      41.704  31.245  32.437  1.00  0.00     0.037 A 
ATOM     53  C   UNL A   1      43.595  26.206  28.685  1.00  0.00     0.049 A 
ATOM     54  C   UNL A   1      42.649  30.122  32.818  1.00  0.00     0.074 A 
ATOM     55  C   UNL A   1      44.232  27.372  28.297  1.00  0.00     0.029 A 
ATOM     56  N   UNL A   1      43.742  26.128  30.050  1.00  0.00    -0.354 N 
ATOM     57  N   UNL A   1      43.123  29.244  31.977  1.00  0.00    -0.248 NA
ATOM     58  C   UNL A   1      43.086  29.867  34.189  1.00  0.00     0.031 C 
ATOM     59  C   UNL A   1      44.746  27.998  29.474  1.00  0.00     0.029 A 
ATOM     60  C   UNL A   1      44.410  27.213  30.565  1.00  0.00     0.049 A 
ATOM     61  H   UNL A   1      43.408  25.381  30.596  1.00  0.00     0.167 HD
ATOM     62  C   UNL A   1      43.893  28.333  32.641  1.00  0.00     0.074 A 
ATOM     63  C   UNL A   1      43.805  28.741  34.033  1.00  0.00     0.031 C 
ATOM     64  C   UNL A   1      44.535  27.304  32.009  1.00  0.00     0.037 A 
BRANCH  51  65
ATOM     65  C   UNL A   1      42.905  24.383  26.966  1.00  0.00     0.057 A 
ATOM     66  C   UNL A   1      43.026  23.014  27.278  1.00  0.00     0.134 A 
ATOM     67  C   UNL A   1      43.081  24.690  25.607  1.00  0.00     0.134 A 
ATOM     68  F   UNL A   1      42.843  22.553  28.523  1.00  0.00    -0.206 F 
ATOM     69  C   UNL A   1      43.331  22.037  26.329  1.00  0.00     0.040 A 
ATOM     70  C   UNL A   1      43.410  23.721  24.647  1.00  0.00     0.040 A 
ATOM     71  F   UNL A   1      42.901  25.921  25.120  1.00  0.00    -0.206 F 
ATOM     72  C   UNL A   1      43.533  22.388  25.008  1.00  0.00     0.006 A 
ENDBRANCH  51  65
BRANCH  52  73
ATOM     73  C   UNL A   1      40.414  31.541  33.133  1.00  0.00     0.057 A 
ATOM     74  C   UNL A   1      39.904  32.851  33.044  1.00  0.00     0.134 A 
ATOM     75  C   UNL A   1      39.504  30.519  33.426  1.00  0.00     0.134 A 
ATOM     76  F   UNL A   1      40.727  33.879  32.783  1.00  0.00    -0.206 F 
ATOM     77  C   UNL A   1      38.532  33.106  33.070  1.00  0.00     0.040 A 
ATOM     78  C   UNL A   1      38.128  30.768  33.468  1.00  0.00     0.040 A 
ATOM     79  F   UNL A   1      39.914  29.249  33.541  1.00  0.00    -0.206 F 
ATOM     80  C   UNL A   1      37.638  32.054  33.241  1.00  0.00     0.006 A 
ENDBRANCH  52  73
BRANCH  64  81
ATOM     81  C   UNL A   1      45.324  26.262  32.748  1.00  0.00     0.057 A 
ATOM     82  C   UNL A   1      46.711  26.160  32.620  1.00  0.00     0.134 A 
ATOM     83  C   UNL A   1      44.715  25.274  33.552  1.00  0.00     0.134 A 
ATOM     84  F   UNL A   1      47.389  26.967  31.789  1.00  0.00    -0.206 F 
ATOM     85  C   UNL A   1      47.455  25.217  33.333  1.00  0.00     0.040 A 
ATOM     86  C   UNL A   1      45.437  24.280  34.208  1.00  0.00     0.040 A 
ATOM     87  F   UNL A   1      43.394  25.239  33.778  1.00  0.00    -0.206 F 
ATOM     88  C   UNL A   1      46.818  24.271  34.130  1.00  0.00     0.006 A 
ENDBRANCH  64  81
ENDBRANCH  38  39
ENDBRANCH  31  33
ENDBRANCH  30  31
ENDBRANCH  29  30
ENDBRANCH  28  29
ENDBRANCH  27  28
ENDBRANCH  26  27
ENDBRANCH  25  26
ENDBRANCH  24  25
ENDBRANCH   1  24
TORSDOF 23
ENDMDL
