MODEL 1
REMARK VINA RESULT:     -10.7      0.000      0.000
REMARK SMILES CSc1ncc(Cl)c(C(=O)Nc2ccsc2C(=O)OCCOCCOCCOCCOC(=O)c2ccc(-c3c4nc(c(-c5c(F)cccc5F)c5ccc([nH]5)c(-c5c(F)cccc5F)c5nc(c(-c6c(F)cccc6F)c6ccc3[nH]6)C=C5)C=C4)cc2)n1
REMARK SMILES IDX 24 1 23 2 22 3 21 4 20 5 19 6 17 7 18 8 16 9 12 10 13 11
REMARK SMILES IDX 14 12 15 13 11 14 9 15 10 16 8 18 3 19 4 20 88 21 5 22 6 23
REMARK SMILES IDX 7 24 2 25 1 26 25 27 26 28 27 29 28 30 29 31 30 32 31 33
REMARK SMILES IDX 32 34 33 35 34 36 35 37 87 38 36 39 86 40 37 41 38 42 39 43
REMARK SMILES IDX 80 44 40 45 85 46 79 47 81 48 41 49 84 50 78 51 77 52 42 54
REMARK SMILES IDX 68 55 51 56 67 57 52 58 55 59 66 60 82 61 53 62 54 63 65 65
REMARK SMILES IDX 83 66 56 67 43 68 44 69 49 70 45 71 46 72 48 73 50 74 47 75
REMARK SMILES IDX 69 76 70 77 75 78 71 79 72 80 74 81 76 82 73 83 57 84 58 85
REMARK SMILES IDX 63 86 59 87 60 88 62 89 64 90 61 91
REMARK H PARENT 11 17 81 53 55 64
REMARK Flexibility Score: inf
ROOT
ATOM      1  C   UNL A   1      33.750  34.559  28.893  1.00  0.00     0.188 C 
ENDROOT
BRANCH   1   2
ATOM      2  C   UNL A   1      33.352  33.387  27.980  1.00  0.00     0.188 C 
BRANCH   2   3
ATOM      3  O   UNL A   1      34.279  32.401  27.541  1.00  0.00    -0.376 OA
BRANCH   3   4
ATOM      4  C   UNL A   1      33.987  31.018  27.618  1.00  0.00     0.202 C 
BRANCH   4   5
ATOM      5  C   UNL A   1      32.577  30.526  27.245  1.00  0.00     0.261 C 
BRANCH   5   6
ATOM      6  O   UNL A   1      32.501  29.415  26.337  1.00  0.00    -0.459 OA
BRANCH   6   7
ATOM      7  C   UNL A   1      31.812  28.328  26.792  1.00  0.00     0.350 C 
ATOM      8  O   UNL A   1      31.772  28.000  27.974  1.00  0.00    -0.245 OA
BRANCH   7   9
ATOM      9  C   UNL A   1      31.133  27.639  25.695  1.00  0.00     0.136 A 
ATOM     10  C   UNL A   1      30.664  26.333  25.530  1.00  0.00     0.067 A 
ATOM     11  C   UNL A   1      29.993  26.183  24.275  1.00  0.00     0.039 A 
ATOM     12  C   UNL A   1      30.108  27.289  23.469  1.00  0.00     0.068 A 
ATOM     13  S   UNL A   1      30.903  28.565  24.255  1.00  0.00    -0.135 S 
BRANCH  10  14
ATOM     14  N   UNL A   1      30.829  25.346  26.500  1.00  0.00    -0.319 N 
ATOM     15  C   UNL A   1      31.477  24.125  26.496  1.00  0.00     0.276 C 
ATOM     16  O   UNL A   1      31.338  23.399  27.485  1.00  0.00    -0.267 OA
ATOM     17  H   UNL A   1      30.398  25.562  27.358  1.00  0.00     0.170 HD
BRANCH  15  18
ATOM     18  C   UNL A   1      32.387  23.643  25.413  1.00  0.00     0.151 A 
ATOM     19  C   UNL A   1      32.906  21.832  24.080  1.00  0.00     0.188 A 
ATOM     20  N   UNL A   1      34.003  22.427  23.591  1.00  0.00    -0.230 NA
ATOM     21  N   UNL A   1      32.053  22.410  24.936  1.00  0.00    -0.216 NA
ATOM     22  C   UNL A   1      34.302  23.641  24.092  1.00  0.00     0.137 A 
ATOM     23  C   UNL A   1      33.559  24.285  25.055  1.00  0.00     0.090 A 
ATOM     24  Cl  UNL A   1      34.207  25.712  25.745  1.00  0.00    -0.080 Cl
BRANCH  19  25
ATOM     25  S   UNL A   1      32.639  20.129  23.665  1.00  0.00    -0.090 SA
ATOM     26  C   UNL A   1      32.524  19.440  25.340  1.00  0.00     0.094 C 
ENDBRANCH  19  25
ENDBRANCH  15  18
ENDBRANCH  10  14
ENDBRANCH   7   9
ENDBRANCH   6   7
ENDBRANCH   5   6
ENDBRANCH   4   5
ENDBRANCH   3   4
ENDBRANCH   2   3
ENDBRANCH   1   2
BRANCH   1  27
ATOM     27  O   UNL A   1      32.859  34.833  29.957  1.00  0.00    -0.377 OA
BRANCH  27  28
ATOM     28  C   UNL A   1      33.257  35.889  30.822  1.00  0.00     0.188 C 
BRANCH  28  29
ATOM     29  C   UNL A   1      32.894  35.683  32.299  1.00  0.00     0.188 C 
BRANCH  29  30
ATOM     30  O   UNL A   1      33.945  36.098  33.176  1.00  0.00    -0.376 OA
BRANCH  30  31
ATOM     31  C   UNL A   1      35.168  35.373  33.066  1.00  0.00     0.202 C 
BRANCH  31  32
ATOM     32  C   UNL A   1      35.188  34.055  33.853  1.00  0.00     0.261 C 
BRANCH  32  33
ATOM     33  O   UNL A   1      35.989  33.009  33.275  1.00  0.00    -0.460 OA
BRANCH  33  34
ATOM     34  C   UNL A   1      35.432  32.274  32.290  1.00  0.00     0.338 C 
ATOM     35  O   UNL A   1      34.292  32.348  31.870  1.00  0.00    -0.246 OA
BRANCH  34  36
ATOM     36  C   UNL A   1      36.496  31.471  31.657  1.00  0.00     0.060 A 
ATOM     37  C   UNL A   1      37.523  30.967  32.464  1.00  0.00     0.016 A 
ATOM     38  C   UNL A   1      36.495  31.234  30.280  1.00  0.00     0.016 A 
ATOM     39  C   UNL A   1      38.577  30.257  31.887  1.00  0.00     0.010 A 
ATOM     40  C   UNL A   1      37.559  30.539  29.702  1.00  0.00     0.010 A 
ATOM     41  C   UNL A   1      38.621  30.078  30.498  1.00  0.00    -0.014 A 
BRANCH  41  42
ATOM     42  C   UNL A   1      39.863  29.582  29.858  1.00  0.00     0.031 A 
ATOM     43  C   UNL A   1      41.005  30.546  29.676  1.00  0.00     0.074 A 
ATOM     44  C   UNL A   1      39.986  28.305  29.460  1.00  0.00     0.049 A 
ATOM     45  N   UNL A   1      42.171  30.357  29.114  1.00  0.00    -0.248 NA
ATOM     46  C   UNL A   1      40.803  31.906  30.204  1.00  0.00     0.031 C 
ATOM     47  C   UNL A   1      38.967  27.268  29.609  1.00  0.00     0.029 A 
ATOM     48  N   UNL A   1      41.031  27.667  28.838  1.00  0.00    -0.354 N 
ATOM     49  C   UNL A   1      42.844  31.567  29.229  1.00  0.00     0.074 A 
ATOM     50  C   UNL A   1      41.947  32.494  29.883  1.00  0.00     0.031 C 
ATOM     51  C   UNL A   1      39.435  26.122  29.080  1.00  0.00     0.029 A 
ATOM     52  C   UNL A   1      40.771  26.353  28.535  1.00  0.00     0.049 A 
ATOM     53  H   UNL A   1      41.885  28.109  28.629  1.00  0.00     0.167 HD
ATOM     54  C   UNL A   1      44.102  31.875  28.837  1.00  0.00     0.037 A 
ATOM     55  C   UNL A   1      41.523  25.451  27.875  1.00  0.00     0.037 A 
ATOM     56  C   UNL A   1      44.991  30.965  28.168  1.00  0.00     0.049 A 
ATOM     57  C   UNL A   1      42.886  25.849  27.368  1.00  0.00     0.074 A 
ATOM     58  C   UNL A   1      46.277  31.193  27.713  1.00  0.00     0.029 A 
ATOM     59  N   UNL A   1      44.680  29.651  27.857  1.00  0.00    -0.354 N 
ATOM     60  N   UNL A   1      43.520  26.989  27.498  1.00  0.00    -0.248 NA
ATOM     61  C   UNL A   1      43.639  24.829  26.620  1.00  0.00     0.031 C 
ATOM     62  C   UNL A   1      46.736  30.024  27.097  1.00  0.00     0.029 A 
ATOM     63  C   UNL A   1      45.748  29.058  27.204  1.00  0.00     0.049 A 
ATOM     64  H   UNL A   1      43.829  29.206  28.068  1.00  0.00     0.167 HD
ATOM     65  C   UNL A   1      44.753  26.813  26.883  1.00  0.00     0.074 A 
ATOM     66  C   UNL A   1      44.784  25.454  26.387  1.00  0.00     0.031 C 
ATOM     67  C   UNL A   1      45.771  27.696  26.740  1.00  0.00     0.037 A 
BRANCH  54  68
ATOM     68  C   UNL A   1      44.588  33.265  29.118  1.00  0.00     0.057 A 
ATOM     69  C   UNL A   1      45.189  33.594  30.340  1.00  0.00     0.134 A 
ATOM     70  C   UNL A   1      44.487  34.271  28.152  1.00  0.00     0.134 A 
ATOM     71  F   UNL A   1      45.299  32.677  31.314  1.00  0.00    -0.206 F 
ATOM     72  C   UNL A   1      45.665  34.881  30.593  1.00  0.00     0.040 A 
ATOM     73  C   UNL A   1      44.977  35.556  28.385  1.00  0.00     0.040 A 
ATOM     74  F   UNL A   1      43.919  34.018  26.961  1.00  0.00    -0.206 F 
ATOM     75  C   UNL A   1      45.566  35.864  29.610  1.00  0.00     0.006 A 
ENDBRANCH  54  68
BRANCH  55  76
ATOM     76  C   UNL A   1      41.013  24.078  27.629  1.00  0.00     0.057 A 
ATOM     77  C   UNL A   1      41.552  22.973  28.300  1.00  0.00     0.134 A 
ATOM     78  C   UNL A   1      40.022  23.831  26.671  1.00  0.00     0.134 A 
ATOM     79  F   UNL A   1      42.525  23.144  29.207  1.00  0.00    -0.206 F 
ATOM     80  C   UNL A   1      41.145  21.670  28.007  1.00  0.00     0.040 A 
ATOM     81  C   UNL A   1      39.587  22.535  26.388  1.00  0.00     0.040 A 
ATOM     82  F   UNL A   1      39.471  24.845  25.990  1.00  0.00    -0.206 F 
ATOM     83  C   UNL A   1      40.158  21.449  27.049  1.00  0.00     0.006 A 
ENDBRANCH  55  76
BRANCH  67  84
ATOM     84  C   UNL A   1      47.020  27.209  26.067  1.00  0.00     0.057 A 
ATOM     85  C   UNL A   1      47.209  27.323  24.684  1.00  0.00     0.134 A 
ATOM     86  C   UNL A   1      48.062  26.656  26.821  1.00  0.00     0.134 A 
ATOM     87  F   UNL A   1      46.242  27.833  23.906  1.00  0.00    -0.206 F 
ATOM     88  C   UNL A   1      48.385  26.886  24.072  1.00  0.00     0.040 A 
ATOM     89  C   UNL A   1      49.252  26.238  26.223  1.00  0.00     0.040 A 
ATOM     90  F   UNL A   1      47.948  26.528  28.152  1.00  0.00    -0.206 F 
ATOM     91  C   UNL A   1      49.413  26.348  24.844  1.00  0.00     0.006 A 
ENDBRANCH  67  84
ENDBRANCH  41  42
ENDBRANCH  34  36
ENDBRANCH  33  34
ENDBRANCH  32  33
ENDBRANCH  31  32
ENDBRANCH  30  31
ENDBRANCH  29  30
ENDBRANCH  28  29
ENDBRANCH  27  28
ENDBRANCH   1  27
TORSDOF 23
ENDMDL
MODEL 2
REMARK VINA RESULT:      -9.5      0.769      5.951
REMARK SMILES CSc1ncc(Cl)c(C(=O)Nc2ccsc2C(=O)OCCOCCOCCOCCOC(=O)c2ccc(-c3c4nc(c(-c5c(F)cccc5F)c5ccc([nH]5)c(-c5c(F)cccc5F)c5nc(c(-c6c(F)cccc6F)c6ccc3[nH]6)C=C5)C=C4)cc2)n1
REMARK SMILES IDX 24 1 23 2 22 3 21 4 20 5 19 6 17 7 18 8 16 9 12 10 13 11
REMARK SMILES IDX 14 12 15 13 11 14 9 15 10 16 8 18 3 19 4 20 88 21 5 22 6 23
REMARK SMILES IDX 7 24 2 25 1 26 25 27 26 28 27 29 28 30 29 31 30 32 31 33
REMARK SMILES IDX 32 34 33 35 34 36 35 37 87 38 36 39 86 40 37 41 38 42 39 43
REMARK SMILES IDX 80 44 40 45 85 46 79 47 81 48 41 49 84 50 78 51 77 52 42 54
REMARK SMILES IDX 68 55 51 56 67 57 52 58 55 59 66 60 82 61 53 62 54 63 65 65
REMARK SMILES IDX 83 66 56 67 43 68 44 69 49 70 45 71 46 72 48 73 50 74 47 75
REMARK SMILES IDX 69 76 70 77 75 78 71 79 72 80 74 81 76 82 73 83 57 84 58 85
REMARK SMILES IDX 63 86 59 87 60 88 62 89 64 90 61 91
REMARK H PARENT 11 17 81 53 55 64
REMARK Flexibility Score: inf
ROOT
ATOM      1  C   UNL A   1      33.777  34.847  29.031  1.00  0.00     0.188 C 
ENDROOT
BRANCH   1   2
ATOM      2  C   UNL A   1      33.101  33.890  28.036  1.00  0.00     0.188 C 
BRANCH   2   3
ATOM      3  O   UNL A   1      33.820  32.916  27.289  1.00  0.00    -0.376 OA
BRANCH   3   4
ATOM      4  C   UNL A   1      33.812  31.547  27.648  1.00  0.00     0.202 C 
BRANCH   4   5
ATOM      5  C   UNL A   1      32.581  30.689  27.308  1.00  0.00     0.261 C 
BRANCH   5   6
ATOM      6  O   UNL A   1      32.755  29.686  26.293  1.00  0.00    -0.459 OA
BRANCH   6   7
ATOM      7  C   UNL A   1      32.141  28.491  26.533  1.00  0.00     0.350 C 
ATOM      8  O   UNL A   1      32.243  27.880  27.593  1.00  0.00    -0.245 OA
BRANCH   7   9
ATOM      9  C   UNL A   1      31.350  28.066  25.379  1.00  0.00     0.136 A 
ATOM     10  C   UNL A   1      30.634  26.901  25.087  1.00  0.00     0.067 A 
ATOM     11  C   UNL A   1      29.958  27.015  23.830  1.00  0.00     0.039 A 
ATOM     12  C   UNL A   1      30.298  28.153  23.139  1.00  0.00     0.068 A 
ATOM     13  S   UNL A   1      31.321  29.160  24.043  1.00  0.00    -0.135 S 
BRANCH  10  14
ATOM     14  N   UNL A   1      30.590  25.808  25.950  1.00  0.00    -0.319 N 
ATOM     15  C   UNL A   1      31.110  24.529  25.871  1.00  0.00     0.276 C 
ATOM     16  O   UNL A   1      30.790  23.725  26.752  1.00  0.00    -0.267 OA
ATOM     17  H   UNL A   1      30.092  25.981  26.780  1.00  0.00     0.170 HD
BRANCH  15  18
ATOM     18  C   UNL A   1      32.081  24.063  24.835  1.00  0.00     0.151 A 
ATOM     19  C   UNL A   1      32.486  22.425  23.260  1.00  0.00     0.188 A 
ATOM     20  N   UNL A   1      33.729  22.868  23.028  1.00  0.00    -0.230 NA
ATOM     21  N   UNL A   1      31.622  23.010  24.100  1.00  0.00    -0.216 NA
ATOM     22  C   UNL A   1      34.148  23.904  23.779  1.00  0.00     0.137 A 
ATOM     23  C   UNL A   1      33.385  24.515  24.749  1.00  0.00     0.090 A 
ATOM     24  Cl  UNL A   1      34.150  25.661  25.766  1.00  0.00    -0.080 Cl
BRANCH  19  25
ATOM     25  S   UNL A   1      32.003  20.895  22.505  1.00  0.00    -0.090 SA
ATOM     26  C   UNL A   1      32.541  19.750  23.807  1.00  0.00     0.094 C 
ENDBRANCH  19  25
ENDBRANCH  15  18
ENDBRANCH  10  14
ENDBRANCH   7   9
ENDBRANCH   6   7
ENDBRANCH   5   6
ENDBRANCH   4   5
ENDBRANCH   3   4
ENDBRANCH   2   3
ENDBRANCH   1   2
BRANCH   1  27
ATOM     27  O   UNL A   1      33.087  35.047  30.250  1.00  0.00    -0.377 OA
BRANCH  27  28
ATOM     28  C   UNL A   1      33.795  35.796  31.229  1.00  0.00     0.188 C 
BRANCH  28  29
ATOM     29  C   UNL A   1      33.189  35.749  32.639  1.00  0.00     0.188 C 
BRANCH  29  30
ATOM     30  O   UNL A   1      34.184  35.875  33.659  1.00  0.00    -0.376 OA
BRANCH  30  31
ATOM     31  C   UNL A   1      35.278  34.964  33.577  1.00  0.00     0.202 C 
BRANCH  31  32
ATOM     32  C   UNL A   1      34.925  33.526  33.984  1.00  0.00     0.261 C 
BRANCH  32  33
ATOM     33  O   UNL A   1      35.742  32.503  33.387  1.00  0.00    -0.460 OA
BRANCH  33  34
ATOM     34  C   UNL A   1      35.402  32.080  32.151  1.00  0.00     0.338 C 
ATOM     35  O   UNL A   1      34.367  32.308  31.554  1.00  0.00    -0.246 OA
BRANCH  34  36
ATOM     36  C   UNL A   1      36.581  31.431  31.546  1.00  0.00     0.060 A 
ATOM     37  C   UNL A   1      37.554  30.887  32.393  1.00  0.00     0.016 A 
ATOM     38  C   UNL A   1      36.739  31.378  30.158  1.00  0.00     0.016 A 
ATOM     39  C   UNL A   1      38.710  30.323  31.853  1.00  0.00     0.010 A 
ATOM     40  C   UNL A   1      37.905  30.829  29.620  1.00  0.00     0.010 A 
ATOM     41  C   UNL A   1      38.910  30.331  30.466  1.00  0.00    -0.014 A 
BRANCH  41  42
ATOM     42  C   UNL A   1      40.244  29.999  29.912  1.00  0.00     0.031 A 
ATOM     43  C   UNL A   1      40.472  28.606  29.387  1.00  0.00     0.074 A 
ATOM     44  C   UNL A   1      41.229  30.911  29.858  1.00  0.00     0.049 A 
ATOM     45  N   UNL A   1      41.557  28.071  28.890  1.00  0.00    -0.248 NA
ATOM     46  C   UNL A   1      39.315  27.696  29.425  1.00  0.00     0.031 C 
ATOM     47  C   UNL A   1      41.126  32.299  30.303  1.00  0.00     0.029 A 
ATOM     48  N   UNL A   1      42.521  30.795  29.408  1.00  0.00    -0.354 N 
ATOM     49  C   UNL A   1      41.213  26.771  28.549  1.00  0.00     0.074 A 
ATOM     50  C   UNL A   1      39.828  26.583  28.923  1.00  0.00     0.031 C 
ATOM     51  C   UNL A   1      42.313  32.905  30.114  1.00  0.00     0.029 A 
ATOM     52  C   UNL A   1      43.262  31.942  29.560  1.00  0.00     0.049 A 
ATOM     53  H   UNL A   1      42.882  29.969  29.014  1.00  0.00     0.167 HD
ATOM     54  C   UNL A   1      41.977  25.820  27.962  1.00  0.00     0.037 A 
ATOM     55  C   UNL A   1      44.562  32.174  29.298  1.00  0.00     0.037 A 
ATOM     56  C   UNL A   1      43.358  25.994  27.606  1.00  0.00     0.049 A 
ATOM     57  C   UNL A   1      45.415  31.068  28.729  1.00  0.00     0.074 A 
ATOM     58  C   UNL A   1      44.222  25.080  27.027  1.00  0.00     0.029 A 
ATOM     59  N   UNL A   1      44.079  27.161  27.799  1.00  0.00    -0.354 N 
ATOM     60  N   UNL A   1      45.075  29.847  28.392  1.00  0.00    -0.248 NA
ATOM     61  C   UNL A   1      46.836  31.376  28.503  1.00  0.00     0.031 C 
ATOM     62  C   UNL A   1      45.475  25.686  26.898  1.00  0.00     0.029 A 
ATOM     63  C   UNL A   1      45.380  26.988  27.362  1.00  0.00     0.049 A 
ATOM     64  H   UNL A   1      43.718  27.989  28.190  1.00  0.00     0.167 HD
ATOM     65  C   UNL A   1      46.226  29.256  27.886  1.00  0.00     0.074 A 
ATOM     66  C   UNL A   1      47.273  30.253  27.950  1.00  0.00     0.031 C 
ATOM     67  C   UNL A   1      46.403  28.000  27.410  1.00  0.00     0.037 A 
BRANCH  54  68
ATOM     68  C   UNL A   1      41.330  24.499  27.676  1.00  0.00     0.057 A 
ATOM     69  C   UNL A   1      41.625  23.361  28.438  1.00  0.00     0.134 A 
ATOM     70  C   UNL A   1      40.380  24.369  26.656  1.00  0.00     0.134 A 
ATOM     71  F   UNL A   1      42.540  23.418  29.418  1.00  0.00    -0.206 F 
ATOM     72  C   UNL A   1      41.004  22.137  28.189  1.00  0.00     0.040 A 
ATOM     73  C   UNL A   1      39.738  23.156  26.410  1.00  0.00     0.040 A 
ATOM     74  F   UNL A   1      40.055  25.422  25.889  1.00  0.00    -0.206 F 
ATOM     75  C   UNL A   1      40.051  22.034  27.176  1.00  0.00     0.006 A 
ENDBRANCH  54  68
BRANCH  55  76
ATOM     76  C   UNL A   1      45.164  33.502  29.581  1.00  0.00     0.057 A 
ATOM     77  C   UNL A   1      45.199  34.505  28.605  1.00  0.00     0.134 A 
ATOM     78  C   UNL A   1      45.776  33.776  30.810  1.00  0.00     0.134 A 
ATOM     79  F   UNL A   1      44.655  34.290  27.397  1.00  0.00    -0.206 F 
ATOM     80  C   UNL A   1      45.845  35.722  28.830  1.00  0.00     0.040 A 
ATOM     81  C   UNL A   1      46.404  34.999  31.057  1.00  0.00     0.040 A 
ATOM     82  F   UNL A   1      45.784  32.855  31.783  1.00  0.00    -0.206 F 
ATOM     83  C   UNL A   1      46.449  35.972  30.060  1.00  0.00     0.006 A 
ENDBRANCH  55  76
BRANCH  67  84
ATOM     84  C   UNL A   1      47.759  27.649  26.874  1.00  0.00     0.057 A 
ATOM     85  C   UNL A   1      48.094  27.837  25.528  1.00  0.00     0.134 A 
ATOM     86  C   UNL A   1      48.753  27.155  27.728  1.00  0.00     0.134 A 
ATOM     87  F   UNL A   1      47.182  28.295  24.657  1.00  0.00    -0.206 F 
ATOM     88  C   UNL A   1      49.367  27.528  25.045  1.00  0.00     0.040 A 
ATOM     89  C   UNL A   1      50.036  26.865  27.262  1.00  0.00     0.040 A 
ATOM     90  F   UNL A   1      48.499  26.962  29.031  1.00  0.00    -0.206 F 
ATOM     91  C   UNL A   1      50.344  27.046  25.915  1.00  0.00     0.006 A 
ENDBRANCH  67  84
ENDBRANCH  41  42
ENDBRANCH  34  36
ENDBRANCH  33  34
ENDBRANCH  32  33
ENDBRANCH  31  32
ENDBRANCH  30  31
ENDBRANCH  29  30
ENDBRANCH  28  29
ENDBRANCH  27  28
ENDBRANCH   1  27
TORSDOF 23
ENDMDL
MODEL 3
REMARK VINA RESULT:      -9.1      1.873      6.441
REMARK SMILES CSc1ncc(Cl)c(C(=O)Nc2ccsc2C(=O)OCCOCCOCCOCCOC(=O)c2ccc(-c3c4nc(c(-c5c(F)cccc5F)c5ccc([nH]5)c(-c5c(F)cccc5F)c5nc(c(-c6c(F)cccc6F)c6ccc3[nH]6)C=C5)C=C4)cc2)n1
REMARK SMILES IDX 24 1 23 2 22 3 21 4 20 5 19 6 17 7 18 8 16 9 12 10 13 11
REMARK SMILES IDX 14 12 15 13 11 14 9 15 10 16 8 18 3 19 4 20 88 21 5 22 6 23
REMARK SMILES IDX 7 24 2 25 1 26 25 27 26 28 27 29 28 30 29 31 30 32 31 33
REMARK SMILES IDX 32 34 33 35 34 36 35 37 87 38 36 39 86 40 37 41 38 42 39 43
REMARK SMILES IDX 80 44 40 45 85 46 79 47 81 48 41 49 84 50 78 51 77 52 42 54
REMARK SMILES IDX 68 55 51 56 67 57 52 58 55 59 66 60 82 61 53 62 54 63 65 65
REMARK SMILES IDX 83 66 56 67 43 68 44 69 49 70 45 71 46 72 48 73 50 74 47 75
REMARK SMILES IDX 69 76 70 77 75 78 71 79 72 80 74 81 76 82 73 83 57 84 58 85
REMARK SMILES IDX 63 86 59 87 60 88 62 89 64 90 61 91
REMARK H PARENT 11 17 81 53 55 64
REMARK Flexibility Score: inf
ROOT
ATOM      1  C   UNL A   1      34.996  31.676  27.619  1.00  0.00     0.188 C 
ENDROOT
BRANCH   1   2
ATOM      2  C   UNL A   1      34.653  30.233  28.025  1.00  0.00     0.188 C 
BRANCH   2   3
ATOM      3  O   UNL A   1      35.062  29.100  27.269  1.00  0.00    -0.376 OA
BRANCH   3   4
ATOM      4  C   UNL A   1      34.232  28.528  26.276  1.00  0.00     0.202 C 
BRANCH   4   5
ATOM      5  C   UNL A   1      33.612  29.437  25.200  1.00  0.00     0.261 C 
BRANCH   5   6
ATOM      6  O   UNL A   1      32.660  28.827  24.312  1.00  0.00    -0.459 OA
BRANCH   6   7
ATOM      7  C   UNL A   1      31.350  29.115  24.564  1.00  0.00     0.350 C 
ATOM      8  O   UNL A   1      30.951  30.235  24.871  1.00  0.00    -0.245 OA
BRANCH   7   9
ATOM      9  C   UNL A   1      30.511  27.929  24.401  1.00  0.00     0.136 A 
ATOM     10  C   UNL A   1      30.626  26.608  24.844  1.00  0.00     0.067 A 
ATOM     11  C   UNL A   1      29.476  25.840  24.472  1.00  0.00     0.039 A 
ATOM     12  C   UNL A   1      28.621  26.522  23.639  1.00  0.00     0.068 A 
ATOM     13  S   UNL A   1      29.114  28.128  23.404  1.00  0.00    -0.135 S 
BRANCH  10  14
ATOM     14  N   UNL A   1      31.722  26.151  25.572  1.00  0.00    -0.319 N 
ATOM     15  C   UNL A   1      32.566  25.067  25.417  1.00  0.00     0.276 C 
ATOM     16  O   UNL A   1      33.384  24.845  26.313  1.00  0.00    -0.267 OA
ATOM     17  H   UNL A   1      31.938  26.711  26.352  1.00  0.00     0.170 HD
BRANCH  15  18
ATOM     18  C   UNL A   1      32.606  24.180  24.215  1.00  0.00     0.151 A 
ATOM     19  C   UNL A   1      32.538  21.981  23.515  1.00  0.00     0.188 A 
ATOM     20  N   UNL A   1      32.836  22.310  22.250  1.00  0.00    -0.230 NA
ATOM     21  N   UNL A   1      32.364  22.868  24.503  1.00  0.00    -0.216 NA
ATOM     22  C   UNL A   1      33.076  23.612  22.008  1.00  0.00     0.137 A 
ATOM     23  C   UNL A   1      33.032  24.598  22.967  1.00  0.00     0.090 A 
ATOM     24  Cl  UNL A   1      33.589  26.160  22.537  1.00  0.00    -0.080 Cl
BRANCH  19  25
ATOM     25  S   UNL A   1      32.501  20.258  23.931  1.00  0.00    -0.090 SA
ATOM     26  C   UNL A   1      33.682  20.270  25.310  1.00  0.00     0.094 C 
ENDBRANCH  19  25
ENDBRANCH  15  18
ENDBRANCH  10  14
ENDBRANCH   7   9
ENDBRANCH   6   7
ENDBRANCH   5   6
ENDBRANCH   4   5
ENDBRANCH   3   4
ENDBRANCH   2   3
ENDBRANCH   1   2
BRANCH   1  27
ATOM     27  O   UNL A   1      34.060  32.660  28.017  1.00  0.00    -0.377 OA
BRANCH  27  28
ATOM     28  C   UNL A   1      34.623  33.834  28.586  1.00  0.00     0.188 C 
BRANCH  28  29
ATOM     29  C   UNL A   1      34.063  34.214  29.964  1.00  0.00     0.188 C 
BRANCH  29  30
ATOM     30  O   UNL A   1      34.363  33.231  30.959  1.00  0.00    -0.376 OA
BRANCH  30  31
ATOM     31  C   UNL A   1      35.480  33.517  31.799  1.00  0.00     0.202 C 
BRANCH  31  32
ATOM     32  C   UNL A   1      36.635  32.514  31.666  1.00  0.00     0.261 C 
BRANCH  32  33
ATOM     33  O   UNL A   1      36.421  31.458  30.715  1.00  0.00    -0.460 OA
BRANCH  33  34
ATOM     34  C   UNL A   1      36.904  30.236  31.025  1.00  0.00     0.338 C 
ATOM     35  O   UNL A   1      36.285  29.294  31.483  1.00  0.00    -0.246 OA
BRANCH  34  36
ATOM     36  C   UNL A   1      38.296  30.155  30.541  1.00  0.00     0.060 A 
ATOM     37  C   UNL A   1      38.525  30.171  29.159  1.00  0.00     0.016 A 
ATOM     38  C   UNL A   1      39.363  30.042  31.436  1.00  0.00     0.016 A 
ATOM     39  C   UNL A   1      39.824  30.032  28.669  1.00  0.00     0.010 A 
ATOM     40  C   UNL A   1      40.660  29.886  30.943  1.00  0.00     0.010 A 
ATOM     41  C   UNL A   1      40.891  29.845  29.557  1.00  0.00    -0.014 A 
BRANCH  41  42
ATOM     42  C   UNL A   1      42.214  29.416  29.042  1.00  0.00     0.031 A 
ATOM     43  C   UNL A   1      42.386  27.979  28.630  1.00  0.00     0.074 A 
ATOM     44  C   UNL A   1      43.235  30.282  28.924  1.00  0.00     0.049 A 
ATOM     45  N   UNL A   1      43.452  27.363  28.187  1.00  0.00    -0.248 NA
ATOM     46  C   UNL A   1      41.193  27.122  28.730  1.00  0.00     0.031 C 
ATOM     47  C   UNL A   1      43.186  31.703  29.258  1.00  0.00     0.029 A 
ATOM     48  N   UNL A   1      44.523  30.078  28.495  1.00  0.00    -0.354 N 
ATOM     49  C   UNL A   1      43.057  26.054  27.946  1.00  0.00     0.074 A 
ATOM     50  C   UNL A   1      41.664  25.952  28.323  1.00  0.00     0.031 C 
ATOM     51  C   UNL A   1      44.397  32.245  29.031  1.00  0.00     0.029 A 
ATOM     52  C   UNL A   1      45.310  31.203  28.562  1.00  0.00     0.049 A 
ATOM     53  H   UNL A   1      44.853  29.210  28.171  1.00  0.00     0.167 HD
ATOM     54  C   UNL A   1      43.784  25.031  27.442  1.00  0.00     0.037 A 
ATOM     55  C   UNL A   1      46.620  31.362  28.294  1.00  0.00     0.037 A 
ATOM     56  C   UNL A   1      45.173  25.120  27.085  1.00  0.00     0.049 A 
ATOM     57  C   UNL A   1      47.429  30.180  27.821  1.00  0.00     0.074 A 
ATOM     58  C   UNL A   1      46.002  24.129  26.587  1.00  0.00     0.029 A 
ATOM     59  N   UNL A   1      45.940  26.269  27.192  1.00  0.00    -0.354 N 
ATOM     60  N   UNL A   1      47.041  28.952  27.579  1.00  0.00    -0.248 NA
ATOM     61  C   UNL A   1      48.863  30.412  27.583  1.00  0.00     0.031 C 
ATOM     62  C   UNL A   1      47.280  24.672  26.421  1.00  0.00     0.029 A 
ATOM     63  C   UNL A   1      47.235  26.010  26.780  1.00  0.00     0.049 A 
ATOM     64  H   UNL A   1      45.611  27.139  27.513  1.00  0.00     0.167 HD
ATOM     65  C   UNL A   1      48.170  28.277  27.130  1.00  0.00     0.074 A 
ATOM     66  C   UNL A   1      49.256  29.233  27.123  1.00  0.00     0.031 C 
ATOM     67  C   UNL A   1      48.298  26.980  26.756  1.00  0.00     0.037 A 
BRANCH  54  68
ATOM     68  C   UNL A   1      43.085  23.718  27.256  1.00  0.00     0.057 A 
ATOM     69  C   UNL A   1      42.904  22.829  28.324  1.00  0.00     0.134 A 
ATOM     70  C   UNL A   1      42.559  23.354  26.012  1.00  0.00     0.134 A 
ATOM     71  F   UNL A   1      43.402  23.113  29.537  1.00  0.00    -0.206 F 
ATOM     72  C   UNL A   1      42.231  21.619  28.157  1.00  0.00     0.040 A 
ATOM     73  C   UNL A   1      41.866  22.156  25.837  1.00  0.00     0.040 A 
ATOM     74  F   UNL A   1      42.700  24.162  24.949  1.00  0.00    -0.206 F 
ATOM     75  C   UNL A   1      41.703  21.283  26.911  1.00  0.00     0.006 A 
ENDBRANCH  54  68
BRANCH  55  76
ATOM     76  C   UNL A   1      47.274  32.683  28.476  1.00  0.00     0.057 A 
ATOM     77  C   UNL A   1      47.868  33.035  29.694  1.00  0.00     0.134 A 
ATOM     78  C   UNL A   1      47.262  33.646  27.461  1.00  0.00     0.134 A 
ATOM     79  F   UNL A   1      47.884  32.164  30.714  1.00  0.00    -0.206 F 
ATOM     80  C   UNL A   1      48.402  34.308  29.905  1.00  0.00     0.040 A 
ATOM     81  C   UNL A   1      47.815  34.913  27.650  1.00  0.00     0.040 A 
ATOM     82  F   UNL A   1      46.702  33.373  26.274  1.00  0.00    -0.206 F 
ATOM     83  C   UNL A   1      48.378  35.251  28.880  1.00  0.00     0.006 A 
ENDBRANCH  55  76
BRANCH  67  84
ATOM     84  C   UNL A   1      49.641  26.533  26.260  1.00  0.00     0.057 A 
ATOM     85  C   UNL A   1      50.511  25.779  27.058  1.00  0.00     0.134 A 
ATOM     86  C   UNL A   1      50.049  26.828  24.953  1.00  0.00     0.134 A 
ATOM     87  F   UNL A   1      50.183  25.475  28.322  1.00  0.00    -0.206 F 
ATOM     88  C   UNL A   1      51.750  25.350  26.578  1.00  0.00     0.040 A 
ATOM     89  C   UNL A   1      51.274  26.384  24.455  1.00  0.00     0.040 A 
ATOM     90  F   UNL A   1      49.258  27.538  24.136  1.00  0.00    -0.206 F 
ATOM     91  C   UNL A   1      52.131  25.647  25.270  1.00  0.00     0.006 A 
ENDBRANCH  67  84
ENDBRANCH  41  42
ENDBRANCH  34  36
ENDBRANCH  33  34
ENDBRANCH  32  33
ENDBRANCH  31  32
ENDBRANCH  30  31
ENDBRANCH  29  30
ENDBRANCH  28  29
ENDBRANCH  27  28
ENDBRANCH   1  27
TORSDOF 23
ENDMDL
