MODEL 1
REMARK VINA RESULT:     -11.3      0.000      0.000
REMARK SMILES C[C@H]1Oc2ccccc2C=C1/C=C/C(=O)N[C@H](C(=O)OCCOCCOCCOCCOC(=O)c1ccc(-c2c3nc(c(-c4c(F)cccc4F)c4ccc([nH]4)c(-c4c(F)cccc4F)c4nc(c(-c5c(F)cccc5F)c5ccc2[nH]5)C=C4)C=C3)cc1)c1ccccc1
REMARK SMILES IDX 25 1 24 2 23 3 22 4 21 5 20 6 18 7 19 8 17 9 16 10 14 11
REMARK SMILES IDX 15 12 13 14 12 15 11 16 1 17 2 18 3 19 4 20 10 21 5 22 9 23
REMARK SMILES IDX 6 24 8 25 7 26 89 27 90 28 94 29 91 30 93 31 92 32 26 33
REMARK SMILES IDX 27 34 28 35 29 36 30 37 31 38 32 39 33 40 34 41 35 42 36 43
REMARK SMILES IDX 88 44 37 45 87 46 38 47 39 48 40 49 81 50 41 51 86 52 80 53
REMARK SMILES IDX 82 54 42 55 85 56 79 57 78 58 43 60 69 61 52 62 68 63 53 64
REMARK SMILES IDX 56 65 67 66 83 67 54 68 55 69 66 71 84 72 57 73 44 74 45 75
REMARK SMILES IDX 50 76 46 77 47 78 49 79 51 80 48 81 70 82 71 83 76 84 72 85
REMARK SMILES IDX 73 86 75 87 77 88 74 89 58 90 59 91 64 92 60 93 61 94 63 95
REMARK SMILES IDX 65 96 62 97
REMARK H PARENT 16 13 82 59 56 70
REMARK Flexibility Score: inf
ROOT
ATOM      1  C   UNL A   1      34.648  31.571  27.745  1.00  0.00     0.188 C 
ENDROOT
BRANCH   1   2
ATOM      2  C   UNL A   1      33.241  31.189  27.247  1.00  0.00     0.188 C 
BRANCH   2   3
ATOM      3  O   UNL A   1      33.225  30.010  26.449  1.00  0.00    -0.376 OA
BRANCH   3   4
ATOM      4  C   UNL A   1      33.098  28.750  27.098  1.00  0.00     0.202 C 
BRANCH   4   5
ATOM      5  C   UNL A   1      31.918  27.842  26.687  1.00  0.00     0.261 C 
BRANCH   5   6
ATOM      6  O   UNL A   1      31.198  28.247  25.513  1.00  0.00    -0.461 OA
BRANCH   6   7
ATOM      7  C   UNL A   1      31.375  27.457  24.426  1.00  0.00     0.333 C 
ATOM      8  O   UNL A   1      32.481  27.110  24.022  1.00  0.00    -0.249 OA
BRANCH   7   9
ATOM      9  C   UNL A   1      30.022  26.879  23.921  1.00  0.00     0.223 C 
BRANCH   9  10
ATOM     10  N   UNL A   1      29.322  26.131  24.970  1.00  0.00    -0.335 N 
ATOM     11  C   UNL A   1      29.712  25.200  25.876  1.00  0.00     0.244 C 
ATOM     12  O   UNL A   1      29.082  25.038  26.916  1.00  0.00    -0.270 OA
ATOM     13  H   UNL A   1      28.364  26.350  25.030  1.00  0.00     0.165 HD
BRANCH  11  14
ATOM     14  C   UNL A   1      30.759  24.244  25.498  1.00  0.00     0.071 C 
ATOM     15  C   UNL A   1      31.817  23.959  26.269  1.00  0.00     0.013 C 
BRANCH  15  16
ATOM     16  C   UNL A   1      32.929  23.142  25.795  1.00  0.00    -0.007 C 
ATOM     17  C   UNL A   1      31.990  20.853  25.192  1.00  0.00     0.058 C 
ATOM     18  C   UNL A   1      32.877  21.662  26.134  1.00  0.00     0.200 C 
ATOM     19  O   UNL A   1      34.152  21.000  26.233  1.00  0.00    -0.485 OA
ATOM     20  C   UNL A   1      35.159  21.502  25.459  1.00  0.00     0.127 A 
ATOM     21  C   UNL A   1      33.996  23.659  25.165  1.00  0.00     0.019 C 
ATOM     22  C   UNL A   1      36.271  20.678  25.287  1.00  0.00     0.047 A 
ATOM     23  C   UNL A   1      35.127  22.780  24.894  1.00  0.00     0.017 A 
ATOM     24  C   UNL A   1      37.351  21.119  24.524  1.00  0.00     0.004 A 
ATOM     25  C   UNL A   1      36.219  23.223  24.143  1.00  0.00     0.012 A 
ATOM     26  C   UNL A   1      37.324  22.390  23.951  1.00  0.00     0.001 A 
ENDBRANCH  15  16
ENDBRANCH  11  14
ENDBRANCH   9  10
BRANCH   9  27
ATOM     27  C   UNL A   1      29.363  27.963  23.108  1.00  0.00    -0.014 A 
ATOM     28  C   UNL A   1      28.013  28.284  23.275  1.00  0.00     0.006 A 
ATOM     29  C   UNL A   1      30.203  28.855  22.403  1.00  0.00     0.006 A 
ATOM     30  C   UNL A   1      27.518  29.481  22.759  1.00  0.00     0.000 A 
ATOM     31  C   UNL A   1      29.709  30.058  21.912  1.00  0.00     0.000 A 
ATOM     32  C   UNL A   1      28.365  30.371  22.095  1.00  0.00     0.000 A 
ENDBRANCH   9  27
ENDBRANCH   7   9
ENDBRANCH   6   7
ENDBRANCH   5   6
ENDBRANCH   4   5
ENDBRANCH   3   4
ENDBRANCH   2   3
ENDBRANCH   1   2
BRANCH   1  33
ATOM     33  O   UNL A   1      34.864  32.971  27.726  1.00  0.00    -0.377 OA
BRANCH  33  34
ATOM     34  C   UNL A   1      33.804  33.801  28.199  1.00  0.00     0.188 C 
BRANCH  34  35
ATOM     35  C   UNL A   1      33.969  34.690  29.454  1.00  0.00     0.188 C 
BRANCH  35  36
ATOM     36  O   UNL A   1      34.697  34.065  30.508  1.00  0.00    -0.376 OA
BRANCH  36  37
ATOM     37  C   UNL A   1      34.370  34.463  31.833  1.00  0.00     0.202 C 
BRANCH  37  38
ATOM     38  C   UNL A   1      34.303  33.308  32.841  1.00  0.00     0.261 C 
BRANCH  38  39
ATOM     39  O   UNL A   1      35.240  32.240  32.624  1.00  0.00    -0.460 OA
BRANCH  39  40
ATOM     40  C   UNL A   1      36.389  32.242  33.343  1.00  0.00     0.338 C 
ATOM     41  O   UNL A   1      36.522  32.514  34.513  1.00  0.00    -0.246 OA
BRANCH  40  42
ATOM     42  C   UNL A   1      37.437  31.631  32.487  1.00  0.00     0.060 A 
ATOM     43  C   UNL A   1      37.325  31.670  31.095  1.00  0.00     0.016 A 
ATOM     44  C   UNL A   1      38.514  30.971  33.093  1.00  0.00     0.016 A 
ATOM     45  C   UNL A   1      38.315  31.080  30.308  1.00  0.00     0.010 A 
ATOM     46  C   UNL A   1      39.500  30.372  32.303  1.00  0.00     0.010 A 
ATOM     47  C   UNL A   1      39.422  30.450  30.904  1.00  0.00    -0.014 A 
BRANCH  47  48
ATOM     48  C   UNL A   1      40.581  30.070  30.060  1.00  0.00     0.031 A 
ATOM     49  C   UNL A   1      41.691  31.022  29.742  1.00  0.00     0.074 A 
ATOM     50  C   UNL A   1      40.612  28.810  29.586  1.00  0.00     0.049 A 
ATOM     51  N   UNL A   1      42.807  30.791  29.094  1.00  0.00    -0.248 NA
ATOM     52  C   UNL A   1      41.534  32.409  30.198  1.00  0.00     0.031 C 
ATOM     53  C   UNL A   1      39.569  27.806  29.806  1.00  0.00     0.029 A 
ATOM     54  N   UNL A   1      41.551  28.157  28.834  1.00  0.00    -0.354 N 
ATOM     55  C   UNL A   1      43.503  31.992  29.091  1.00  0.00     0.074 A 
ATOM     56  C   UNL A   1      42.656  32.964  29.755  1.00  0.00     0.031 C 
ATOM     57  C   UNL A   1      39.935  26.658  29.218  1.00  0.00     0.029 A 
ATOM     58  C   UNL A   1      41.225  26.851  28.566  1.00  0.00     0.049 A 
ATOM     59  H   UNL A   1      42.380  28.583  28.515  1.00  0.00     0.167 HD
ATOM     60  C   UNL A   1      44.740  32.249  28.596  1.00  0.00     0.037 A 
ATOM     61  C   UNL A   1      41.892  25.911  27.873  1.00  0.00     0.037 A 
ATOM     62  C   UNL A   1      45.565  31.282  27.911  1.00  0.00     0.049 A 
ATOM     63  C   UNL A   1      43.235  26.243  27.290  1.00  0.00     0.074 A 
ATOM     64  C   UNL A   1      46.842  31.445  27.399  1.00  0.00     0.029 A 
ATOM     65  N   UNL A   1      45.190  29.978  27.626  1.00  0.00    -0.354 N 
ATOM     66  N   UNL A   1      43.917  27.360  27.367  1.00  0.00    -0.248 NA
ATOM     67  C   UNL A   1      43.904  25.179  26.530  1.00  0.00     0.031 C 
ATOM     68  C   UNL A   1      47.220  30.255  26.764  1.00  0.00     0.029 A 
ATOM     69  C   UNL A   1      46.198  29.334  26.922  1.00  0.00     0.049 A 
ATOM     70  H   UNL A   1      44.333  29.568  27.885  1.00  0.00     0.167 HD
ATOM     71  C   UNL A   1      45.105  27.124  26.690  1.00  0.00     0.074 A 
ATOM     72  C   UNL A   1      45.060  25.751  26.230  1.00  0.00     0.031 C 
ATOM     73  C   UNL A   1      46.140  27.970  26.465  1.00  0.00     0.037 A 
BRANCH  60  74
ATOM     74  C   UNL A   1      45.292  33.633  28.789  1.00  0.00     0.057 A 
ATOM     75  C   UNL A   1      45.998  33.974  29.949  1.00  0.00     0.134 A 
ATOM     76  C   UNL A   1      45.060  34.648  27.852  1.00  0.00     0.134 A 
ATOM     77  F   UNL A   1      46.243  33.055  30.895  1.00  0.00    -0.206 F 
ATOM     78  C   UNL A   1      46.450  35.277  30.172  1.00  0.00     0.040 A 
ATOM     79  C   UNL A   1      45.527  35.949  28.052  1.00  0.00     0.040 A 
ATOM     80  F   UNL A   1      44.391  34.388  26.719  1.00  0.00    -0.206 F 
ATOM     81  C   UNL A   1      46.218  36.268  29.220  1.00  0.00     0.006 A 
ENDBRANCH  60  74
BRANCH  61  82
ATOM     82  C   UNL A   1      41.311  24.557  27.702  1.00  0.00     0.057 A 
ATOM     83  C   UNL A   1      40.305  24.312  26.760  1.00  0.00     0.134 A 
ATOM     84  C   UNL A   1      41.775  23.469  28.449  1.00  0.00     0.134 A 
ATOM     85  F   UNL A   1      39.810  25.316  26.019  1.00  0.00    -0.206 F 
ATOM     86  C   UNL A   1      39.785  23.033  26.562  1.00  0.00     0.040 A 
ATOM     87  C   UNL A   1      41.285  22.179  28.243  1.00  0.00     0.040 A 
ATOM     88  F   UNL A   1      42.749  23.640  29.356  1.00  0.00    -0.206 F 
ATOM     89  C   UNL A   1      40.286  21.960  27.297  1.00  0.00     0.006 A 
ENDBRANCH  61  82
BRANCH  73  90
ATOM     90  C   UNL A   1      47.312  27.417  25.705  1.00  0.00     0.057 A 
ATOM     91  C   UNL A   1      47.383  27.537  24.311  1.00  0.00     0.134 A 
ATOM     92  C   UNL A   1      48.375  26.772  26.352  1.00  0.00     0.134 A 
ATOM     93  F   UNL A   1      46.397  28.140  23.628  1.00  0.00    -0.206 F 
ATOM     94  C   UNL A   1      48.470  27.042  23.589  1.00  0.00     0.040 A 
ATOM     95  C   UNL A   1      49.482  26.298  25.643  1.00  0.00     0.040 A 
ATOM     96  F   UNL A   1      48.379  26.640  27.686  1.00  0.00    -0.206 F 
ATOM     97  C   UNL A   1      49.528  26.429  24.257  1.00  0.00     0.006 A 
ENDBRANCH  73  90
ENDBRANCH  47  48
ENDBRANCH  40  42
ENDBRANCH  39  40
ENDBRANCH  38  39
ENDBRANCH  37  38
ENDBRANCH  36  37
ENDBRANCH  35  36
ENDBRANCH  34  35
ENDBRANCH  33  34
ENDBRANCH   1  33
TORSDOF 24
ENDMDL
MODEL 2
REMARK VINA RESULT:     -10.6      0.480      5.795
REMARK SMILES C[C@H]1Oc2ccccc2C=C1/C=C/C(=O)N[C@H](C(=O)OCCOCCOCCOCCOC(=O)c1ccc(-c2c3nc(c(-c4c(F)cccc4F)c4ccc([nH]4)c(-c4c(F)cccc4F)c4nc(c(-c5c(F)cccc5F)c5ccc2[nH]5)C=C4)C=C3)cc1)c1ccccc1
REMARK SMILES IDX 25 1 24 2 23 3 22 4 21 5 20 6 18 7 19 8 17 9 16 10 14 11
REMARK SMILES IDX 15 12 13 14 12 15 11 16 1 17 2 18 3 19 4 20 10 21 5 22 9 23
REMARK SMILES IDX 6 24 8 25 7 26 89 27 90 28 94 29 91 30 93 31 92 32 26 33
REMARK SMILES IDX 27 34 28 35 29 36 30 37 31 38 32 39 33 40 34 41 35 42 36 43
REMARK SMILES IDX 88 44 37 45 87 46 38 47 39 48 40 49 81 50 41 51 86 52 80 53
REMARK SMILES IDX 82 54 42 55 85 56 79 57 78 58 43 60 69 61 52 62 68 63 53 64
REMARK SMILES IDX 56 65 67 66 83 67 54 68 55 69 66 71 84 72 57 73 44 74 45 75
REMARK SMILES IDX 50 76 46 77 47 78 49 79 51 80 48 81 70 82 71 83 76 84 72 85
REMARK SMILES IDX 73 86 75 87 77 88 74 89 58 90 59 91 64 92 60 93 61 94 63 95
REMARK SMILES IDX 65 96 62 97
REMARK H PARENT 16 13 82 59 56 70
REMARK Flexibility Score: inf
ROOT
ATOM      1  C   UNL A   1      34.595  31.527  27.988  1.00  0.00     0.188 C 
ENDROOT
BRANCH   1   2
ATOM      2  C   UNL A   1      33.304  31.103  27.264  1.00  0.00     0.188 C 
BRANCH   2   3
ATOM      3  O   UNL A   1      33.433  29.877  26.551  1.00  0.00    -0.376 OA
BRANCH   3   4
ATOM      4  C   UNL A   1      32.874  28.698  27.119  1.00  0.00     0.202 C 
BRANCH   4   5
ATOM      5  C   UNL A   1      31.539  28.179  26.539  1.00  0.00     0.261 C 
BRANCH   5   6
ATOM      6  O   UNL A   1      31.190  28.676  25.237  1.00  0.00    -0.461 OA
BRANCH   6   7
ATOM      7  C   UNL A   1      31.414  27.815  24.213  1.00  0.00     0.333 C 
ATOM      8  O   UNL A   1      32.537  27.462  23.866  1.00  0.00    -0.249 OA
BRANCH   7   9
ATOM      9  C   UNL A   1      30.087  27.178  23.712  1.00  0.00     0.223 C 
BRANCH   9  10
ATOM     10  N   UNL A   1      29.467  26.328  24.734  1.00  0.00    -0.335 N 
ATOM     11  C   UNL A   1      29.944  25.375  25.574  1.00  0.00     0.244 C 
ATOM     12  O   UNL A   1      29.357  25.115  26.619  1.00  0.00    -0.270 OA
ATOM     13  H   UNL A   1      28.500  26.481  24.832  1.00  0.00     0.165 HD
BRANCH  11  14
ATOM     14  C   UNL A   1      31.036  24.512  25.113  1.00  0.00     0.071 C 
ATOM     15  C   UNL A   1      31.593  23.554  25.866  1.00  0.00     0.013 C 
BRANCH  15  16
ATOM     16  C   UNL A   1      32.791  22.832  25.449  1.00  0.00    -0.007 C 
ATOM     17  C   UNL A   1      32.145  20.384  25.172  1.00  0.00     0.058 C 
ATOM     18  C   UNL A   1      32.942  21.413  25.969  1.00  0.00     0.200 C 
ATOM     19  O   UNL A   1      34.295  20.936  26.095  1.00  0.00    -0.485 OA
ATOM     20  C   UNL A   1      35.207  21.459  25.224  1.00  0.00     0.127 A 
ATOM     21  C   UNL A   1      33.763  23.395  24.716  1.00  0.00     0.019 C 
ATOM     22  C   UNL A   1      36.413  20.768  25.106  1.00  0.00     0.047 A 
ATOM     23  C   UNL A   1      34.993  22.641  24.508  1.00  0.00     0.017 A 
ATOM     24  C   UNL A   1      37.405  21.242  24.250  1.00  0.00     0.004 A 
ATOM     25  C   UNL A   1      35.996  23.119  23.662  1.00  0.00     0.012 A 
ATOM     26  C   UNL A   1      37.197  22.416  23.527  1.00  0.00     0.001 A 
ENDBRANCH  15  16
ENDBRANCH  11  14
ENDBRANCH   9  10
BRANCH   9  27
ATOM     27  C   UNL A   1      29.335  28.259  22.979  1.00  0.00    -0.014 A 
ATOM     28  C   UNL A   1      27.964  28.453  23.167  1.00  0.00     0.006 A 
ATOM     29  C   UNL A   1      30.094  29.267  22.342  1.00  0.00     0.006 A 
ATOM     30  C   UNL A   1      27.367  29.638  22.738  1.00  0.00     0.000 A 
ATOM     31  C   UNL A   1      29.498  30.457  21.939  1.00  0.00     0.000 A 
ATOM     32  C   UNL A   1      28.134  30.642  22.143  1.00  0.00     0.000 A 
ENDBRANCH   9  27
ENDBRANCH   7   9
ENDBRANCH   6   7
ENDBRANCH   5   6
ENDBRANCH   4   5
ENDBRANCH   3   4
ENDBRANCH   2   3
ENDBRANCH   1   2
BRANCH   1  33
ATOM     33  O   UNL A   1      35.013  32.831  27.625  1.00  0.00    -0.377 OA
BRANCH  33  34
ATOM     34  C   UNL A   1      34.172  33.917  28.014  1.00  0.00     0.188 C 
BRANCH  34  35
ATOM     35  C   UNL A   1      34.403  34.687  29.335  1.00  0.00     0.188 C 
BRANCH  35  36
ATOM     36  O   UNL A   1      34.781  33.853  30.428  1.00  0.00    -0.376 OA
BRANCH  36  37
ATOM     37  C   UNL A   1      34.196  34.149  31.689  1.00  0.00     0.202 C 
BRANCH  37  38
ATOM     38  C   UNL A   1      34.433  33.078  32.761  1.00  0.00     0.261 C 
BRANCH  38  39
ATOM     39  O   UNL A   1      35.516  32.170  32.503  1.00  0.00    -0.460 OA
BRANCH  39  40
ATOM     40  C   UNL A   1      36.709  32.410  33.099  1.00  0.00     0.338 C 
ATOM     41  O   UNL A   1      36.903  32.950  34.163  1.00  0.00    -0.246 OA
BRANCH  40  42
ATOM     42  C   UNL A   1      37.741  31.690  32.311  1.00  0.00     0.060 A 
ATOM     43  C   UNL A   1      37.705  31.708  30.914  1.00  0.00     0.016 A 
ATOM     44  C   UNL A   1      38.722  30.950  32.984  1.00  0.00     0.016 A 
ATOM     45  C   UNL A   1      38.677  31.015  30.191  1.00  0.00     0.010 A 
ATOM     46  C   UNL A   1      39.689  30.249  32.258  1.00  0.00     0.010 A 
ATOM     47  C   UNL A   1      39.691  30.303  30.856  1.00  0.00    -0.014 A 
BRANCH  47  48
ATOM     48  C   UNL A   1      40.853  29.803  30.082  1.00  0.00     0.031 A 
ATOM     49  C   UNL A   1      40.915  28.413  29.530  1.00  0.00     0.074 A 
ATOM     50  C   UNL A   1      41.871  30.660  29.876  1.00  0.00     0.049 A 
ATOM     51  N   UNL A   1      41.829  27.879  28.758  1.00  0.00    -0.248 NA
ATOM     52  C   UNL A   1      39.821  27.501  29.891  1.00  0.00     0.031 C 
ATOM     53  C   UNL A   1      41.933  32.028  30.394  1.00  0.00     0.029 A 
ATOM     54  N   UNL A   1      43.038  30.514  29.174  1.00  0.00    -0.354 N 
ATOM     55  C   UNL A   1      41.409  26.579  28.510  1.00  0.00     0.074 A 
ATOM     56  C   UNL A   1      40.183  26.389  29.262  1.00  0.00     0.031 C 
ATOM     57  C   UNL A   1      43.070  32.603  29.976  1.00  0.00     0.029 A 
ATOM     58  C   UNL A   1      43.823  31.641  29.180  1.00  0.00     0.049 A 
ATOM     59  H   UNL A   1      43.290  29.683  28.711  1.00  0.00     0.167 HD
ATOM     60  C   UNL A   1      41.985  25.643  27.715  1.00  0.00     0.037 A 
ATOM     61  C   UNL A   1      45.016  31.874  28.605  1.00  0.00     0.037 A 
ATOM     62  C   UNL A   1      43.221  25.830  26.994  1.00  0.00     0.049 A 
ATOM     63  C   UNL A   1      45.655  30.798  27.777  1.00  0.00     0.074 A 
ATOM     64  C   UNL A   1      43.867  24.948  26.143  1.00  0.00     0.029 A 
ATOM     65  N   UNL A   1      44.008  26.971  27.049  1.00  0.00    -0.354 N 
ATOM     66  N   UNL A   1      45.204  29.602  27.484  1.00  0.00    -0.248 NA
ATOM     67  C   UNL A   1      46.966  31.109  27.191  1.00  0.00     0.031 C 
ATOM     68  C   UNL A   1      45.066  25.536  25.721  1.00  0.00     0.029 A 
ATOM     69  C   UNL A   1      45.145  26.805  26.271  1.00  0.00     0.049 A 
ATOM     70  H   UNL A   1      43.792  27.781  27.565  1.00  0.00     0.167 HD
ATOM     71  C   UNL A   1      46.162  29.029  26.659  1.00  0.00     0.074 A 
ATOM     72  C   UNL A   1      47.206  30.018  26.479  1.00  0.00     0.031 C 
ATOM     73  C   UNL A   1      46.179  27.793  26.103  1.00  0.00     0.037 A 
BRANCH  60  74
ATOM     74  C   UNL A   1      41.278  24.326  27.567  1.00  0.00     0.057 A 
ATOM     75  C   UNL A   1      41.764  23.170  28.190  1.00  0.00     0.134 A 
ATOM     76  C   UNL A   1      40.151  24.191  26.746  1.00  0.00     0.134 A 
ATOM     77  F   UNL A   1      42.848  23.224  28.979  1.00  0.00    -0.206 F 
ATOM     78  C   UNL A   1      41.158  21.926  27.998  1.00  0.00     0.040 A 
ATOM     79  C   UNL A   1      39.522  22.957  26.565  1.00  0.00     0.040 A 
ATOM     80  F   UNL A   1      39.634  25.258  26.120  1.00  0.00    -0.206 F 
ATOM     81  C   UNL A   1      40.031  21.819  27.186  1.00  0.00     0.006 A 
ENDBRANCH  60  74
BRANCH  61  82
ATOM     82  C   UNL A   1      45.684  33.187  28.779  1.00  0.00     0.057 A 
ATOM     83  C   UNL A   1      46.692  33.369  29.733  1.00  0.00     0.134 A 
ATOM     84  C   UNL A   1      45.356  34.280  27.968  1.00  0.00     0.134 A 
ATOM     85  F   UNL A   1      47.045  32.362  30.547  1.00  0.00    -0.206 F 
ATOM     86  C   UNL A   1      47.355  34.588  29.871  1.00  0.00     0.040 A 
ATOM     87  C   UNL A   1      46.030  35.497  28.076  1.00  0.00     0.040 A 
ATOM     88  F   UNL A   1      44.409  34.160  27.026  1.00  0.00    -0.206 F 
ATOM     89  C   UNL A   1      47.033  35.652  29.031  1.00  0.00     0.006 A 
ENDBRANCH  61  82
BRANCH  73  90
ATOM     90  C   UNL A   1      47.357  27.459  25.233  1.00  0.00     0.057 A 
ATOM     91  C   UNL A   1      48.466  26.782  25.757  1.00  0.00     0.134 A 
ATOM     92  C   UNL A   1      47.393  27.800  23.874  1.00  0.00     0.134 A 
ATOM     93  F   UNL A   1      48.500  26.430  27.052  1.00  0.00    -0.206 F 
ATOM     94  C   UNL A   1      49.564  26.451  24.962  1.00  0.00     0.040 A 
ATOM     95  C   UNL A   1      48.473  27.449  23.061  1.00  0.00     0.040 A 
ATOM     96  F   UNL A   1      46.356  28.432  23.304  1.00  0.00    -0.206 F 
ATOM     97  C   UNL A   1      49.565  26.776  23.606  1.00  0.00     0.006 A 
ENDBRANCH  73  90
ENDBRANCH  47  48
ENDBRANCH  40  42
ENDBRANCH  39  40
ENDBRANCH  38  39
ENDBRANCH  37  38
ENDBRANCH  36  37
ENDBRANCH  35  36
ENDBRANCH  34  35
ENDBRANCH  33  34
ENDBRANCH   1  33
TORSDOF 24
ENDMDL
MODEL 3
REMARK VINA RESULT:      -9.9      1.475      2.428
REMARK SMILES C[C@H]1Oc2ccccc2C=C1/C=C/C(=O)N[C@H](C(=O)OCCOCCOCCOCCOC(=O)c1ccc(-c2c3nc(c(-c4c(F)cccc4F)c4ccc([nH]4)c(-c4c(F)cccc4F)c4nc(c(-c5c(F)cccc5F)c5ccc2[nH]5)C=C4)C=C3)cc1)c1ccccc1
REMARK SMILES IDX 25 1 24 2 23 3 22 4 21 5 20 6 18 7 19 8 17 9 16 10 14 11
REMARK SMILES IDX 15 12 13 14 12 15 11 16 1 17 2 18 3 19 4 20 10 21 5 22 9 23
REMARK SMILES IDX 6 24 8 25 7 26 89 27 90 28 94 29 91 30 93 31 92 32 26 33
REMARK SMILES IDX 27 34 28 35 29 36 30 37 31 38 32 39 33 40 34 41 35 42 36 43
REMARK SMILES IDX 88 44 37 45 87 46 38 47 39 48 40 49 81 50 41 51 86 52 80 53
REMARK SMILES IDX 82 54 42 55 85 56 79 57 78 58 43 60 69 61 52 62 68 63 53 64
REMARK SMILES IDX 56 65 67 66 83 67 54 68 55 69 66 71 84 72 57 73 44 74 45 75
REMARK SMILES IDX 50 76 46 77 47 78 49 79 51 80 48 81 70 82 71 83 76 84 72 85
REMARK SMILES IDX 73 86 75 87 77 88 74 89 58 90 59 91 64 92 60 93 61 94 63 95
REMARK SMILES IDX 65 96 62 97
REMARK H PARENT 16 13 82 59 56 70
REMARK Flexibility Score: inf
ROOT
ATOM      1  C   UNL A   1      34.909  32.741  28.033  1.00  0.00     0.188 C 
ENDROOT
BRANCH   1   2
ATOM      2  C   UNL A   1      34.689  31.231  28.245  1.00  0.00     0.188 C 
BRANCH   2   3
ATOM      3  O   UNL A   1      33.936  30.618  27.203  1.00  0.00    -0.376 OA
BRANCH   3   4
ATOM      4  C   UNL A   1      34.320  29.323  26.758  1.00  0.00     0.202 C 
BRANCH   4   5
ATOM      5  C   UNL A   1      34.005  28.939  25.295  1.00  0.00     0.261 C 
BRANCH   5   6
ATOM      6  O   UNL A   1      32.902  29.634  24.692  1.00  0.00    -0.461 OA
BRANCH   6   7
ATOM      7  C   UNL A   1      32.239  28.940  23.733  1.00  0.00     0.333 C 
ATOM      8  O   UNL A   1      32.787  28.490  22.731  1.00  0.00    -0.249 OA
BRANCH   7   9
ATOM      9  C   UNL A   1      30.788  28.604  24.181  1.00  0.00     0.223 C 
BRANCH   9  10
ATOM     10  N   UNL A   1      30.716  28.296  25.614  1.00  0.00    -0.335 N 
ATOM     11  C   UNL A   1      31.222  27.302  26.385  1.00  0.00     0.244 C 
ATOM     12  O   UNL A   1      31.404  27.474  27.586  1.00  0.00    -0.270 OA
ATOM     13  H   UNL A   1      30.187  28.951  26.125  1.00  0.00     0.165 HD
BRANCH  11  14
ATOM     14  C   UNL A   1      31.337  25.956  25.812  1.00  0.00     0.071 C 
ATOM     15  C   UNL A   1      32.498  25.297  25.696  1.00  0.00     0.013 C 
BRANCH  15  16
ATOM     16  C   UNL A   1      32.610  24.039  24.965  1.00  0.00    -0.007 C 
ATOM     17  C   UNL A   1      33.923  24.512  22.834  1.00  0.00     0.058 C 
ATOM     18  C   UNL A   1      32.579  24.131  23.448  1.00  0.00     0.200 C 
ATOM     19  O   UNL A   1      32.084  22.965  22.763  1.00  0.00    -0.485 OA
ATOM     20  C   UNL A   1      32.283  21.765  23.384  1.00  0.00     0.127 A 
ATOM     21  C   UNL A   1      32.654  22.844  25.573  1.00  0.00     0.019 C 
ATOM     22  C   UNL A   1      32.126  20.629  22.591  1.00  0.00     0.047 A 
ATOM     23  C   UNL A   1      32.586  21.647  24.744  1.00  0.00     0.017 A 
ATOM     24  C   UNL A   1      32.296  19.363  23.149  1.00  0.00     0.004 A 
ATOM     25  C   UNL A   1      32.741  20.375  25.302  1.00  0.00     0.012 A 
ATOM     26  C   UNL A   1      32.604  19.236  24.503  1.00  0.00     0.001 A 
ENDBRANCH  15  16
ENDBRANCH  11  14
ENDBRANCH   9  10
BRANCH   9  27
ATOM     27  C   UNL A   1      29.883  29.605  23.511  1.00  0.00    -0.014 A 
ATOM     28  C   UNL A   1      29.537  30.808  24.130  1.00  0.00     0.006 A 
ATOM     29  C   UNL A   1      29.646  29.447  22.126  1.00  0.00     0.006 A 
ATOM     30  C   UNL A   1      28.977  31.839  23.377  1.00  0.00     0.000 A 
ATOM     31  C   UNL A   1      29.111  30.488  21.375  1.00  0.00     0.000 A 
ATOM     32  C   UNL A   1      28.781  31.686  22.002  1.00  0.00     0.000 A 
ENDBRANCH   9  27
ENDBRANCH   7   9
ENDBRANCH   6   7
ENDBRANCH   5   6
ENDBRANCH   4   5
ENDBRANCH   3   4
ENDBRANCH   2   3
ENDBRANCH   1   2
BRANCH   1  33
ATOM     33  O   UNL A   1      33.744  33.499  28.306  1.00  0.00    -0.377 OA
BRANCH  33  34
ATOM     34  C   UNL A   1      33.928  34.789  28.889  1.00  0.00     0.188 C 
BRANCH  34  35
ATOM     35  C   UNL A   1      33.664  35.043  30.391  1.00  0.00     0.188 C 
BRANCH  35  36
ATOM     36  O   UNL A   1      34.842  35.018  31.193  1.00  0.00    -0.376 OA
BRANCH  36  37
ATOM     37  C   UNL A   1      34.834  34.144  32.313  1.00  0.00     0.202 C 
BRANCH  37  38
ATOM     38  C   UNL A   1      34.400  32.708  31.991  1.00  0.00     0.261 C 
BRANCH  38  39
ATOM     39  O   UNL A   1      35.460  31.739  31.928  1.00  0.00    -0.460 OA
BRANCH  39  40
ATOM     40  C   UNL A   1      36.490  31.861  32.800  1.00  0.00     0.338 C 
ATOM     41  O   UNL A   1      36.427  31.962  34.003  1.00  0.00    -0.246 OA
BRANCH  40  42
ATOM     42  C   UNL A   1      37.738  31.626  32.030  1.00  0.00     0.060 A 
ATOM     43  C   UNL A   1      38.931  31.322  32.691  1.00  0.00     0.016 A 
ATOM     44  C   UNL A   1      37.716  31.764  30.636  1.00  0.00     0.016 A 
ATOM     45  C   UNL A   1      40.096  31.116  31.950  1.00  0.00     0.010 A 
ATOM     46  C   UNL A   1      38.886  31.566  29.896  1.00  0.00     0.010 A 
ATOM     47  C   UNL A   1      40.077  31.211  30.547  1.00  0.00    -0.014 A 
BRANCH  47  48
ATOM     48  C   UNL A   1      41.247  30.731  29.773  1.00  0.00     0.031 A 
ATOM     49  C   UNL A   1      42.431  31.600  29.482  1.00  0.00     0.074 A 
ATOM     50  C   UNL A   1      41.219  29.458  29.338  1.00  0.00     0.049 A 
ATOM     51  N   UNL A   1      43.559  31.279  28.897  1.00  0.00    -0.248 NA
ATOM     52  C   UNL A   1      42.342  33.008  29.889  1.00  0.00     0.031 C 
ATOM     53  C   UNL A   1      40.104  28.528  29.535  1.00  0.00     0.029 A 
ATOM     54  N   UNL A   1      42.149  28.723  28.652  1.00  0.00    -0.354 N 
ATOM     55  C   UNL A   1      44.331  32.433  28.893  1.00  0.00     0.074 A 
ATOM     56  C   UNL A   1      43.518  33.477  29.486  1.00  0.00     0.031 C 
ATOM     57  C   UNL A   1      40.423  27.341  28.999  1.00  0.00     0.029 A 
ATOM     58  C   UNL A   1      41.752  27.431  28.406  1.00  0.00     0.049 A 
ATOM     59  H   UNL A   1      43.018  29.084  28.362  1.00  0.00     0.167 HD
ATOM     60  C   UNL A   1      45.604  32.595  28.453  1.00  0.00     0.037 A 
ATOM     61  C   UNL A   1      42.389  26.429  27.775  1.00  0.00     0.037 A 
ATOM     62  C   UNL A   1      46.396  31.557  27.838  1.00  0.00     0.049 A 
ATOM     63  C   UNL A   1      43.777  26.657  27.249  1.00  0.00     0.074 A 
ATOM     64  C   UNL A   1      47.703  31.622  27.385  1.00  0.00     0.029 A 
ATOM     65  N   UNL A   1      45.951  30.270  27.573  1.00  0.00    -0.354 N 
ATOM     66  N   UNL A   1      44.525  27.730  27.328  1.00  0.00    -0.248 NA
ATOM     67  C   UNL A   1      44.411  25.529  26.554  1.00  0.00     0.031 C 
ATOM     68  C   UNL A   1      48.034  30.390  26.805  1.00  0.00     0.029 A 
ATOM     69  C   UNL A   1      46.947  29.541  26.939  1.00  0.00     0.049 A 
ATOM     70  H   UNL A   1      45.058  29.924  27.801  1.00  0.00     0.167 HD
ATOM     71  C   UNL A   1      45.727  27.398  26.717  1.00  0.00     0.074 A 
ATOM     72  C   UNL A   1      45.615  26.017  26.295  1.00  0.00     0.031 C 
ATOM     73  C   UNL A   1      46.824  28.169  26.519  1.00  0.00     0.037 A 
BRANCH  60  74
ATOM     74  C   UNL A   1      46.234  33.946  28.633  1.00  0.00     0.057 A 
ATOM     75  C   UNL A   1      46.254  34.879  27.589  1.00  0.00     0.134 A 
ATOM     76  C   UNL A   1      46.885  34.296  29.823  1.00  0.00     0.134 A 
ATOM     77  F   UNL A   1      45.663  34.605  26.416  1.00  0.00    -0.206 F 
ATOM     78  C   UNL A   1      46.904  36.109  27.721  1.00  0.00     0.040 A 
ATOM     79  C   UNL A   1      47.518  35.531  29.975  1.00  0.00     0.040 A 
ATOM     80  F   UNL A   1      46.903  33.448  30.862  1.00  0.00    -0.206 F 
ATOM     81  C   UNL A   1      47.535  36.439  28.918  1.00  0.00     0.006 A 
ENDBRANCH  60  74
BRANCH  61  82
ATOM     82  C   UNL A   1      41.730  25.110  27.614  1.00  0.00     0.057 A 
ATOM     83  C   UNL A   1      42.029  24.040  28.466  1.00  0.00     0.134 A 
ATOM     84  C   UNL A   1      40.759  24.901  26.629  1.00  0.00     0.134 A 
ATOM     85  F   UNL A   1      42.959  24.175  29.424  1.00  0.00    -0.206 F 
ATOM     86  C   UNL A   1      41.380  22.811  28.349  1.00  0.00     0.040 A 
ATOM     87  C   UNL A   1      40.082  23.686  26.518  1.00  0.00     0.040 A 
ATOM     88  F   UNL A   1      40.420  25.894  25.794  1.00  0.00    -0.206 F 
ATOM     89  C   UNL A   1      40.394  22.637  27.381  1.00  0.00     0.006 A 
ENDBRANCH  61  82
BRANCH  73  90
ATOM     90  C   UNL A   1      47.992  27.519  25.834  1.00  0.00     0.057 A 
ATOM     91  C   UNL A   1      49.036  26.956  26.580  1.00  0.00     0.134 A 
ATOM     92  C   UNL A   1      48.082  27.443  24.438  1.00  0.00     0.134 A 
ATOM     93  F   UNL A   1      49.016  26.997  27.921  1.00  0.00    -0.206 F 
ATOM     94  C   UNL A   1      50.123  26.336  25.962  1.00  0.00     0.040 A 
ATOM     95  C   UNL A   1      49.151  26.800  23.809  1.00  0.00     0.040 A 
ATOM     96  F   UNL A   1      47.108  27.946  23.666  1.00  0.00    -0.206 F 
ATOM     97  C   UNL A   1      50.177  26.248  24.572  1.00  0.00     0.006 A 
ENDBRANCH  73  90
ENDBRANCH  47  48
ENDBRANCH  40  42
ENDBRANCH  39  40
ENDBRANCH  38  39
ENDBRANCH  37  38
ENDBRANCH  36  37
ENDBRANCH  35  36
ENDBRANCH  34  35
ENDBRANCH  33  34
ENDBRANCH   1  33
TORSDOF 24
ENDMDL
