MODEL 1
REMARK VINA RESULT:     -10.8      0.000      0.000
REMARK SMILES C[C@@H](C(=O)OCCOCCOCCOCCOC(=O)c1ccc(-c2c3nc(c(-c4c(F)cccc4F)c4ccc([nH]4)c(-c4c(F)cccc4F)c4nc(c(-c5c(F)cccc5F)c5ccc2[nH]5)C=C4)C=C3)cc1)c1ccc(C[C@H]2CCC[C@@H]2O)cc1F
REMARK SMILES IDX 10 1 9 2 8 3 7 4 6 5 5 6 3 7 4 8 2 9 1 10 74 11 75 12 86 13
REMARK SMILES IDX 76 14 85 15 87 16 77 17 78 18 79 19 80 20 83 21 81 22 82 23
REMARK SMILES IDX 84 24 11 26 12 27 13 28 14 29 15 30 16 31 17 32 18 33 19 34
REMARK SMILES IDX 20 35 21 36 73 37 22 38 72 39 23 40 24 41 25 42 66 43 26 44
REMARK SMILES IDX 71 45 65 46 67 47 27 48 70 49 64 50 63 51 28 53 54 54 37 55
REMARK SMILES IDX 53 56 38 57 41 58 52 59 68 60 39 61 40 62 51 64 69 65 42 66
REMARK SMILES IDX 29 67 30 68 35 69 31 70 32 71 34 72 36 73 33 74 55 75 56 76
REMARK SMILES IDX 61 77 57 78 58 79 60 80 62 81 59 82 43 83 44 84 49 85 45 86
REMARK SMILES IDX 46 87 48 88 50 89 47 90
REMARK H PARENT 84 25 67 52 41 63
REMARK Flexibility Score: inf
ROOT
ATOM      1  C   UNL A   1      41.371  19.629  26.232  1.00  0.00     0.188 C 
ENDROOT
BRANCH   1   2
ATOM      2  C   UNL A   1      40.717  20.956  26.658  1.00  0.00     0.188 C 
BRANCH   2   3
ATOM      3  O   UNL A   1      39.906  21.681  25.746  1.00  0.00    -0.376 OA
BRANCH   3   4
ATOM      4  C   UNL A   1      38.618  22.136  26.133  1.00  0.00     0.202 C 
BRANCH   4   5
ATOM      5  C   UNL A   1      38.205  23.620  26.054  1.00  0.00     0.261 C 
BRANCH   5   6
ATOM      6  O   UNL A   1      36.797  23.918  25.994  1.00  0.00    -0.463 OA
BRANCH   6   7
ATOM      7  C   UNL A   1      36.210  23.797  24.776  1.00  0.00     0.313 C 
ATOM      8  O   UNL A   1      36.829  23.482  23.763  1.00  0.00    -0.252 OA
BRANCH   7   9
ATOM      9  C   UNL A   1      34.684  24.052  24.778  1.00  0.00     0.129 C 
ATOM     10  C   UNL A   1      34.130  25.122  25.731  1.00  0.00     0.025 C 
BRANCH   9  11
ATOM     11  C   UNL A   1      33.942  22.715  24.808  1.00  0.00     0.002 A 
ATOM     12  C   UNL A   1      33.921  21.841  25.907  1.00  0.00     0.008 A 
ATOM     13  C   UNL A   1      33.360  22.263  23.619  1.00  0.00     0.127 A 
ATOM     14  C   UNL A   1      33.392  20.547  25.791  1.00  0.00     0.004 A 
ATOM     15  C   UNL A   1      32.839  20.978  23.494  1.00  0.00     0.043 A 
ATOM     16  F   UNL A   1      33.324  23.069  22.548  1.00  0.00    -0.207 F 
ATOM     17  C   UNL A   1      32.880  20.089  24.572  1.00  0.00    -0.045 A 
BRANCH  17  18
ATOM     18  C   UNL A   1      32.382  18.673  24.408  1.00  0.00     0.041 C 
BRANCH  18  19
ATOM     19  C   UNL A   1      33.141  17.573  25.171  1.00  0.00     0.022 C 
ATOM     20  C   UNL A   1      32.361  16.285  25.481  1.00  0.00     0.007 C 
ATOM     21  C   UNL A   1      34.433  17.080  24.515  1.00  0.00     0.117 C 
ATOM     22  C   UNL A   1      33.387  15.144  25.422  1.00  0.00     0.003 C 
ATOM     23  C   UNL A   1      34.746  15.817  25.304  1.00  0.00     0.032 C 
BRANCH  21  24
ATOM     24  O   UNL A   1      35.473  18.036  24.609  1.00  0.00    -0.393 OA
ATOM     25  H   UNL A   1      35.146  18.825  25.069  1.00  0.00     0.210 HD
ENDBRANCH  21  24
ENDBRANCH  18  19
ENDBRANCH  17  18
ENDBRANCH   9  11
ENDBRANCH   7   9
ENDBRANCH   6   7
ENDBRANCH   5   6
ENDBRANCH   4   5
ENDBRANCH   3   4
ENDBRANCH   2   3
ENDBRANCH   1   2
BRANCH   1  26
ATOM     26  O   UNL A   1      42.476  19.760  25.359  1.00  0.00    -0.377 OA
BRANCH  26  27
ATOM     27  C   UNL A   1      43.492  18.777  25.475  1.00  0.00     0.188 C 
BRANCH  27  28
ATOM     28  C   UNL A   1      44.796  18.990  24.682  1.00  0.00     0.188 C 
BRANCH  28  29
ATOM     29  O   UNL A   1      45.004  20.334  24.264  1.00  0.00    -0.376 OA
BRANCH  29  30
ATOM     30  C   UNL A   1      45.884  21.156  25.015  1.00  0.00     0.202 C 
BRANCH  30  31
ATOM     31  C   UNL A   1      45.865  22.665  24.716  1.00  0.00     0.261 C 
BRANCH  31  32
ATOM     32  O   UNL A   1      44.994  23.467  25.528  1.00  0.00    -0.460 OA
BRANCH  32  33
ATOM     33  C   UNL A   1      43.729  23.655  25.101  1.00  0.00     0.338 C 
ATOM     34  O   UNL A   1      43.136  23.012  24.252  1.00  0.00    -0.246 OA
BRANCH  33  35
ATOM     35  C   UNL A   1      43.097  24.657  25.985  1.00  0.00     0.060 A 
ATOM     36  C   UNL A   1      43.686  25.924  26.099  1.00  0.00     0.016 A 
ATOM     37  C   UNL A   1      41.924  24.358  26.683  1.00  0.00     0.016 A 
ATOM     38  C   UNL A   1      43.124  26.884  26.941  1.00  0.00     0.010 A 
ATOM     39  C   UNL A   1      41.377  25.312  27.547  1.00  0.00     0.010 A 
ATOM     40  C   UNL A   1      41.996  26.566  27.706  1.00  0.00    -0.014 A 
BRANCH  40  41
ATOM     41  C   UNL A   1      41.594  27.454  28.824  1.00  0.00     0.031 A 
ATOM     42  C   UNL A   1      42.375  27.374  30.108  1.00  0.00     0.074 A 
ATOM     43  C   UNL A   1      40.582  28.331  28.701  1.00  0.00     0.049 A 
ATOM     44  N   UNL A   1      42.189  28.006  31.237  1.00  0.00    -0.248 NA
ATOM     45  C   UNL A   1      43.522  26.451  30.115  1.00  0.00     0.031 C 
ATOM     46  C   UNL A   1      39.783  28.539  27.497  1.00  0.00     0.029 A 
ATOM     47  N   UNL A   1      40.051  29.206  29.616  1.00  0.00    -0.354 N 
ATOM     48  C   UNL A   1      43.187  27.551  32.090  1.00  0.00     0.074 A 
ATOM     49  C   UNL A   1      43.956  26.568  31.360  1.00  0.00     0.031 C 
ATOM     50  C   UNL A   1      38.851  29.477  27.750  1.00  0.00     0.029 A 
ATOM     51  C   UNL A   1      38.967  29.905  29.143  1.00  0.00     0.049 A 
ATOM     52  H   UNL A   1      40.412  29.322  30.524  1.00  0.00     0.167 HD
ATOM     53  C   UNL A   1      43.443  27.924  33.366  1.00  0.00     0.037 A 
ATOM     54  C   UNL A   1      38.149  30.771  29.775  1.00  0.00     0.037 A 
ATOM     55  C   UNL A   1      42.674  28.898  34.092  1.00  0.00     0.049 A 
ATOM     56  C   UNL A   1      38.403  31.106  31.222  1.00  0.00     0.074 A 
ATOM     57  C   UNL A   1      42.862  29.358  35.383  1.00  0.00     0.029 A 
ATOM     58  N   UNL A   1      41.560  29.556  33.591  1.00  0.00    -0.354 N 
ATOM     59  N   UNL A   1      39.363  30.690  32.015  1.00  0.00    -0.248 NA
ATOM     60  C   UNL A   1      37.459  32.033  31.865  1.00  0.00     0.031 C 
ATOM     61  C   UNL A   1      41.826  30.246  35.685  1.00  0.00     0.029 A 
ATOM     62  C   UNL A   1      41.032  30.394  34.559  1.00  0.00     0.049 A 
ATOM     63  H   UNL A   1      41.199  29.444  32.682  1.00  0.00     0.167 HD
ATOM     64  C   UNL A   1      39.159  31.330  33.233  1.00  0.00     0.074 A 
ATOM     65  C   UNL A   1      37.991  32.171  33.071  1.00  0.00     0.031 C 
ATOM     66  C   UNL A   1      39.875  31.234  34.380  1.00  0.00     0.037 A 
BRANCH  53  67
ATOM     67  C   UNL A   1      44.584  27.245  34.070  1.00  0.00     0.057 A 
ATOM     68  C   UNL A   1      45.867  27.805  34.121  1.00  0.00     0.134 A 
ATOM     69  C   UNL A   1      44.387  26.023  34.725  1.00  0.00     0.134 A 
ATOM     70  F   UNL A   1      46.128  28.965  33.499  1.00  0.00    -0.206 F 
ATOM     71  C   UNL A   1      46.918  27.163  34.777  1.00  0.00     0.040 A 
ATOM     72  C   UNL A   1      45.421  25.386  35.412  1.00  0.00     0.040 A 
ATOM     73  F   UNL A   1      43.182  25.431  34.718  1.00  0.00    -0.206 F 
ATOM     74  C   UNL A   1      46.694  25.954  35.433  1.00  0.00     0.006 A 
ENDBRANCH  53  67
BRANCH  54  75
ATOM     75  C   UNL A   1      36.998  31.375  29.054  1.00  0.00     0.057 A 
ATOM     76  C   UNL A   1      37.030  32.705  28.616  1.00  0.00     0.134 A 
ATOM     77  C   UNL A   1      35.823  30.650  28.819  1.00  0.00     0.134 A 
ATOM     78  F   UNL A   1      38.116  33.461  28.835  1.00  0.00    -0.206 F 
ATOM     79  C   UNL A   1      35.930  33.297  27.992  1.00  0.00     0.040 A 
ATOM     80  C   UNL A   1      34.727  31.221  28.169  1.00  0.00     0.040 A 
ATOM     81  F   UNL A   1      35.724  29.372  29.215  1.00  0.00    -0.206 F 
ATOM     82  C   UNL A   1      34.776  32.552  27.762  1.00  0.00     0.006 A 
ENDBRANCH  54  75
BRANCH  66  83
ATOM     83  C   UNL A   1      39.450  32.093  35.538  1.00  0.00     0.057 A 
ATOM     84  C   UNL A   1      39.918  33.402  35.708  1.00  0.00     0.134 A 
ATOM     85  C   UNL A   1      38.519  31.616  36.472  1.00  0.00     0.134 A 
ATOM     86  F   UNL A   1      40.816  33.920  34.856  1.00  0.00    -0.206 F 
ATOM     87  C   UNL A   1      39.497  34.195  36.778  1.00  0.00     0.040 A 
ATOM     88  C   UNL A   1      38.067  32.410  37.526  1.00  0.00     0.040 A 
ATOM     89  F   UNL A   1      38.018  30.376  36.363  1.00  0.00    -0.206 F 
ATOM     90  C   UNL A   1      38.563  33.702  37.686  1.00  0.00     0.006 A 
ENDBRANCH  66  83
ENDBRANCH  40  41
ENDBRANCH  33  35
ENDBRANCH  32  33
ENDBRANCH  31  32
ENDBRANCH  30  31
ENDBRANCH  29  30
ENDBRANCH  28  29
ENDBRANCH  27  28
ENDBRANCH  26  27
ENDBRANCH   1  26
TORSDOF 24
ENDMDL
MODEL 2
REMARK VINA RESULT:     -10.4      1.958      3.988
REMARK SMILES C[C@@H](C(=O)OCCOCCOCCOCCOC(=O)c1ccc(-c2c3nc(c(-c4c(F)cccc4F)c4ccc([nH]4)c(-c4c(F)cccc4F)c4nc(c(-c5c(F)cccc5F)c5ccc2[nH]5)C=C4)C=C3)cc1)c1ccc(C[C@H]2CCC[C@@H]2O)cc1F
REMARK SMILES IDX 10 1 9 2 8 3 7 4 6 5 5 6 3 7 4 8 2 9 1 10 74 11 75 12 86 13
REMARK SMILES IDX 76 14 85 15 87 16 77 17 78 18 79 19 80 20 83 21 81 22 82 23
REMARK SMILES IDX 84 24 11 26 12 27 13 28 14 29 15 30 16 31 17 32 18 33 19 34
REMARK SMILES IDX 20 35 21 36 73 37 22 38 72 39 23 40 24 41 25 42 66 43 26 44
REMARK SMILES IDX 71 45 65 46 67 47 27 48 70 49 64 50 63 51 28 53 54 54 37 55
REMARK SMILES IDX 53 56 38 57 41 58 52 59 68 60 39 61 40 62 51 64 69 65 42 66
REMARK SMILES IDX 29 67 30 68 35 69 31 70 32 71 34 72 36 73 33 74 55 75 56 76
REMARK SMILES IDX 61 77 57 78 58 79 60 80 62 81 59 82 43 83 44 84 49 85 45 86
REMARK SMILES IDX 46 87 48 88 50 89 47 90
REMARK H PARENT 84 25 67 52 41 63
REMARK Flexibility Score: inf
ROOT
ATOM      1  C   UNL A   1      41.263  19.627  26.315  1.00  0.00     0.188 C 
ENDROOT
BRANCH   1   2
ATOM      2  C   UNL A   1      40.445  20.893  26.633  1.00  0.00     0.188 C 
BRANCH   2   3
ATOM      3  O   UNL A   1      39.613  21.477  25.643  1.00  0.00    -0.376 OA
BRANCH   3   4
ATOM      4  C   UNL A   1      38.490  20.771  25.138  1.00  0.00     0.202 C 
BRANCH   4   5
ATOM      5  C   UNL A   1      37.089  20.879  25.775  1.00  0.00     0.261 C 
BRANCH   5   6
ATOM      6  O   UNL A   1      36.366  22.111  25.591  1.00  0.00    -0.463 OA
BRANCH   6   7
ATOM      7  C   UNL A   1      35.214  22.030  24.877  1.00  0.00     0.313 C 
ATOM      8  O   UNL A   1      34.243  21.377  25.248  1.00  0.00    -0.252 OA
BRANCH   7   9
ATOM      9  C   UNL A   1      35.215  22.864  23.575  1.00  0.00     0.129 C 
ATOM     10  C   UNL A   1      36.559  23.111  22.873  1.00  0.00     0.025 C 
BRANCH   9  11
ATOM     11  C   UNL A   1      34.347  24.109  23.763  1.00  0.00     0.002 A 
ATOM     12  C   UNL A   1      34.514  25.047  24.795  1.00  0.00     0.008 A 
ATOM     13  C   UNL A   1      33.224  24.254  22.941  1.00  0.00     0.127 A 
ATOM     14  C   UNL A   1      33.559  26.048  25.023  1.00  0.00     0.004 A 
ATOM     15  C   UNL A   1      32.268  25.241  23.166  1.00  0.00     0.043 A 
ATOM     16  F   UNL A   1      33.033  23.405  21.921  1.00  0.00    -0.207 F 
ATOM     17  C   UNL A   1      32.406  26.132  24.234  1.00  0.00    -0.045 A 
BRANCH  17  18
ATOM     18  C   UNL A   1      31.329  27.152  24.518  1.00  0.00     0.041 C 
BRANCH  18  19
ATOM     19  C   UNL A   1      30.607  27.761  23.303  1.00  0.00     0.022 C 
ATOM     20  C   UNL A   1      29.071  27.781  23.353  1.00  0.00     0.007 C 
ATOM     21  C   UNL A   1      30.990  29.201  22.956  1.00  0.00     0.117 C 
ATOM     22  C   UNL A   1      28.639  29.053  22.611  1.00  0.00     0.003 C 
ATOM     23  C   UNL A   1      29.903  29.606  21.969  1.00  0.00     0.032 C 
BRANCH  21  24
ATOM     24  O   UNL A   1      32.282  29.283  22.384  1.00  0.00    -0.393 OA
ATOM     25  H   UNL A   1      32.516  28.428  21.990  1.00  0.00     0.210 HD
ENDBRANCH  21  24
ENDBRANCH  18  19
ENDBRANCH  17  18
ENDBRANCH   9  11
ENDBRANCH   7   9
ENDBRANCH   6   7
ENDBRANCH   5   6
ENDBRANCH   4   5
ENDBRANCH   3   4
ENDBRANCH   2   3
ENDBRANCH   1   2
BRANCH   1  26
ATOM     26  O   UNL A   1      42.391  19.836  25.488  1.00  0.00    -0.377 OA
BRANCH  26  27
ATOM     27  C   UNL A   1      43.351  18.793  25.455  1.00  0.00     0.188 C 
BRANCH  27  28
ATOM     28  C   UNL A   1      44.732  19.102  24.846  1.00  0.00     0.188 C 
BRANCH  28  29
ATOM     29  O   UNL A   1      44.884  20.450  24.415  1.00  0.00    -0.376 OA
BRANCH  29  30
ATOM     30  C   UNL A   1      45.947  21.223  24.950  1.00  0.00     0.202 C 
BRANCH  30  31
ATOM     31  C   UNL A   1      45.925  22.736  24.674  1.00  0.00     0.261 C 
BRANCH  31  32
ATOM     32  O   UNL A   1      45.046  23.523  25.492  1.00  0.00    -0.460 OA
BRANCH  32  33
ATOM     33  C   UNL A   1      43.781  23.706  25.063  1.00  0.00     0.338 C 
ATOM     34  O   UNL A   1      43.194  23.066  24.207  1.00  0.00    -0.246 OA
BRANCH  33  35
ATOM     35  C   UNL A   1      43.141  24.697  25.954  1.00  0.00     0.060 A 
ATOM     36  C   UNL A   1      43.733  25.960  26.094  1.00  0.00     0.016 A 
ATOM     37  C   UNL A   1      41.957  24.393  26.631  1.00  0.00     0.016 A 
ATOM     38  C   UNL A   1      43.163  26.910  26.943  1.00  0.00     0.010 A 
ATOM     39  C   UNL A   1      41.402  25.336  27.501  1.00  0.00     0.010 A 
ATOM     40  C   UNL A   1      42.023  26.584  27.688  1.00  0.00    -0.014 A 
BRANCH  40  41
ATOM     41  C   UNL A   1      41.609  27.458  28.813  1.00  0.00     0.031 A 
ATOM     42  C   UNL A   1      42.380  27.364  30.103  1.00  0.00     0.074 A 
ATOM     43  C   UNL A   1      40.596  28.333  28.693  1.00  0.00     0.049 A 
ATOM     44  N   UNL A   1      42.183  27.981  31.239  1.00  0.00    -0.248 NA
ATOM     45  C   UNL A   1      43.530  26.445  30.108  1.00  0.00     0.031 C 
ATOM     46  C   UNL A   1      39.806  28.554  27.485  1.00  0.00     0.029 A 
ATOM     47  N   UNL A   1      40.054  29.195  29.614  1.00  0.00    -0.354 N 
ATOM     48  C   UNL A   1      43.175  27.518  32.094  1.00  0.00     0.074 A 
ATOM     49  C   UNL A   1      43.953  26.547  31.358  1.00  0.00     0.031 C 
ATOM     50  C   UNL A   1      38.869  29.485  27.742  1.00  0.00     0.029 A 
ATOM     51  C   UNL A   1      38.972  29.896  29.142  1.00  0.00     0.049 A 
ATOM     52  H   UNL A   1      40.407  29.300  30.527  1.00  0.00     0.167 HD
ATOM     53  C   UNL A   1      43.420  27.876  33.377  1.00  0.00     0.037 A 
ATOM     54  C   UNL A   1      38.146  30.752  29.777  1.00  0.00     0.037 A 
ATOM     55  C   UNL A   1      42.641  28.839  34.108  1.00  0.00     0.049 A 
ATOM     56  C   UNL A   1      38.388  31.069  31.231  1.00  0.00     0.074 A 
ATOM     57  C   UNL A   1      42.818  29.282  35.406  1.00  0.00     0.029 A 
ATOM     58  N   UNL A   1      41.530  29.500  33.606  1.00  0.00    -0.354 N 
ATOM     59  N   UNL A   1      39.342  30.646  32.026  1.00  0.00    -0.248 NA
ATOM     60  C   UNL A   1      37.435  31.986  31.877  1.00  0.00     0.031 C 
ATOM     61  C   UNL A   1      41.776  30.163  35.711  1.00  0.00     0.029 A 
ATOM     62  C   UNL A   1      40.991  30.324  34.580  1.00  0.00     0.049 A 
ATOM     63  H   UNL A   1      41.176  29.398  32.693  1.00  0.00     0.167 HD
ATOM     64  C   UNL A   1      39.126  31.271  33.251  1.00  0.00     0.074 A 
ATOM     65  C   UNL A   1      37.957  32.110  33.090  1.00  0.00     0.031 C 
ATOM     66  C   UNL A   1      39.833  31.162  34.402  1.00  0.00     0.037 A 
BRANCH  53  67
ATOM     67  C   UNL A   1      44.556  27.192  34.081  1.00  0.00     0.057 A 
ATOM     68  C   UNL A   1      44.399  25.958  34.725  1.00  0.00     0.134 A 
ATOM     69  C   UNL A   1      45.833  27.767  34.093  1.00  0.00     0.134 A 
ATOM     70  F   UNL A   1      43.198  25.360  34.767  1.00  0.00    -0.206 F 
ATOM     71  C   UNL A   1      45.464  25.333  35.377  1.00  0.00     0.040 A 
ATOM     72  C   UNL A   1      46.913  27.139  34.713  1.00  0.00     0.040 A 
ATOM     73  F   UNL A   1      46.055  28.947  33.493  1.00  0.00    -0.206 F 
ATOM     74  C   UNL A   1      46.728  25.920  35.365  1.00  0.00     0.006 A 
ENDBRANCH  53  67
BRANCH  54  75
ATOM     75  C   UNL A   1      36.999  31.361  29.055  1.00  0.00     0.057 A 
ATOM     76  C   UNL A   1      37.034  32.694  28.626  1.00  0.00     0.134 A 
ATOM     77  C   UNL A   1      35.825  30.638  28.808  1.00  0.00     0.134 A 
ATOM     78  F   UNL A   1      38.119  33.449  28.857  1.00  0.00    -0.206 F 
ATOM     79  C   UNL A   1      35.938  33.292  28.001  1.00  0.00     0.040 A 
ATOM     80  C   UNL A   1      34.733  31.214  28.156  1.00  0.00     0.040 A 
ATOM     81  F   UNL A   1      35.725  29.358  29.194  1.00  0.00    -0.206 F 
ATOM     82  C   UNL A   1      34.785  32.548  27.759  1.00  0.00     0.006 A 
ENDBRANCH  54  75
BRANCH  66  83
ATOM     83  C   UNL A   1      39.395  32.006  35.567  1.00  0.00     0.057 A 
ATOM     84  C   UNL A   1      38.526  31.523  36.554  1.00  0.00     0.134 A 
ATOM     85  C   UNL A   1      39.892  33.307  35.727  1.00  0.00     0.134 A 
ATOM     86  F   UNL A   1      38.007  30.290  36.459  1.00  0.00    -0.206 F 
ATOM     87  C   UNL A   1      38.146  32.313  37.641  1.00  0.00     0.040 A 
ATOM     88  C   UNL A   1      39.544  34.094  36.826  1.00  0.00     0.040 A 
ATOM     89  F   UNL A   1      40.739  33.829  34.827  1.00  0.00    -0.206 F 
ATOM     90  C   UNL A   1      38.662  33.599  37.783  1.00  0.00     0.006 A 
ENDBRANCH  66  83
ENDBRANCH  40  41
ENDBRANCH  33  35
ENDBRANCH  32  33
ENDBRANCH  31  32
ENDBRANCH  30  31
ENDBRANCH  29  30
ENDBRANCH  28  29
ENDBRANCH  27  28
ENDBRANCH  26  27
ENDBRANCH   1  26
TORSDOF 24
ENDMDL
MODEL 3
REMARK VINA RESULT:     -10.3      1.567      3.473
REMARK SMILES C[C@@H](C(=O)OCCOCCOCCOCCOC(=O)c1ccc(-c2c3nc(c(-c4c(F)cccc4F)c4ccc([nH]4)c(-c4c(F)cccc4F)c4nc(c(-c5c(F)cccc5F)c5ccc2[nH]5)C=C4)C=C3)cc1)c1ccc(C[C@H]2CCC[C@@H]2O)cc1F
REMARK SMILES IDX 10 1 9 2 8 3 7 4 6 5 5 6 3 7 4 8 2 9 1 10 74 11 75 12 86 13
REMARK SMILES IDX 76 14 85 15 87 16 77 17 78 18 79 19 80 20 83 21 81 22 82 23
REMARK SMILES IDX 84 24 11 26 12 27 13 28 14 29 15 30 16 31 17 32 18 33 19 34
REMARK SMILES IDX 20 35 21 36 73 37 22 38 72 39 23 40 24 41 25 42 66 43 26 44
REMARK SMILES IDX 71 45 65 46 67 47 27 48 70 49 64 50 63 51 28 53 54 54 37 55
REMARK SMILES IDX 53 56 38 57 41 58 52 59 68 60 39 61 40 62 51 64 69 65 42 66
REMARK SMILES IDX 29 67 30 68 35 69 31 70 32 71 34 72 36 73 33 74 55 75 56 76
REMARK SMILES IDX 61 77 57 78 58 79 60 80 62 81 59 82 43 83 44 84 49 85 45 86
REMARK SMILES IDX 46 87 48 88 50 89 47 90
REMARK H PARENT 84 25 67 52 41 63
REMARK Flexibility Score: inf
ROOT
ATOM      1  C   UNL A   1      40.339  20.390  26.480  1.00  0.00     0.188 C 
ENDROOT
BRANCH   1   2
ATOM      2  C   UNL A   1      39.806  21.833  26.553  1.00  0.00     0.188 C 
BRANCH   2   3
ATOM      3  O   UNL A   1      38.728  22.243  25.726  1.00  0.00    -0.376 OA
BRANCH   3   4
ATOM      4  C   UNL A   1      37.817  21.287  25.205  1.00  0.00     0.202 C 
BRANCH   4   5
ATOM      5  C   UNL A   1      36.363  21.646  24.833  1.00  0.00     0.261 C 
BRANCH   5   6
ATOM      6  O   UNL A   1      35.350  20.650  25.069  1.00  0.00    -0.463 OA
BRANCH   6   7
ATOM      7  C   UNL A   1      34.378  20.982  25.957  1.00  0.00     0.313 C 
ATOM      8  O   UNL A   1      34.601  21.611  26.988  1.00  0.00    -0.252 OA
BRANCH   7   9
ATOM      9  C   UNL A   1      32.958  20.534  25.540  1.00  0.00     0.129 C 
ATOM     10  C   UNL A   1      32.784  19.124  24.957  1.00  0.00     0.025 C 
BRANCH   9  11
ATOM     11  C   UNL A   1      32.283  21.650  24.741  1.00  0.00     0.002 A 
ATOM     12  C   UNL A   1      32.465  21.866  23.366  1.00  0.00     0.008 A 
ATOM     13  C   UNL A   1      31.545  22.606  25.447  1.00  0.00     0.127 A 
ATOM     14  C   UNL A   1      31.977  23.025  22.746  1.00  0.00     0.004 A 
ATOM     15  C   UNL A   1      31.062  23.762  24.840  1.00  0.00     0.043 A 
ATOM     16  F   UNL A   1      31.312  22.432  26.756  1.00  0.00    -0.207 F 
ATOM     17  C   UNL A   1      31.304  24.004  23.484  1.00  0.00    -0.045 A 
BRANCH  17  18
ATOM     18  C   UNL A   1      30.844  25.295  22.849  1.00  0.00     0.041 C 
BRANCH  18  19
ATOM     19  C   UNL A   1      31.738  26.531  23.052  1.00  0.00     0.022 C 
ATOM     20  C   UNL A   1      31.567  27.296  24.374  1.00  0.00     0.007 C 
ATOM     21  C   UNL A   1      33.245  26.284  22.954  1.00  0.00     0.117 C 
ATOM     22  C   UNL A   1      32.957  27.840  24.731  1.00  0.00     0.003 C 
ATOM     23  C   UNL A   1      33.830  27.572  23.514  1.00  0.00     0.032 C 
BRANCH  21  24
ATOM     24  O   UNL A   1      33.658  26.050  21.620  1.00  0.00    -0.393 OA
ATOM     25  H   UNL A   1      32.983  25.527  21.159  1.00  0.00     0.210 HD
ENDBRANCH  21  24
ENDBRANCH  18  19
ENDBRANCH  17  18
ENDBRANCH   9  11
ENDBRANCH   7   9
ENDBRANCH   6   7
ENDBRANCH   5   6
ENDBRANCH   4   5
ENDBRANCH   3   4
ENDBRANCH   2   3
ENDBRANCH   1   2
BRANCH   1  26
ATOM     26  O   UNL A   1      41.078  19.967  27.609  1.00  0.00    -0.377 OA
BRANCH  26  27
ATOM     27  C   UNL A   1      42.235  19.189  27.351  1.00  0.00     0.188 C 
BRANCH  27  28
ATOM     28  C   UNL A   1      42.619  18.932  25.881  1.00  0.00     0.188 C 
BRANCH  28  29
ATOM     29  O   UNL A   1      43.783  19.634  25.458  1.00  0.00    -0.376 OA
BRANCH  29  30
ATOM     30  C   UNL A   1      43.752  21.053  25.428  1.00  0.00     0.202 C 
BRANCH  30  31
ATOM     31  C   UNL A   1      45.071  21.792  25.716  1.00  0.00     0.261 C 
BRANCH  31  32
ATOM     32  O   UNL A   1      44.958  23.091  26.316  1.00  0.00    -0.460 OA
BRANCH  32  33
ATOM     33  C   UNL A   1      44.491  24.100  25.552  1.00  0.00     0.338 C 
ATOM     34  O   UNL A   1      44.537  24.185  24.337  1.00  0.00    -0.246 OA
BRANCH  33  35
ATOM     35  C   UNL A   1      43.720  25.009  26.426  1.00  0.00     0.060 A 
ATOM     36  C   UNL A   1      44.044  26.373  26.435  1.00  0.00     0.016 A 
ATOM     37  C   UNL A   1      42.674  24.526  27.217  1.00  0.00     0.016 A 
ATOM     38  C   UNL A   1      43.347  27.252  27.264  1.00  0.00     0.010 A 
ATOM     39  C   UNL A   1      41.994  25.404  28.067  1.00  0.00     0.010 A 
ATOM     40  C   UNL A   1      42.352  26.763  28.121  1.00  0.00    -0.014 A 
BRANCH  40  41
ATOM     41  C   UNL A   1      41.843  27.623  29.217  1.00  0.00     0.031 A 
ATOM     42  C   UNL A   1      42.548  27.568  30.545  1.00  0.00     0.074 A 
ATOM     43  C   UNL A   1      40.800  28.452  29.038  1.00  0.00     0.049 A 
ATOM     44  N   UNL A   1      42.265  28.181  31.665  1.00  0.00    -0.248 NA
ATOM     45  C   UNL A   1      43.735  26.700  30.617  1.00  0.00     0.031 C 
ATOM     46  C   UNL A   1      40.065  28.633  27.789  1.00  0.00     0.029 A 
ATOM     47  N   UNL A   1      40.173  29.293  29.924  1.00  0.00    -0.354 N 
ATOM     48  C   UNL A   1      43.230  27.766  32.574  1.00  0.00     0.074 A 
ATOM     49  C   UNL A   1      44.087  26.826  31.886  1.00  0.00     0.031 C 
ATOM     50  C   UNL A   1      39.077  29.523  27.991  1.00  0.00     0.029 A 
ATOM     51  C   UNL A   1      39.089  29.945  29.391  1.00  0.00     0.049 A 
ATOM     52  H   UNL A   1      40.473  29.418  30.854  1.00  0.00     0.167 HD
ATOM     53  C   UNL A   1      43.391  28.139  33.866  1.00  0.00     0.037 A 
ATOM     54  C   UNL A   1      38.194  30.766  29.977  1.00  0.00     0.037 A 
ATOM     55  C   UNL A   1      42.534  29.070  34.549  1.00  0.00     0.049 A 
ATOM     56  C   UNL A   1      38.344  31.100  31.439  1.00  0.00     0.074 A 
ATOM     57  C   UNL A   1      42.623  29.527  35.851  1.00  0.00     0.029 A 
ATOM     58  N   UNL A   1      41.423  29.680  33.985  1.00  0.00    -0.354 N 
ATOM     59  N   UNL A   1      39.273  30.722  32.286  1.00  0.00    -0.248 NA
ATOM     60  C   UNL A   1      37.320  31.976  32.029  1.00  0.00     0.031 C 
ATOM     61  C   UNL A   1      41.529  30.363  36.096  1.00  0.00     0.029 A 
ATOM     62  C   UNL A   1      40.798  30.484  34.925  1.00  0.00     0.049 A 
ATOM     63  H   UNL A   1      41.123  29.559  33.055  1.00  0.00     0.167 HD
ATOM     64  C   UNL A   1      38.966  31.342  33.493  1.00  0.00     0.074 A 
ATOM     65  C   UNL A   1      37.772  32.128  33.266  1.00  0.00     0.031 C 
ATOM     66  C   UNL A   1      39.615  31.270  34.681  1.00  0.00     0.037 A 
BRANCH  53  67
ATOM     67  C   UNL A   1      44.518  27.509  34.633  1.00  0.00     0.057 A 
ATOM     68  C   UNL A   1      45.776  28.116  34.743  1.00  0.00     0.134 A 
ATOM     69  C   UNL A   1      44.332  26.286  35.290  1.00  0.00     0.134 A 
ATOM     70  F   UNL A   1      46.026  29.279  34.123  1.00  0.00    -0.206 F 
ATOM     71  C   UNL A   1      46.815  27.518  35.459  1.00  0.00     0.040 A 
ATOM     72  C   UNL A   1      45.353  25.693  36.034  1.00  0.00     0.040 A 
ATOM     73  F   UNL A   1      43.152  25.650  35.227  1.00  0.00    -0.206 F 
ATOM     74  C   UNL A   1      46.602  26.307  36.114  1.00  0.00     0.006 A 
ENDBRANCH  53  67
BRANCH  54  75
ATOM     75  C   UNL A   1      37.061  31.322  29.191  1.00  0.00     0.057 A 
ATOM     76  C   UNL A   1      37.094  32.629  28.691  1.00  0.00     0.134 A 
ATOM     77  C   UNL A   1      35.901  30.572  28.953  1.00  0.00     0.134 A 
ATOM     78  F   UNL A   1      38.164  33.408  28.908  1.00  0.00    -0.206 F 
ATOM     79  C   UNL A   1      36.009  33.179  28.004  1.00  0.00     0.040 A 
ATOM     80  C   UNL A   1      34.822  31.099  28.242  1.00  0.00     0.040 A 
ATOM     81  F   UNL A   1      35.803  29.314  29.406  1.00  0.00    -0.206 F 
ATOM     82  C   UNL A   1      34.871  32.409  27.773  1.00  0.00     0.006 A 
ENDBRANCH  54  75
BRANCH  66  83
ATOM     83  C   UNL A   1      39.081  32.098  35.816  1.00  0.00     0.057 A 
ATOM     84  C   UNL A   1      38.208  31.573  36.777  1.00  0.00     0.134 A 
ATOM     85  C   UNL A   1      39.487  33.431  35.974  1.00  0.00     0.134 A 
ATOM     86  F   UNL A   1      37.772  30.308  36.682  1.00  0.00    -0.206 F 
ATOM     87  C   UNL A   1      37.737  32.351  37.837  1.00  0.00     0.040 A 
ATOM     88  C   UNL A   1      39.049  34.207  37.047  1.00  0.00     0.040 A 
ATOM     89  F   UNL A   1      40.333  33.995  35.098  1.00  0.00    -0.206 F 
ATOM     90  C   UNL A   1      38.164  33.669  37.978  1.00  0.00     0.006 A 
ENDBRANCH  66  83
ENDBRANCH  40  41
ENDBRANCH  33  35
ENDBRANCH  32  33
ENDBRANCH  31  32
ENDBRANCH  30  31
ENDBRANCH  29  30
ENDBRANCH  28  29
ENDBRANCH  27  28
ENDBRANCH  26  27
ENDBRANCH   1  26
TORSDOF 24
ENDMDL
