MODEL 1
REMARK VINA RESULT:     -10.6      0.000      0.000
REMARK SMILES Cc1ccc(-c2noc(CCC(=O)OCCOCCOCCOCCOC(=O)c3ccc(-c4c5nc(c(-c6c(F)cccc6F)c6ccc([nH]6)c(-c6c(F)cccc6F)c6nc(c(-c7c(F)cccc7F)c7ccc4[nH]7)C=C6)C=C5)cc3)n2)cc1C
REMARK SMILES IDX 19 1 18 2 17 3 16 4 15 5 14 6 12 7 13 8 11 9 10 10 9 11 6 12
REMARK SMILES IDX 7 13 83 14 8 15 5 16 1 17 2 18 3 19 85 20 4 21 84 22 86 23
REMARK SMILES IDX 20 24 21 25 22 26 23 27 24 28 25 29 26 30 27 31 28 32 29 33
REMARK SMILES IDX 30 34 82 35 31 36 81 37 32 38 33 39 34 40 75 41 35 42 80 43
REMARK SMILES IDX 74 44 76 45 36 46 79 47 73 48 72 49 37 51 63 52 46 53 62 54
REMARK SMILES IDX 47 55 50 56 61 57 77 58 48 59 49 60 60 62 78 63 51 64 38 65
REMARK SMILES IDX 39 66 44 67 40 68 41 69 43 70 45 71 42 72 64 73 65 74 70 75
REMARK SMILES IDX 66 76 67 77 69 78 71 79 68 80 52 81 53 82 58 83 54 84 55 85
REMARK SMILES IDX 57 86 59 87 56 88
REMARK H PARENT 76 50 50 61
REMARK Flexibility Score: inf
ROOT
ATOM      1  C   UNL A   1      39.945  21.946  26.502  1.00  0.00     0.188 C 
ENDROOT
BRANCH   1   2
ATOM      2  C   UNL A   1      38.579  21.817  25.810  1.00  0.00     0.188 C 
BRANCH   2   3
ATOM      3  O   UNL A   1      38.340  20.541  25.262  1.00  0.00    -0.376 OA
BRANCH   3   4
ATOM      4  C   UNL A   1      37.028  20.171  24.886  1.00  0.00     0.202 C 
BRANCH   4   5
ATOM      5  C   UNL A   1      35.838  21.146  24.931  1.00  0.00     0.261 C 
BRANCH   5   6
ATOM      6  O   UNL A   1      34.527  20.574  25.038  1.00  0.00    -0.463 OA
BRANCH   6   7
ATOM      7  C   UNL A   1      33.485  21.338  24.661  1.00  0.00     0.306 C 
ATOM      8  O   UNL A   1      33.264  21.668  23.499  1.00  0.00    -0.252 OA
BRANCH   7   9
ATOM      9  C   UNL A   1      32.550  21.747  25.779  1.00  0.00     0.132 C 
BRANCH   9  10
ATOM     10  C   UNL A   1      32.646  23.073  26.526  1.00  0.00     0.112 C 
BRANCH  10  11
ATOM     11  C   UNL A   1      31.746  24.170  26.115  1.00  0.00     0.227 A 
ATOM     12  C   UNL A   1      30.653  25.657  25.133  1.00  0.00     0.202 A 
ATOM     13  N   UNL A   1      30.004  25.516  26.296  1.00  0.00    -0.057 NA
ATOM     14  N   UNL A   1      31.740  24.829  24.979  1.00  0.00    -0.191 NA
ATOM     15  O   UNL A   1      30.707  24.498  26.928  1.00  0.00    -0.339 OA
BRANCH  12  16
ATOM     16  C   UNL A   1      30.378  26.710  24.188  1.00  0.00     0.023 A 
ATOM     17  C   UNL A   1      29.499  30.144  21.745  1.00  0.00     0.044 C 
ATOM     18  C   UNL A   1      29.770  28.919  22.572  1.00  0.00    -0.048 A 
ATOM     19  C   UNL A   1      31.102  28.499  22.748  1.00  0.00     0.004 A 
ATOM     20  C   UNL A   1      28.731  28.202  23.194  1.00  0.00    -0.047 A 
ATOM     21  C   UNL A   1      31.408  27.408  23.562  1.00  0.00     0.012 A 
ATOM     22  C   UNL A   1      29.050  27.091  23.983  1.00  0.00     0.015 A 
ATOM     23  C   UNL A   1      27.280  28.580  23.105  1.00  0.00     0.044 C 
ENDBRANCH  12  16
ENDBRANCH  10  11
ENDBRANCH   9  10
ENDBRANCH   7   9
ENDBRANCH   6   7
ENDBRANCH   5   6
ENDBRANCH   4   5
ENDBRANCH   3   4
ENDBRANCH   2   3
ENDBRANCH   1   2
BRANCH   1  24
ATOM     24  O   UNL A   1      40.418  20.901  27.339  1.00  0.00    -0.377 OA
BRANCH  24  25
ATOM     25  C   UNL A   1      41.752  20.413  27.189  1.00  0.00     0.188 C 
BRANCH  25  26
ATOM     26  C   UNL A   1      42.068  19.286  26.181  1.00  0.00     0.188 C 
BRANCH  26  27
ATOM     27  O   UNL A   1      42.876  19.678  25.084  1.00  0.00    -0.376 OA
BRANCH  27  28
ATOM     28  C   UNL A   1      44.049  20.424  25.372  1.00  0.00     0.202 C 
BRANCH  28  29
ATOM     29  C   UNL A   1      44.174  21.818  24.738  1.00  0.00     0.261 C 
BRANCH  29  30
ATOM     30  O   UNL A   1      43.605  22.906  25.486  1.00  0.00    -0.460 OA
BRANCH  30  31
ATOM     31  C   UNL A   1      44.204  24.109  25.404  1.00  0.00     0.338 C 
ATOM     32  O   UNL A   1      45.111  24.439  24.652  1.00  0.00    -0.246 OA
BRANCH  31  33
ATOM     33  C   UNL A   1      43.462  25.042  26.270  1.00  0.00     0.060 A 
ATOM     34  C   UNL A   1      43.857  26.385  26.329  1.00  0.00     0.016 A 
ATOM     35  C   UNL A   1      42.386  24.583  27.032  1.00  0.00     0.016 A 
ATOM     36  C   UNL A   1      43.198  27.266  27.185  1.00  0.00     0.010 A 
ATOM     37  C   UNL A   1      41.739  25.463  27.902  1.00  0.00     0.010 A 
ATOM     38  C   UNL A   1      42.167  26.798  28.010  1.00  0.00    -0.014 A 
BRANCH  38  39
ATOM     39  C   UNL A   1      41.679  27.642  29.126  1.00  0.00     0.031 A 
ATOM     40  C   UNL A   1      42.412  27.585  30.437  1.00  0.00     0.074 A 
ATOM     41  C   UNL A   1      40.624  28.462  28.977  1.00  0.00     0.049 A 
ATOM     42  N   UNL A   1      42.157  28.199  31.564  1.00  0.00    -0.248 NA
ATOM     43  C   UNL A   1      43.592  26.708  30.482  1.00  0.00     0.031 C 
ATOM     44  C   UNL A   1      39.861  28.644  27.745  1.00  0.00     0.029 A 
ATOM     45  N   UNL A   1      40.016  29.295  29.882  1.00  0.00    -0.354 N 
ATOM     46  C   UNL A   1      43.142  27.781  32.450  1.00  0.00     0.074 A 
ATOM     47  C   UNL A   1      43.972  26.829  31.743  1.00  0.00     0.031 C 
ATOM     48  C   UNL A   1      38.882  29.538  27.970  1.00  0.00     0.029 A 
ATOM     49  C   UNL A   1      38.929  29.961  29.369  1.00  0.00     0.049 A 
ATOM     50  H   UNL A   1      40.327  29.405  30.808  1.00  0.00     0.167 HD
ATOM     51  C   UNL A   1      43.346  28.162  33.734  1.00  0.00     0.037 A 
ATOM     52  C   UNL A   1      38.065  30.801  29.972  1.00  0.00     0.037 A 
ATOM     53  C   UNL A   1      42.507  29.093  34.440  1.00  0.00     0.049 A 
ATOM     54  C   UNL A   1      38.247  31.131  31.431  1.00  0.00     0.074 A 
ATOM     55  C   UNL A   1      42.626  29.548  35.742  1.00  0.00     0.029 A 
ATOM     56  N   UNL A   1      41.382  29.704  33.905  1.00  0.00    -0.354 N 
ATOM     57  N   UNL A   1      39.190  30.748  32.258  1.00  0.00    -0.248 NA
ATOM     58  C   UNL A   1      37.241  32.014  32.038  1.00  0.00     0.031 C 
ATOM     59  C   UNL A   1      41.538  30.385  36.014  1.00  0.00     0.029 A 
ATOM     60  C   UNL A   1      40.778  30.506  34.860  1.00  0.00     0.049 A 
ATOM     61  H   UNL A   1      41.060  29.584  32.983  1.00  0.00     0.167 HD
ATOM     62  C   UNL A   1      38.911  31.368  33.471  1.00  0.00     0.074 A 
ATOM     63  C   UNL A   1      37.715  32.159  33.268  1.00  0.00     0.031 C 
ATOM     64  C   UNL A   1      39.588  31.293  34.645  1.00  0.00     0.037 A 
BRANCH  51  65
ATOM     65  C   UNL A   1      44.501  27.529  34.458  1.00  0.00     0.057 A 
ATOM     66  C   UNL A   1      44.350  26.371  35.234  1.00  0.00     0.134 A 
ATOM     67  C   UNL A   1      45.780  28.096  34.393  1.00  0.00     0.134 A 
ATOM     68  F   UNL A   1      43.148  25.784  35.354  1.00  0.00    -0.206 F 
ATOM     69  C   UNL A   1      45.415  25.827  35.954  1.00  0.00     0.040 A 
ATOM     70  C   UNL A   1      46.861  27.541  35.081  1.00  0.00     0.040 A 
ATOM     71  F   UNL A   1      46.001  29.200  33.665  1.00  0.00    -0.206 F 
ATOM     72  C   UNL A   1      46.678  26.412  35.874  1.00  0.00     0.006 A 
ENDBRANCH  51  65
BRANCH  52  73
ATOM     73  C   UNL A   1      36.951  31.400  29.194  1.00  0.00     0.057 A 
ATOM     74  C   UNL A   1      35.808  30.653  28.881  1.00  0.00     0.134 A 
ATOM     75  C   UNL A   1      36.999  32.723  28.737  1.00  0.00     0.134 A 
ATOM     76  F   UNL A   1      35.713  29.372  29.266  1.00  0.00    -0.206 F 
ATOM     77  C   UNL A   1      34.760  31.196  28.136  1.00  0.00     0.040 A 
ATOM     78  C   UNL A   1      35.948  33.286  28.014  1.00  0.00     0.040 A 
ATOM     79  F   UNL A   1      38.067  33.491  28.999  1.00  0.00    -0.206 F 
ATOM     80  C   UNL A   1      34.825  32.520  27.706  1.00  0.00     0.006 A 
ENDBRANCH  52  73
BRANCH  64  81
ATOM     81  C   UNL A   1      39.080  32.122  35.792  1.00  0.00     0.057 A 
ATOM     82  C   UNL A   1      39.444  33.462  35.963  1.00  0.00     0.134 A 
ATOM     83  C   UNL A   1      38.178  31.577  36.716  1.00  0.00     0.134 A 
ATOM     84  F   UNL A   1      40.313  34.044  35.121  1.00  0.00    -0.206 F 
ATOM     85  C   UNL A   1      38.952  34.224  37.026  1.00  0.00     0.040 A 
ATOM     86  C   UNL A   1      37.654  32.337  37.765  1.00  0.00     0.040 A 
ATOM     87  F   UNL A   1      37.776  30.302  36.607  1.00  0.00    -0.206 F 
ATOM     88  C   UNL A   1      38.049  33.663  37.926  1.00  0.00     0.006 A 
ENDBRANCH  64  81
ENDBRANCH  38  39
ENDBRANCH  31  33
ENDBRANCH  30  31
ENDBRANCH  29  30
ENDBRANCH  28  29
ENDBRANCH  27  28
ENDBRANCH  26  27
ENDBRANCH  25  26
ENDBRANCH  24  25
ENDBRANCH   1  24
TORSDOF 23
ENDMDL
MODEL 2
REMARK VINA RESULT:     -10.2      1.107      2.074
REMARK SMILES Cc1ccc(-c2noc(CCC(=O)OCCOCCOCCOCCOC(=O)c3ccc(-c4c5nc(c(-c6c(F)cccc6F)c6ccc([nH]6)c(-c6c(F)cccc6F)c6nc(c(-c7c(F)cccc7F)c7ccc4[nH]7)C=C6)C=C5)cc3)n2)cc1C
REMARK SMILES IDX 19 1 18 2 17 3 16 4 15 5 14 6 12 7 13 8 11 9 10 10 9 11 6 12
REMARK SMILES IDX 7 13 83 14 8 15 5 16 1 17 2 18 3 19 85 20 4 21 84 22 86 23
REMARK SMILES IDX 20 24 21 25 22 26 23 27 24 28 25 29 26 30 27 31 28 32 29 33
REMARK SMILES IDX 30 34 82 35 31 36 81 37 32 38 33 39 34 40 75 41 35 42 80 43
REMARK SMILES IDX 74 44 76 45 36 46 79 47 73 48 72 49 37 51 63 52 46 53 62 54
REMARK SMILES IDX 47 55 50 56 61 57 77 58 48 59 49 60 60 62 78 63 51 64 38 65
REMARK SMILES IDX 39 66 44 67 40 68 41 69 43 70 45 71 42 72 64 73 65 74 70 75
REMARK SMILES IDX 66 76 67 77 69 78 71 79 68 80 52 81 53 82 58 83 54 84 55 85
REMARK SMILES IDX 57 86 59 87 56 88
REMARK H PARENT 76 50 50 61
REMARK Flexibility Score: inf
ROOT
ATOM      1  C   UNL A   1      39.493  21.994  26.355  1.00  0.00     0.188 C 
ENDROOT
BRANCH   1   2
ATOM      2  C   UNL A   1      38.246  21.631  25.534  1.00  0.00     0.188 C 
BRANCH   2   3
ATOM      3  O   UNL A   1      37.383  22.720  25.303  1.00  0.00    -0.376 OA
BRANCH   3   4
ATOM      4  C   UNL A   1      35.986  22.557  25.457  1.00  0.00     0.202 C 
BRANCH   4   5
ATOM      5  C   UNL A   1      35.317  21.179  25.612  1.00  0.00     0.261 C 
BRANCH   5   6
ATOM      6  O   UNL A   1      33.889  21.157  25.747  1.00  0.00    -0.463 OA
BRANCH   6   7
ATOM      7  C   UNL A   1      33.213  20.250  25.018  1.00  0.00     0.306 C 
ATOM      8  O   UNL A   1      33.388  19.038  25.100  1.00  0.00    -0.252 OA
BRANCH   7   9
ATOM      9  C   UNL A   1      32.161  20.824  24.092  1.00  0.00     0.132 C 
BRANCH   9  10
ATOM     10  C   UNL A   1      32.431  21.939  23.087  1.00  0.00     0.112 C 
BRANCH  10  11
ATOM     11  C   UNL A   1      31.863  23.275  23.361  1.00  0.00     0.227 A 
ATOM     12  C   UNL A   1      31.485  25.293  23.754  1.00  0.00     0.202 A 
ATOM     13  N   UNL A   1      30.283  24.818  23.402  1.00  0.00    -0.057 NA
ATOM     14  N   UNL A   1      32.498  24.363  23.732  1.00  0.00    -0.191 NA
ATOM     15  O   UNL A   1      30.546  23.488  23.101  1.00  0.00    -0.339 OA
BRANCH  12  16
ATOM     16  C   UNL A   1      31.694  26.611  24.299  1.00  0.00     0.023 A 
ATOM     17  C   UNL A   1      31.917  30.475  26.183  1.00  0.00     0.044 C 
ATOM     18  C   UNL A   1      31.845  29.149  25.480  1.00  0.00    -0.048 A 
ATOM     19  C   UNL A   1      32.651  28.091  25.940  1.00  0.00     0.004 A 
ATOM     20  C   UNL A   1      30.974  28.934  24.396  1.00  0.00    -0.047 A 
ATOM     21  C   UNL A   1      32.569  26.824  25.361  1.00  0.00     0.012 A 
ATOM     22  C   UNL A   1      30.923  27.666  23.806  1.00  0.00     0.015 A 
ATOM     23  C   UNL A   1      30.044  29.978  23.846  1.00  0.00     0.044 C 
ENDBRANCH  12  16
ENDBRANCH  10  11
ENDBRANCH   9  10
ENDBRANCH   7   9
ENDBRANCH   6   7
ENDBRANCH   5   6
ENDBRANCH   4   5
ENDBRANCH   3   4
ENDBRANCH   2   3
ENDBRANCH   1   2
BRANCH   1  24
ATOM     24  O   UNL A   1      40.273  20.968  26.951  1.00  0.00    -0.377 OA
BRANCH  24  25
ATOM     25  C   UNL A   1      41.697  20.992  26.833  1.00  0.00     0.188 C 
BRANCH  25  26
ATOM     26  C   UNL A   1      42.464  19.755  26.317  1.00  0.00     0.188 C 
BRANCH  26  27
ATOM     27  O   UNL A   1      43.143  19.947  25.088  1.00  0.00    -0.376 OA
BRANCH  27  28
ATOM     28  C   UNL A   1      44.426  20.555  25.140  1.00  0.00     0.202 C 
BRANCH  28  29
ATOM     29  C   UNL A   1      44.530  22.025  24.705  1.00  0.00     0.261 C 
BRANCH  29  30
ATOM     30  O   UNL A   1      44.241  23.006  25.715  1.00  0.00    -0.460 OA
BRANCH  30  31
ATOM     31  C   UNL A   1      44.661  24.268  25.507  1.00  0.00     0.338 C 
ATOM     32  O   UNL A   1      45.456  24.658  24.663  1.00  0.00    -0.246 OA
BRANCH  31  33
ATOM     33  C   UNL A   1      43.864  25.156  26.371  1.00  0.00     0.060 A 
ATOM     34  C   UNL A   1      44.143  26.529  26.388  1.00  0.00     0.016 A 
ATOM     35  C   UNL A   1      42.850  24.627  27.172  1.00  0.00     0.016 A 
ATOM     36  C   UNL A   1      43.432  27.373  27.240  1.00  0.00     0.010 A 
ATOM     37  C   UNL A   1      42.152  25.470  28.038  1.00  0.00     0.010 A 
ATOM     38  C   UNL A   1      42.466  26.840  28.103  1.00  0.00    -0.014 A 
BRANCH  38  39
ATOM     39  C   UNL A   1      41.935  27.667  29.212  1.00  0.00     0.031 A 
ATOM     40  C   UNL A   1      42.652  27.635  30.533  1.00  0.00     0.074 A 
ATOM     41  C   UNL A   1      40.855  28.451  29.049  1.00  0.00     0.049 A 
ATOM     42  N   UNL A   1      42.362  28.242  31.656  1.00  0.00    -0.248 NA
ATOM     43  C   UNL A   1      43.861  26.799  30.594  1.00  0.00     0.031 C 
ATOM     44  C   UNL A   1      40.102  28.606  27.807  1.00  0.00     0.029 A 
ATOM     45  N   UNL A   1      40.207  29.263  29.945  1.00  0.00    -0.354 N 
ATOM     46  C   UNL A   1      43.350  27.857  32.556  1.00  0.00     0.074 A 
ATOM     47  C   UNL A   1      44.220  26.933  31.860  1.00  0.00     0.031 C 
ATOM     48  C   UNL A   1      39.091  29.467  28.019  1.00  0.00     0.029 A 
ATOM     49  C   UNL A   1      39.105  29.891  29.418  1.00  0.00     0.049 A 
ATOM     50  H   UNL A   1      40.502  29.384  30.876  1.00  0.00     0.167 HD
ATOM     51  C   UNL A   1      43.524  28.245  33.841  1.00  0.00     0.037 A 
ATOM     52  C   UNL A   1      38.205  30.701  30.008  1.00  0.00     0.037 A 
ATOM     53  C   UNL A   1      42.645  29.149  34.536  1.00  0.00     0.049 A 
ATOM     54  C   UNL A   1      38.358  31.039  31.470  1.00  0.00     0.074 A 
ATOM     55  C   UNL A   1      42.731  29.608  35.839  1.00  0.00     0.029 A 
ATOM     56  N   UNL A   1      41.507  29.720  33.985  1.00  0.00    -0.354 N 
ATOM     57  N   UNL A   1      39.302  30.689  32.309  1.00  0.00    -0.248 NA
ATOM     58  C   UNL A   1      37.314  31.888  32.063  1.00  0.00     0.031 C 
ATOM     59  C   UNL A   1      41.612  30.407  36.095  1.00  0.00     0.029 A 
ATOM     60  C   UNL A   1      40.863  30.502  34.932  1.00  0.00     0.049 A 
ATOM     61  H   UNL A   1      41.201  29.589  33.059  1.00  0.00     0.167 HD
ATOM     62  C   UNL A   1      38.987  31.299  33.518  1.00  0.00     0.074 A 
ATOM     63  C   UNL A   1      37.767  32.049  33.299  1.00  0.00     0.031 C 
ATOM     64  C   UNL A   1      39.651  31.248  34.701  1.00  0.00     0.037 A 
BRANCH  51  65
ATOM     65  C   UNL A   1      44.690  27.653  34.581  1.00  0.00     0.057 A 
ATOM     66  C   UNL A   1      45.948  28.271  34.606  1.00  0.00     0.134 A 
ATOM     67  C   UNL A   1      44.559  26.436  35.263  1.00  0.00     0.134 A 
ATOM     68  F   UNL A   1      46.150  29.431  33.960  1.00  0.00    -0.206 F 
ATOM     69  C   UNL A   1      47.042  27.681  35.242  1.00  0.00     0.040 A 
ATOM     70  C   UNL A   1      45.637  25.853  35.931  1.00  0.00     0.040 A 
ATOM     71  F   UNL A   1      43.383  25.791  35.286  1.00  0.00    -0.206 F 
ATOM     72  C   UNL A   1      46.886  26.469  35.912  1.00  0.00     0.006 A 
ENDBRANCH  51  65
BRANCH  52  73
ATOM     73  C   UNL A   1      37.082  31.262  29.216  1.00  0.00     0.057 A 
ATOM     74  C   UNL A   1      37.125  32.576  28.735  1.00  0.00     0.134 A 
ATOM     75  C   UNL A   1      35.937  30.509  28.926  1.00  0.00     0.134 A 
ATOM     76  F   UNL A   1      38.182  33.357  29.001  1.00  0.00    -0.206 F 
ATOM     77  C   UNL A   1      36.070  33.123  28.003  1.00  0.00     0.040 A 
ATOM     78  C   UNL A   1      34.886  31.035  28.174  1.00  0.00     0.040 A 
ATOM     79  F   UNL A   1      35.829  29.245  29.362  1.00  0.00    -0.206 F 
ATOM     80  C   UNL A   1      34.948  32.348  27.714  1.00  0.00     0.006 A 
ENDBRANCH  52  73
BRANCH  64  81
ATOM     81  C   UNL A   1      39.100  32.059  35.840  1.00  0.00     0.057 A 
ATOM     82  C   UNL A   1      38.234  31.513  36.795  1.00  0.00     0.134 A 
ATOM     83  C   UNL A   1      39.475  33.400  36.004  1.00  0.00     0.134 A 
ATOM     84  F   UNL A   1      37.824  30.239  36.693  1.00  0.00    -0.206 F 
ATOM     85  C   UNL A   1      37.741  32.276  37.857  1.00  0.00     0.040 A 
ATOM     86  C   UNL A   1      39.015  34.164  37.079  1.00  0.00     0.040 A 
ATOM     87  F   UNL A   1      40.311  33.985  35.133  1.00  0.00    -0.206 F 
ATOM     88  C   UNL A   1      38.138  33.603  38.004  1.00  0.00     0.006 A 
ENDBRANCH  64  81
ENDBRANCH  38  39
ENDBRANCH  31  33
ENDBRANCH  30  31
ENDBRANCH  29  30
ENDBRANCH  28  29
ENDBRANCH  27  28
ENDBRANCH  26  27
ENDBRANCH  25  26
ENDBRANCH  24  25
ENDBRANCH   1  24
TORSDOF 23
ENDMDL
MODEL 3
REMARK VINA RESULT:     -10.1      1.589      3.912
REMARK SMILES Cc1ccc(-c2noc(CCC(=O)OCCOCCOCCOCCOC(=O)c3ccc(-c4c5nc(c(-c6c(F)cccc6F)c6ccc([nH]6)c(-c6c(F)cccc6F)c6nc(c(-c7c(F)cccc7F)c7ccc4[nH]7)C=C6)C=C5)cc3)n2)cc1C
REMARK SMILES IDX 19 1 18 2 17 3 16 4 15 5 14 6 12 7 13 8 11 9 10 10 9 11 6 12
REMARK SMILES IDX 7 13 83 14 8 15 5 16 1 17 2 18 3 19 85 20 4 21 84 22 86 23
REMARK SMILES IDX 20 24 21 25 22 26 23 27 24 28 25 29 26 30 27 31 28 32 29 33
REMARK SMILES IDX 30 34 82 35 31 36 81 37 32 38 33 39 34 40 75 41 35 42 80 43
REMARK SMILES IDX 74 44 76 45 36 46 79 47 73 48 72 49 37 51 63 52 46 53 62 54
REMARK SMILES IDX 47 55 50 56 61 57 77 58 48 59 49 60 60 62 78 63 51 64 38 65
REMARK SMILES IDX 39 66 44 67 40 68 41 69 43 70 45 71 42 72 64 73 65 74 70 75
REMARK SMILES IDX 66 76 67 77 69 78 71 79 68 80 52 81 53 82 58 83 54 84 55 85
REMARK SMILES IDX 57 86 59 87 56 88
REMARK H PARENT 76 50 50 61
REMARK Flexibility Score: inf
ROOT
ATOM      1  C   UNL A   1      37.371  23.223  25.712  1.00  0.00     0.188 C 
ENDROOT
BRANCH   1   2
ATOM      2  C   UNL A   1      35.860  23.036  25.500  1.00  0.00     0.188 C 
BRANCH   2   3
ATOM      3  O   UNL A   1      35.239  24.123  24.854  1.00  0.00    -0.376 OA
BRANCH   3   4
ATOM      4  C   UNL A   1      34.786  25.227  25.613  1.00  0.00     0.202 C 
BRANCH   4   5
ATOM      5  C   UNL A   1      33.501  26.004  25.276  1.00  0.00     0.261 C 
BRANCH   5   6
ATOM      6  O   UNL A   1      33.656  27.312  24.708  1.00  0.00    -0.463 OA
BRANCH   6   7
ATOM      7  C   UNL A   1      32.597  27.836  24.064  1.00  0.00     0.306 C 
ATOM      8  O   UNL A   1      31.786  28.597  24.585  1.00  0.00    -0.252 OA
BRANCH   7   9
ATOM      9  C   UNL A   1      32.482  27.456  22.602  1.00  0.00     0.132 C 
BRANCH   9  10
ATOM     10  C   UNL A   1      31.677  26.264  22.095  1.00  0.00     0.112 C 
BRANCH  10  11
ATOM     11  C   UNL A   1      32.234  24.911  22.300  1.00  0.00     0.227 A 
ATOM     12  C   UNL A   1      32.611  22.901  22.728  1.00  0.00     0.202 A 
ATOM     13  N   UNL A   1      33.678  23.265  22.005  1.00  0.00    -0.057 NA
ATOM     14  N   UNL A   1      31.685  23.897  22.926  1.00  0.00    -0.191 NA
ATOM     15  O   UNL A   1      33.404  24.589  21.686  1.00  0.00    -0.339 OA
BRANCH  12  16
ATOM     16  C   UNL A   1      32.507  21.638  23.416  1.00  0.00     0.023 A 
ATOM     17  C   UNL A   1      32.655  17.790  25.340  1.00  0.00     0.044 C 
ATOM     18  C   UNL A   1      32.560  19.118  24.645  1.00  0.00    -0.048 A 
ATOM     19  C   UNL A   1      32.689  20.295  25.407  1.00  0.00     0.004 A 
ATOM     20  C   UNL A   1      32.376  19.212  23.253  1.00  0.00    -0.047 A 
ATOM     21  C   UNL A   1      32.675  21.549  24.795  1.00  0.00     0.012 A 
ATOM     22  C   UNL A   1      32.333  20.478  22.657  1.00  0.00     0.015 A 
ATOM     23  C   UNL A   1      32.263  18.026  22.339  1.00  0.00     0.044 C 
ENDBRANCH  12  16
ENDBRANCH  10  11
ENDBRANCH   9  10
ENDBRANCH   7   9
ENDBRANCH   6   7
ENDBRANCH   5   6
ENDBRANCH   4   5
ENDBRANCH   3   4
ENDBRANCH   2   3
ENDBRANCH   1   2
BRANCH   1  24
ATOM     24  O   UNL A   1      38.181  22.111  26.060  1.00  0.00    -0.377 OA
BRANCH  24  25
ATOM     25  C   UNL A   1      39.593  22.273  26.208  1.00  0.00     0.188 C 
BRANCH  25  26
ATOM     26  C   UNL A   1      40.434  21.210  26.948  1.00  0.00     0.188 C 
BRANCH  26  27
ATOM     27  O   UNL A   1      41.203  20.368  26.106  1.00  0.00    -0.376 OA
BRANCH  27  28
ATOM     28  C   UNL A   1      42.616  20.421  26.247  1.00  0.00     0.202 C 
BRANCH  28  29
ATOM     29  C   UNL A   1      43.359  21.548  25.514  1.00  0.00     0.261 C 
BRANCH  29  30
ATOM     30  O   UNL A   1      43.914  22.583  26.343  1.00  0.00    -0.460 OA
BRANCH  30  31
ATOM     31  C   UNL A   1      44.116  23.794  25.789  1.00  0.00     0.338 C 
ATOM     32  O   UNL A   1      44.657  24.042  24.719  1.00  0.00    -0.246 OA
BRANCH  31  33
ATOM     33  C   UNL A   1      43.415  24.790  26.617  1.00  0.00     0.060 A 
ATOM     34  C   UNL A   1      43.880  26.112  26.640  1.00  0.00     0.016 A 
ATOM     35  C   UNL A   1      42.308  24.412  27.379  1.00  0.00     0.016 A 
ATOM     36  C   UNL A   1      43.259  27.053  27.461  1.00  0.00     0.010 A 
ATOM     37  C   UNL A   1      41.699  25.351  28.214  1.00  0.00     0.010 A 
ATOM     38  C   UNL A   1      42.196  26.665  28.286  1.00  0.00    -0.014 A 
BRANCH  38  39
ATOM     39  C   UNL A   1      41.740  27.568  29.370  1.00  0.00     0.031 A 
ATOM     40  C   UNL A   1      42.488  27.550  30.675  1.00  0.00     0.074 A 
ATOM     41  C   UNL A   1      40.703  28.405  29.198  1.00  0.00     0.049 A 
ATOM     42  N   UNL A   1      42.261  28.219  31.777  1.00  0.00    -0.248 NA
ATOM     43  C   UNL A   1      43.649  26.649  30.744  1.00  0.00     0.031 C 
ATOM     44  C   UNL A   1      39.929  28.551  27.968  1.00  0.00     0.029 A 
ATOM     45  N   UNL A   1      40.124  29.290  30.073  1.00  0.00    -0.354 N 
ATOM     46  C   UNL A   1      43.248  27.816  32.669  1.00  0.00     0.074 A 
ATOM     47  C   UNL A   1      44.047  26.815  31.994  1.00  0.00     0.031 C 
ATOM     48  C   UNL A   1      38.973  29.476  28.165  1.00  0.00     0.029 A 
ATOM     49  C   UNL A   1      39.046  29.957  29.544  1.00  0.00     0.049 A 
ATOM     50  H   UNL A   1      40.449  29.432  30.990  1.00  0.00     0.167 HD
ATOM     51  C   UNL A   1      43.476  28.247  33.932  1.00  0.00     0.037 A 
ATOM     52  C   UNL A   1      38.209  30.842  30.119  1.00  0.00     0.037 A 
ATOM     53  C   UNL A   1      42.667  29.228  34.607  1.00  0.00     0.049 A 
ATOM     54  C   UNL A   1      38.417  31.232  31.560  1.00  0.00     0.074 A 
ATOM     55  C   UNL A   1      42.812  29.736  35.886  1.00  0.00     0.029 A 
ATOM     56  N   UNL A   1      41.549  29.840  34.058  1.00  0.00    -0.354 N 
ATOM     57  N   UNL A   1      39.361  30.863  32.393  1.00  0.00    -0.248 NA
ATOM     58  C   UNL A   1      37.439  32.163  32.140  1.00  0.00     0.031 C 
ATOM     59  C   UNL A   1      41.746  30.608  36.133  1.00  0.00     0.029 A 
ATOM     60  C   UNL A   1      40.975  30.697  34.984  1.00  0.00     0.049 A 
ATOM     61  H   UNL A   1      41.213  29.688  33.146  1.00  0.00     0.167 HD
ATOM     62  C   UNL A   1      39.111  31.541  33.580  1.00  0.00     0.074 A 
ATOM     63  C   UNL A   1      37.931  32.350  33.357  1.00  0.00     0.031 C 
ATOM     64  C   UNL A   1      39.801  31.501  34.749  1.00  0.00     0.037 A 
BRANCH  51  65
ATOM     65  C   UNL A   1      44.625  27.620  34.670  1.00  0.00     0.057 A 
ATOM     66  C   UNL A   1      45.894  28.215  34.717  1.00  0.00     0.134 A 
ATOM     67  C   UNL A   1      44.466  26.394  35.328  1.00  0.00     0.134 A 
ATOM     68  F   UNL A   1      46.121  29.382  34.094  1.00  0.00    -0.206 F 
ATOM     69  C   UNL A   1      46.971  27.593  35.350  1.00  0.00     0.040 A 
ATOM     70  C   UNL A   1      45.528  25.779  35.994  1.00  0.00     0.040 A 
ATOM     71  F   UNL A   1      43.279  25.770  35.330  1.00  0.00    -0.206 F 
ATOM     72  C   UNL A   1      46.787  26.372  35.996  1.00  0.00     0.006 A 
ENDBRANCH  51  65
BRANCH  52  73
ATOM     73  C   UNL A   1      37.099  31.433  29.329  1.00  0.00     0.057 A 
ATOM     74  C   UNL A   1      37.192  32.733  28.818  1.00  0.00     0.134 A 
ATOM     75  C   UNL A   1      35.920  30.722  29.070  1.00  0.00     0.134 A 
ATOM     76  F   UNL A   1      38.284  33.475  29.053  1.00  0.00    -0.206 F 
ATOM     77  C   UNL A   1      36.151  33.309  28.088  1.00  0.00     0.040 A 
ATOM     78  C   UNL A   1      34.882  31.276  28.321  1.00  0.00     0.040 A 
ATOM     79  F   UNL A   1      35.765  29.474  29.535  1.00  0.00    -0.206 F 
ATOM     80  C   UNL A   1      34.993  32.576  27.831  1.00  0.00     0.006 A 
ENDBRANCH  52  73
BRANCH  64  81
ATOM     81  C   UNL A   1      39.326  32.390  35.864  1.00  0.00     0.057 A 
ATOM     82  C   UNL A   1      39.756  33.716  35.997  1.00  0.00     0.134 A 
ATOM     83  C   UNL A   1      38.391  31.920  36.797  1.00  0.00     0.134 A 
ATOM     84  F   UNL A   1      40.660  34.226  35.145  1.00  0.00    -0.206 F 
ATOM     85  C   UNL A   1      39.294  34.535  37.031  1.00  0.00     0.040 A 
ATOM     86  C   UNL A   1      37.897  32.739  37.816  1.00  0.00     0.040 A 
ATOM     87  F   UNL A   1      37.926  30.664  36.724  1.00  0.00    -0.206 F 
ATOM     88  C   UNL A   1      38.357  34.048  37.939  1.00  0.00     0.006 A 
ENDBRANCH  64  81
ENDBRANCH  38  39
ENDBRANCH  31  33
ENDBRANCH  30  31
ENDBRANCH  29  30
ENDBRANCH  28  29
ENDBRANCH  27  28
ENDBRANCH  26  27
ENDBRANCH  25  26
ENDBRANCH  24  25
ENDBRANCH   1  24
TORSDOF 23
ENDMDL
