MODEL 1
REMARK VINA RESULT:      -9.5      0.000      0.000
REMARK SMILES CC(C)COc1cccc(N2C[C@@H](C(=O)OCCOCCOCCOCCOC(=O)c3ccc(-c4c5nc(c(-c6c(F)cccc6F)c6ccc([nH]6)c(-c6c(F)cccc6F)c6nc(c(-c7c(F)cccc7F)c7ccc4[nH]7)C=C6)C=C5)cc3)CC2=O)c1
REMARK SMILES IDX 21 1 20 2 19 3 18 4 17 5 16 6 14 7 15 8 13 9 11 10 12 11
REMARK SMILES IDX 86 12 85 13 87 14 10 15 6 16 7 17 88 18 8 19 9 20 5 21 4 22
REMARK SMILES IDX 2 23 1 24 3 25 22 26 23 27 24 28 25 29 26 30 27 31 28 32
REMARK SMILES IDX 29 33 30 34 31 35 32 36 84 37 33 38 83 39 34 40 35 41 36 42
REMARK SMILES IDX 77 43 37 44 82 45 76 46 78 47 38 48 81 49 75 50 74 51 39 53
REMARK SMILES IDX 65 54 48 55 64 56 49 57 52 58 63 59 79 60 50 61 51 62 62 64
REMARK SMILES IDX 80 65 53 66 40 67 41 68 46 69 42 70 43 71 45 72 47 73 44 74
REMARK SMILES IDX 66 75 67 76 72 77 68 78 69 79 71 80 73 81 70 82 54 83 55 84
REMARK SMILES IDX 60 85 56 86 57 87 59 88 61 89 58 90
REMARK H PARENT 78 52 52 63
REMARK Flexibility Score: inf
ROOT
ATOM      1  C   UNL A   1      34.783  32.739  27.975  1.00  0.00     0.188 C 
ENDROOT
BRANCH   1   2
ATOM      2  C   UNL A   1      34.574  31.222  27.878  1.00  0.00     0.188 C 
BRANCH   2   3
ATOM      3  O   UNL A   1      33.802  30.657  26.830  1.00  0.00    -0.376 OA
BRANCH   3   4
ATOM      4  C   UNL A   1      32.410  30.422  26.994  1.00  0.00     0.202 C 
BRANCH   4   5
ATOM      5  C   UNL A   1      31.794  29.034  26.741  1.00  0.00     0.261 C 
BRANCH   5   6
ATOM      6  O   UNL A   1      31.863  28.571  25.380  1.00  0.00    -0.463 OA
BRANCH   6   7
ATOM      7  C   UNL A   1      31.133  27.478  25.074  1.00  0.00     0.311 C 
ATOM      8  O   UNL A   1      30.451  27.359  24.062  1.00  0.00    -0.252 OA
BRANCH   7   9
ATOM      9  C   UNL A   1      31.290  26.341  26.059  1.00  0.00     0.128 C 
ATOM     10  N   UNL A   1      32.419  24.293  26.208  1.00  0.00    -0.311 N 
ATOM     11  C   UNL A   1      32.574  25.630  25.692  1.00  0.00     0.141 C 
ATOM     12  C   UNL A   1      31.080  23.994  26.446  1.00  0.00     0.227 C 
ATOM     13  C   UNL A   1      30.272  25.207  26.108  1.00  0.00     0.117 C 
ATOM     14  O   UNL A   1      30.575  22.956  26.844  1.00  0.00    -0.274 OA
BRANCH  10  15
ATOM     15  C   UNL A   1      33.429  23.331  25.990  1.00  0.00     0.047 A 
ATOM     16  C   UNL A   1      33.839  21.040  25.416  1.00  0.00     0.121 A 
ATOM     17  C   UNL A   1      35.070  21.373  24.864  1.00  0.00     0.046 A 
ATOM     18  C   UNL A   1      33.105  21.984  26.111  1.00  0.00     0.072 A 
ATOM     19  C   UNL A   1      35.500  22.701  24.909  1.00  0.00     0.006 A 
ATOM     20  C   UNL A   1      34.655  23.687  25.424  1.00  0.00     0.026 A 
BRANCH  16  21
ATOM     21  O   UNL A   1      33.292  19.797  25.245  1.00  0.00    -0.493 OA
BRANCH  21  22
ATOM     22  C   UNL A   1      34.231  18.879  24.627  1.00  0.00     0.232 C 
BRANCH  22  23
ATOM     23  C   UNL A   1      33.612  17.951  23.544  1.00  0.00     0.020 C 
ATOM     24  C   UNL A   1      33.412  16.513  24.047  1.00  0.00     0.011 C 
ATOM     25  C   UNL A   1      32.235  18.458  23.102  1.00  0.00     0.011 C 
ENDBRANCH  22  23
ENDBRANCH  21  22
ENDBRANCH  16  21
ENDBRANCH  10  15
ENDBRANCH   7   9
ENDBRANCH   6   7
ENDBRANCH   5   6
ENDBRANCH   4   5
ENDBRANCH   3   4
ENDBRANCH   2   3
ENDBRANCH   1   2
BRANCH   1  26
ATOM     26  O   UNL A   1      33.668  33.486  28.414  1.00  0.00    -0.377 OA
BRANCH  26  27
ATOM     27  C   UNL A   1      33.945  34.655  29.171  1.00  0.00     0.188 C 
BRANCH  27  28
ATOM     28  C   UNL A   1      33.669  34.609  30.687  1.00  0.00     0.188 C 
BRANCH  28  29
ATOM     29  O   UNL A   1      34.625  35.303  31.478  1.00  0.00    -0.376 OA
BRANCH  29  30
ATOM     30  C   UNL A   1      35.459  34.568  32.363  1.00  0.00     0.202 C 
BRANCH  30  31
ATOM     31  C   UNL A   1      36.858  34.143  31.881  1.00  0.00     0.261 C 
BRANCH  31  32
ATOM     32  O   UNL A   1      36.914  33.219  30.784  1.00  0.00    -0.460 OA
BRANCH  32  33
ATOM     33  C   UNL A   1      36.591  31.930  31.021  1.00  0.00     0.338 C 
ATOM     34  O   UNL A   1      35.524  31.496  31.396  1.00  0.00    -0.246 OA
BRANCH  33  35
ATOM     35  C   UNL A   1      37.715  31.094  30.538  1.00  0.00     0.060 A 
ATOM     36  C   UNL A   1      38.522  30.440  31.479  1.00  0.00     0.016 A 
ATOM     37  C   UNL A   1      37.973  30.959  29.172  1.00  0.00     0.016 A 
ATOM     38  C   UNL A   1      39.614  29.682  31.060  1.00  0.00     0.010 A 
ATOM     39  C   UNL A   1      39.084  30.220  28.753  1.00  0.00     0.010 A 
ATOM     40  C   UNL A   1      39.930  29.610  29.696  1.00  0.00    -0.014 A 
BRANCH  40  41
ATOM     41  C   UNL A   1      41.253  29.085  29.280  1.00  0.00     0.031 A 
ATOM     42  C   UNL A   1      42.426  30.028  29.285  1.00  0.00     0.074 A 
ATOM     43  C   UNL A   1      41.424  27.795  28.939  1.00  0.00     0.049 A 
ATOM     44  N   UNL A   1      43.663  29.820  28.917  1.00  0.00    -0.248 NA
ATOM     45  C   UNL A   1      42.161  31.394  29.767  1.00  0.00     0.031 C 
ATOM     46  C   UNL A   1      40.382  26.772  28.945  1.00  0.00     0.029 A 
ATOM     47  N   UNL A   1      42.548  27.134  28.510  1.00  0.00    -0.354 N 
ATOM     48  C   UNL A   1      44.322  31.028  29.118  1.00  0.00     0.074 A 
ATOM     49  C   UNL A   1      43.341  31.972  29.605  1.00  0.00     0.031 C 
ATOM     50  C   UNL A   1      40.913  25.610  28.525  1.00  0.00     0.029 A 
ATOM     51  C   UNL A   1      42.320  25.818  28.186  1.00  0.00     0.049 A 
ATOM     52  H   UNL A   1      43.432  27.561  28.440  1.00  0.00     0.167 HD
ATOM     53  C   UNL A   1      45.629  31.322  28.920  1.00  0.00     0.037 A 
ATOM     54  C   UNL A   1      43.150  24.899  27.654  1.00  0.00     0.037 A 
ATOM     55  C   UNL A   1      46.602  30.383  28.428  1.00  0.00     0.049 A 
ATOM     56  C   UNL A   1      44.579  25.276  27.357  1.00  0.00     0.074 A 
ATOM     57  C   UNL A   1      47.952  30.580  28.204  1.00  0.00     0.029 A 
ATOM     58  N   UNL A   1      46.324  29.071  28.075  1.00  0.00    -0.354 N 
ATOM     59  N   UNL A   1      45.200  26.412  27.568  1.00  0.00    -0.248 NA
ATOM     60  C   UNL A   1      45.426  24.239  26.748  1.00  0.00     0.031 C 
ATOM     61  C   UNL A   1      48.479  29.407  27.657  1.00  0.00     0.029 A 
ATOM     62  C   UNL A   1      47.472  28.456  27.606  1.00  0.00     0.049 A 
ATOM     63  H   UNL A   1      45.442  28.641  28.148  1.00  0.00     0.167 HD
ATOM     64  C   UNL A   1      46.512  26.215  27.153  1.00  0.00     0.074 A 
ATOM     65  C   UNL A   1      46.602  24.847  26.689  1.00  0.00     0.031 C 
ATOM     66  C   UNL A   1      47.552  27.088  27.158  1.00  0.00     0.037 A 
BRANCH  53  67
ATOM     67  C   UNL A   1      46.072  32.728  29.206  1.00  0.00     0.057 A 
ATOM     68  C   UNL A   1      46.565  33.112  30.459  1.00  0.00     0.134 A 
ATOM     69  C   UNL A   1      46.030  33.705  28.202  1.00  0.00     0.134 A 
ATOM     70  F   UNL A   1      46.617  32.231  31.470  1.00  0.00    -0.206 F 
ATOM     71  C   UNL A   1      46.976  34.423  30.713  1.00  0.00     0.040 A 
ATOM     72  C   UNL A   1      46.467  35.009  28.434  1.00  0.00     0.040 A 
ATOM     73  F   UNL A   1      45.572  33.404  26.978  1.00  0.00    -0.206 F 
ATOM     74  C   UNL A   1      46.934  35.374  29.695  1.00  0.00     0.006 A 
ENDBRANCH  53  67
BRANCH  54  75
ATOM     75  C   UNL A   1      42.653  23.532  27.345  1.00  0.00     0.057 A 
ATOM     76  C   UNL A   1      42.310  23.161  26.039  1.00  0.00     0.134 A 
ATOM     77  C   UNL A   1      42.472  22.576  28.353  1.00  0.00     0.134 A 
ATOM     78  F   UNL A   1      42.435  24.039  25.034  1.00  0.00    -0.206 F 
ATOM     79  C   UNL A   1      41.785  21.900  25.749  1.00  0.00     0.040 A 
ATOM     80  C   UNL A   1      41.977  21.302  28.073  1.00  0.00     0.040 A 
ATOM     81  F   UNL A   1      42.781  22.866  29.625  1.00  0.00    -0.206 F 
ATOM     82  C   UNL A   1      41.622  20.964  26.769  1.00  0.00     0.006 A 
ENDBRANCH  54  75
BRANCH  66  83
ATOM     83  C   UNL A   1      48.888  26.579  26.695  1.00  0.00     0.057 A 
ATOM     84  C   UNL A   1      49.714  25.800  27.514  1.00  0.00     0.134 A 
ATOM     85  C   UNL A   1      49.332  26.838  25.391  1.00  0.00     0.134 A 
ATOM     86  F   UNL A   1      49.354  25.523  28.776  1.00  0.00    -0.206 F 
ATOM     87  C   UNL A   1      50.945  25.319  27.062  1.00  0.00     0.040 A 
ATOM     88  C   UNL A   1      50.545  26.336  24.917  1.00  0.00     0.040 A 
ATOM     89  F   UNL A   1      48.585  27.568  24.549  1.00  0.00    -0.206 F 
ATOM     90  C   UNL A   1      51.359  25.580  25.757  1.00  0.00     0.006 A 
ENDBRANCH  66  83
ENDBRANCH  40  41
ENDBRANCH  33  35
ENDBRANCH  32  33
ENDBRANCH  31  32
ENDBRANCH  30  31
ENDBRANCH  29  30
ENDBRANCH  28  29
ENDBRANCH  27  28
ENDBRANCH  26  27
ENDBRANCH   1  26
TORSDOF 24
ENDMDL
MODEL 2
REMARK VINA RESULT:      -9.4      0.583      5.887
REMARK SMILES CC(C)COc1cccc(N2C[C@@H](C(=O)OCCOCCOCCOCCOC(=O)c3ccc(-c4c5nc(c(-c6c(F)cccc6F)c6ccc([nH]6)c(-c6c(F)cccc6F)c6nc(c(-c7c(F)cccc7F)c7ccc4[nH]7)C=C6)C=C5)cc3)CC2=O)c1
REMARK SMILES IDX 21 1 20 2 19 3 18 4 17 5 16 6 14 7 15 8 13 9 11 10 12 11
REMARK SMILES IDX 86 12 85 13 87 14 10 15 6 16 7 17 88 18 8 19 9 20 5 21 4 22
REMARK SMILES IDX 2 23 1 24 3 25 22 26 23 27 24 28 25 29 26 30 27 31 28 32
REMARK SMILES IDX 29 33 30 34 31 35 32 36 84 37 33 38 83 39 34 40 35 41 36 42
REMARK SMILES IDX 77 43 37 44 82 45 76 46 78 47 38 48 81 49 75 50 74 51 39 53
REMARK SMILES IDX 65 54 48 55 64 56 49 57 52 58 63 59 79 60 50 61 51 62 62 64
REMARK SMILES IDX 80 65 53 66 40 67 41 68 46 69 42 70 43 71 45 72 47 73 44 74
REMARK SMILES IDX 66 75 67 76 72 77 68 78 69 79 71 80 73 81 70 82 54 83 55 84
REMARK SMILES IDX 60 85 56 86 57 87 59 88 61 89 58 90
REMARK H PARENT 78 52 52 63
REMARK Flexibility Score: inf
ROOT
ATOM      1  C   UNL A   1      35.207  33.060  27.809  1.00  0.00     0.188 C 
ENDROOT
BRANCH   1   2
ATOM      2  C   UNL A   1      34.968  31.558  28.016  1.00  0.00     0.188 C 
BRANCH   2   3
ATOM      3  O   UNL A   1      34.166  30.815  27.112  1.00  0.00    -0.376 OA
BRANCH   3   4
ATOM      4  C   UNL A   1      32.750  30.802  27.233  1.00  0.00     0.202 C 
BRANCH   4   5
ATOM      5  C   UNL A   1      31.937  29.510  27.029  1.00  0.00     0.261 C 
BRANCH   5   6
ATOM      6  O   UNL A   1      32.279  28.750  25.857  1.00  0.00    -0.463 OA
BRANCH   6   7
ATOM      7  C   UNL A   1      31.337  27.905  25.387  1.00  0.00     0.311 C 
ATOM      8  O   UNL A   1      30.633  28.126  24.407  1.00  0.00    -0.252 OA
BRANCH   7   9
ATOM      9  C   UNL A   1      31.269  26.588  26.127  1.00  0.00     0.128 C 
ATOM     10  N   UNL A   1      32.302  24.486  26.065  1.00  0.00    -0.311 N 
ATOM     11  C   UNL A   1      32.585  25.887  25.875  1.00  0.00     0.141 C 
ATOM     12  C   UNL A   1      30.937  24.229  25.976  1.00  0.00     0.227 C 
ATOM     13  C   UNL A   1      30.239  25.533  25.746  1.00  0.00     0.117 C 
ATOM     14  O   UNL A   1      30.340  23.166  26.047  1.00  0.00    -0.274 OA
BRANCH  10  15
ATOM     15  C   UNL A   1      33.314  23.526  25.852  1.00  0.00     0.047 A 
ATOM     16  C   UNL A   1      33.749  21.180  25.614  1.00  0.00     0.121 A 
ATOM     17  C   UNL A   1      34.860  21.442  24.821  1.00  0.00     0.046 A 
ATOM     18  C   UNL A   1      33.084  22.214  26.250  1.00  0.00     0.072 A 
ATOM     19  C   UNL A   1      35.222  22.767  24.571  1.00  0.00     0.006 A 
ATOM     20  C   UNL A   1      34.418  23.807  25.042  1.00  0.00     0.026 A 
BRANCH  16  21
ATOM     21  O   UNL A   1      33.248  19.914  25.747  1.00  0.00    -0.493 OA
BRANCH  21  22
ATOM     22  C   UNL A   1      33.088  19.264  24.459  1.00  0.00     0.232 C 
BRANCH  22  23
ATOM     23  C   UNL A   1      33.645  17.815  24.391  1.00  0.00     0.020 C 
ATOM     24  C   UNL A   1      33.392  17.150  23.028  1.00  0.00     0.011 C 
ATOM     25  C   UNL A   1      35.161  17.793  24.616  1.00  0.00     0.011 C 
ENDBRANCH  22  23
ENDBRANCH  21  22
ENDBRANCH  16  21
ENDBRANCH  10  15
ENDBRANCH   7   9
ENDBRANCH   6   7
ENDBRANCH   5   6
ENDBRANCH   4   5
ENDBRANCH   3   4
ENDBRANCH   2   3
ENDBRANCH   1   2
BRANCH   1  26
ATOM     26  O   UNL A   1      34.184  33.915  28.275  1.00  0.00    -0.377 OA
BRANCH  26  27
ATOM     27  C   UNL A   1      34.533  34.810  29.321  1.00  0.00     0.188 C 
BRANCH  27  28
ATOM     28  C   UNL A   1      34.088  34.447  30.752  1.00  0.00     0.188 C 
BRANCH  28  29
ATOM     29  O   UNL A   1      34.931  34.960  31.775  1.00  0.00    -0.376 OA
BRANCH  29  30
ATOM     30  C   UNL A   1      35.780  34.071  32.487  1.00  0.00     0.202 C 
BRANCH  30  31
ATOM     31  C   UNL A   1      36.895  33.338  31.718  1.00  0.00     0.261 C 
BRANCH  31  32
ATOM     32  O   UNL A   1      36.508  32.182  30.960  1.00  0.00    -0.460 OA
BRANCH  32  33
ATOM     33  C   UNL A   1      36.681  30.966  31.523  1.00  0.00     0.338 C 
ATOM     34  O   UNL A   1      35.936  30.399  32.291  1.00  0.00    -0.246 OA
BRANCH  33  35
ATOM     35  C   UNL A   1      37.853  30.337  30.870  1.00  0.00     0.060 A 
ATOM     36  C   UNL A   1      38.693  29.520  31.638  1.00  0.00     0.016 A 
ATOM     37  C   UNL A   1      38.123  30.553  29.517  1.00  0.00     0.016 A 
ATOM     38  C   UNL A   1      39.829  28.948  31.066  1.00  0.00     0.010 A 
ATOM     39  C   UNL A   1      39.276  30.001  28.950  1.00  0.00     0.010 A 
ATOM     40  C   UNL A   1      40.153  29.228  29.732  1.00  0.00    -0.014 A 
BRANCH  40  41
ATOM     41  C   UNL A   1      41.506  28.894  29.224  1.00  0.00     0.031 A 
ATOM     42  C   UNL A   1      41.755  27.493  28.735  1.00  0.00     0.074 A 
ATOM     43  C   UNL A   1      42.484  29.815  29.163  1.00  0.00     0.049 A 
ATOM     44  N   UNL A   1      42.860  26.949  28.294  1.00  0.00    -0.248 NA
ATOM     45  C   UNL A   1      40.598  26.582  28.749  1.00  0.00     0.031 C 
ATOM     46  C   UNL A   1      42.353  31.216  29.555  1.00  0.00     0.029 A 
ATOM     47  N   UNL A   1      43.788  29.698  28.752  1.00  0.00    -0.354 N 
ATOM     48  C   UNL A   1      42.533  25.633  27.986  1.00  0.00     0.074 A 
ATOM     49  C   UNL A   1      41.139  25.451  28.323  1.00  0.00     0.031 C 
ATOM     50  C   UNL A   1      43.537  31.829  29.377  1.00  0.00     0.029 A 
ATOM     51  C   UNL A   1      44.516  30.854  28.896  1.00  0.00     0.049 A 
ATOM     52  H   UNL A   1      44.167  28.865  28.390  1.00  0.00     0.167 HD
ATOM     53  C   UNL A   1      43.322  24.665  27.464  1.00  0.00     0.037 A 
ATOM     54  C   UNL A   1      45.826  31.087  28.686  1.00  0.00     0.037 A 
ATOM     55  C   UNL A   1      44.712  24.846  27.137  1.00  0.00     0.049 A 
ATOM     56  C   UNL A   1      46.707  29.968  28.190  1.00  0.00     0.074 A 
ATOM     57  C   UNL A   1      45.596  23.931  26.594  1.00  0.00     0.029 A 
ATOM     58  N   UNL A   1      45.423  26.021  27.334  1.00  0.00    -0.354 N 
ATOM     59  N   UNL A   1      46.387  28.734  27.882  1.00  0.00    -0.248 NA
ATOM     60  C   UNL A   1      48.134  30.276  28.011  1.00  0.00     0.031 C 
ATOM     61  C   UNL A   1      46.855  24.532  26.519  1.00  0.00     0.029 A 
ATOM     62  C   UNL A   1      46.741  25.844  26.951  1.00  0.00     0.049 A 
ATOM     63  H   UNL A   1      45.045  26.856  27.693  1.00  0.00     0.167 HD
ATOM     64  C   UNL A   1      47.560  28.133  27.440  1.00  0.00     0.074 A 
ATOM     65  C   UNL A   1      48.597  29.140  27.508  1.00  0.00     0.031 C 
ATOM     66  C   UNL A   1      47.762  26.860  27.013  1.00  0.00     0.037 A 
BRANCH  53  67
ATOM     67  C   UNL A   1      42.706  23.313  27.245  1.00  0.00     0.057 A 
ATOM     68  C   UNL A   1      42.516  22.404  28.294  1.00  0.00     0.134 A 
ATOM     69  C   UNL A   1      42.272  22.927  25.970  1.00  0.00     0.134 A 
ATOM     70  F   UNL A   1      42.925  22.703  29.536  1.00  0.00    -0.206 F 
ATOM     71  C   UNL A   1      41.941  21.150  28.079  1.00  0.00     0.040 A 
ATOM     72  C   UNL A   1      41.667  21.690  25.749  1.00  0.00     0.040 A 
ATOM     73  F   UNL A   1      42.420  23.750  24.922  1.00  0.00    -0.206 F 
ATOM     74  C   UNL A   1      41.507  20.793  26.804  1.00  0.00     0.006 A 
ENDBRANCH  53  67
BRANCH  54  75
ATOM     75  C   UNL A   1      46.401  32.430  28.961  1.00  0.00     0.057 A 
ATOM     76  C   UNL A   1      46.359  33.449  28.002  1.00  0.00     0.134 A 
ATOM     77  C   UNL A   1      47.042  32.716  30.174  1.00  0.00     0.134 A 
ATOM     78  F   UNL A   1      45.784  33.231  26.811  1.00  0.00    -0.206 F 
ATOM     79  C   UNL A   1      46.950  34.694  28.228  1.00  0.00     0.040 A 
ATOM     80  C   UNL A   1      47.610  33.965  30.425  1.00  0.00     0.040 A 
ATOM     81  F   UNL A   1      47.118  31.784  31.136  1.00  0.00    -0.206 F 
ATOM     82  C   UNL A   1      47.575  34.956  29.446  1.00  0.00     0.006 A 
ENDBRANCH  54  75
BRANCH  66  83
ATOM     83  C   UNL A   1      49.140  26.497  26.537  1.00  0.00     0.057 A 
ATOM     84  C   UNL A   1      50.083  25.888  27.375  1.00  0.00     0.134 A 
ATOM     85  C   UNL A   1      49.512  26.722  25.204  1.00  0.00     0.134 A 
ATOM     86  F   UNL A   1      49.795  25.653  28.664  1.00  0.00    -0.206 F 
ATOM     87  C   UNL A   1      51.353  25.540  26.912  1.00  0.00     0.040 A 
ATOM     88  C   UNL A   1      50.767  26.349  24.722  1.00  0.00     0.040 A 
ATOM     89  F   UNL A   1      48.655  27.291  24.344  1.00  0.00    -0.206 F 
ATOM     90  C   UNL A   1      51.696  25.763  25.579  1.00  0.00     0.006 A 
ENDBRANCH  66  83
ENDBRANCH  40  41
ENDBRANCH  33  35
ENDBRANCH  32  33
ENDBRANCH  31  32
ENDBRANCH  30  31
ENDBRANCH  29  30
ENDBRANCH  28  29
ENDBRANCH  27  28
ENDBRANCH  26  27
ENDBRANCH   1  26
TORSDOF 24
ENDMDL
MODEL 3
REMARK VINA RESULT:      -9.3      1.418      2.907
REMARK SMILES CC(C)COc1cccc(N2C[C@@H](C(=O)OCCOCCOCCOCCOC(=O)c3ccc(-c4c5nc(c(-c6c(F)cccc6F)c6ccc([nH]6)c(-c6c(F)cccc6F)c6nc(c(-c7c(F)cccc7F)c7ccc4[nH]7)C=C6)C=C5)cc3)CC2=O)c1
REMARK SMILES IDX 21 1 20 2 19 3 18 4 17 5 16 6 14 7 15 8 13 9 11 10 12 11
REMARK SMILES IDX 86 12 85 13 87 14 10 15 6 16 7 17 88 18 8 19 9 20 5 21 4 22
REMARK SMILES IDX 2 23 1 24 3 25 22 26 23 27 24 28 25 29 26 30 27 31 28 32
REMARK SMILES IDX 29 33 30 34 31 35 32 36 84 37 33 38 83 39 34 40 35 41 36 42
REMARK SMILES IDX 77 43 37 44 82 45 76 46 78 47 38 48 81 49 75 50 74 51 39 53
REMARK SMILES IDX 65 54 48 55 64 56 49 57 52 58 63 59 79 60 50 61 51 62 62 64
REMARK SMILES IDX 80 65 53 66 40 67 41 68 46 69 42 70 43 71 45 72 47 73 44 74
REMARK SMILES IDX 66 75 67 76 72 77 68 78 69 79 71 80 73 81 70 82 54 83 55 84
REMARK SMILES IDX 60 85 56 86 57 87 59 88 61 89 58 90
REMARK H PARENT 78 52 52 63
REMARK Flexibility Score: inf
ROOT
ATOM      1  C   UNL A   1      33.750  27.815  24.486  1.00  0.00     0.188 C 
ENDROOT
BRANCH   1   2
ATOM      2  C   UNL A   1      32.425  27.772  23.714  1.00  0.00     0.188 C 
BRANCH   2   3
ATOM      3  O   UNL A   1      31.181  27.844  24.394  1.00  0.00    -0.376 OA
BRANCH   3   4
ATOM      4  C   UNL A   1      30.545  26.670  24.879  1.00  0.00     0.202 C 
BRANCH   4   5
ATOM      5  C   UNL A   1      30.616  26.273  26.365  1.00  0.00     0.261 C 
BRANCH   5   6
ATOM      6  O   UNL A   1      31.310  25.043  26.638  1.00  0.00    -0.463 OA
BRANCH   6   7
ATOM      7  C   UNL A   1      30.568  23.915  26.637  1.00  0.00     0.311 C 
ATOM      8  O   UNL A   1      29.535  23.763  27.280  1.00  0.00    -0.252 OA
BRANCH   7   9
ATOM      9  C   UNL A   1      31.072  22.851  25.687  1.00  0.00     0.128 C 
ATOM     10  N   UNL A   1      33.118  21.938  25.003  1.00  0.00    -0.311 N 
ATOM     11  C   UNL A   1      32.454  22.468  26.168  1.00  0.00     0.141 C 
ATOM     12  C   UNL A   1      32.484  22.341  23.831  1.00  0.00     0.227 C 
ATOM     13  C   UNL A   1      31.296  23.166  24.213  1.00  0.00     0.117 C 
ATOM     14  O   UNL A   1      32.784  22.117  22.669  1.00  0.00    -0.274 OA
BRANCH  10  15
ATOM     15  C   UNL A   1      34.466  21.528  25.085  1.00  0.00     0.047 A 
ATOM     16  C   UNL A   1      35.951  19.665  24.810  1.00  0.00     0.121 A 
ATOM     17  C   UNL A   1      37.003  20.519  24.500  1.00  0.00     0.046 A 
ATOM     18  C   UNL A   1      34.743  20.175  25.252  1.00  0.00     0.072 A 
ATOM     19  C   UNL A   1      36.789  21.898  24.519  1.00  0.00     0.006 A 
ATOM     20  C   UNL A   1      35.508  22.399  24.759  1.00  0.00     0.026 A 
BRANCH  16  21
ATOM     21  O   UNL A   1      36.054  18.312  24.636  1.00  0.00    -0.493 OA
BRANCH  21  22
ATOM     22  C   UNL A   1      34.865  17.621  25.101  1.00  0.00     0.232 C 
BRANCH  22  23
ATOM     23  C   UNL A   1      34.296  16.571  24.106  1.00  0.00     0.020 C 
ATOM     24  C   UNL A   1      33.124  15.773  24.700  1.00  0.00     0.011 C 
ATOM     25  C   UNL A   1      33.771  17.243  22.833  1.00  0.00     0.011 C 
ENDBRANCH  22  23
ENDBRANCH  21  22
ENDBRANCH  16  21
ENDBRANCH  10  15
ENDBRANCH   7   9
ENDBRANCH   6   7
ENDBRANCH   5   6
ENDBRANCH   4   5
ENDBRANCH   3   4
ENDBRANCH   2   3
ENDBRANCH   1   2
BRANCH   1  26
ATOM     26  O   UNL A   1      33.642  27.997  25.882  1.00  0.00    -0.377 OA
BRANCH  26  27
ATOM     27  C   UNL A   1      33.724  29.334  26.356  1.00  0.00     0.188 C 
BRANCH  27  28
ATOM     28  C   UNL A   1      34.948  29.716  27.212  1.00  0.00     0.188 C 
BRANCH  28  29
ATOM     29  O   UNL A   1      35.027  31.098  27.538  1.00  0.00    -0.376 OA
BRANCH  29  30
ATOM     30  C   UNL A   1      33.885  31.751  28.074  1.00  0.00     0.202 C 
BRANCH  30  31
ATOM     31  C   UNL A   1      34.087  33.034  28.902  1.00  0.00     0.261 C 
BRANCH  31  32
ATOM     32  O   UNL A   1      35.352  33.187  29.564  1.00  0.00    -0.460 OA
BRANCH  32  33
ATOM     33  C   UNL A   1      35.619  32.386  30.618  1.00  0.00     0.338 C 
ATOM     34  O   UNL A   1      34.835  31.971  31.443  1.00  0.00    -0.246 OA
BRANCH  33  35
ATOM     35  C   UNL A   1      37.017  31.916  30.476  1.00  0.00     0.060 A 
ATOM     36  C   UNL A   1      37.728  32.260  29.319  1.00  0.00     0.016 A 
ATOM     37  C   UNL A   1      37.619  31.143  31.471  1.00  0.00     0.016 A 
ATOM     38  C   UNL A   1      39.030  31.798  29.133  1.00  0.00     0.010 A 
ATOM     39  C   UNL A   1      38.915  30.658  31.273  1.00  0.00     0.010 A 
ATOM     40  C   UNL A   1      39.612  30.952  30.087  1.00  0.00    -0.014 A 
BRANCH  40  41
ATOM     41  C   UNL A   1      40.849  30.208  29.747  1.00  0.00     0.031 A 
ATOM     42  C   UNL A   1      42.165  30.931  29.853  1.00  0.00     0.074 A 
ATOM     43  C   UNL A   1      40.816  28.914  29.384  1.00  0.00     0.049 A 
ATOM     44  N   UNL A   1      43.370  30.514  29.564  1.00  0.00    -0.248 NA
ATOM     45  C   UNL A   1      42.109  32.315  30.352  1.00  0.00     0.031 C 
ATOM     46  C   UNL A   1      39.614  28.089  29.294  1.00  0.00     0.029 A 
ATOM     47  N   UNL A   1      41.835  28.071  29.013  1.00  0.00    -0.354 N 
ATOM     48  C   UNL A   1      44.213  31.585  29.838  1.00  0.00     0.074 A 
ATOM     49  C   UNL A   1      43.380  32.679  30.283  1.00  0.00     0.031 C 
ATOM     50  C   UNL A   1      39.963  26.858  28.881  1.00  0.00     0.029 A 
ATOM     51  C   UNL A   1      41.404  26.820  28.642  1.00  0.00     0.049 A 
ATOM     52  H   UNL A   1      42.782  28.337  29.013  1.00  0.00     0.167 HD
ATOM     53  C   UNL A   1      45.562  31.647  29.736  1.00  0.00     0.037 A 
ATOM     54  C   UNL A   1      42.097  25.777  28.142  1.00  0.00     0.037 A 
ATOM     55  C   UNL A   1      46.388  30.559  29.286  1.00  0.00     0.049 A 
ATOM     56  C   UNL A   1      43.587  25.901  27.950  1.00  0.00     0.074 A 
ATOM     57  C   UNL A   1      47.765  30.519  29.156  1.00  0.00     0.029 A 
ATOM     58  N   UNL A   1      45.912  29.321  28.880  1.00  0.00    -0.354 N 
ATOM     59  N   UNL A   1      44.380  26.908  28.231  1.00  0.00    -0.248 NA
ATOM     60  C   UNL A   1      44.280  24.741  27.372  1.00  0.00     0.031 C 
ATOM     61  C   UNL A   1      48.116  29.279  28.615  1.00  0.00     0.029 A 
ATOM     62  C   UNL A   1      46.965  28.521  28.473  1.00  0.00     0.049 A 
ATOM     63  H   UNL A   1      44.965  29.051  28.883  1.00  0.00     0.167 HD
ATOM     64  C   UNL A   1      45.663  26.490  27.899  1.00  0.00     0.074 A 
ATOM     65  C   UNL A   1      45.546  25.134  27.408  1.00  0.00     0.031 C 
ATOM     66  C   UNL A   1      46.836  27.166  27.996  1.00  0.00     0.037 A 
BRANCH  53  67
ATOM     67  C   UNL A   1      46.222  32.950  30.087  1.00  0.00     0.057 A 
ATOM     68  C   UNL A   1      46.494  33.313  31.412  1.00  0.00     0.134 A 
ATOM     69  C   UNL A   1      46.616  33.841  29.080  1.00  0.00     0.134 A 
ATOM     70  F   UNL A   1      46.127  32.513  32.425  1.00  0.00    -0.206 F 
ATOM     71  C   UNL A   1      47.109  34.526  31.726  1.00  0.00     0.040 A 
ATOM     72  C   UNL A   1      47.261  35.042  29.379  1.00  0.00     0.040 A 
ATOM     73  F   UNL A   1      46.391  33.554  27.790  1.00  0.00    -0.206 F 
ATOM     74  C   UNL A   1      47.502  35.391  30.707  1.00  0.00     0.006 A 
ENDBRANCH  53  67
BRANCH  54  75
ATOM     75  C   UNL A   1      41.392  24.523  27.765  1.00  0.00     0.057 A 
ATOM     76  C   UNL A   1      41.554  23.347  28.508  1.00  0.00     0.134 A 
ATOM     77  C   UNL A   1      40.572  24.459  26.631  1.00  0.00     0.134 A 
ATOM     78  F   UNL A   1      42.346  23.336  29.589  1.00  0.00    -0.206 F 
ATOM     79  C   UNL A   1      40.945  22.150  28.127  1.00  0.00     0.040 A 
ATOM     80  C   UNL A   1      39.933  23.277  26.256  1.00  0.00     0.040 A 
ATOM     81  F   UNL A   1      40.375  25.549  25.875  1.00  0.00    -0.206 F 
ATOM     82  C   UNL A   1      40.127  22.114  26.998  1.00  0.00     0.006 A 
ENDBRANCH  54  75
BRANCH  66  83
ATOM     83  C   UNL A   1      48.092  26.437  27.610  1.00  0.00     0.057 A 
ATOM     84  C   UNL A   1      48.660  26.550  26.335  1.00  0.00     0.134 A 
ATOM     85  C   UNL A   1      48.768  25.645  28.549  1.00  0.00     0.134 A 
ATOM     86  F   UNL A   1      48.060  27.285  25.386  1.00  0.00    -0.206 F 
ATOM     87  C   UNL A   1      49.838  25.881  25.999  1.00  0.00     0.040 A 
ATOM     88  C   UNL A   1      49.963  24.997  28.235  1.00  0.00     0.040 A 
ATOM     89  F   UNL A   1      48.287  25.502  29.793  1.00  0.00    -0.206 F 
ATOM     90  C   UNL A   1      50.498  25.108  26.953  1.00  0.00     0.006 A 
ENDBRANCH  66  83
ENDBRANCH  40  41
ENDBRANCH  33  35
ENDBRANCH  32  33
ENDBRANCH  31  32
ENDBRANCH  30  31
ENDBRANCH  29  30
ENDBRANCH  28  29
ENDBRANCH  27  28
ENDBRANCH  26  27
ENDBRANCH   1  26
TORSDOF 24
ENDMDL
