MODEL 1
REMARK VINA RESULT:     -10.2      0.000      0.000
REMARK SMILES Cc1c(Cl)cc2c(c1C)O[C@H](C(F)(F)F)C(C(=O)OCCOCCOCCOCCOC(=O)c1ccc(-c3c4nc(c(-c5c(F)cccc5F)c5ccc([nH]5)c(-c5c(F)cccc5F)c5nc(c(-c6c(F)cccc6F)c6ccc3[nH]6)C=C5)C=C4)cc1)=C2
REMARK SMILES IDX 26 1 25 2 24 3 23 4 22 5 21 6 20 7 19 8 17 9 18 10 16 11
REMARK SMILES IDX 1 12 2 13 3 14 8 15 4 16 5 17 7 18 9 19 6 20 10 21 88 22
REMARK SMILES IDX 11 23 12 24 13 25 14 26 15 27 27 28 28 29 29 30 30 31 31 32
REMARK SMILES IDX 32 33 33 34 34 35 35 36 87 37 36 38 86 39 37 40 38 41 39 42
REMARK SMILES IDX 80 43 40 44 85 45 79 46 81 47 41 48 84 49 78 50 77 51 42 53
REMARK SMILES IDX 68 54 51 55 67 56 52 57 55 58 66 59 82 60 53 61 54 62 65 64
REMARK SMILES IDX 83 65 56 66 43 67 44 68 49 69 45 70 46 71 48 72 50 73 47 74
REMARK SMILES IDX 69 75 70 76 75 77 71 78 72 79 74 80 76 81 73 82 57 83 58 84
REMARK SMILES IDX 63 85 59 86 60 87 62 88 64 89 61 90
REMARK H PARENT 81 52 55 63
REMARK Flexibility Score: inf
ROOT
ATOM      1  C   UNL A   1      35.282  32.280  28.315  1.00  0.00     0.188 C 
ENDROOT
BRANCH   1   2
ATOM      2  O   UNL A   1      35.214  30.884  28.616  1.00  0.00    -0.377 OA
BRANCH   2   3
ATOM      3  C   UNL A   1      35.510  29.963  27.577  1.00  0.00     0.188 C 
BRANCH   3   4
ATOM      4  C   UNL A   1      34.259  29.267  27.003  1.00  0.00     0.188 C 
BRANCH   4   5
ATOM      5  O   UNL A   1      33.065  29.992  27.254  1.00  0.00    -0.376 OA
BRANCH   5   6
ATOM      6  C   UNL A   1      31.803  29.364  27.097  1.00  0.00     0.202 C 
BRANCH   6   7
ATOM      7  C   UNL A   1      31.633  27.836  27.179  1.00  0.00     0.261 C 
BRANCH   7   8
ATOM      8  O   UNL A   1      31.131  27.177  26.013  1.00  0.00    -0.460 OA
BRANCH   8   9
ATOM      9  C   UNL A   1      31.956  27.057  24.957  1.00  0.00     0.338 C 
ATOM     10  O   UNL A   1      32.277  27.934  24.177  1.00  0.00    -0.246 OA
BRANCH   9  11
ATOM     11  C   UNL A   1      32.550  25.702  25.007  1.00  0.00     0.087 C 
ATOM     12  C   UNL A   1      36.479  20.498  24.955  1.00  0.00     0.046 C 
ATOM     13  C   UNL A   1      35.722  21.784  25.176  1.00  0.00    -0.026 A 
ATOM     14  C   UNL A   1      36.427  22.928  25.608  1.00  0.00     0.045 A 
ATOM     15  C   UNL A   1      34.341  21.914  24.879  1.00  0.00    -0.004 A 
ATOM     16  Cl  UNL A   1      38.119  22.880  25.974  1.00  0.00    -0.084 Cl
ATOM     17  C   UNL A   1      35.797  24.169  25.720  1.00  0.00     0.032 A 
ATOM     18  C   UNL A   1      33.714  23.174  25.027  1.00  0.00     0.131 A 
ATOM     19  C   UNL A   1      33.487  20.760  24.405  1.00  0.00     0.049 C 
ATOM     20  C   UNL A   1      34.450  24.302  25.393  1.00  0.00     0.019 A 
ATOM     21  O   UNL A   1      32.371  23.224  24.773  1.00  0.00    -0.475 OA
ATOM     22  C   UNL A   1      33.841  25.620  25.351  1.00  0.00     0.027 C 
ATOM     23  C   UNL A   1      31.677  24.501  24.759  1.00  0.00     0.316 C 
BRANCH  23  24
ATOM     24  C   UNL A   1      30.908  24.598  23.434  1.00  0.00     0.430 C 
ATOM     25  F   UNL A   1      31.742  24.851  22.397  1.00  0.00    -0.167 F 
ATOM     26  F   UNL A   1      30.256  23.450  23.135  1.00  0.00    -0.167 F 
ATOM     27  F   UNL A   1      29.986  25.588  23.463  1.00  0.00    -0.167 F 
ENDBRANCH  23  24
ENDBRANCH   9  11
ENDBRANCH   8   9
ENDBRANCH   7   8
ENDBRANCH   6   7
ENDBRANCH   5   6
ENDBRANCH   4   5
ENDBRANCH   3   4
ENDBRANCH   2   3
ENDBRANCH   1   2
BRANCH   1  28
ATOM     28  C   UNL A   1      34.984  33.374  29.372  1.00  0.00     0.188 C 
BRANCH  28  29
ATOM     29  O   UNL A   1      34.900  34.692  28.846  1.00  0.00    -0.376 OA
BRANCH  29  30
ATOM     30  C   UNL A   1      33.610  35.219  28.583  1.00  0.00     0.202 C 
BRANCH  30  31
ATOM     31  C   UNL A   1      32.976  36.013  29.732  1.00  0.00     0.261 C 
BRANCH  31  32
ATOM     32  O   UNL A   1      32.520  35.232  30.847  1.00  0.00    -0.460 OA
BRANCH  32  33
ATOM     33  C   UNL A   1      32.749  35.721  32.084  1.00  0.00     0.338 C 
ATOM     34  O   UNL A   1      32.035  36.468  32.729  1.00  0.00    -0.246 OA
BRANCH  33  35
ATOM     35  C   UNL A   1      33.943  35.032  32.614  1.00  0.00     0.060 A 
ATOM     36  C   UNL A   1      35.196  35.648  32.493  1.00  0.00     0.016 A 
ATOM     37  C   UNL A   1      33.819  33.794  33.248  1.00  0.00     0.016 A 
ATOM     38  C   UNL A   1      36.335  35.009  32.983  1.00  0.00     0.010 A 
ATOM     39  C   UNL A   1      34.963  33.144  33.714  1.00  0.00     0.010 A 
ATOM     40  C   UNL A   1      36.229  33.735  33.554  1.00  0.00    -0.014 A 
BRANCH  40  41
ATOM     41  C   UNL A   1      37.452  32.930  33.779  1.00  0.00     0.031 A 
ATOM     42  C   UNL A   1      38.250  33.192  35.027  1.00  0.00     0.074 A 
ATOM     43  C   UNL A   1      37.834  31.968  32.920  1.00  0.00     0.049 A 
ATOM     44  N   UNL A   1      39.365  32.645  35.431  1.00  0.00    -0.248 NA
ATOM     45  C   UNL A   1      37.710  34.211  35.945  1.00  0.00     0.031 C 
ATOM     46  C   UNL A   1      37.118  31.583  31.707  1.00  0.00     0.029 A 
ATOM     47  N   UNL A   1      38.927  31.137  32.946  1.00  0.00    -0.354 N 
ATOM     48  C   UNL A   1      39.656  33.244  36.650  1.00  0.00     0.074 A 
ATOM     49  C   UNL A   1      38.624  34.225  36.902  1.00  0.00     0.031 C 
ATOM     50  C   UNL A   1      37.793  30.591  31.101  1.00  0.00     0.029 A 
ATOM     51  C   UNL A   1      39.003  30.292  31.866  1.00  0.00     0.049 A 
ATOM     52  H   UNL A   1      39.593  31.147  33.670  1.00  0.00     0.167 HD
ATOM     53  C   UNL A   1      40.683  32.988  37.492  1.00  0.00     0.037 A 
ATOM     54  C   UNL A   1      39.951  29.394  31.531  1.00  0.00     0.037 A 
ATOM     55  C   UNL A   1      41.713  32.018  37.237  1.00  0.00     0.049 A 
ATOM     56  C   UNL A   1      41.143  29.203  32.435  1.00  0.00     0.074 A 
ATOM     57  C   UNL A   1      42.799  31.689  38.029  1.00  0.00     0.029 A 
ATOM     58  N   UNL A   1      41.788  31.226  36.102  1.00  0.00    -0.354 N 
ATOM     59  N   UNL A   1      41.405  29.765  33.590  1.00  0.00    -0.248 NA
ATOM     60  C   UNL A   1      42.174  28.254  31.986  1.00  0.00     0.031 C 
ATOM     61  C   UNL A   1      43.560  30.736  37.349  1.00  0.00     0.029 A 
ATOM     62  C   UNL A   1      42.918  30.428  36.161  1.00  0.00     0.049 A 
ATOM     63  H   UNL A   1      41.135  31.230  35.366  1.00  0.00     0.167 HD
ATOM     64  C   UNL A   1      42.611  29.219  34.018  1.00  0.00     0.074 A 
ATOM     65  C   UNL A   1      43.024  28.272  33.004  1.00  0.00     0.031 C 
ATOM     66  C   UNL A   1      43.312  29.481  35.149  1.00  0.00     0.037 A 
BRANCH  53  67
ATOM     67  C   UNL A   1      40.750  33.775  38.766  1.00  0.00     0.057 A 
ATOM     68  C   UNL A   1      41.524  34.939  38.873  1.00  0.00     0.134 A 
ATOM     69  C   UNL A   1      39.992  33.397  39.882  1.00  0.00     0.134 A 
ATOM     70  F   UNL A   1      42.287  35.343  37.847  1.00  0.00    -0.206 F 
ATOM     71  C   UNL A   1      41.546  35.693  40.046  1.00  0.00     0.040 A 
ATOM     72  C   UNL A   1      39.986  34.158  41.052  1.00  0.00     0.040 A 
ATOM     73  F   UNL A   1      39.230  32.293  39.846  1.00  0.00    -0.206 F 
ATOM     74  C   UNL A   1      40.767  35.309  41.136  1.00  0.00     0.006 A 
ENDBRANCH  53  67
BRANCH  54  75
ATOM     75  C   UNL A   1      39.817  28.602  30.280  1.00  0.00     0.057 A 
ATOM     76  C   UNL A   1      39.161  27.366  30.274  1.00  0.00     0.134 A 
ATOM     77  C   UNL A   1      40.350  29.054  29.067  1.00  0.00     0.134 A 
ATOM     78  F   UNL A   1      38.653  26.866  31.410  1.00  0.00    -0.206 F 
ATOM     79  C   UNL A   1      39.046  26.604  29.110  1.00  0.00     0.040 A 
ATOM     80  C   UNL A   1      40.219  28.315  27.889  1.00  0.00     0.040 A 
ATOM     81  F   UNL A   1      40.995  30.228  29.005  1.00  0.00    -0.206 F 
ATOM     82  C   UNL A   1      39.570  27.083  27.910  1.00  0.00     0.006 A 
ENDBRANCH  54  75
BRANCH  66  83
ATOM     83  C   UNL A   1      44.589  28.725  35.375  1.00  0.00     0.057 A 
ATOM     84  C   UNL A   1      45.824  29.212  34.931  1.00  0.00     0.134 A 
ATOM     85  C   UNL A   1      44.594  27.542  36.127  1.00  0.00     0.134 A 
ATOM     86  F   UNL A   1      45.888  30.335  34.199  1.00  0.00    -0.206 F 
ATOM     87  C   UNL A   1      47.017  28.545  35.217  1.00  0.00     0.040 A 
ATOM     88  C   UNL A   1      45.783  26.882  36.444  1.00  0.00     0.040 A 
ATOM     89  F   UNL A   1      43.447  27.027  36.596  1.00  0.00    -0.206 F 
ATOM     90  C   UNL A   1      46.998  27.384  35.987  1.00  0.00     0.006 A 
ENDBRANCH  66  83
ENDBRANCH  40  41
ENDBRANCH  33  35
ENDBRANCH  32  33
ENDBRANCH  31  32
ENDBRANCH  30  31
ENDBRANCH  29  30
ENDBRANCH  28  29
ENDBRANCH   1  28
TORSDOF 21
ENDMDL
MODEL 2
REMARK VINA RESULT:     -10.2      5.418     10.820
REMARK SMILES Cc1c(Cl)cc2c(c1C)O[C@H](C(F)(F)F)C(C(=O)OCCOCCOCCOCCOC(=O)c1ccc(-c3c4nc(c(-c5c(F)cccc5F)c5ccc([nH]5)c(-c5c(F)cccc5F)c5nc(c(-c6c(F)cccc6F)c6ccc3[nH]6)C=C5)C=C4)cc1)=C2
REMARK SMILES IDX 26 1 25 2 24 3 23 4 22 5 21 6 20 7 19 8 17 9 18 10 16 11
REMARK SMILES IDX 1 12 2 13 3 14 8 15 4 16 5 17 7 18 9 19 6 20 10 21 88 22
REMARK SMILES IDX 11 23 12 24 13 25 14 26 15 27 27 28 28 29 29 30 30 31 31 32
REMARK SMILES IDX 32 33 33 34 34 35 35 36 87 37 36 38 86 39 37 40 38 41 39 42
REMARK SMILES IDX 80 43 40 44 85 45 79 46 81 47 41 48 84 49 78 50 77 51 42 53
REMARK SMILES IDX 68 54 51 55 67 56 52 57 55 58 66 59 82 60 53 61 54 62 65 64
REMARK SMILES IDX 83 65 56 66 43 67 44 68 49 69 45 70 46 71 48 72 50 73 47 74
REMARK SMILES IDX 69 75 70 76 75 77 71 78 72 79 74 80 76 81 73 82 57 83 58 84
REMARK SMILES IDX 63 85 59 86 60 87 62 88 64 89 61 90
REMARK H PARENT 81 52 55 63
REMARK Flexibility Score: inf
ROOT
ATOM      1  C   UNL A   1      35.735  21.112  25.707  1.00  0.00     0.188 C 
ENDROOT
BRANCH   1   2
ATOM      2  O   UNL A   1      35.038  20.725  24.520  1.00  0.00    -0.377 OA
BRANCH   2   3
ATOM      3  C   UNL A   1      34.113  19.653  24.608  1.00  0.00     0.188 C 
BRANCH   3   4
ATOM      4  C   UNL A   1      33.163  19.764  25.817  1.00  0.00     0.188 C 
BRANCH   4   5
ATOM      5  O   UNL A   1      31.908  20.334  25.479  1.00  0.00    -0.376 OA
BRANCH   5   6
ATOM      6  C   UNL A   1      31.831  21.680  25.042  1.00  0.00     0.202 C 
BRANCH   6   7
ATOM      7  C   UNL A   1      32.151  22.863  25.974  1.00  0.00     0.261 C 
BRANCH   7   8
ATOM      8  O   UNL A   1      33.348  23.597  25.702  1.00  0.00    -0.460 OA
BRANCH   8   9
ATOM      9  C   UNL A   1      33.483  24.146  24.481  1.00  0.00     0.338 C 
ATOM     10  O   UNL A   1      33.788  23.572  23.452  1.00  0.00    -0.246 OA
BRANCH   9  11
ATOM     11  C   UNL A   1      33.026  25.551  24.570  1.00  0.00     0.087 C 
ATOM     12  C   UNL A   1      31.574  31.641  26.392  1.00  0.00     0.046 C 
ATOM     13  C   UNL A   1      32.167  30.305  26.018  1.00  0.00    -0.026 A 
ATOM     14  C   UNL A   1      33.303  29.841  26.715  1.00  0.00     0.045 A 
ATOM     15  C   UNL A   1      31.572  29.453  25.053  1.00  0.00    -0.004 A 
ATOM     16  Cl  UNL A   1      34.089  30.794  27.929  1.00  0.00    -0.084 Cl
ATOM     17  C   UNL A   1      33.823  28.566  26.488  1.00  0.00     0.032 A 
ATOM     18  C   UNL A   1      32.132  28.175  24.815  1.00  0.00     0.131 A 
ATOM     19  C   UNL A   1      30.352  29.841  24.250  1.00  0.00     0.049 C 
ATOM     20  C   UNL A   1      33.216  27.717  25.566  1.00  0.00     0.019 A 
ATOM     21  O   UNL A   1      31.544  27.419  23.839  1.00  0.00    -0.475 OA
ATOM     22  C   UNL A   1      33.656  26.337  25.451  1.00  0.00     0.027 C 
ATOM     23  C   UNL A   1      31.960  26.044  23.628  1.00  0.00     0.316 C 
BRANCH  23  24
ATOM     24  C   UNL A   1      30.701  25.166  23.657  1.00  0.00     0.430 C 
ATOM     25  F   UNL A   1      29.626  25.831  23.170  1.00  0.00    -0.167 F 
ATOM     26  F   UNL A   1      30.838  24.049  22.906  1.00  0.00    -0.167 F 
ATOM     27  F   UNL A   1      30.396  24.771  24.915  1.00  0.00    -0.167 F 
ENDBRANCH  23  24
ENDBRANCH   9  11
ENDBRANCH   8   9
ENDBRANCH   7   8
ENDBRANCH   6   7
ENDBRANCH   5   6
ENDBRANCH   4   5
ENDBRANCH   3   4
ENDBRANCH   2   3
ENDBRANCH   1   2
BRANCH   1  28
ATOM     28  C   UNL A   1      36.909  22.123  25.691  1.00  0.00     0.188 C 
BRANCH  28  29
ATOM     29  O   UNL A   1      38.199  21.525  25.679  1.00  0.00    -0.376 OA
BRANCH  29  30
ATOM     30  C   UNL A   1      38.325  20.234  25.108  1.00  0.00     0.202 C 
BRANCH  30  31
ATOM     31  C   UNL A   1      39.365  19.320  25.767  1.00  0.00     0.261 C 
BRANCH  31  32
ATOM     32  O   UNL A   1      40.732  19.580  25.412  1.00  0.00    -0.460 OA
BRANCH  32  33
ATOM     33  C   UNL A   1      41.620  19.719  26.418  1.00  0.00     0.338 C 
ATOM     34  O   UNL A   1      42.373  18.870  26.864  1.00  0.00    -0.246 OA
BRANCH  33  35
ATOM     35  C   UNL A   1      41.666  21.152  26.769  1.00  0.00     0.060 A 
ATOM     36  C   UNL A   1      41.444  22.108  25.768  1.00  0.00     0.016 A 
ATOM     37  C   UNL A   1      41.907  21.548  28.087  1.00  0.00     0.016 A 
ATOM     38  C   UNL A   1      41.489  23.466  26.081  1.00  0.00     0.010 A 
ATOM     39  C   UNL A   1      41.979  22.908  28.393  1.00  0.00     0.010 A 
ATOM     40  C   UNL A   1      41.802  23.871  27.385  1.00  0.00    -0.014 A 
BRANCH  40  41
ATOM     41  C   UNL A   1      42.163  25.285  27.644  1.00  0.00     0.031 A 
ATOM     42  C   UNL A   1      43.509  25.767  27.177  1.00  0.00     0.074 A 
ATOM     43  C   UNL A   1      41.312  26.132  28.249  1.00  0.00     0.049 A 
ATOM     44  N   UNL A   1      44.064  26.942  27.310  1.00  0.00    -0.248 NA
ATOM     45  C   UNL A   1      44.339  24.786  26.455  1.00  0.00     0.031 C 
ATOM     46  C   UNL A   1      39.963  25.801  28.699  1.00  0.00     0.029 A 
ATOM     47  N   UNL A   1      41.466  27.455  28.585  1.00  0.00    -0.354 N 
ATOM     48  C   UNL A   1      45.300  26.846  26.686  1.00  0.00     0.074 A 
ATOM     49  C   UNL A   1      45.434  25.487  26.208  1.00  0.00     0.031 C 
ATOM     50  C   UNL A   1      39.411  26.893  29.256  1.00  0.00     0.029 A 
ATOM     51  C   UNL A   1      40.377  27.990  29.231  1.00  0.00     0.049 A 
ATOM     52  H   UNL A   1      42.279  27.971  28.384  1.00  0.00     0.167 HD
ATOM     53  C   UNL A   1      46.235  27.808  26.511  1.00  0.00     0.037 A 
ATOM     54  C   UNL A   1      40.194  29.219  29.752  1.00  0.00     0.037 A 
ATOM     55  C   UNL A   1      46.105  29.155  26.994  1.00  0.00     0.049 A 
ATOM     56  C   UNL A   1      41.295  30.244  29.639  1.00  0.00     0.074 A 
ATOM     57  C   UNL A   1      47.001  30.202  26.870  1.00  0.00     0.029 A 
ATOM     58  N   UNL A   1      45.014  29.640  27.697  1.00  0.00    -0.354 N 
ATOM     59  N   UNL A   1      42.457  30.148  29.037  1.00  0.00    -0.248 NA
ATOM     60  C   UNL A   1      41.062  31.547  30.280  1.00  0.00     0.031 C 
ATOM     61  C   UNL A   1      46.475  31.307  27.544  1.00  0.00     0.029 A 
ATOM     62  C   UNL A   1      45.226  30.965  28.038  1.00  0.00     0.049 A 
ATOM     63  H   UNL A   1      44.208  29.121  27.919  1.00  0.00     0.167 HD
ATOM     64  C   UNL A   1      43.077  31.382  29.203  1.00  0.00     0.074 A 
ATOM     65  C   UNL A   1      42.159  32.215  29.950  1.00  0.00     0.031 C 
ATOM     66  C   UNL A   1      44.299  31.786  28.774  1.00  0.00     0.037 A 
BRANCH  53  67
ATOM     67  C   UNL A   1      47.487  27.435  25.776  1.00  0.00     0.057 A 
ATOM     68  C   UNL A   1      48.585  26.864  26.433  1.00  0.00     0.134 A 
ATOM     69  C   UNL A   1      47.577  27.600  24.388  1.00  0.00     0.134 A 
ATOM     70  F   UNL A   1      48.569  26.697  27.763  1.00  0.00    -0.206 F 
ATOM     71  C   UNL A   1      49.730  26.477  25.736  1.00  0.00     0.040 A 
ATOM     72  C   UNL A   1      48.707  27.193  23.677  1.00  0.00     0.040 A 
ATOM     73  F   UNL A   1      46.561  28.142  23.698  1.00  0.00    -0.206 F 
ATOM     74  C   UNL A   1      49.788  26.631  24.352  1.00  0.00     0.006 A 
ENDBRANCH  53  67
BRANCH  54  75
ATOM     75  C   UNL A   1      38.916  29.557  30.431  1.00  0.00     0.057 A 
ATOM     76  C   UNL A   1      37.874  30.188  29.741  1.00  0.00     0.134 A 
ATOM     77  C   UNL A   1      38.709  29.270  31.786  1.00  0.00     0.134 A 
ATOM     78  F   UNL A   1      38.022  30.514  28.449  1.00  0.00    -0.206 F 
ATOM     79  C   UNL A   1      36.677  30.528  30.373  1.00  0.00     0.040 A 
ATOM     80  C   UNL A   1      37.506  29.580  32.424  1.00  0.00     0.040 A 
ATOM     81  F   UNL A   1      39.668  28.671  32.506  1.00  0.00    -0.206 F 
ATOM     82  C   UNL A   1      36.488  30.216  31.719  1.00  0.00     0.006 A 
ENDBRANCH  54  75
BRANCH  66  83
ATOM     83  C   UNL A   1      44.718  33.196  29.075  1.00  0.00     0.057 A 
ATOM     84  C   UNL A   1      45.452  33.519  30.223  1.00  0.00     0.134 A 
ATOM     85  C   UNL A   1      44.464  34.228  28.160  1.00  0.00     0.134 A 
ATOM     86  F   UNL A   1      45.722  32.580  31.142  1.00  0.00    -0.206 F 
ATOM     87  C   UNL A   1      45.911  34.817  30.454  1.00  0.00     0.040 A 
ATOM     88  C   UNL A   1      44.941  35.523  28.367  1.00  0.00     0.040 A 
ATOM     89  F   UNL A   1      43.778  33.985  27.033  1.00  0.00    -0.206 F 
ATOM     90  C   UNL A   1      45.666  35.820  29.519  1.00  0.00     0.006 A 
ENDBRANCH  66  83
ENDBRANCH  40  41
ENDBRANCH  33  35
ENDBRANCH  32  33
ENDBRANCH  31  32
ENDBRANCH  30  31
ENDBRANCH  29  30
ENDBRANCH  28  29
ENDBRANCH   1  28
TORSDOF 21
ENDMDL
MODEL 3
REMARK VINA RESULT:     -10.0      6.062     10.802
REMARK SMILES Cc1c(Cl)cc2c(c1C)O[C@H](C(F)(F)F)C(C(=O)OCCOCCOCCOCCOC(=O)c1ccc(-c3c4nc(c(-c5c(F)cccc5F)c5ccc([nH]5)c(-c5c(F)cccc5F)c5nc(c(-c6c(F)cccc6F)c6ccc3[nH]6)C=C5)C=C4)cc1)=C2
REMARK SMILES IDX 26 1 25 2 24 3 23 4 22 5 21 6 20 7 19 8 17 9 18 10 16 11
REMARK SMILES IDX 1 12 2 13 3 14 8 15 4 16 5 17 7 18 9 19 6 20 10 21 88 22
REMARK SMILES IDX 11 23 12 24 13 25 14 26 15 27 27 28 28 29 29 30 30 31 31 32
REMARK SMILES IDX 32 33 33 34 34 35 35 36 87 37 36 38 86 39 37 40 38 41 39 42
REMARK SMILES IDX 80 43 40 44 85 45 79 46 81 47 41 48 84 49 78 50 77 51 42 53
REMARK SMILES IDX 68 54 51 55 67 56 52 57 55 58 66 59 82 60 53 61 54 62 65 64
REMARK SMILES IDX 83 65 56 66 43 67 44 68 49 69 45 70 46 71 48 72 50 73 47 74
REMARK SMILES IDX 69 75 70 76 75 77 71 78 72 79 74 80 76 81 73 82 57 83 58 84
REMARK SMILES IDX 63 85 59 86 60 87 62 88 64 89 61 90
REMARK H PARENT 81 52 55 63
REMARK Flexibility Score: inf
ROOT
ATOM      1  C   UNL A   1      35.437  21.705  25.715  1.00  0.00     0.188 C 
ENDROOT
BRANCH   1   2
ATOM      2  O   UNL A   1      34.449  20.683  25.869  1.00  0.00    -0.377 OA
BRANCH   2   3
ATOM      3  C   UNL A   1      34.021  19.988  24.708  1.00  0.00     0.188 C 
BRANCH   3   4
ATOM      4  C   UNL A   1      32.582  20.341  24.281  1.00  0.00     0.188 C 
BRANCH   4   5
ATOM      5  O   UNL A   1      31.777  20.771  25.369  1.00  0.00    -0.376 OA
BRANCH   5   6
ATOM      6  C   UNL A   1      31.264  22.092  25.398  1.00  0.00     0.202 C 
BRANCH   6   7
ATOM      7  C   UNL A   1      31.736  23.132  26.430  1.00  0.00     0.261 C 
BRANCH   7   8
ATOM      8  O   UNL A   1      32.892  23.903  26.092  1.00  0.00    -0.460 OA
BRANCH   8   9
ATOM      9  C   UNL A   1      32.980  24.382  24.838  1.00  0.00     0.338 C 
ATOM     10  O   UNL A   1      33.182  23.740  23.823  1.00  0.00    -0.246 OA
BRANCH   9  11
ATOM     11  C   UNL A   1      32.615  25.816  24.880  1.00  0.00     0.087 C 
ATOM     12  C   UNL A   1      31.566  32.044  26.501  1.00  0.00     0.046 C 
ATOM     13  C   UNL A   1      32.070  30.661  26.171  1.00  0.00    -0.026 A 
ATOM     14  C   UNL A   1      33.177  30.148  26.881  1.00  0.00     0.045 A 
ATOM     15  C   UNL A   1      31.418  29.818  25.236  1.00  0.00    -0.004 A 
ATOM     16  Cl  UNL A   1      34.027  31.088  28.062  1.00  0.00    -0.084 Cl
ATOM     17  C   UNL A   1      33.612  28.835  26.696  1.00  0.00     0.032 A 
ATOM     18  C   UNL A   1      31.893  28.499  25.040  1.00  0.00     0.131 A 
ATOM     19  C   UNL A   1      30.222  30.258  24.422  1.00  0.00     0.049 C 
ATOM     20  C   UNL A   1      32.948  27.997  25.803  1.00  0.00     0.019 A 
ATOM     21  O   UNL A   1      31.254  27.752  24.090  1.00  0.00    -0.475 OA
ATOM     22  C   UNL A   1      33.298  26.589  25.734  1.00  0.00     0.027 C 
ATOM     23  C   UNL A   1      31.579  26.345  23.925  1.00  0.00     0.316 C 
BRANCH  23  24
ATOM     24  C   UNL A   1      30.266  25.553  23.985  1.00  0.00     0.430 C 
ATOM     25  F   UNL A   1      29.230  26.280  23.502  1.00  0.00    -0.167 F 
ATOM     26  F   UNL A   1      30.319  24.418  23.248  1.00  0.00    -0.167 F 
ATOM     27  F   UNL A   1      29.955  25.196  25.252  1.00  0.00    -0.167 F 
ENDBRANCH  23  24
ENDBRANCH   9  11
ENDBRANCH   8   9
ENDBRANCH   7   8
ENDBRANCH   6   7
ENDBRANCH   5   6
ENDBRANCH   4   5
ENDBRANCH   3   4
ENDBRANCH   2   3
ENDBRANCH   1   2
BRANCH   1  28
ATOM     28  C   UNL A   1      36.341  21.806  24.460  1.00  0.00     0.188 C 
BRANCH  28  29
ATOM     29  O   UNL A   1      37.649  22.302  24.716  1.00  0.00    -0.376 OA
BRANCH  29  30
ATOM     30  C   UNL A   1      38.387  21.709  25.771  1.00  0.00     0.202 C 
BRANCH  30  31
ATOM     31  C   UNL A   1      39.245  20.501  25.376  1.00  0.00     0.261 C 
BRANCH  31  32
ATOM     32  O   UNL A   1      39.976  19.884  26.447  1.00  0.00    -0.460 OA
BRANCH  32  33
ATOM     33  C   UNL A   1      41.272  19.583  26.223  1.00  0.00     0.338 C 
ATOM     34  O   UNL A   1      41.723  18.551  25.755  1.00  0.00    -0.246 OA
BRANCH  33  35
ATOM     35  C   UNL A   1      42.058  20.809  26.467  1.00  0.00     0.060 A 
ATOM     36  C   UNL A   1      42.220  21.266  27.782  1.00  0.00     0.016 A 
ATOM     37  C   UNL A   1      42.649  21.491  25.402  1.00  0.00     0.016 A 
ATOM     38  C   UNL A   1      42.953  22.425  28.030  1.00  0.00     0.010 A 
ATOM     39  C   UNL A   1      43.361  22.666  25.649  1.00  0.00     0.010 A 
ATOM     40  C   UNL A   1      43.488  23.155  26.960  1.00  0.00    -0.014 A 
BRANCH  40  41
ATOM     41  C   UNL A   1      43.982  24.533  27.190  1.00  0.00     0.031 A 
ATOM     42  C   UNL A   1      42.986  25.580  27.605  1.00  0.00     0.074 A 
ATOM     43  C   UNL A   1      45.284  24.847  27.066  1.00  0.00     0.049 A 
ATOM     44  N   UNL A   1      43.164  26.854  27.835  1.00  0.00    -0.248 NA
ATOM     45  C   UNL A   1      41.597  25.123  27.790  1.00  0.00     0.031 C 
ATOM     46  C   UNL A   1      46.352  23.912  26.723  1.00  0.00     0.029 A 
ATOM     47  N   UNL A   1      45.925  26.052  27.221  1.00  0.00    -0.354 N 
ATOM     48  C   UNL A   1      41.918  27.348  28.197  1.00  0.00     0.074 A 
ATOM     49  C   UNL A   1      40.982  26.248  28.118  1.00  0.00     0.031 C 
ATOM     50  C   UNL A   1      47.518  24.580  26.691  1.00  0.00     0.029 A 
ATOM     51  C   UNL A   1      47.276  25.992  26.979  1.00  0.00     0.049 A 
ATOM     52  H   UNL A   1      45.460  26.880  27.479  1.00  0.00     0.167 HD
ATOM     53  C   UNL A   1      41.586  28.602  28.577  1.00  0.00     0.037 A 
ATOM     54  C   UNL A   1      48.201  26.972  26.977  1.00  0.00     0.037 A 
ATOM     55  C   UNL A   1      42.514  29.697  28.647  1.00  0.00     0.049 A 
ATOM     56  C   UNL A   1      47.786  28.386  27.301  1.00  0.00     0.074 A 
ATOM     57  C   UNL A   1      42.272  31.008  29.017  1.00  0.00     0.029 A 
ATOM     58  N   UNL A   1      43.862  29.610  28.335  1.00  0.00    -0.354 N 
ATOM     59  N   UNL A   1      46.608  28.842  27.654  1.00  0.00    -0.248 NA
ATOM     60  C   UNL A   1      48.828  29.421  27.224  1.00  0.00     0.031 C 
ATOM     61  C   UNL A   1      43.462  31.726  28.878  1.00  0.00     0.029 A 
ATOM     62  C   UNL A   1      44.458  30.851  28.477  1.00  0.00     0.049 A 
ATOM     63  H   UNL A   1      44.326  28.788  28.054  1.00  0.00     0.167 HD
ATOM     64  C   UNL A   1      46.773  30.206  27.866  1.00  0.00     0.074 A 
ATOM     65  C   UNL A   1      48.167  30.503  27.615  1.00  0.00     0.031 C 
ATOM     66  C   UNL A   1      45.851  31.130  28.235  1.00  0.00     0.037 A 
BRANCH  53  67
ATOM     67  C   UNL A   1      40.154  28.863  28.939  1.00  0.00     0.057 A 
ATOM     68  C   UNL A   1      39.196  29.181  27.967  1.00  0.00     0.134 A 
ATOM     69  C   UNL A   1      39.717  28.743  30.264  1.00  0.00     0.134 A 
ATOM     70  F   UNL A   1      39.553  29.330  26.683  1.00  0.00    -0.206 F 
ATOM     71  C   UNL A   1      37.856  29.378  28.303  1.00  0.00     0.040 A 
ATOM     72  C   UNL A   1      38.375  28.911  30.608  1.00  0.00     0.040 A 
ATOM     73  F   UNL A   1      40.585  28.441  31.242  1.00  0.00    -0.206 F 
ATOM     74  C   UNL A   1      37.441  29.232  29.625  1.00  0.00     0.006 A 
ENDBRANCH  53  67
BRANCH  54  75
ATOM     75  C   UNL A   1      49.618  26.657  26.659  1.00  0.00     0.057 A 
ATOM     76  C   UNL A   1      50.542  26.373  27.672  1.00  0.00     0.134 A 
ATOM     77  C   UNL A   1      50.087  26.642  25.340  1.00  0.00     0.134 A 
ATOM     78  F   UNL A   1      50.162  26.398  28.958  1.00  0.00    -0.206 F 
ATOM     79  C   UNL A   1      51.880  26.094  27.387  1.00  0.00     0.040 A 
ATOM     80  C   UNL A   1      51.416  26.339  25.038  1.00  0.00     0.040 A 
ATOM     81  F   UNL A   1      49.255  26.910  24.322  1.00  0.00    -0.206 F 
ATOM     82  C   UNL A   1      52.318  26.069  26.063  1.00  0.00     0.006 A 
ENDBRANCH  54  75
BRANCH  66  83
ATOM     83  C   UNL A   1      46.310  32.548  28.415  1.00  0.00     0.057 A 
ATOM     84  C   UNL A   1      46.814  33.011  29.636  1.00  0.00     0.134 A 
ATOM     85  C   UNL A   1      46.335  33.434  27.329  1.00  0.00     0.134 A 
ATOM     86  F   UNL A   1      46.811  32.216  30.717  1.00  0.00    -0.206 F 
ATOM     87  C   UNL A   1      47.317  34.306  29.774  1.00  0.00     0.040 A 
ATOM     88  C   UNL A   1      46.862  34.721  27.447  1.00  0.00     0.040 A 
ATOM     89  F   UNL A   1      45.881  33.050  26.126  1.00  0.00    -0.206 F 
ATOM     90  C   UNL A   1      47.353  35.160  28.674  1.00  0.00     0.006 A 
ENDBRANCH  66  83
ENDBRANCH  40  41
ENDBRANCH  33  35
ENDBRANCH  32  33
ENDBRANCH  31  32
ENDBRANCH  30  31
ENDBRANCH  29  30
ENDBRANCH  28  29
ENDBRANCH   1  28
TORSDOF 21
ENDMDL
